# generated using pymatgen
data_K2Er(NO3)5
_symmetry_space_group_name_H-M   'P 1'
_cell_length_a   12.19904300
_cell_length_b   8.09909100
_cell_length_c   14.52696908
_cell_angle_alpha   77.43531206
_cell_angle_beta   90.00000000
_cell_angle_gamma   90.00000000
_symmetry_Int_Tables_number   1
_chemical_formula_structural   K2Er(NO3)5
_chemical_formula_sum   'K8 Er4 N20 O60'
_cell_volume   1400.90786318
_cell_formula_units_Z   4
loop_
 _symmetry_equiv_pos_site_id
 _symmetry_equiv_pos_as_xyz
  1  'x, y, z'
loop_
 _atom_site_type_symbol
 _atom_site_label
 _atom_site_symmetry_multiplicity
 _atom_site_fract_x
 _atom_site_fract_y
 _atom_site_fract_z
 _atom_site_occupancy
  K  K0  1  0.83839100  0.20227000  0.02844900  1
  K  K1  1  0.88685300  0.63095900  0.39177300  1
  K  K2  1  0.33839100  0.79773000  0.47155100  1
  K  K3  1  0.38685300  0.36904100  0.10822700  1
  K  K4  1  0.66160900  0.20227000  0.52844900  1
  K  K5  1  0.11314700  0.36904100  0.60822700  1
  K  K6  1  0.61314700  0.63095900  0.89177300  1
  K  K7  1  0.16160900  0.79773000  0.97155100  1
  Er  Er8  1  0.94857400  0.74909600  0.73236100  1
  Er  Er9  1  0.55142600  0.74909600  0.23236100  1
  Er  Er10  1  0.44857400  0.25090400  0.76763900  1
  Er  Er11  1  0.05142600  0.25090400  0.26763900  1
  N  N12  1  0.51215000  0.41434500  0.34160100  1
  N  N13  1  0.80913100  0.59874200  0.61386500  1
  N  N14  1  0.64362900  0.87092000  0.38717000  1
  N  N15  1  0.41249500  0.91270400  0.87690700  1
  N  N16  1  0.08750500  0.91270400  0.37690700  1
  N  N17  1  0.81675800  0.24153000  0.29415200  1
  N  N18  1  0.01215000  0.58565500  0.15839900  1
  N  N19  1  0.19086900  0.40125800  0.38613500  1
  N  N20  1  0.98785000  0.41434500  0.84160100  1
  N  N21  1  0.31675800  0.75847000  0.20584800  1
  N  N22  1  0.35637100  0.12908000  0.61283000  1
  N  N23  1  0.58750500  0.08729600  0.12309300  1
  N  N24  1  0.91249500  0.08729600  0.62309300  1
  N  N25  1  0.85637100  0.87092000  0.88717000  1
  N  N26  1  0.18324200  0.75847000  0.70584800  1
  N  N27  1  0.30913100  0.40125800  0.88613500  1
  N  N28  1  0.48785000  0.58565500  0.65839900  1
  N  N29  1  0.14362900  0.12908000  0.11283000  1
  N  N30  1  0.68324200  0.24153000  0.79415200  1
  N  N31  1  0.69086900  0.59874200  0.11386500  1
  O  O32  1  0.33728800  0.02547000  0.86731000  1
  O  O33  1  0.16271200  0.02547000  0.36731000  1
  O  O34  1  0.62056100  0.26542100  0.86127500  1
  O  O35  1  0.00514900  0.03944000  0.66236400  1
  O  O36  1  0.99126500  0.72824600  0.11278000  1
  O  O37  1  0.99485100  0.96056000  0.33763600  1
  O  O38  1  0.37943900  0.73457900  0.13872500  1
  O  O39  1  0.29791600  0.19143300  0.67116800  1
  O  O40  1  0.39726000  0.76552100  0.92129000  1
  O  O41  1  0.25271500  0.45995500  0.43838600  1
  O  O42  1  0.56089900  0.52683400  0.37743100  1
  O  O43  1  0.51268200  0.53651600  0.74648800  1
  O  O44  1  0.18461100  0.08736200  0.04386200  1
  O  O45  1  0.63350800  0.22815700  0.71765700  1
  O  O46  1  0.78302600  0.60796700  0.69779600  1
  O  O47  1  0.10274000  0.76552100  0.42129000  1
  O  O48  1  0.01268200  0.46348400  0.75351200  1
  O  O49  1  0.48731800  0.46348400  0.25351200  1
  O  O50  1  0.70208400  0.80856700  0.32883200  1
  O  O51  1  0.68461100  0.91263800  0.45613800  1
  O  O52  1  0.09459400  0.34393000  0.41412000  1
  O  O53  1  0.74728500  0.54004500  0.56161400  1
  O  O54  1  0.06089900  0.47316600  0.12256900  1
  O  O55  1  0.86649200  0.22815700  0.21765700  1
  O  O56  1  0.24728500  0.45995500  0.93838600  1
  O  O57  1  0.81538900  0.91263800  0.95613800  1
  O  O58  1  0.45888600  0.11464100  0.63251500  1
  O  O59  1  0.36649200  0.77184300  0.28234300  1
  O  O60  1  0.20208400  0.19143300  0.17116800  1
  O  O61  1  0.28363000  0.76847600  0.69786700  1
  O  O62  1  0.31538900  0.08736200  0.54386200  1
  O  O63  1  0.28302600  0.39203300  0.80220400  1
  O  O64  1  0.83728800  0.97453000  0.63269000  1
  O  O65  1  0.79791600  0.80856700  0.82883200  1
  O  O66  1  0.21697400  0.39203300  0.30220400  1
  O  O67  1  0.49485100  0.03944000  0.16236400  1
  O  O68  1  0.54111400  0.88535900  0.36748500  1
  O  O69  1  0.13350800  0.77184300  0.78234300  1
  O  O70  1  0.59459400  0.65607000  0.08588000  1
  O  O71  1  0.50514900  0.96056000  0.83763600  1
  O  O72  1  0.21637000  0.76847600  0.19786700  1
  O  O73  1  0.66271200  0.97453000  0.13269000  1
  O  O74  1  0.00873500  0.27175400  0.88722000  1
  O  O75  1  0.04111400  0.11464100  0.13251500  1
  O  O76  1  0.12056100  0.73457900  0.63872500  1
  O  O77  1  0.87943900  0.26542100  0.36127500  1
  O  O78  1  0.71637000  0.23152400  0.30213300  1
  O  O79  1  0.78363000  0.23152400  0.80213300  1
  O  O80  1  0.89726000  0.23447900  0.57871000  1
  O  O81  1  0.90540600  0.65607000  0.58588000  1
  O  O82  1  0.40540600  0.34393000  0.91412000  1
  O  O83  1  0.95888600  0.88535900  0.86748500  1
  O  O84  1  0.93910100  0.52683400  0.87743100  1
  O  O85  1  0.50873500  0.72824600  0.61278000  1
  O  O86  1  0.71697400  0.60796700  0.19779600  1
  O  O87  1  0.98731800  0.53651600  0.24648800  1
  O  O88  1  0.60274000  0.23447900  0.07871000  1
  O  O89  1  0.75271500  0.54004500  0.06161400  1
  O  O90  1  0.49126500  0.27175400  0.38722000  1
  O  O91  1  0.43910100  0.47316600  0.62256900  1
