# generated using pymatgen
data_Hf5CoAs3
_symmetry_space_group_name_H-M   'P 1'
_cell_length_a   3.68050100
_cell_length_b   10.45516900
_cell_length_c   17.41794000
_cell_angle_alpha   90.00000000
_cell_angle_beta   90.00000000
_cell_angle_gamma   90.00000000
_symmetry_Int_Tables_number   1
_chemical_formula_structural   Hf5CoAs3
_chemical_formula_sum   'Hf20 Co4 As12'
_cell_volume   670.24685916
_cell_formula_units_Z   4
loop_
 _symmetry_equiv_pos_site_id
 _symmetry_equiv_pos_as_xyz
  1  'x, y, z'
loop_
 _atom_site_type_symbol
 _atom_site_label
 _atom_site_symmetry_multiplicity
 _atom_site_fract_x
 _atom_site_fract_y
 _atom_site_fract_z
 _atom_site_occupancy
  Hf  Hf0  1  0.25000000  0.18470000  0.36803300  1
  Hf  Hf1  1  0.75000000  0.81530000  0.63196700  1
  Hf  Hf2  1  0.75000000  0.68470000  0.13196700  1
  Hf  Hf3  1  0.25000000  0.31530000  0.86803300  1
  Hf  Hf4  1  0.25000000  0.87959400  0.47814400  1
  Hf  Hf5  1  0.75000000  0.12040600  0.52185600  1
  Hf  Hf6  1  0.75000000  0.37959400  0.02185600  1
  Hf  Hf7  1  0.25000000  0.62040600  0.97814400  1
  Hf  Hf8  1  0.25000000  0.94323200  0.07731400  1
  Hf  Hf9  1  0.75000000  0.05676800  0.92268600  1
  Hf  Hf10  1  0.75000000  0.44323200  0.42268600  1
  Hf  Hf11  1  0.25000000  0.55676800  0.57731400  1
  Hf  Hf12  1  0.25000000  0.24192100  0.16693800  1
  Hf  Hf13  1  0.75000000  0.75807900  0.83306200  1
  Hf  Hf14  1  0.75000000  0.74192100  0.33306200  1
  Hf  Hf15  1  0.25000000  0.25807900  0.66693800  1
  Hf  Hf16  1  0.25000000  0.51597300  0.27619200  1
  Hf  Hf17  1  0.75000000  0.48402700  0.72380800  1
  Hf  Hf18  1  0.75000000  0.01597300  0.22380800  1
  Hf  Hf19  1  0.25000000  0.98402700  0.77619200  1
  Co  Co20  1  0.25000000  0.63132600  0.40837700  1
  Co  Co21  1  0.75000000  0.36867400  0.59162300  1
  Co  Co22  1  0.75000000  0.13132600  0.09162300  1
  Co  Co23  1  0.25000000  0.86867400  0.90837700  1
  As  As24  1  0.25000000  0.49119800  0.11884400  1
  As  As25  1  0.75000000  0.50880200  0.88115600  1
  As  As26  1  0.75000000  0.99119800  0.38115600  1
  As  As27  1  0.25000000  0.00880200  0.61884400  1
  As  As28  1  0.25000000  0.81471400  0.21930900  1
  As  As29  1  0.75000000  0.18528600  0.78069100  1
  As  As30  1  0.75000000  0.31471400  0.28069100  1
  As  As31  1  0.25000000  0.68528600  0.71930900  1
  As  As32  1  0.25000000  0.18872300  0.00730100  1
  As  As33  1  0.75000000  0.81127700  0.99269900  1
  As  As34  1  0.75000000  0.68872300  0.49269900  1
  As  As35  1  0.25000000  0.31127700  0.50730100  1
