# generated using pymatgen
data_Ca5(SiN3)2
_symmetry_space_group_name_H-M   'P 1'
_cell_length_a   5.79064196
_cell_length_b   5.79064196
_cell_length_c   12.77704047
_cell_angle_alpha   81.36425277
_cell_angle_beta   81.36425277
_cell_angle_gamma   63.24178478
_symmetry_Int_Tables_number   1
_chemical_formula_structural   Ca5(SiN3)2
_chemical_formula_sum   'Ca10 Si4 N12'
_cell_volume   376.56040318
_cell_formula_units_Z   2
loop_
 _symmetry_equiv_pos_site_id
 _symmetry_equiv_pos_as_xyz
  1  'x, y, z'
loop_
 _atom_site_type_symbol
 _atom_site_label
 _atom_site_symmetry_multiplicity
 _atom_site_fract_x
 _atom_site_fract_y
 _atom_site_fract_z
 _atom_site_occupancy
  Ca  Ca0  1  0.32444000  0.80520100  0.00092600  1
  Ca  Ca1  1  0.61767700  0.38232300  0.25000000  1
  Ca  Ca2  1  0.06787400  0.23859600  0.78404700  1
  Ca  Ca3  1  0.38232300  0.61767700  0.75000000  1
  Ca  Ca4  1  0.19479900  0.67556000  0.49907400  1
  Ca  Ca5  1  0.80520100  0.32444000  0.50092600  1
  Ca  Ca6  1  0.23859600  0.06787400  0.28404700  1
  Ca  Ca7  1  0.67556000  0.19479900  0.99907400  1
  Ca  Ca8  1  0.93212600  0.76140400  0.21595300  1
  Ca  Ca9  1  0.76140400  0.93212600  0.71595300  1
  Si  Si10  1  0.09327800  0.35331800  0.07606600  1
  Si  Si11  1  0.35331800  0.09327800  0.57606600  1
  Si  Si12  1  0.64668200  0.90672200  0.42393400  1
  Si  Si13  1  0.90672200  0.64668200  0.92393400  1
  N  N14  1  0.60930500  0.69270500  0.35195400  1
  N  N15  1  0.10161300  0.01512900  0.62745500  1
  N  N16  1  0.65556900  0.79273500  0.56243200  1
  N  N17  1  0.01512900  0.10161300  0.12745500  1
  N  N18  1  0.39069500  0.30729500  0.64804600  1
  N  N19  1  0.34443100  0.20726500  0.43756800  1
  N  N20  1  0.98487100  0.89838700  0.87254500  1
  N  N21  1  0.69270500  0.60930500  0.85195400  1
  N  N22  1  0.20726500  0.34443100  0.93756800  1
  N  N23  1  0.89838700  0.98487100  0.37254500  1
  N  N24  1  0.79273500  0.65556900  0.06243200  1
  N  N25  1  0.30729500  0.39069500  0.14804600  1
