# generated using pymatgen
data_Ba3ZnIr2O9
_symmetry_space_group_name_H-M   'P 1'
_cell_length_a   5.85980253
_cell_length_b   5.85980253
_cell_length_c   14.47813800
_cell_angle_alpha   90.00000000
_cell_angle_beta   90.00000000
_cell_angle_gamma   120.00000593
_symmetry_Int_Tables_number   1
_chemical_formula_structural   Ba3ZnIr2O9
_chemical_formula_sum   'Ba6 Zn2 Ir4 O18'
_cell_volume   430.53580887
_cell_formula_units_Z   2
loop_
 _symmetry_equiv_pos_site_id
 _symmetry_equiv_pos_as_xyz
  1  'x, y, z'
loop_
 _atom_site_type_symbol
 _atom_site_label
 _atom_site_symmetry_multiplicity
 _atom_site_fract_x
 _atom_site_fract_y
 _atom_site_fract_z
 _atom_site_occupancy
  Ba  Ba0  1  0.33333300  0.66666700  0.91278600  1
  Ba  Ba1  1  0.66666700  0.33333300  0.08721400  1
  Ba  Ba2  1  0.00000000  0.00000000  0.25000000  1
  Ba  Ba3  1  0.33333300  0.66666700  0.58721400  1
  Ba  Ba4  1  0.66666700  0.33333300  0.41278600  1
  Ba  Ba5  1  0.00000000  0.00000000  0.75000000  1
  Zn  Zn6  1  0.00000000  0.00000000  0.00000000  1
  Zn  Zn7  1  0.00000000  0.00000000  0.50000000  1
  Ir  Ir8  1  0.33333300  0.66666700  0.34341100  1
  Ir  Ir9  1  0.66666700  0.33333300  0.65658900  1
  Ir  Ir10  1  0.33333300  0.66666700  0.15658900  1
  Ir  Ir11  1  0.66666700  0.33333300  0.84341100  1
  O  O12  1  0.51495500  0.48504500  0.75000000  1
  O  O13  1  0.65776800  0.82888400  0.08285500  1
  O  O14  1  0.17111600  0.34223200  0.08285500  1
  O  O15  1  0.48504500  0.97008900  0.25000000  1
  O  O16  1  0.65776800  0.82888400  0.41714500  1
  O  O17  1  0.82888400  0.65776800  0.58285500  1
  O  O18  1  0.34223200  0.17111600  0.91714500  1
  O  O19  1  0.51495500  0.02991100  0.75000000  1
  O  O20  1  0.17111600  0.82888400  0.41714500  1
  O  O21  1  0.82888400  0.17111600  0.58285500  1
  O  O22  1  0.82888400  0.17111600  0.91714500  1
  O  O23  1  0.17111600  0.34223200  0.41714500  1
  O  O24  1  0.34223200  0.17111600  0.58285500  1
  O  O25  1  0.97008900  0.48504500  0.75000000  1
  O  O26  1  0.82888400  0.65776800  0.91714500  1
  O  O27  1  0.17111600  0.82888400  0.08285500  1
  O  O28  1  0.02991100  0.51495500  0.25000000  1
  O  O29  1  0.48504500  0.51495500  0.25000000  1
