# generated using pymatgen
data_V2Zn3TeO10
_symmetry_space_group_name_H-M   'P 1'
_cell_length_a   30.85591100
_cell_length_b   5.34145500
_cell_length_c   5.64010993
_cell_angle_alpha   81.45023495
_cell_angle_beta   90.00000000
_cell_angle_gamma   90.00000000
_symmetry_Int_Tables_number   1
_chemical_formula_structural   V2Zn3TeO10
_chemical_formula_sum   'V8 Zn12 Te4 O40'
_cell_volume   919.24702120
_cell_formula_units_Z   4
loop_
 _symmetry_equiv_pos_site_id
 _symmetry_equiv_pos_as_xyz
  1  'x, y, z'
loop_
 _atom_site_type_symbol
 _atom_site_label
 _atom_site_symmetry_multiplicity
 _atom_site_fract_x
 _atom_site_fract_y
 _atom_site_fract_z
 _atom_site_occupancy
  V  V0  1  0.44447100  0.75244300  0.21808900  1
  V  V1  1  0.20529000  0.92954300  0.72762900  1
  V  V2  1  0.05552900  0.75244300  0.71808900  1
  V  V3  1  0.79471000  0.07045700  0.27237100  1
  V  V4  1  0.29471000  0.92954300  0.22762900  1
  V  V5  1  0.70529000  0.07045700  0.77237100  1
  V  V6  1  0.55552900  0.24755700  0.78191100  1
  V  V7  1  0.94447100  0.24755700  0.28191100  1
  Zn  Zn8  1  0.87031200  0.22023700  0.73189000  1
  Zn  Zn9  1  0.05792400  0.30558500  0.35716500  1
  Zn  Zn10  1  0.12968800  0.77976300  0.26811000  1
  Zn  Zn11  1  0.72683600  0.57890800  0.27948100  1
  Zn  Zn12  1  0.62968800  0.22023700  0.23189000  1
  Zn  Zn13  1  0.94207600  0.69441500  0.64283500  1
  Zn  Zn14  1  0.44207600  0.30558500  0.85716500  1
  Zn  Zn15  1  0.55792400  0.69441500  0.14283500  1
  Zn  Zn16  1  0.27316400  0.42109200  0.72051900  1
  Zn  Zn17  1  0.22683600  0.42109200  0.22051900  1
  Zn  Zn18  1  0.77316400  0.57890800  0.77948100  1
  Zn  Zn19  1  0.37031200  0.77976300  0.76811000  1
  Te  Te20  1  0.13094200  0.32966100  0.93125800  1
  Te  Te21  1  0.86905800  0.67033900  0.06874200  1
  Te  Te22  1  0.36905800  0.32966100  0.43125800  1
  Te  Te23  1  0.63094200  0.67033900  0.56874200  1
  O  O24  1  0.90053800  0.88304100  0.82687200  1
  O  O25  1  0.00189000  0.68278200  0.73763600  1
  O  O26  1  0.59946200  0.88304100  0.32687200  1
  O  O27  1  0.56494000  0.92865400  0.83196800  1
  O  O28  1  0.76040000  0.31229500  0.14497400  1
  O  O29  1  0.26896200  0.20133300  0.06777600  1
  O  O30  1  0.49811000  0.68278200  0.23763600  1
  O  O31  1  0.66424000  0.51308700  0.34113800  1
  O  O32  1  0.83181000  0.18272000  0.45105800  1
  O  O33  1  0.82476900  0.96754900  0.02765000  1
  O  O34  1  0.99811000  0.31721800  0.26236400  1
  O  O35  1  0.16424000  0.48691300  0.15886200  1
  O  O36  1  0.92049100  0.38624400  0.51686400  1
  O  O37  1  0.23103800  0.20133300  0.56777600  1
  O  O38  1  0.66819000  0.18272000  0.95105800  1
  O  O39  1  0.08506600  0.60816900  0.98435100  1
  O  O40  1  0.41493400  0.60816900  0.48435100  1
  O  O41  1  0.23960000  0.68770500  0.85502600  1
  O  O42  1  0.33181000  0.81728000  0.04894200  1
  O  O43  1  0.91493400  0.39183100  0.01564900  1
  O  O44  1  0.32476900  0.03245100  0.47235000  1
  O  O45  1  0.42049100  0.61375600  0.98313600  1
  O  O46  1  0.73103800  0.79866700  0.93222400  1
  O  O47  1  0.07950900  0.61375600  0.48313600  1
  O  O48  1  0.17523100  0.03245100  0.97235000  1
  O  O49  1  0.26040000  0.68770500  0.35502600  1
  O  O50  1  0.76896200  0.79866700  0.43222400  1
  O  O51  1  0.06494000  0.07134600  0.66803200  1
  O  O52  1  0.67523100  0.96754900  0.52765000  1
  O  O53  1  0.83576000  0.51308700  0.84113800  1
  O  O54  1  0.58506600  0.39183100  0.51564900  1
  O  O55  1  0.73960000  0.31229500  0.64497400  1
  O  O56  1  0.57950900  0.38624400  0.01686400  1
  O  O57  1  0.16819000  0.81728000  0.54894200  1
  O  O58  1  0.43506000  0.07134600  0.16803200  1
  O  O59  1  0.33576000  0.48691300  0.65886200  1
  O  O60  1  0.93506000  0.92865400  0.33196800  1
  O  O61  1  0.50189000  0.31721800  0.76236400  1
  O  O62  1  0.09946200  0.11695900  0.17312800  1
  O  O63  1  0.40053800  0.11695900  0.67312800  1
