# generated using pymatgen
data_YMn2O5
_symmetry_space_group_name_H-M   'P 1'
_cell_length_a   5.78883200
_cell_length_b   7.37222800
_cell_length_c   8.57659500
_cell_angle_alpha   89.99996441
_cell_angle_beta   90.00002326
_cell_angle_gamma   90.00001767
_symmetry_Int_Tables_number   1
_chemical_formula_structural   YMn2O5
_chemical_formula_sum   'Y4 Mn8 O20'
_cell_volume   366.01982290
_cell_formula_units_Z   4
loop_
 _symmetry_equiv_pos_site_id
 _symmetry_equiv_pos_as_xyz
  1  'x, y, z'
loop_
 _atom_site_type_symbol
 _atom_site_label
 _atom_site_symmetry_multiplicity
 _atom_site_fract_x
 _atom_site_fract_y
 _atom_site_fract_z
 _atom_site_occupancy
  Y  Y0  1  0.00000000  0.63794000  0.32921600  1
  Y  Y1  1  0.00000000  0.36206000  0.67078400  1
  Y  Y2  1  0.00000000  0.13794000  0.17078400  1
  Y  Y3  1  0.00000000  0.86206000  0.82921600  1
  Mn  Mn4  1  0.49999900  0.91138800  0.15131900  1
  Mn  Mn5  1  0.50000100  0.08861200  0.84868200  1
  Mn  Mn6  1  0.50000000  0.41140200  0.34868500  1
  Mn  Mn7  1  0.50000000  0.58859900  0.65131500  1
  Mn  Mn8  1  0.25410400  0.50000100  0.00000000  1
  Mn  Mn9  1  0.74589400  0.99999900  0.49999900  1
  Mn  Mn10  1  0.74589700  0.49999900  0.00000000  1
  Mn  Mn11  1  0.25410800  0.00000100  0.50000000  1
  O  O12  1  0.27080800  0.50000000  0.50000000  1
  O  O13  1  0.72919000  0.00000000  0.00000000  1
  O  O14  1  0.72919200  0.50000000  0.50000000  1
  O  O15  1  0.27080800  0.00000000  0.00000000  1
  O  O16  1  0.00000000  0.66297600  0.05700400  1
  O  O17  1  0.00000000  0.33702400  0.94299500  1
  O  O18  1  0.00000000  0.16297600  0.44299600  1
  O  O19  1  0.00000000  0.83702400  0.55700500  1
  O  O20  1  0.50000000  0.65052600  0.06982100  1
  O  O21  1  0.50000000  0.34947500  0.93017800  1
  O  O22  1  0.50000000  0.15052700  0.43017800  1
  O  O23  1  0.50000000  0.84947300  0.56982200  1
  O  O24  1  0.24101700  0.89328600  0.29332800  1
  O  O25  1  0.24101600  0.10671500  0.70667200  1
  O  O26  1  0.75898200  0.39328500  0.20667300  1
  O  O27  1  0.75898300  0.60671400  0.79332800  1
  O  O28  1  0.75898300  0.10671400  0.70667200  1
  O  O29  1  0.75898300  0.89328500  0.29332800  1
  O  O30  1  0.24101800  0.60671400  0.79332800  1
  O  O31  1  0.24101800  0.39328600  0.20667200  1
