# generated using pymatgen
data_Pr4C2Cl5
_symmetry_space_group_name_H-M   'P 1'
_cell_length_a   9.84202762
_cell_length_b   9.84202762
_cell_length_c   9.84202762
_cell_angle_alpha   157.00315714
_cell_angle_beta   132.62318081
_cell_angle_gamma   53.29464303
_symmetry_Int_Tables_number   1
_chemical_formula_structural   Pr4C2Cl5
_chemical_formula_sum   'Pr4 C2 Cl5'
_cell_volume   272.96835162
_cell_formula_units_Z   1
loop_
 _symmetry_equiv_pos_site_id
 _symmetry_equiv_pos_as_xyz
  1  'x, y, z'
loop_
 _atom_site_type_symbol
 _atom_site_label
 _atom_site_symmetry_multiplicity
 _atom_site_fract_x
 _atom_site_fract_y
 _atom_site_fract_z
 _atom_site_occupancy
  Pr  Pr0  1  0.33022800  0.33022800  0.00000000  1
  Pr  Pr1  1  0.66977200  0.66977200  0.00000000  1
  Pr  Pr2  1  0.71257100  0.00000000  0.71257100  1
  Pr  Pr3  1  0.28742900  0.00000000  0.28742900  1
  C  C4  1  0.45989200  0.45989200  0.00000000  1
  C  C5  1  0.54010800  0.54010800  0.00000000  1
  Cl  Cl6  1  0.39689300  0.16716500  0.22972800  1
  Cl  Cl7  1  0.06256300  0.83283500  0.22972800  1
  Cl  Cl8  1  0.60310700  0.83283500  0.77027200  1
  Cl  Cl9  1  0.93743700  0.16716500  0.77027200  1
  Cl  Cl10  1  0.00000000  0.50000000  0.50000000  1
