# generated using pymatgen
data_NaZnPO4
_symmetry_space_group_name_H-M   'P 1'
_cell_length_a   10.13877100
_cell_length_b   5.28175800
_cell_length_c   9.11233628
_cell_angle_alpha   54.87544349
_cell_angle_beta   90.00000000
_cell_angle_gamma   90.00000000
_symmetry_Int_Tables_number   1
_chemical_formula_structural   NaZnPO4
_chemical_formula_sum   'Na4 Zn4 P4 O16'
_cell_volume   399.11261811
_cell_formula_units_Z   4
loop_
 _symmetry_equiv_pos_site_id
 _symmetry_equiv_pos_as_xyz
  1  'x, y, z'
loop_
 _atom_site_type_symbol
 _atom_site_label
 _atom_site_symmetry_multiplicity
 _atom_site_fract_x
 _atom_site_fract_y
 _atom_site_fract_z
 _atom_site_occupancy
  Na  Na0  1  0.88282500  0.30030100  0.48251300  1
  Na  Na1  1  0.61717500  0.30030100  0.98251300  1
  Na  Na2  1  0.38282500  0.69969900  0.01748700  1
  Na  Na3  1  0.11717500  0.69969900  0.51748700  1
  Zn  Zn4  1  0.83128200  0.80370600  0.99122600  1
  Zn  Zn5  1  0.66871800  0.80370600  0.49122600  1
  Zn  Zn6  1  0.16871800  0.19629400  0.00877400  1
  Zn  Zn7  1  0.33128200  0.19629400  0.50877400  1
  P  P8  1  0.59912800  0.07947200  0.71860200  1
  P  P9  1  0.09912800  0.92052800  0.78139800  1
  P  P10  1  0.90087200  0.07947200  0.21860200  1
  P  P11  1  0.40087200  0.92052800  0.28139800  1
  O  O12  1  0.62676200  0.38601400  0.70031500  1
  O  O13  1  0.64559000  0.80696000  0.91155100  1
  O  O14  1  0.32587800  0.91586100  0.43070400  1
  O  O15  1  0.12676200  0.61398600  0.79968500  1
  O  O16  1  0.37323800  0.61398600  0.29968500  1
  O  O17  1  0.82587800  0.08413900  0.06929600  1
  O  O18  1  0.44918800  0.02427400  0.71575200  1
  O  O19  1  0.87323800  0.38601400  0.20031500  1
  O  O20  1  0.85441000  0.80696000  0.41155100  1
  O  O21  1  0.14559000  0.19304000  0.58844900  1
  O  O22  1  0.05081200  0.02427400  0.21575200  1
  O  O23  1  0.17412200  0.91586100  0.93070400  1
  O  O24  1  0.55081200  0.97572600  0.28424800  1
  O  O25  1  0.35441000  0.19304000  0.08844900  1
  O  O26  1  0.94918800  0.97572600  0.78424800  1
  O  O27  1  0.67412200  0.08413900  0.56929600  1
