# generated using pymatgen
data_Cs2Ge2S5
_symmetry_space_group_name_H-M   'P 1'
_cell_length_a   11.46048501
_cell_length_b   11.46048501
_cell_length_c   9.67154260
_cell_angle_alpha   79.24455986
_cell_angle_beta   79.24455986
_cell_angle_gamma   90.40521088
_symmetry_Int_Tables_number   1
_chemical_formula_structural   Cs2Ge2S5
_chemical_formula_sum   'Cs8 Ge8 S20'
_cell_volume   1224.89190028
_cell_formula_units_Z   4
loop_
 _symmetry_equiv_pos_site_id
 _symmetry_equiv_pos_as_xyz
  1  'x, y, z'
loop_
 _atom_site_type_symbol
 _atom_site_label
 _atom_site_symmetry_multiplicity
 _atom_site_fract_x
 _atom_site_fract_y
 _atom_site_fract_z
 _atom_site_occupancy
  Cs  Cs0  1  0.93905100  0.79284600  0.13942700  1
  Cs  Cs1  1  0.06094900  0.20715400  0.86057300  1
  Cs  Cs2  1  0.47968900  0.21145700  0.87015100  1
  Cs  Cs3  1  0.78854300  0.52031100  0.62984900  1
  Cs  Cs4  1  0.20715400  0.06094900  0.36057300  1
  Cs  Cs5  1  0.79284600  0.93905100  0.63942700  1
  Cs  Cs6  1  0.21145700  0.47968900  0.37015100  1
  Cs  Cs7  1  0.52031100  0.78854300  0.12984900  1
  Ge  Ge8  1  0.14170300  0.73072900  0.61976300  1
  Ge  Ge9  1  0.53053300  0.26538900  0.39446700  1
  Ge  Ge10  1  0.85829700  0.26927100  0.38023700  1
  Ge  Ge11  1  0.26927100  0.85829700  0.88023700  1
  Ge  Ge12  1  0.46946700  0.73461100  0.60553300  1
  Ge  Ge13  1  0.26538900  0.53053300  0.89446700  1
  Ge  Ge14  1  0.73461100  0.46946700  0.10553300  1
  Ge  Ge15  1  0.73072900  0.14170300  0.11976300  1
  S  S16  1  0.54836800  0.11958100  0.26041200  1
  S  S17  1  0.36133600  0.24217100  0.53578500  1
  S  S18  1  0.87805900  0.12194100  0.25000000  1
  S  S19  1  0.75782900  0.63866400  0.96421500  1
  S  S20  1  0.98666100  0.24667300  0.51753400  1
  S  S21  1  0.24316400  0.67669900  0.02733200  1
  S  S22  1  0.55239300  0.44760700  0.25000000  1
  S  S23  1  0.44760700  0.55239300  0.75000000  1
  S  S24  1  0.11958100  0.54836800  0.76041200  1
  S  S25  1  0.32330100  0.75683600  0.47266800  1
  S  S26  1  0.01333900  0.75332700  0.48246600  1
  S  S27  1  0.88041900  0.45163200  0.23958800  1
  S  S28  1  0.24667300  0.98666100  0.01753400  1
  S  S29  1  0.12194100  0.87805900  0.75000000  1
  S  S30  1  0.24217100  0.36133600  0.03578500  1
  S  S31  1  0.75332700  0.01333900  0.98246600  1
  S  S32  1  0.45163200  0.88041900  0.73958800  1
  S  S33  1  0.63866400  0.75782900  0.46421500  1
  S  S34  1  0.75683600  0.32330100  0.97266800  1
  S  S35  1  0.67669900  0.24316400  0.52733200  1
