# generated using pymatgen
data_La3InS6
_symmetry_space_group_name_H-M   'P 1'
_cell_length_a   4.10100500
_cell_length_b   14.02911400
_cell_length_c   17.02189500
_cell_angle_alpha   90.00000000
_cell_angle_beta   90.00000000
_cell_angle_gamma   90.00000000
_symmetry_Int_Tables_number   1
_chemical_formula_structural   La3InS6
_chemical_formula_sum   'La12 In4 S24'
_cell_volume   979.32862847
_cell_formula_units_Z   4
loop_
 _symmetry_equiv_pos_site_id
 _symmetry_equiv_pos_as_xyz
  1  'x, y, z'
loop_
 _atom_site_type_symbol
 _atom_site_label
 _atom_site_symmetry_multiplicity
 _atom_site_fract_x
 _atom_site_fract_y
 _atom_site_fract_z
 _atom_site_occupancy
  La  La0  1  0.25506500  0.03686300  0.78018800  1
  La  La1  1  0.25506500  0.96313700  0.21981200  1
  La  La2  1  0.74493500  0.46313700  0.28018800  1
  La  La3  1  0.74493500  0.53686300  0.71981200  1
  La  La4  1  0.25898400  0.24934200  0.60951000  1
  La  La5  1  0.25898400  0.75065800  0.39049000  1
  La  La6  1  0.74101600  0.25065800  0.10951000  1
  La  La7  1  0.74101600  0.74934200  0.89049000  1
  La  La8  1  0.75886600  0.31011200  0.85712000  1
  La  La9  1  0.75886600  0.68988800  0.14288000  1
  La  La10  1  0.24113400  0.18988800  0.35712000  1
  La  La11  1  0.24113400  0.81011200  0.64288000  1
  In  In12  1  0.75359900  0.00000000  0.50000000  1
  In  In13  1  0.24640100  0.50000000  0.00000000  1
  In  In14  1  0.41319500  0.50000000  0.50000000  1
  In  In15  1  0.58680400  0.00000000  0.00000000  1
  S  S16  1  0.76582100  0.39799700  0.58777000  1
  S  S17  1  0.76582100  0.60200300  0.41223000  1
  S  S18  1  0.23417900  0.10200300  0.08777000  1
  S  S19  1  0.23417900  0.89799700  0.91223000  1
  S  S20  1  0.24885600  0.31354500  0.98274800  1
  S  S21  1  0.24885600  0.68645500  0.01725200  1
  S  S22  1  0.75114400  0.18645500  0.48274800  1
  S  S23  1  0.75114400  0.81354500  0.51725200  1
  S  S24  1  0.75465300  0.10807000  0.89264900  1
  S  S25  1  0.75465300  0.89193000  0.10735100  1
  S  S26  1  0.24534700  0.39193000  0.39264900  1
  S  S27  1  0.24534700  0.60807000  0.60735100  1
  S  S28  1  0.75855600  0.17720600  0.71708800  1
  S  S29  1  0.75855600  0.82279400  0.28291200  1
  S  S30  1  0.24144400  0.32279400  0.21708800  1
  S  S31  1  0.24144400  0.67720600  0.78291200  1
  S  S32  1  0.25072700  0.38696700  0.75546200  1
  S  S33  1  0.25072700  0.61303300  0.24453800  1
  S  S34  1  0.74927300  0.11303300  0.25546200  1
  S  S35  1  0.74927300  0.88696700  0.74453800  1
  S  S36  1  0.25327800  0.01999100  0.60254700  1
  S  S37  1  0.25327800  0.98000900  0.39745300  1
  S  S38  1  0.74672200  0.48000900  0.10254700  1
  S  S39  1  0.74672200  0.51999100  0.89745300  1
