# generated using pymatgen
data_K2Li14Pb3O14
_symmetry_space_group_name_H-M   'P 1'
_cell_length_a   8.49039349
_cell_length_b   8.49039349
_cell_length_c   8.49039349
_cell_angle_alpha   128.62637938
_cell_angle_beta   122.96022951
_cell_angle_gamma   80.31123401
_symmetry_Int_Tables_number   1
_chemical_formula_structural   K2Li14Pb3O14
_chemical_formula_sum   'K2 Li14 Pb3 O14'
_cell_volume   387.24512422
_cell_formula_units_Z   1
loop_
 _symmetry_equiv_pos_site_id
 _symmetry_equiv_pos_as_xyz
  1  'x, y, z'
loop_
 _atom_site_type_symbol
 _atom_site_label
 _atom_site_symmetry_multiplicity
 _atom_site_fract_x
 _atom_site_fract_y
 _atom_site_fract_z
 _atom_site_occupancy
  K  K0  1  0.50000000  0.24673400  0.74673400  1
  K  K1  1  0.50000000  0.75326600  0.25326600  1
  Li  Li2  1  0.84151600  0.50000000  0.34151600  1
  Li  Li3  1  0.15848400  0.50000000  0.65848400  1
  Li  Li4  1  0.41658100  0.77110200  0.64548000  1
  Li  Li5  1  0.58341900  0.22889800  0.35452000  1
  Li  Li6  1  0.87437800  0.22889800  0.64548000  1
  Li  Li7  1  0.12562200  0.77110200  0.35452000  1
  Li  Li8  1  0.70991300  0.59299900  0.57183600  1
  Li  Li9  1  0.29008700  0.86192300  0.88308600  1
  Li  Li10  1  0.97883700  0.40700100  0.11691400  1
  Li  Li11  1  0.02116300  0.13807700  0.42816400  1
  Li  Li12  1  0.29008700  0.40700100  0.42816400  1
  Li  Li13  1  0.70991300  0.13807700  0.11691400  1
  Li  Li14  1  0.02116300  0.59299900  0.88308600  1
  Li  Li15  1  0.97883700  0.86192300  0.57183600  1
  Pb  Pb16  1  0.72744500  0.72744500  0.00000000  1
  Pb  Pb17  1  0.27255500  0.27255500  0.00000000  1
  Pb  Pb18  1  0.00000000  0.00000000  0.00000000  1
  O  O19  1  0.74809000  0.04057100  0.29248000  1
  O  O20  1  0.25191000  0.54439000  0.29248000  1
  O  O21  1  0.25191000  0.95942900  0.70752000  1
  O  O22  1  0.74809000  0.45561000  0.70752000  1
  O  O23  1  0.00000000  0.70409000  0.70409000  1
  O  O24  1  0.00000000  0.29591000  0.29591000  1
  O  O25  1  0.68696400  0.87260900  0.81435500  1
  O  O26  1  0.31303600  0.12739100  0.18564500  1
  O  O27  1  0.94174500  0.12739100  0.81435500  1
  O  O28  1  0.05825500  0.87260900  0.18564500  1
  O  O29  1  0.41107500  0.62765000  0.78342400  1
  O  O30  1  0.58892500  0.37235000  0.21657600  1
  O  O31  1  0.15577400  0.37235000  0.78342400  1
  O  O32  1  0.84422600  0.62765000  0.21657600  1
