# generated using pymatgen
data_Ba3SrNb2O9
_symmetry_space_group_name_H-M   'P 1'
_cell_length_a   6.15082191
_cell_length_b   6.15082191
_cell_length_c   15.71980600
_cell_angle_alpha   90.00000000
_cell_angle_beta   90.00000000
_cell_angle_gamma   119.99999901
_symmetry_Int_Tables_number   1
_chemical_formula_structural   Ba3SrNb2O9
_chemical_formula_sum   'Ba6 Sr2 Nb4 O18'
_cell_volume   515.04375213
_cell_formula_units_Z   2
loop_
 _symmetry_equiv_pos_site_id
 _symmetry_equiv_pos_as_xyz
  1  'x, y, z'
loop_
 _atom_site_type_symbol
 _atom_site_label
 _atom_site_symmetry_multiplicity
 _atom_site_fract_x
 _atom_site_fract_y
 _atom_site_fract_z
 _atom_site_occupancy
  Ba  Ba0  1  0.00000000  0.00000000  0.25000000  1
  Ba  Ba1  1  0.00000000  0.00000000  0.75000000  1
  Ba  Ba2  1  0.33333300  0.66666700  0.12297800  1
  Ba  Ba3  1  0.66666700  0.33333300  0.62297800  1
  Ba  Ba4  1  0.66666700  0.33333300  0.87702200  1
  Ba  Ba5  1  0.33333300  0.66666700  0.37702200  1
  Sr  Sr6  1  0.00000000  0.00000000  0.00000000  1
  Sr  Sr7  1  0.00000000  0.00000000  0.50000000  1
  Nb  Nb8  1  0.33333300  0.66666700  0.84603100  1
  Nb  Nb9  1  0.66666700  0.33333300  0.34603100  1
  Nb  Nb10  1  0.66666700  0.33333300  0.15396900  1
  Nb  Nb11  1  0.33333300  0.66666700  0.65396900  1
  O  O12  1  0.56701900  0.04091400  0.25000000  1
  O  O13  1  0.52610400  0.56701900  0.75000000  1
  O  O14  1  0.04091400  0.47389600  0.75000000  1
  O  O15  1  0.95908600  0.52610400  0.25000000  1
  O  O16  1  0.47389600  0.43298100  0.25000000  1
  O  O17  1  0.43298100  0.95908600  0.75000000  1
  O  O18  1  0.76096800  0.64660000  0.09887800  1
  O  O19  1  0.11436800  0.76096800  0.59887800  1
  O  O20  1  0.64660000  0.88563200  0.59887800  1
  O  O21  1  0.35340000  0.11436800  0.09887800  1
  O  O22  1  0.88563200  0.23903200  0.09887800  1
  O  O23  1  0.23903200  0.35340000  0.59887800  1
  O  O24  1  0.23903200  0.35340000  0.90112200  1
  O  O25  1  0.88563200  0.23903200  0.40112200  1
  O  O26  1  0.35340000  0.11436800  0.40112200  1
  O  O27  1  0.64660000  0.88563200  0.90112200  1
  O  O28  1  0.11436800  0.76096800  0.90112200  1
  O  O29  1  0.76096800  0.64660000  0.40112200  1
