# generated using pymatgen
data_EuGeS3
_symmetry_space_group_name_H-M   'P 1'
_cell_length_a   8.47160600
_cell_length_b   8.54365383
_cell_length_c   11.84546781
_cell_angle_alpha   68.97317609
_cell_angle_beta   80.57210421
_cell_angle_gamma   75.17237159
_symmetry_Int_Tables_number   1
_chemical_formula_structural   EuGeS3
_chemical_formula_sum   'Eu6 Ge6 S18'
_cell_volume   771.15315369
_cell_formula_units_Z   6
loop_
 _symmetry_equiv_pos_site_id
 _symmetry_equiv_pos_as_xyz
  1  'x, y, z'
loop_
 _atom_site_type_symbol
 _atom_site_label
 _atom_site_symmetry_multiplicity
 _atom_site_fract_x
 _atom_site_fract_y
 _atom_site_fract_z
 _atom_site_occupancy
  Eu  Eu0  1  0.75386300  0.73915400  0.49977700  1
  Eu  Eu1  1  0.57375100  0.94465000  0.81483800  1
  Eu  Eu2  1  0.24613700  0.26084600  0.50022300  1
  Eu  Eu3  1  0.10846500  0.74224900  0.13700600  1
  Eu  Eu4  1  0.89153500  0.25775100  0.86299400  1
  Eu  Eu5  1  0.42624900  0.05535000  0.18516200  1
  Ge  Ge6  1  0.09484200  0.84103700  0.80408400  1
  Ge  Ge7  1  0.76920800  0.27545700  0.47065200  1
  Ge  Ge8  1  0.90515800  0.15896300  0.19591600  1
  Ge  Ge9  1  0.23079200  0.72454300  0.52934800  1
  Ge  Ge10  1  0.44717200  0.48087300  0.81345400  1
  Ge  Ge11  1  0.55282800  0.51912700  0.18654600  1
  S  S12  1  0.39235400  0.90897400  0.45751000  1
  S  S13  1  0.21817000  0.57774900  0.92176200  1
  S  S14  1  0.99509700  0.17934600  0.35944700  1
  S  S15  1  0.64964100  0.62075900  0.76633700  1
  S  S16  1  0.11682800  0.65519300  0.40427900  1
  S  S17  1  0.88065200  0.88886800  0.93060400  1
  S  S18  1  0.36042600  0.46074800  0.64630200  1
  S  S19  1  0.00490300  0.82065400  0.64055300  1
  S  S20  1  0.63957400  0.53925200  0.35369800  1
  S  S21  1  0.11934800  0.11113200  0.06939600  1
  S  S22  1  0.60764600  0.09102600  0.54249000  1
  S  S23  1  0.22643200  0.05073400  0.76429700  1
  S  S24  1  0.54852800  0.21297400  0.92323100  1
  S  S25  1  0.45147200  0.78702600  0.07676900  1
  S  S26  1  0.78183000  0.42225100  0.07823800  1
  S  S27  1  0.77356800  0.94926600  0.23570300  1
  S  S28  1  0.88317200  0.34480700  0.59572100  1
  S  S29  1  0.35035900  0.37924100  0.23366300  1
