# generated using pymatgen
data_Rb4Ti3S14
_symmetry_space_group_name_H-M   'P 1'
_cell_length_a   11.53894095
_cell_length_b   11.53894095
_cell_length_c   13.70156862
_cell_angle_alpha   67.76845825
_cell_angle_beta   67.76845825
_cell_angle_gamma   42.33256564
_symmetry_Int_Tables_number   1
_chemical_formula_structural   Rb4Ti3S14
_chemical_formula_sum   'Rb8 Ti6 S28'
_cell_volume   1122.89986440
_cell_formula_units_Z   2
loop_
 _symmetry_equiv_pos_site_id
 _symmetry_equiv_pos_as_xyz
  1  'x, y, z'
loop_
 _atom_site_type_symbol
 _atom_site_label
 _atom_site_symmetry_multiplicity
 _atom_site_fract_x
 _atom_site_fract_y
 _atom_site_fract_z
 _atom_site_occupancy
  Rb  Rb0  1  0.11884800  0.47587200  0.11349300  1
  Rb  Rb1  1  0.52412800  0.88115200  0.38650700  1
  Rb  Rb2  1  0.88115200  0.52412800  0.88650700  1
  Rb  Rb3  1  0.47587200  0.11884800  0.61349300  1
  Rb  Rb4  1  0.82870800  0.30337900  0.35298200  1
  Rb  Rb5  1  0.69662100  0.17129200  0.14701800  1
  Rb  Rb6  1  0.17129200  0.69662100  0.64701800  1
  Rb  Rb7  1  0.30337900  0.82870800  0.85298200  1
  Ti  Ti8  1  0.08861200  0.57677700  0.41688300  1
  Ti  Ti9  1  0.42322300  0.91138800  0.08311700  1
  Ti  Ti10  1  0.91138800  0.42322300  0.58311700  1
  Ti  Ti11  1  0.57677700  0.08861100  0.91688300  1
  Ti  Ti12  1  0.26435600  0.73564400  0.25000000  1
  Ti  Ti13  1  0.73564400  0.26435600  0.75000000  1
  S  S14  1  0.06996700  0.73931600  0.21407600  1
  S  S15  1  0.26068400  0.93003300  0.28592400  1
  S  S16  1  0.93003300  0.26068400  0.78592400  1
  S  S17  1  0.73931600  0.06996700  0.71407600  1
  S  S18  1  0.93522400  0.50811300  0.40149800  1
  S  S19  1  0.49188700  0.06477600  0.09850200  1
  S  S20  1  0.06477600  0.49188700  0.59850200  1
  S  S21  1  0.50811300  0.93522400  0.90149800  1
  S  S22  1  0.97494300  0.16374000  0.58415200  1
  S  S23  1  0.83626000  0.02505700  0.91584800  1
  S  S24  1  0.02505700  0.83626000  0.41584800  1
  S  S25  1  0.16374000  0.97494300  0.08415200  1
  S  S26  1  0.31505300  0.34149000  0.83954600  1
  S  S27  1  0.65851000  0.68494700  0.66045400  1
  S  S28  1  0.68494700  0.65851000  0.16045400  1
  S  S29  1  0.34149000  0.31505300  0.33954600  1
  S  S30  1  0.30542700  0.61746300  0.11032900  1
  S  S31  1  0.38253700  0.69457300  0.38967100  1
  S  S32  1  0.69457300  0.38253700  0.88967100  1
  S  S33  1  0.61746300  0.30542700  0.61032900  1
  S  S34  1  0.43516800  0.39411300  0.86888600  1
  S  S35  1  0.60588700  0.56483200  0.63111400  1
  S  S36  1  0.56483200  0.60588700  0.13111400  1
  S  S37  1  0.39411300  0.43516800  0.36888600  1
  S  S38  1  0.10887900  0.18331300  0.10196200  1
  S  S39  1  0.81668700  0.89112100  0.39803800  1
  S  S40  1  0.89112100  0.81668700  0.89803800  1
  S  S41  1  0.18331300  0.10887900  0.60196200  1
