# generated using pymatgen
data_Ba17Y16Zn8Pt4O57
_symmetry_space_group_name_H-M   'P 1'
_cell_length_a   16.63572954
_cell_length_b   16.63572954
_cell_length_c   16.63572954
_cell_angle_alpha   91.72923838
_cell_angle_beta   91.72923838
_cell_angle_gamma   159.99241871
_symmetry_Int_Tables_number   1
_chemical_formula_structural   Ba17Y16Zn8Pt4O57
_chemical_formula_sum   'Ba17 Y16 Zn8 Pt4 O57'
_cell_volume   1551.24888292
_cell_formula_units_Z   1
loop_
 _symmetry_equiv_pos_site_id
 _symmetry_equiv_pos_as_xyz
  1  'x, y, z'
loop_
 _atom_site_type_symbol
 _atom_site_label
 _atom_site_symmetry_multiplicity
 _atom_site_fract_x
 _atom_site_fract_y
 _atom_site_fract_z
 _atom_site_occupancy
  Ba  Ba0  1  0.93249100  0.44150200  0.37399200  1
  Ba  Ba1  1  0.88784500  0.27654900  0.16439300  1
  Ba  Ba2  1  0.73209700  0.18916400  0.92126100  1
  Ba  Ba3  1  0.27654900  0.11215500  0.38870400  1
  Ba  Ba4  1  0.26790300  0.81083600  0.07873900  1
  Ba  Ba5  1  0.81083600  0.73209700  0.54293300  1
  Ba  Ba6  1  0.06750900  0.55849800  0.62600800  1
  Ba  Ba7  1  0.65823400  0.64980500  0.30803900  1
  Ba  Ba8  1  0.44150200  0.06750900  0.50901100  1
  Ba  Ba9  1  0.18916400  0.26790300  0.45706700  1
  Ba  Ba10  1  0.55849800  0.93249100  0.49098900  1
  Ba  Ba11  1  0.11215500  0.72345100  0.83560700  1
  Ba  Ba12  1  0.34176600  0.35019500  0.69196100  1
  Ba  Ba13  1  0.72345100  0.88784500  0.61129600  1
  Ba  Ba14  1  0.64980500  0.34176600  0.99157100  1
  Ba  Ba15  1  0.35019500  0.65823400  0.00842900  1
  Ba  Ba16  1  0.00000000  0.00000000  0.00000000  1
  Y  Y17  1  0.74964900  0.50662100  0.25627000  1
  Y  Y18  1  0.67369200  0.04948700  0.72317900  1
  Y  Y19  1  0.49337900  0.74964900  0.24302700  1
  Y  Y20  1  0.51179800  0.40019100  0.91198900  1
  Y  Y21  1  0.95051300  0.67369200  0.62420500  1
  Y  Y22  1  0.25035100  0.49337900  0.74373000  1
  Y  Y23  1  0.40019100  0.48820200  0.88839300  1
  Y  Y24  1  0.17204600  0.94758600  0.11963200  1
  Y  Y25  1  0.48820200  0.59980900  0.08801100  1
  Y  Y26  1  0.50662100  0.25035100  0.75697300  1
  Y  Y27  1  0.04948700  0.32630800  0.37579500  1
  Y  Y28  1  0.05241400  0.17204600  0.22445900  1
  Y  Y29  1  0.94758600  0.82795400  0.77554100  1
  Y  Y30  1  0.59980900  0.51179800  0.11160700  1
  Y  Y31  1  0.32630800  0.95051300  0.27682100  1
  Y  Y32  1  0.82795400  0.05241400  0.88036800  1
  Zn  Zn33  1  0.78777700  0.37906300  0.16684100  1
  Zn  Zn34  1  0.62093700  0.78777700  0.40871400  1
  Zn  Zn35  1  0.07602500  0.86623100  0.94225600  1
  Zn  Zn36  1  0.13376900  0.07602500  0.20979300  1
  Zn  Zn37  1  0.21222300  0.62093700  0.83315900  1
  Zn  Zn38  1  0.92397500  0.13376900  0.05774400  1
  Zn  Zn39  1  0.86623100  0.92397500  0.79020700  1
  Zn  Zn40  1  0.37906300  0.21222300  0.59128600  1
  Pt  Pt41  1  0.58305900  0.14422100  0.72728100  1
  Pt  Pt42  1  0.85577900  0.58305900  0.43883800  1
  Pt  Pt43  1  0.41694100  0.85577900  0.27271900  1
  Pt  Pt44  1  0.14422100  0.41694100  0.56116200  1
  O  O45  1  0.63176100  0.39913400  0.52067100  1
  O  O46  1  0.23961800  0.70101100  0.94062900  1
  O  O47  1  0.28060000  0.92502500  0.68954400  1
  O  O48  1  0.59105600  0.28060000  0.35557500  1
  O  O49  1  0.23088600  0.39147500  0.62236100  1
  O  O50  1  0.92755400  0.77968000  0.20412700  1
  O  O51  1  0.29898900  0.23961800  0.53860700  1
  O  O52  1  0.11109100  0.63176100  0.23262800  1
  O  O53  1  0.76911400  0.60852500  0.37763900  1
  O  O54  1  0.68430200  0.66001200  0.84469500  1
  O  O55  1  0.70101100  0.76038200  0.46139300  1
  O  O56  1  0.49686400  0.17737800  0.17587100  1
  O  O57  1  0.84019900  0.84227600  0.68247600  1
  O  O58  1  0.40894400  0.71940000  0.64442500  1
  O  O59  1  0.16039300  0.31569800  0.97571000  1
  O  O60  1  0.82262200  0.99849300  0.31948600  1
  O  O61  1  0.72342600  0.92755400  0.14787300  1
  O  O62  1  0.39913400  0.87846300  0.76737200  1
  O  O63  1  0.05508100  0.43564600  0.49072600  1
  O  O64  1  0.12153700  0.88890900  0.52067100  1
  O  O65  1  0.23548100  0.59105600  0.31045600  1
  O  O66  1  0.18468300  0.16039300  0.84469500  1
  O  O67  1  0.87846300  0.11109100  0.47932900  1
  O  O68  1  0.27657400  0.07244600  0.85212700  1
  O  O69  1  0.39147500  0.76911400  0.16058800  1
  O  O70  1  0.50313600  0.82262200  0.82412900  1
  O  O71  1  0.42444700  0.27657400  0.20412700  1
  O  O72  1  0.99849300  0.67900700  0.17587100  1
  O  O73  1  0.84227600  0.15980100  0.00207700  1
  O  O74  1  0.92502500  0.23548100  0.64442500  1
  O  O75  1  0.32099300  0.49686400  0.31948600  1
  O  O76  1  0.94491900  0.56435400  0.50927400  1
  O  O77  1  0.67900700  0.50313600  0.68051400  1
  O  O78  1  0.07244600  0.22032000  0.79587300  1
  O  O79  1  0.17737800  0.00150700  0.68051400  1
  O  O80  1  0.66001200  0.81531700  0.97571000  1
  O  O81  1  0.00150700  0.32099300  0.82412900  1
  O  O82  1  0.43564600  0.94491900  0.38056500  1
  O  O83  1  0.56435400  0.05508100  0.61943500  1
  O  O84  1  0.76451900  0.40894400  0.68954400  1
  O  O85  1  0.77968000  0.57555300  0.85212700  1
  O  O86  1  0.88890900  0.36823900  0.76737200  1
  O  O87  1  0.60852500  0.23088600  0.83941200  1
  O  O88  1  0.07497500  0.76451900  0.35557500  1
  O  O89  1  0.22032000  0.42444700  0.14787300  1
  O  O90  1  0.31569800  0.33998800  0.15530500  1
  O  O91  1  0.33998800  0.18468300  0.02429000  1
  O  O92  1  0.50000000  0.50000000  0.00000000  1
  O  O93  1  0.71940000  0.07497500  0.31045600  1
  O  O94  1  0.81531700  0.83960700  0.15530500  1
  O  O95  1  0.36823900  0.60086600  0.47932900  1
  O  O96  1  0.76038200  0.29898900  0.05937100  1
  O  O97  1  0.15772400  0.84019900  0.99792300  1
  O  O98  1  0.83960700  0.68430200  0.02429000  1
  O  O99  1  0.15980100  0.15772400  0.31752400  1
  O  O100  1  0.60086600  0.12153700  0.23262800  1
  O  O101  1  0.57555300  0.72342600  0.79587300  1
