# generated using pymatgen
data_Cs2Al2P2O9
_symmetry_space_group_name_H-M   'P 1'
_cell_length_a   4.98809900
_cell_length_b   7.21972892
_cell_length_c   8.24040193
_cell_angle_alpha   96.76844832
_cell_angle_beta   106.95812266
_cell_angle_gamma   108.59890519
_symmetry_Int_Tables_number   1
_chemical_formula_structural   Cs2Al2P2O9
_chemical_formula_sum   'Cs2 Al2 P2 O9'
_cell_volume   261.65111977
_cell_formula_units_Z   1
loop_
 _symmetry_equiv_pos_site_id
 _symmetry_equiv_pos_as_xyz
  1  'x, y, z'
loop_
 _atom_site_type_symbol
 _atom_site_label
 _atom_site_symmetry_multiplicity
 _atom_site_fract_x
 _atom_site_fract_y
 _atom_site_fract_z
 _atom_site_occupancy
  Cs  Cs0  1  0.77173100  0.20452000  0.35051000  1
  Cs  Cs1  1  0.22826900  0.79548000  0.64949000  1
  Al  Al2  1  0.14810200  0.23490000  0.96717300  1
  Al  Al3  1  0.85189800  0.76510000  0.03282700  1
  P  P4  1  0.61131000  0.35011700  0.77438500  1
  P  P5  1  0.38869000  0.64988300  0.22561500  1
  O  O6  1  0.09740100  0.70022800  0.19993300  1
  O  O7  1  0.59982300  0.73231400  0.41185400  1
  O  O8  1  0.47043000  0.25712600  0.90738300  1
  O  O9  1  0.71886600  0.58472600  0.83121300  1
  O  O10  1  0.90259900  0.29977200  0.80006700  1
  O  O11  1  0.28113400  0.41527400  0.16878700  1
  O  O12  1  0.40017700  0.26768600  0.58814600  1
  O  O13  1  0.00000000  0.00000000  0.00000000  1
  O  O14  1  0.52957000  0.74287400  0.09261700  1
