# generated using pymatgen
data_YbGeAu
_symmetry_space_group_name_H-M   'P 1'
_cell_length_a   4.53000200
_cell_length_b   7.78765800
_cell_length_c   21.35109300
_cell_angle_alpha   90.00000000
_cell_angle_beta   90.00000000
_cell_angle_gamma   90.00000000
_symmetry_Int_Tables_number   1
_chemical_formula_structural   YbGeAu
_chemical_formula_sum   'Yb12 Ge12 Au12'
_cell_volume   753.22612880
_cell_formula_units_Z   12
loop_
 _symmetry_equiv_pos_site_id
 _symmetry_equiv_pos_as_xyz
  1  'x, y, z'
loop_
 _atom_site_type_symbol
 _atom_site_label
 _atom_site_symmetry_multiplicity
 _atom_site_fract_x
 _atom_site_fract_y
 _atom_site_fract_z
 _atom_site_occupancy
  Yb  Yb0  1  0.25000000  0.78805300  0.16608300  1
  Yb  Yb1  1  0.25000000  0.78102700  0.50074200  1
  Yb  Yb2  1  0.25000000  0.71152300  0.33282900  1
  Yb  Yb3  1  0.75000000  0.21897300  0.49925800  1
  Yb  Yb4  1  0.75000000  0.28847700  0.66717100  1
  Yb  Yb5  1  0.75000000  0.28102700  0.99925800  1
  Yb  Yb6  1  0.25000000  0.78847700  0.83282900  1
  Yb  Yb7  1  0.25000000  0.71897300  0.00074200  1
  Yb  Yb8  1  0.75000000  0.21152300  0.16717100  1
  Yb  Yb9  1  0.75000000  0.28805300  0.33391700  1
  Yb  Yb10  1  0.25000000  0.71194700  0.66608300  1
  Yb  Yb11  1  0.75000000  0.21194700  0.83391700  1
  Ge  Ge12  1  0.25000000  0.41336800  0.89716500  1
  Ge  Ge13  1  0.75000000  0.91670500  0.72908900  1
  Ge  Ge14  1  0.75000000  0.58329500  0.22908900  1
  Ge  Ge15  1  0.25000000  0.08907000  0.07017900  1
  Ge  Ge16  1  0.75000000  0.91093000  0.92982100  1
  Ge  Ge17  1  0.75000000  0.91336800  0.60283500  1
  Ge  Ge18  1  0.25000000  0.41093000  0.57017900  1
  Ge  Ge19  1  0.25000000  0.08663200  0.39716500  1
  Ge  Ge20  1  0.25000000  0.08329500  0.27091100  1
  Ge  Ge21  1  0.75000000  0.58907000  0.42982100  1
  Ge  Ge22  1  0.25000000  0.41670500  0.77091100  1
  Ge  Ge23  1  0.75000000  0.58663200  0.10283500  1
  Au  Au24  1  0.75000000  0.58291700  0.90757100  1
  Au  Au25  1  0.25000000  0.41613400  0.43218600  1
  Au  Au26  1  0.75000000  0.58386600  0.56781400  1
  Au  Au27  1  0.75000000  0.91708300  0.40757100  1
  Au  Au28  1  0.25000000  0.41708300  0.09242900  1
  Au  Au29  1  0.25000000  0.41298500  0.23980000  1
  Au  Au30  1  0.75000000  0.91298500  0.26020000  1
  Au  Au31  1  0.25000000  0.08701500  0.73980000  1
  Au  Au32  1  0.25000000  0.08386600  0.93218600  1
  Au  Au33  1  0.75000000  0.91613400  0.06781400  1
  Au  Au34  1  0.25000000  0.08291700  0.59242900  1
  Au  Au35  1  0.75000000  0.58701500  0.76020000  1
