# generated using pymatgen
data_Sr4B14O25
_symmetry_space_group_name_H-M   'P 1'
_cell_length_a   9.12864574
_cell_length_b   9.12864574
_cell_length_c   14.79188600
_cell_angle_alpha   90.00000000
_cell_angle_beta   90.00000000
_cell_angle_gamma   129.05159636
_symmetry_Int_Tables_number   1
_chemical_formula_structural   Sr4B14O25
_chemical_formula_sum   'Sr8 B28 O50'
_cell_volume   957.24225065
_cell_formula_units_Z   2
loop_
 _symmetry_equiv_pos_site_id
 _symmetry_equiv_pos_as_xyz
  1  'x, y, z'
loop_
 _atom_site_type_symbol
 _atom_site_label
 _atom_site_symmetry_multiplicity
 _atom_site_fract_x
 _atom_site_fract_y
 _atom_site_fract_z
 _atom_site_occupancy
  Sr  Sr0  1  0.56992400  0.43007600  0.24229900  1
  Sr  Sr1  1  0.19524200  0.80475800  0.92148200  1
  Sr  Sr2  1  0.17624500  0.82375500  0.33407400  1
  Sr  Sr3  1  0.05574900  0.94425100  0.65552900  1
  Sr  Sr4  1  0.43007600  0.56992400  0.74229900  1
  Sr  Sr5  1  0.80475800  0.19524200  0.42148200  1
  Sr  Sr6  1  0.82375500  0.17624500  0.83407400  1
  Sr  Sr7  1  0.94425100  0.05574900  0.15552900  1
  B  B8  1  0.55047900  0.98574800  0.05427800  1
  B  B9  1  0.32813500  0.02182900  0.13216200  1
  B  B10  1  0.17647100  0.16579800  0.86715700  1
  B  B11  1  0.44952100  0.01425200  0.55427800  1
  B  B12  1  0.56350000  0.77193100  0.95618500  1
  B  B13  1  0.77760000  0.71841200  0.02675400  1
  B  B14  1  0.82352900  0.83420200  0.36715700  1
  B  B15  1  0.93366500  0.40331000  0.21944900  1
  B  B16  1  0.28158800  0.22240000  0.02675400  1
  B  B17  1  0.77193100  0.56350000  0.45618500  1
  B  B18  1  0.97817100  0.67186500  0.13216200  1
  B  B19  1  0.59669000  0.06633500  0.21944900  1
  B  B20  1  0.22806900  0.43650000  0.95618500  1
  B  B21  1  0.71841200  0.77760000  0.52675400  1
  B  B22  1  0.54684000  0.78286600  0.29045200  1
  B  B23  1  0.21713400  0.45316000  0.29045200  1
  B  B24  1  0.67186500  0.97817100  0.63216200  1
  B  B25  1  0.01425200  0.44952100  0.05427800  1
  B  B26  1  0.40331000  0.93366500  0.71944900  1
  B  B27  1  0.06633500  0.59669000  0.71944900  1
  B  B28  1  0.16579800  0.17647100  0.36715700  1
  B  B29  1  0.22240000  0.28158800  0.52675400  1
  B  B30  1  0.83420200  0.82352900  0.86715700  1
  B  B31  1  0.98574800  0.55047900  0.55427800  1
  B  B32  1  0.78286600  0.54684000  0.79045200  1
  B  B33  1  0.45316000  0.21713400  0.79045200  1
  B  B34  1  0.43650000  0.22806900  0.45618500  1
  B  B35  1  0.02182900  0.32813500  0.63216200  1
  O  O36  1  0.84946900  0.73124400  0.78474200  1
  O  O37  1  0.85364200  0.14635800  0.66488900  1
  O  O38  1  0.77509900  0.22490100  0.26036400  1
  O  O39  1  0.35062100  0.22324300  0.37065600  1
  O  O40  1  0.50036300  0.89856100  0.28627000  1
  O  O41  1  0.36370900  0.99268700  0.63521200  1
  O  O42  1  0.10143900  0.49963700  0.28627000  1
  O  O43  1  0.26088200  0.35759900  0.03366100  1
  O  O44  1  0.00731300  0.63629100  0.63521200  1
  O  O45  1  0.97452700  0.02547300  0.85644100  1
  O  O46  1  0.59926400  0.01282100  0.55223100  1
  O  O47  1  0.68942900  0.82916000  0.60877300  1
  O  O48  1  0.53260100  0.89470300  0.70617200  1
  O  O49  1  0.03520800  0.38793400  0.97299500  1
  O  O50  1  0.64240100  0.73911800  0.03366100  1
  O  O51  1  0.73911800  0.64240100  0.53366100  1
  O  O52  1  0.15053100  0.26875600  0.28474200  1
  O  O53  1  0.98717900  0.40073600  0.55223100  1
  O  O54  1  0.40073600  0.98717900  0.05223100  1
  O  O55  1  0.58780700  0.41219300  0.79949000  1
  O  O56  1  0.10529700  0.46739900  0.70617200  1
  O  O57  1  0.82916000  0.68942900  0.10877300  1
  O  O58  1  0.12962600  0.25231100  0.44655400  1
  O  O59  1  0.35882100  0.64117900  0.95102800  1
  O  O60  1  0.89856100  0.50036300  0.78627000  1
  O  O61  1  0.02547300  0.97452700  0.35644100  1
  O  O62  1  0.22324300  0.35062100  0.87065600  1
  O  O63  1  0.41219300  0.58780700  0.29949000  1
  O  O64  1  0.89470300  0.53260100  0.20617200  1
  O  O65  1  0.73124400  0.84946900  0.28474200  1
  O  O66  1  0.46739900  0.10529700  0.20617200  1
  O  O67  1  0.26875600  0.15053100  0.78474200  1
  O  O68  1  0.64937900  0.77675700  0.87065600  1
  O  O69  1  0.14635800  0.85364200  0.16488900  1
  O  O70  1  0.63629100  0.00731300  0.13521200  1
  O  O71  1  0.01282100  0.59926400  0.05223100  1
  O  O72  1  0.61206600  0.96479200  0.97299500  1
  O  O73  1  0.35759900  0.26088200  0.53366100  1
  O  O74  1  0.99268700  0.36370900  0.13521200  1
  O  O75  1  0.31057100  0.17084000  0.10877300  1
  O  O76  1  0.25231100  0.12962600  0.94655400  1
  O  O77  1  0.38793400  0.03520800  0.47299500  1
  O  O78  1  0.96479200  0.61206600  0.47299500  1
  O  O79  1  0.87037400  0.74768900  0.94655400  1
  O  O80  1  0.17084000  0.31057100  0.60877300  1
  O  O81  1  0.64117900  0.35882100  0.45102800  1
  O  O82  1  0.74768900  0.87037400  0.44655400  1
  O  O83  1  0.22490100  0.77509900  0.76036400  1
  O  O84  1  0.77675700  0.64937900  0.37065600  1
  O  O85  1  0.49963700  0.10143900  0.78627000  1
