# generated using pymatgen
data_KBS4(ClO3)4
_symmetry_space_group_name_H-M   'P 1'
_cell_length_a   11.20561543
_cell_length_b   11.20561543
_cell_length_c   10.76033327
_cell_angle_alpha   83.00038549
_cell_angle_beta   83.00038549
_cell_angle_gamma   136.15310633
_symmetry_Int_Tables_number   1
_chemical_formula_structural   KBS4(ClO3)4
_chemical_formula_sum   'K2 B2 S8 Cl8 O24'
_cell_volume   884.71550652
_cell_formula_units_Z   2
loop_
 _symmetry_equiv_pos_site_id
 _symmetry_equiv_pos_as_xyz
  1  'x, y, z'
loop_
 _atom_site_type_symbol
 _atom_site_label
 _atom_site_symmetry_multiplicity
 _atom_site_fract_x
 _atom_site_fract_y
 _atom_site_fract_z
 _atom_site_occupancy
  K  K0  1  0.34766000  0.51367800  0.40418800  1
  K  K1  1  0.51367800  0.34766000  0.90418800  1
  B  B2  1  0.12187700  0.88016900  0.50114800  1
  B  B3  1  0.88016900  0.12187700  0.00114800  1
  S  S4  1  0.61402700  0.06054000  0.94034300  1
  S  S5  1  0.19694800  0.37915700  0.79943300  1
  S  S6  1  0.06054000  0.61402700  0.44034300  1
  S  S7  1  0.25044500  0.95170200  0.71153800  1
  S  S8  1  0.74105100  0.79017100  0.05113500  1
  S  S9  1  0.95170200  0.25044500  0.21153800  1
  S  S10  1  0.37915700  0.19694800  0.29943300  1
  S  S11  1  0.79017100  0.74105100  0.55113500  1
  Cl  Cl12  1  0.69650500  0.04730400  0.34284600  1
  Cl  Cl13  1  0.34294800  0.64084500  0.76710600  1
  Cl  Cl14  1  0.64084500  0.34294800  0.26710600  1
  Cl  Cl15  1  0.83506000  0.93082000  0.61405300  1
  Cl  Cl16  1  0.35594200  0.84174000  0.05989700  1
  Cl  Cl17  1  0.84174000  0.35594200  0.55989700  1
  Cl  Cl18  1  0.93082000  0.83506000  0.11405300  1
  Cl  Cl19  1  0.04730400  0.69650500  0.84284600  1
  O  O20  1  0.73053100  0.60923200  0.66503600  1
  O  O21  1  0.28560500  0.01112800  0.38387900  1
  O  O22  1  0.67836500  0.68595000  0.46756100  1
  O  O23  1  0.98195000  0.85321300  0.46291200  1
  O  O24  1  0.27281500  0.34667600  0.87529000  1
  O  O25  1  0.07099700  0.71431900  0.53515500  1
  O  O26  1  0.34654600  0.18517200  0.17407100  1
  O  O27  1  0.97263600  0.38586900  0.14511000  1
  O  O28  1  0.94519500  0.15083100  0.11786000  1
  O  O29  1  0.21281700  0.64763200  0.42397800  1
  O  O30  1  0.64763200  0.21281700  0.92397800  1
  O  O31  1  0.63786500  0.01589000  0.82767000  1
  O  O32  1  0.85321300  0.98195000  0.96291200  1
  O  O33  1  0.71431900  0.07099700  0.03515500  1
  O  O34  1  0.29374500  0.07203300  0.78359200  1
  O  O35  1  0.15083100  0.94519500  0.61786000  1
  O  O36  1  0.18517200  0.34654600  0.67407100  1
  O  O37  1  0.60923200  0.73053100  0.16503600  1
  O  O38  1  0.68595000  0.67836500  0.96756100  1
  O  O39  1  0.01112800  0.28560500  0.88387900  1
  O  O40  1  0.34667600  0.27281500  0.37529000  1
  O  O41  1  0.07203300  0.29374500  0.28359200  1
  O  O42  1  0.38586900  0.97263600  0.64511000  1
  O  O43  1  0.01589000  0.63786500  0.32767000  1
