# generated using pymatgen
data_NaZr2(AsO4)3
_symmetry_space_group_name_H-M   'P 1'
_cell_length_a   9.50382012
_cell_length_b   9.50382012
_cell_length_c   9.50381994
_cell_angle_alpha   58.86155509
_cell_angle_beta   58.86155509
_cell_angle_gamma   58.86155530
_symmetry_Int_Tables_number   1
_chemical_formula_structural   NaZr2(AsO4)3
_chemical_formula_sum   'Na2 Zr4 As6 O24'
_cell_volume   591.21211406
_cell_formula_units_Z   2
loop_
 _symmetry_equiv_pos_site_id
 _symmetry_equiv_pos_as_xyz
  1  'x, y, z'
loop_
 _atom_site_type_symbol
 _atom_site_label
 _atom_site_symmetry_multiplicity
 _atom_site_fract_x
 _atom_site_fract_y
 _atom_site_fract_z
 _atom_site_occupancy
  Na  Na0  1  0.00000000  0.00000000  0.00000000  1
  Na  Na1  1  0.50000000  0.50000000  0.50000000  1
  Zr  Zr2  1  0.85680800  0.85680800  0.85680800  1
  Zr  Zr3  1  0.64319200  0.64319200  0.64319200  1
  Zr  Zr4  1  0.35680800  0.35680800  0.35680800  1
  Zr  Zr5  1  0.14319200  0.14319200  0.14319200  1
  As  As6  1  0.75000000  0.04092600  0.45907400  1
  As  As7  1  0.95907400  0.54092600  0.25000000  1
  As  As8  1  0.04092600  0.45907400  0.75000000  1
  As  As9  1  0.25000000  0.95907400  0.54092600  1
  As  As10  1  0.45907400  0.75000000  0.04092600  1
  As  As11  1  0.54092600  0.25000000  0.95907400  1
  O  O12  1  0.87001700  0.49688100  0.70439300  1
  O  O13  1  0.26771900  0.92312600  0.06054300  1
  O  O14  1  0.79560700  0.00311900  0.62998300  1
  O  O15  1  0.57687400  0.23228100  0.43945700  1
  O  O16  1  0.12998300  0.50311900  0.29560700  1
  O  O17  1  0.92312600  0.06054300  0.26771900  1
  O  O18  1  0.73228100  0.07687400  0.93945700  1
  O  O19  1  0.76771900  0.56054300  0.42312600  1
  O  O20  1  0.42312600  0.76771900  0.56054300  1
  O  O21  1  0.49688100  0.70439300  0.87001700  1
  O  O22  1  0.07687400  0.93945700  0.73228100  1
  O  O23  1  0.20439300  0.99688100  0.37001700  1
  O  O24  1  0.99688100  0.37001700  0.20439300  1
  O  O25  1  0.37001700  0.20439300  0.99688100  1
  O  O26  1  0.93945700  0.73228100  0.07687400  1
  O  O27  1  0.50311900  0.29560700  0.12998300  1
  O  O28  1  0.23228100  0.43945700  0.57687400  1
  O  O29  1  0.62998300  0.79560700  0.00311900  1
  O  O30  1  0.00311900  0.62998300  0.79560700  1
  O  O31  1  0.43945700  0.57687400  0.23228100  1
  O  O32  1  0.56054300  0.42312600  0.76771900  1
  O  O33  1  0.70439300  0.87001700  0.49688100  1
  O  O34  1  0.29560700  0.12998300  0.50311900  1
  O  O35  1  0.06054300  0.26771900  0.92312600  1
