# generated using pymatgen
data_K2P2O5F2
_symmetry_space_group_name_H-M   'P 1'
_cell_length_a   7.51925240
_cell_length_b   7.51925240
_cell_length_c   7.35508668
_cell_angle_alpha   89.39845441
_cell_angle_beta   89.39845441
_cell_angle_gamma   61.99240344
_symmetry_Int_Tables_number   1
_chemical_formula_structural   K2P2O5F2
_chemical_formula_sum   'K4 P4 O10 F4'
_cell_volume   367.12068158
_cell_formula_units_Z   2
loop_
 _symmetry_equiv_pos_site_id
 _symmetry_equiv_pos_as_xyz
  1  'x, y, z'
loop_
 _atom_site_type_symbol
 _atom_site_label
 _atom_site_symmetry_multiplicity
 _atom_site_fract_x
 _atom_site_fract_y
 _atom_site_fract_z
 _atom_site_occupancy
  K  K0  1  0.21957600  0.50011400  0.36182800  1
  K  K1  1  0.78042400  0.49988600  0.63817200  1
  K  K2  1  0.50011400  0.21957600  0.86182800  1
  K  K3  1  0.49988600  0.78042400  0.13817200  1
  P  P4  1  0.70184100  0.10451700  0.35588700  1
  P  P5  1  0.10451700  0.70184100  0.85588700  1
  P  P6  1  0.29815900  0.89548300  0.64411300  1
  P  P7  1  0.89548300  0.29815900  0.14411300  1
  O  O8  1  0.63922900  0.23896400  0.51816200  1
  O  O9  1  0.36077100  0.76103600  0.48183800  1
  O  O10  1  0.10992200  0.89007800  0.75000000  1
  O  O11  1  0.76103600  0.36077100  0.98183800  1
  O  O12  1  0.23896400  0.63922900  0.01816200  1
  O  O13  1  0.88293900  0.45461700  0.27533600  1
  O  O14  1  0.11706100  0.54538300  0.72466400  1
  O  O15  1  0.54538300  0.11706100  0.22466400  1
  O  O16  1  0.45461700  0.88293900  0.77533600  1
  O  O17  1  0.89007800  0.10992200  0.25000000  1
  F  F18  1  0.82296200  0.87558900  0.42383600  1
  F  F19  1  0.17703800  0.12441100  0.57616400  1
  F  F20  1  0.87558900  0.82296200  0.92383600  1
  F  F21  1  0.12441100  0.17703800  0.07616400  1
