# generated using pymatgen
data_Ta2NiSe5
_symmetry_space_group_name_H-M   'P 1'
_cell_length_a   7.03668912
_cell_length_b   7.03668912
_cell_length_c   15.78686400
_cell_angle_alpha   90.00000000
_cell_angle_beta   90.00000000
_cell_angle_gamma   151.09563609
_symmetry_Int_Tables_number   1
_chemical_formula_structural   Ta2NiSe5
_chemical_formula_sum   'Ta4 Ni2 Se10'
_cell_volume   377.82742264
_cell_formula_units_Z   2
loop_
 _symmetry_equiv_pos_site_id
 _symmetry_equiv_pos_as_xyz
  1  'x, y, z'
loop_
 _atom_site_type_symbol
 _atom_site_label
 _atom_site_symmetry_multiplicity
 _atom_site_fract_x
 _atom_site_fract_y
 _atom_site_fract_z
 _atom_site_occupancy
  Ta  Ta0  1  0.22160800  0.77839200  0.11071000  1
  Ta  Ta1  1  0.22160800  0.77839200  0.38929000  1
  Ta  Ta2  1  0.77839200  0.22160800  0.88929000  1
  Ta  Ta3  1  0.77839200  0.22160800  0.61071000  1
  Ni  Ni4  1  0.70233800  0.29766200  0.25000000  1
  Ni  Ni5  1  0.29766200  0.70233800  0.75000000  1
  Se  Se6  1  0.58756900  0.41243100  0.13839000  1
  Se  Se7  1  0.58756900  0.41243100  0.36161000  1
  Se  Se8  1  0.41243100  0.58756900  0.86161000  1
  Se  Se9  1  0.41243100  0.58756900  0.63839000  1
  Se  Se10  1  0.15194200  0.84805800  0.95061800  1
  Se  Se11  1  0.15194200  0.84805800  0.54938200  1
  Se  Se12  1  0.84805800  0.15194200  0.04938200  1
  Se  Se13  1  0.84805800  0.15194200  0.45061800  1
  Se  Se14  1  0.32143200  0.67856800  0.25000000  1
  Se  Se15  1  0.67856800  0.32143200  0.75000000  1
