# generated using pymatgen
data_Rb5NdHf(MoO4)6
_symmetry_space_group_name_H-M   'P 1'
_cell_length_a   14.74979350
_cell_length_b   14.74979350
_cell_length_c   14.74979413
_cell_angle_alpha   43.98461902
_cell_angle_beta   43.98461902
_cell_angle_gamma   43.98461713
_symmetry_Int_Tables_number   1
_chemical_formula_structural   Rb5NdHf(MoO4)6
_chemical_formula_sum   'Rb10 Nd2 Hf2 Mo12 O48'
_cell_volume   1405.59633992
_cell_formula_units_Z   2
loop_
 _symmetry_equiv_pos_site_id
 _symmetry_equiv_pos_as_xyz
  1  'x, y, z'
loop_
 _atom_site_type_symbol
 _atom_site_label
 _atom_site_symmetry_multiplicity
 _atom_site_fract_x
 _atom_site_fract_y
 _atom_site_fract_z
 _atom_site_occupancy
  Rb  Rb0  1  0.64658000  0.64658000  0.64658000  1
  Rb  Rb1  1  0.13884600  0.36115400  0.75000000  1
  Rb  Rb2  1  0.36115400  0.75000000  0.13884600  1
  Rb  Rb3  1  0.75000000  0.13884600  0.36115400  1
  Rb  Rb4  1  0.85342000  0.85342000  0.85342000  1
  Rb  Rb5  1  0.14658000  0.14658000  0.14658000  1
  Rb  Rb6  1  0.25000000  0.86115400  0.63884600  1
  Rb  Rb7  1  0.63884600  0.25000000  0.86115400  1
  Rb  Rb8  1  0.86115400  0.63884600  0.25000000  1
  Rb  Rb9  1  0.35342000  0.35342000  0.35342000  1
  Nd  Nd10  1  0.00000000  0.00000000  0.00000000  1
  Nd  Nd11  1  0.50000000  0.50000000  0.50000000  1
  Hf  Hf12  1  0.25000000  0.25000000  0.25000000  1
  Hf  Hf13  1  0.75000000  0.75000000  0.75000000  1
  Mo  Mo14  1  0.89057700  0.23966100  0.47204200  1
  Mo  Mo15  1  0.23966100  0.47204200  0.89057700  1
  Mo  Mo16  1  0.47204200  0.89057700  0.23966100  1
  Mo  Mo17  1  0.26033900  0.60942300  0.02795800  1
  Mo  Mo18  1  0.60942300  0.02795800  0.26033900  1
  Mo  Mo19  1  0.97204200  0.73966100  0.39057700  1
  Mo  Mo20  1  0.02795800  0.26033900  0.60942300  1
  Mo  Mo21  1  0.39057700  0.97204200  0.73966100  1
  Mo  Mo22  1  0.73966100  0.39057700  0.97204200  1
  Mo  Mo23  1  0.52795800  0.10942300  0.76033900  1
  Mo  Mo24  1  0.76033900  0.52795800  0.10942300  1
  Mo  Mo25  1  0.10942300  0.76033900  0.52795800  1
  O  O26  1  0.88389200  0.16125200  0.42806800  1
  O  O27  1  0.16125200  0.42806800  0.88389200  1
  O  O28  1  0.91161000  0.11467800  0.63411000  1
  O  O29  1  0.71928200  0.39278900  0.49911800  1
  O  O30  1  0.04258300  0.29591000  0.32026400  1
  O  O31  1  0.29591000  0.32026400  0.04258300  1
  O  O32  1  0.39278900  0.49911800  0.71928200  1
  O  O33  1  0.42806800  0.88389200  0.16125200  1
  O  O34  1  0.49911800  0.71928200  0.39278900  1
  O  O35  1  0.11467800  0.63411000  0.91161000  1
  O  O36  1  0.63411000  0.91161000  0.11467800  1
  O  O37  1  0.32026400  0.04258300  0.29591000  1
  O  O38  1  0.20409000  0.45741700  0.17973600  1
  O  O39  1  0.38532200  0.58839000  0.86589000  1
  O  O40  1  0.58839000  0.86589000  0.38532200  1
  O  O41  1  0.10721100  0.78071800  0.00088200  1
  O  O42  1  0.92806800  0.66125200  0.38389200  1
  O  O43  1  0.33874800  0.61610800  0.07193200  1
  O  O44  1  0.78071800  0.00088200  0.10721100  1
  O  O45  1  0.45741700  0.17973600  0.20409000  1
  O  O46  1  0.17973600  0.20409000  0.45741700  1
  O  O47  1  0.00088200  0.10721100  0.78071800  1
  O  O48  1  0.38389200  0.92806800  0.66125200  1
  O  O49  1  0.86589000  0.38532200  0.58839000  1
  O  O50  1  0.13411000  0.61467800  0.41161000  1
  O  O51  1  0.61610800  0.07193200  0.33874800  1
  O  O52  1  0.99911800  0.89278900  0.21928200  1
  O  O53  1  0.82026400  0.79591000  0.54258300  1
  O  O54  1  0.54258300  0.82026400  0.79591000  1
  O  O55  1  0.21928200  0.99911800  0.89278900  1
  O  O56  1  0.66125200  0.38389200  0.92806800  1
  O  O57  1  0.07193200  0.33874800  0.61610800  1
  O  O58  1  0.89278900  0.21928200  0.99911800  1
  O  O59  1  0.41161000  0.13411000  0.61467800  1
  O  O60  1  0.61467800  0.41161000  0.13411000  1
  O  O61  1  0.79591000  0.54258300  0.82026400  1
  O  O62  1  0.67973600  0.95741700  0.70409000  1
  O  O63  1  0.36589000  0.08839000  0.88532200  1
  O  O64  1  0.88532200  0.36589000  0.08839000  1
  O  O65  1  0.50088200  0.28071800  0.60721100  1
  O  O66  1  0.57193200  0.11610800  0.83874800  1
  O  O67  1  0.60721100  0.50088200  0.28071800  1
  O  O68  1  0.70409000  0.67973600  0.95741700  1
  O  O69  1  0.95741700  0.70409000  0.67973600  1
  O  O70  1  0.28071800  0.60721100  0.50088200  1
  O  O71  1  0.08839000  0.88532200  0.36589000  1
  O  O72  1  0.83874800  0.57193200  0.11610800  1
  O  O73  1  0.11610800  0.83874800  0.57193200  1
