# generated using pymatgen
data_Ta2Co
_symmetry_space_group_name_H-M   'P 1'
_cell_length_a   4.99925887
_cell_length_b   4.99925887
_cell_length_c   4.99925887
_cell_angle_alpha   104.37774900
_cell_angle_beta   104.37774900
_cell_angle_gamma   120.22337927
_symmetry_Int_Tables_number   1
_chemical_formula_structural   Ta2Co
_chemical_formula_sum   'Ta4 Co2'
_cell_volume   93.60172511
_cell_formula_units_Z   2
loop_
 _symmetry_equiv_pos_site_id
 _symmetry_equiv_pos_as_xyz
  1  'x, y, z'
loop_
 _atom_site_type_symbol
 _atom_site_label
 _atom_site_symmetry_multiplicity
 _atom_site_fract_x
 _atom_site_fract_y
 _atom_site_fract_z
 _atom_site_occupancy
  Ta  Ta0  1  0.16094200  0.66094200  0.82188400  1
  Ta  Ta1  1  0.83905800  0.33905800  0.17811600  1
  Ta  Ta2  1  0.33905800  0.16094200  0.50000000  1
  Ta  Ta3  1  0.66094200  0.83905800  0.50000000  1
  Co  Co4  1  0.25000000  0.25000000  0.00000000  1
  Co  Co5  1  0.75000000  0.75000000  0.00000000  1
