# generated using pymatgen
data_SmMnSe2ClO6
_symmetry_space_group_name_H-M   'P 1'
_cell_length_a   7.09591900
_cell_length_b   7.36641139
_cell_length_c   8.16734404
_cell_angle_alpha   86.66208808
_cell_angle_beta   108.30400916
_cell_angle_gamma   115.64565564
_symmetry_Int_Tables_number   1
_chemical_formula_structural   SmMnSe2ClO6
_chemical_formula_sum   'Sm2 Mn2 Se4 Cl2 O12'
_cell_volume   363.88073165
_cell_formula_units_Z   2
loop_
 _symmetry_equiv_pos_site_id
 _symmetry_equiv_pos_as_xyz
  1  'x, y, z'
loop_
 _atom_site_type_symbol
 _atom_site_label
 _atom_site_symmetry_multiplicity
 _atom_site_fract_x
 _atom_site_fract_y
 _atom_site_fract_z
 _atom_site_occupancy
  Sm  Sm0  1  0.82039300  0.16991100  0.46742200  1
  Sm  Sm1  1  0.17960700  0.83008900  0.53257800  1
  Mn  Mn2  1  0.19855400  0.90377500  0.02252300  1
  Mn  Mn3  1  0.80144600  0.09622500  0.97747700  1
  Se  Se4  1  0.82387700  0.52501200  0.18241400  1
  Se  Se5  1  0.17612300  0.47498800  0.81758600  1
  Se  Se6  1  0.70232300  0.74078700  0.68207800  1
  Se  Se7  1  0.29767700  0.25921300  0.31792200  1
  Cl  Cl8  1  0.43383400  0.14504800  0.83297700  1
  Cl  Cl9  1  0.56616600  0.85495200  0.16702300  1
  O  O10  1  0.12348700  0.68548500  0.81380400  1
  O  O11  1  0.18282700  0.47760900  0.60752500  1
  O  O12  1  0.44931000  0.12171200  0.38764200  1
  O  O13  1  0.87651300  0.31451500  0.18619600  1
  O  O14  1  0.09339200  0.10553900  0.40301200  1
  O  O15  1  0.17339200  0.16997800  0.10100200  1
  O  O16  1  0.08692900  0.72454400  0.22552300  1
  O  O17  1  0.81717300  0.52239100  0.39247500  1
  O  O18  1  0.91307100  0.27545600  0.77447700  1
  O  O19  1  0.55069000  0.87828800  0.61235800  1
  O  O20  1  0.82660800  0.83002200  0.89899800  1
  O  O21  1  0.90660800  0.89446100  0.59698800  1
