# generated using pymatgen
data_K4Ba(GeO3)3
_symmetry_space_group_name_H-M   'P 1'
_cell_length_a   7.56790919
_cell_length_b   7.56790919
_cell_length_c   11.56563123
_cell_angle_alpha   89.72421371
_cell_angle_beta   89.72421371
_cell_angle_gamma   111.61380254
_symmetry_Int_Tables_number   1
_chemical_formula_structural   K4Ba(GeO3)3
_chemical_formula_sum   'K8 Ba2 Ge6 O18'
_cell_volume   615.80378780
_cell_formula_units_Z   2
loop_
 _symmetry_equiv_pos_site_id
 _symmetry_equiv_pos_as_xyz
  1  'x, y, z'
loop_
 _atom_site_type_symbol
 _atom_site_label
 _atom_site_symmetry_multiplicity
 _atom_site_fract_x
 _atom_site_fract_y
 _atom_site_fract_z
 _atom_site_occupancy
  K  K0  1  0.29327700  0.15783500  0.74907100  1
  K  K1  1  0.05010400  0.94989600  0.00000000  1
  K  K2  1  0.84216500  0.70672300  0.25092900  1
  K  K3  1  0.56680200  0.43319800  0.00000000  1
  K  K4  1  0.58685900  0.41314100  0.50000000  1
  K  K5  1  0.31042600  0.58320200  0.25429600  1
  K  K6  1  0.99844800  0.00155200  0.50000000  1
  K  K7  1  0.41679800  0.68957400  0.74570400  1
  Ba  Ba8  1  0.81724900  0.19761000  0.22965300  1
  Ba  Ba9  1  0.80239000  0.18275100  0.77034700  1
  Ge  Ge10  1  0.88977400  0.66731000  0.74190300  1
  Ge  Ge11  1  0.33269000  0.11022600  0.25809700  1
  Ge  Ge12  1  0.48640400  0.90765600  0.47564000  1
  Ge  Ge13  1  0.10048500  0.50751300  0.96911100  1
  Ge  Ge14  1  0.09234400  0.51359600  0.52436000  1
  Ge  Ge15  1  0.49248700  0.89951500  0.03088900  1
  O  O16  1  0.34606000  0.65394000  0.50000000  1
  O  O17  1  0.10200300  0.09741700  0.23916900  1
  O  O18  1  0.90258300  0.89799700  0.76083100  1
  O  O19  1  0.99158900  0.66851400  0.59814000  1
  O  O20  1  0.34906700  0.65093300  0.00000000  1
  O  O21  1  0.48976900  0.05106200  0.91769000  1
  O  O22  1  0.36801900  0.94015400  0.15863600  1
  O  O23  1  0.33148600  0.00841100  0.40186000  1
  O  O24  1  0.05984600  0.63198100  0.84136400  1
  O  O25  1  0.70729100  0.89345700  0.07816300  1
  O  O26  1  0.51765400  0.33336800  0.24905900  1
  O  O27  1  0.09595600  0.32982000  0.61435700  1
  O  O28  1  0.67018000  0.90404400  0.38564300  1
  O  O29  1  0.53839300  0.02541400  0.60781600  1
  O  O30  1  0.94893800  0.51023100  0.08231000  1
  O  O31  1  0.10654300  0.29270900  0.92183700  1
  O  O32  1  0.97458600  0.46160700  0.39218400  1
  O  O33  1  0.66663200  0.48234600  0.75094100  1
