# generated using pymatgen
data_BiO2
_symmetry_space_group_name_H-M   'P 1'
_cell_length_a   6.80898389
_cell_length_b   6.80898389
_cell_length_c   5.67722379
_cell_angle_alpha   73.40030009
_cell_angle_beta   73.40030009
_cell_angle_gamma   45.64056068
_symmetry_Int_Tables_number   1
_chemical_formula_structural   BiO2
_chemical_formula_sum   'Bi4 O8'
_cell_volume   178.91866854
_cell_formula_units_Z   4
loop_
 _symmetry_equiv_pos_site_id
 _symmetry_equiv_pos_as_xyz
  1  'x, y, z'
loop_
 _atom_site_type_symbol
 _atom_site_label
 _atom_site_symmetry_multiplicity
 _atom_site_fract_x
 _atom_site_fract_y
 _atom_site_fract_z
 _atom_site_occupancy
  Bi  Bi0  1  0.27089400  0.72910600  0.75000000  1
  Bi  Bi1  1  0.72910600  0.27089400  0.25000000  1
  Bi  Bi2  1  0.50000000  0.00000000  0.00000000  1
  Bi  Bi3  1  0.00000000  0.50000000  0.50000000  1
  O  O4  1  0.49331800  0.32132500  0.97831600  1
  O  O5  1  0.23642000  0.11489400  0.34987700  1
  O  O6  1  0.76358000  0.88510600  0.65012300  1
  O  O7  1  0.88510600  0.76358000  0.15012300  1
  O  O8  1  0.11489400  0.23642000  0.84987700  1
  O  O9  1  0.32132500  0.49331800  0.47831600  1
  O  O10  1  0.67867500  0.50668200  0.52168400  1
  O  O11  1  0.50668200  0.67867500  0.02168400  1
