# generated using pymatgen
data_PNF2
_symmetry_space_group_name_H-M   'P 1'
_cell_length_a   5.29910197
_cell_length_b   5.29910197
_cell_length_c   4.98913500
_cell_angle_alpha   90.00000000
_cell_angle_beta   90.00000000
_cell_angle_gamma   116.37209838
_symmetry_Int_Tables_number   1
_chemical_formula_structural   PNF2
_chemical_formula_sum   'P2 N2 F4'
_cell_volume   125.51713175
_cell_formula_units_Z   2
loop_
 _symmetry_equiv_pos_site_id
 _symmetry_equiv_pos_as_xyz
  1  'x, y, z'
loop_
 _atom_site_type_symbol
 _atom_site_label
 _atom_site_symmetry_multiplicity
 _atom_site_fract_x
 _atom_site_fract_y
 _atom_site_fract_z
 _atom_site_occupancy
  P  P0  1  0.86684400  0.86684400  0.50469800  1
  P  P1  1  0.13315600  0.13315600  0.00469800  1
  N  N2  1  0.91185700  0.91185700  0.19537500  1
  N  N3  1  0.08814300  0.08814300  0.69537500  1
  F  F4  1  0.17467800  0.43812100  0.06946400  1
  F  F5  1  0.82532200  0.56187900  0.56946400  1
  F  F6  1  0.43812100  0.17467800  0.06946400  1
  F  F7  1  0.56187900  0.82532200  0.56946400  1
