# generated using pymatgen
data_La2Pd2O5
_symmetry_space_group_name_H-M   'P 1'
_cell_length_a   6.75307200
_cell_length_b   6.75307200
_cell_length_c   5.66666400
_cell_angle_alpha   90.00000000
_cell_angle_beta   90.00000000
_cell_angle_gamma   90.00000000
_symmetry_Int_Tables_number   1
_chemical_formula_structural   La2Pd2O5
_chemical_formula_sum   'La4 Pd4 O10'
_cell_volume   258.42243987
_cell_formula_units_Z   2
loop_
 _symmetry_equiv_pos_site_id
 _symmetry_equiv_pos_as_xyz
  1  'x, y, z'
loop_
 _atom_site_type_symbol
 _atom_site_label
 _atom_site_symmetry_multiplicity
 _atom_site_fract_x
 _atom_site_fract_y
 _atom_site_fract_z
 _atom_site_occupancy
  La  La0  1  0.73803200  0.10759200  0.50000000  1
  La  La1  1  0.89240800  0.73803200  0.00000000  1
  La  La2  1  0.26196800  0.89240800  0.50000000  1
  La  La3  1  0.10759200  0.26196800  0.00000000  1
  Pd  Pd4  1  0.59459800  0.30899000  0.00000000  1
  Pd  Pd5  1  0.30899000  0.40540200  0.50000000  1
  Pd  Pd6  1  0.40540200  0.69101000  0.00000000  1
  Pd  Pd7  1  0.69101000  0.59459800  0.50000000  1
  O  O8  1  0.59662300  0.80070800  0.25743800  1
  O  O9  1  0.80070800  0.40337700  0.75743800  1
  O  O10  1  0.40337700  0.19929200  0.74256200  1
  O  O11  1  0.40337700  0.19929200  0.25743800  1
  O  O12  1  0.00000000  0.00000000  0.75000000  1
  O  O13  1  0.19929200  0.59662300  0.75743800  1
  O  O14  1  0.19929200  0.59662300  0.24256200  1
  O  O15  1  0.59662300  0.80070800  0.74256200  1
  O  O16  1  0.00000000  0.00000000  0.25000000  1
  O  O17  1  0.80070800  0.40337700  0.24256200  1
