# generated using pymatgen
data_Cs10Si7O9
_symmetry_space_group_name_H-M   'P 1'
_cell_length_a   8.30661000
_cell_length_b   15.22117500
_cell_length_c   23.91131240
_cell_angle_alpha   86.25654755
_cell_angle_beta   90.00000000
_cell_angle_gamma   90.00000000
_symmetry_Int_Tables_number   1
_chemical_formula_structural   Cs10Si7O9
_chemical_formula_sum   'Cs40 Si28 O36'
_cell_volume   3016.80895490
_cell_formula_units_Z   4
loop_
 _symmetry_equiv_pos_site_id
 _symmetry_equiv_pos_as_xyz
  1  'x, y, z'
loop_
 _atom_site_type_symbol
 _atom_site_label
 _atom_site_symmetry_multiplicity
 _atom_site_fract_x
 _atom_site_fract_y
 _atom_site_fract_z
 _atom_site_occupancy
  Cs  Cs0  1  0.61795800  0.15464400  0.29771800  1
  Cs  Cs1  1  0.36293700  0.62291900  0.96166100  1
  Cs  Cs2  1  0.63706300  0.62291900  0.46166100  1
  Cs  Cs3  1  0.62427800  0.87896400  0.54407600  1
  Cs  Cs4  1  0.54153600  0.91043900  0.85043200  1
  Cs  Cs5  1  0.37572200  0.12103600  0.45592400  1
  Cs  Cs6  1  0.47344200  0.59704900  0.65368900  1
  Cs  Cs7  1  0.63255800  0.35131000  0.69008300  1
  Cs  Cs8  1  0.36744200  0.35131000  0.19008300  1
  Cs  Cs9  1  0.99684300  0.48222900  0.90710800  1
  Cs  Cs10  1  0.52655800  0.40295100  0.34631100  1
  Cs  Cs11  1  0.61795800  0.84535600  0.20228200  1
  Cs  Cs12  1  0.38204200  0.84535600  0.70228200  1
  Cs  Cs13  1  0.45846400  0.08956100  0.14956800  1
  Cs  Cs14  1  0.99684300  0.51777100  0.59289200  1
  Cs  Cs15  1  0.03822000  0.72239600  0.17975800  1
  Cs  Cs16  1  0.04124000  0.96843500  0.59395300  1
  Cs  Cs17  1  0.95876000  0.96843500  0.09395300  1
  Cs  Cs18  1  0.03773300  0.78333800  0.84142300  1
  Cs  Cs19  1  0.63255800  0.64869000  0.80991700  1
  Cs  Cs20  1  0.00315700  0.51777100  0.09289200  1
  Cs  Cs21  1  0.52655800  0.59704900  0.15368900  1
  Cs  Cs22  1  0.03773300  0.21666200  0.65857700  1
  Cs  Cs23  1  0.47344200  0.40295100  0.84631100  1
  Cs  Cs24  1  0.37572200  0.87896400  0.04407600  1
  Cs  Cs25  1  0.96178000  0.72239600  0.67975800  1
  Cs  Cs26  1  0.36293700  0.37708100  0.53833900  1
  Cs  Cs27  1  0.54153600  0.08956100  0.64956800  1
  Cs  Cs28  1  0.03822000  0.27760400  0.32024200  1
  Cs  Cs29  1  0.45846400  0.91043900  0.35043200  1
  Cs  Cs30  1  0.62427800  0.12103600  0.95592400  1
  Cs  Cs31  1  0.00315700  0.48222900  0.40710800  1
  Cs  Cs32  1  0.36744200  0.64869000  0.30991700  1
  Cs  Cs33  1  0.96178000  0.27760400  0.82024200  1
  Cs  Cs34  1  0.96226700  0.78333800  0.34142300  1
  Cs  Cs35  1  0.04124000  0.03156500  0.90604700  1
  Cs  Cs36  1  0.38204200  0.15464400  0.79771800  1
  Cs  Cs37  1  0.63706300  0.37708100  0.03833900  1
  Cs  Cs38  1  0.96226700  0.21666200  0.15857700  1
  Cs  Cs39  1  0.95876000  0.03156500  0.40604700  1
  Si  Si40  1  0.01329400  0.75272000  0.00766600  1
  Si  Si41  1  0.22697200  0.41467400  0.71591200  1
  Si  Si42  1  0.78271900  0.83857500  0.97199300  1
  Si  Si43  1  0.98670600  0.75272000  0.50766600  1
  Si  Si44  1  0.24236800  0.74602100  0.55739600  1
  Si  Si45  1  0.98670600  0.24728000  0.99233400  1
  Si  Si46  1  0.21697600  0.90954500  0.22246900  1
  Si  Si47  1  0.78271900  0.16142500  0.52800700  1
  Si  Si48  1  0.77302800  0.58532600  0.28408800  1
  Si  Si49  1  0.90141300  0.50000000  0.75000000  1
  Si  Si50  1  0.09858700  0.50000000  0.25000000  1
  Si  Si51  1  0.78302400  0.90954500  0.72246900  1
  Si  Si52  1  0.21728100  0.83857500  0.47199300  1
  Si  Si53  1  0.21728100  0.16142500  0.02800700  1
  Si  Si54  1  0.78539100  0.32242700  0.53185700  1
  Si  Si55  1  0.78302400  0.09045500  0.77753100  1
  Si  Si56  1  0.78539100  0.67757300  0.96814300  1
  Si  Si57  1  0.21460900  0.67757300  0.46814300  1
  Si  Si58  1  0.24236800  0.25397900  0.94260400  1
  Si  Si59  1  0.21697600  0.09045500  0.27753100  1
  Si  Si60  1  0.01329400  0.24728000  0.49233400  1
  Si  Si61  1  0.21460900  0.32242700  0.03185700  1
  Si  Si62  1  0.77302800  0.41467400  0.21591200  1
  Si  Si63  1  0.10914700  0.00000000  0.75000000  1
  Si  Si64  1  0.75763200  0.74602100  0.05739600  1
  Si  Si65  1  0.22697200  0.58532600  0.78408800  1
  Si  Si66  1  0.89085300  0.00000000  0.25000000  1
  Si  Si67  1  0.75763200  0.25397900  0.44260400  1
  O  O68  1  0.01497500  0.07829900  0.27356700  1
  O  O69  1  0.21254500  0.04215900  0.69727100  1
  O  O70  1  0.69793600  0.50000000  0.25000000  1
  O  O71  1  0.71830500  0.42689800  0.15057300  1
  O  O72  1  0.30206400  0.50000000  0.75000000  1
  O  O73  1  0.29392000  0.00000000  0.25000000  1
  O  O74  1  0.21254500  0.95784100  0.80272900  1
  O  O75  1  0.79775300  0.45052500  0.80013900  1
  O  O76  1  0.71640500  0.67657900  0.25139700  1
  O  O77  1  0.71830500  0.57310200  0.34942700  1
  O  O78  1  0.71640500  0.32342100  0.24860300  1
  O  O79  1  0.28169500  0.57310200  0.84942700  1
  O  O80  1  0.27205500  0.90942500  0.15735600  1
  O  O81  1  0.27108900  0.82349400  0.26163200  1
  O  O82  1  0.98502500  0.07829900  0.77356700  1
  O  O83  1  0.98502500  0.92170100  0.72643300  1
  O  O84  1  0.97507100  0.42608500  0.22134900  1
  O  O85  1  0.28169500  0.42689800  0.65057300  1
  O  O86  1  0.27205500  0.09057500  0.34264400  1
  O  O87  1  0.70608000  0.00000000  0.75000000  1
  O  O88  1  0.02492900  0.42608500  0.72134900  1
  O  O89  1  0.28359500  0.32342100  0.74860300  1
  O  O90  1  0.02492900  0.57391500  0.77865100  1
  O  O91  1  0.20224700  0.45052500  0.30013900  1
  O  O92  1  0.79775300  0.54947500  0.69986100  1
  O  O93  1  0.27108900  0.17650600  0.23836800  1
  O  O94  1  0.72794500  0.90942500  0.65735600  1
  O  O95  1  0.78745500  0.04215900  0.19727100  1
  O  O96  1  0.78745500  0.95784100  0.30272900  1
  O  O97  1  0.28359500  0.67657900  0.75139700  1
  O  O98  1  0.20224700  0.54947500  0.19986100  1
  O  O99  1  0.72891100  0.17650600  0.73836800  1
  O  O100  1  0.01497500  0.92170100  0.22643300  1
  O  O101  1  0.97507100  0.57391500  0.27865100  1
  O  O102  1  0.72794500  0.09057500  0.84264400  1
  O  O103  1  0.72891100  0.82349400  0.76163200  1
