# generated using pymatgen
data_K3(FeSe2)2
_symmetry_space_group_name_H-M   'P 1'
_cell_length_a   7.58327200
_cell_length_b   11.20050000
_cell_length_c   12.28398400
_cell_angle_alpha   90.00000000
_cell_angle_beta   90.00000000
_cell_angle_gamma   90.00000000
_symmetry_Int_Tables_number   1
_chemical_formula_structural   K3(FeSe2)2
_chemical_formula_sum   'K12 Fe8 Se16'
_cell_volume   1043.35784585
_cell_formula_units_Z   4
loop_
 _symmetry_equiv_pos_site_id
 _symmetry_equiv_pos_as_xyz
  1  'x, y, z'
loop_
 _atom_site_type_symbol
 _atom_site_label
 _atom_site_symmetry_multiplicity
 _atom_site_fract_x
 _atom_site_fract_y
 _atom_site_fract_z
 _atom_site_occupancy
  K  K0  1  0.08347300  0.25000000  0.76273000  1
  K  K1  1  0.58347300  0.25000000  0.73727000  1
  K  K2  1  0.91652700  0.75000000  0.23727000  1
  K  K3  1  0.41652700  0.75000000  0.26273000  1
  K  K4  1  0.07042100  0.42755300  0.13708300  1
  K  K5  1  0.57042100  0.07244700  0.36291700  1
  K  K6  1  0.92957900  0.92755300  0.86291700  1
  K  K7  1  0.42957900  0.57244700  0.63708300  1
  K  K8  1  0.92957900  0.57244700  0.86291700  1
  K  K9  1  0.42957900  0.92755300  0.63708300  1
  K  K10  1  0.07042100  0.07244700  0.13708300  1
  K  K11  1  0.57042100  0.42755300  0.36291700  1
  Fe  Fe12  1  0.05067400  0.36734100  0.47051900  1
  Fe  Fe13  1  0.55067400  0.13265900  0.02948100  1
  Fe  Fe14  1  0.94932600  0.86734100  0.52948100  1
  Fe  Fe15  1  0.44932600  0.63265900  0.97051900  1
  Fe  Fe16  1  0.94932600  0.63265900  0.52948100  1
  Fe  Fe17  1  0.44932600  0.86734100  0.97051900  1
  Fe  Fe18  1  0.05067400  0.13265900  0.47051900  1
  Fe  Fe19  1  0.55067400  0.36734100  0.02948100  1
  Se  Se20  1  0.15400900  0.55477800  0.39152600  1
  Se  Se21  1  0.65400900  0.94522200  0.10847400  1
  Se  Se22  1  0.84599100  0.05477800  0.60847400  1
  Se  Se23  1  0.34599100  0.44522200  0.89152600  1
  Se  Se24  1  0.84599100  0.44522200  0.60847400  1
  Se  Se25  1  0.34599100  0.05477800  0.89152600  1
  Se  Se26  1  0.15400900  0.94522200  0.39152600  1
  Se  Se27  1  0.65400900  0.55477800  0.10847400  1
  Se  Se28  1  0.30105300  0.25000000  0.53407400  1
  Se  Se29  1  0.80105300  0.25000000  0.96592600  1
  Se  Se30  1  0.69894700  0.75000000  0.46592600  1
  Se  Se31  1  0.19894700  0.75000000  0.03407400  1
  Se  Se32  1  0.40835300  0.25000000  0.16716500  1
  Se  Se33  1  0.90835300  0.25000000  0.33283500  1
  Se  Se34  1  0.59164700  0.75000000  0.83283500  1
  Se  Se35  1  0.09164700  0.75000000  0.66716500  1
