# generated using pymatgen
data_SrVClO3
_symmetry_space_group_name_H-M   'P 1'
_cell_length_a   5.33427200
_cell_length_b   7.08569100
_cell_length_c   10.24580900
_cell_angle_alpha   90.00000000
_cell_angle_beta   90.00000000
_cell_angle_gamma   90.00000000
_symmetry_Int_Tables_number   1
_chemical_formula_structural   SrVClO3
_chemical_formula_sum   'Sr4 V4 Cl4 O12'
_cell_volume   387.26087456
_cell_formula_units_Z   4
loop_
 _symmetry_equiv_pos_site_id
 _symmetry_equiv_pos_as_xyz
  1  'x, y, z'
loop_
 _atom_site_type_symbol
 _atom_site_label
 _atom_site_symmetry_multiplicity
 _atom_site_fract_x
 _atom_site_fract_y
 _atom_site_fract_z
 _atom_site_occupancy
  Sr  Sr0  1  0.75000000  0.90303700  0.81126400  1
  Sr  Sr1  1  0.75000000  0.59696300  0.31126400  1
  Sr  Sr2  1  0.25000000  0.09696300  0.18873600  1
  Sr  Sr3  1  0.25000000  0.40303700  0.68873600  1
  V  V4  1  0.75000000  0.05816800  0.46233400  1
  V  V5  1  0.75000000  0.44183200  0.96233400  1
  V  V6  1  0.25000000  0.55816800  0.03766600  1
  V  V7  1  0.25000000  0.94183200  0.53766600  1
  Cl  Cl8  1  0.25000000  0.43265800  0.39184900  1
  Cl  Cl9  1  0.25000000  0.06734200  0.89184900  1
  Cl  Cl10  1  0.75000000  0.93265800  0.10815100  1
  Cl  Cl11  1  0.75000000  0.56734200  0.60815100  1
  O  O12  1  0.75000000  0.26136400  0.86138100  1
  O  O13  1  0.00599800  0.90410600  0.40025800  1
  O  O14  1  0.49400200  0.90410600  0.40025800  1
  O  O15  1  0.99400200  0.09589400  0.59974200  1
  O  O16  1  0.75000000  0.23863600  0.36138100  1
  O  O17  1  0.25000000  0.73863600  0.13861900  1
  O  O18  1  0.49400200  0.59589400  0.90025800  1
  O  O19  1  0.50599800  0.09589400  0.59974200  1
  O  O20  1  0.00599800  0.59589400  0.90025800  1
  O  O21  1  0.25000000  0.76136400  0.63861900  1
  O  O22  1  0.99400200  0.40410600  0.09974200  1
  O  O23  1  0.50599800  0.40410600  0.09974200  1
