# generated using pymatgen
data_Nb3Se10Cl3
_symmetry_space_group_name_H-M   'P 1'
_cell_length_a   19.29286500
_cell_length_b   7.81168100
_cell_length_c   12.51835125
_cell_angle_alpha   82.31187021
_cell_angle_beta   90.00000000
_cell_angle_gamma   90.00000000
_symmetry_Int_Tables_number   1
_chemical_formula_structural   Nb3Se10Cl3
_chemical_formula_sum   'Nb12 Se40 Cl12'
_cell_volume   1869.67794888
_cell_formula_units_Z   4
loop_
 _symmetry_equiv_pos_site_id
 _symmetry_equiv_pos_as_xyz
  1  'x, y, z'
loop_
 _atom_site_type_symbol
 _atom_site_label
 _atom_site_symmetry_multiplicity
 _atom_site_fract_x
 _atom_site_fract_y
 _atom_site_fract_z
 _atom_site_occupancy
  Nb  Nb0  1  0.14879900  0.84675900  0.15790000  1
  Nb  Nb1  1  0.50025800  0.24556700  0.74931900  1
  Nb  Nb2  1  0.49974200  0.75443300  0.25068100  1
  Nb  Nb3  1  0.85120100  0.15324100  0.84210000  1
  Nb  Nb4  1  0.35120100  0.84675900  0.15790000  1
  Nb  Nb5  1  0.35155800  0.33186000  0.65519800  1
  Nb  Nb6  1  0.00025800  0.75443300  0.25068100  1
  Nb  Nb7  1  0.64879900  0.15324100  0.84210000  1
  Nb  Nb8  1  0.99974200  0.24556700  0.74931900  1
  Nb  Nb9  1  0.14844200  0.33186000  0.65519800  1
  Nb  Nb10  1  0.64844200  0.66814000  0.34480200  1
  Nb  Nb11  1  0.85155800  0.66814000  0.34480200  1
  Se  Se12  1  0.92597300  0.95139900  0.73964200  1
  Se  Se13  1  0.46298500  0.53998800  0.62956100  1
  Se  Se14  1  0.08751800  0.49293200  0.80052600  1
  Se  Se15  1  0.42874100  0.08215500  0.60451700  1
  Se  Se16  1  0.57125900  0.91784500  0.39548300  1
  Se  Se17  1  0.25000000  0.37011100  0.80220400  1
  Se  Se18  1  0.91419100  0.44903500  0.85074200  1
  Se  Se19  1  0.75000000  0.26670700  0.97024300  1
  Se  Se20  1  0.08580900  0.55096500  0.14925800  1
  Se  Se21  1  0.75000000  0.39523200  0.79077900  1
  Se  Se22  1  0.25000000  0.60476800  0.20922100  1
  Se  Se23  1  0.53568900  0.21279500  0.95722800  1
  Se  Se24  1  0.25000000  0.57896200  0.64993200  1
  Se  Se25  1  0.11124700  0.04662200  0.78562700  1
  Se  Se26  1  0.03701500  0.53998800  0.62956100  1
  Se  Se27  1  0.91248200  0.50706800  0.19947400  1
  Se  Se28  1  0.88668400  0.20790600  0.63350600  1
  Se  Se29  1  0.38668400  0.79209400  0.36649400  1
  Se  Se30  1  0.96298500  0.46001200  0.37043900  1
  Se  Se31  1  0.53701500  0.46001200  0.37043900  1
  Se  Se32  1  0.42597300  0.04860100  0.26035800  1
  Se  Se33  1  0.61331600  0.20790600  0.63350600  1
  Se  Se34  1  0.75000000  0.62988900  0.19779600  1
  Se  Se35  1  0.58751800  0.50706800  0.19947400  1
  Se  Se36  1  0.96431100  0.21279500  0.95722800  1
  Se  Se37  1  0.07125900  0.08215500  0.60451700  1
  Se  Se38  1  0.41419100  0.55096500  0.14925800  1
  Se  Se39  1  0.25000000  0.73329300  0.02975700  1
  Se  Se40  1  0.75000000  0.42103800  0.35006800  1
  Se  Se41  1  0.11331600  0.79209400  0.36649400  1
  Se  Se42  1  0.58580900  0.44903500  0.85074200  1
  Se  Se43  1  0.41248200  0.49293200  0.80052600  1
  Se  Se44  1  0.61124700  0.95337800  0.21437300  1
  Se  Se45  1  0.92874100  0.91784500  0.39548300  1
  Se  Se46  1  0.46431100  0.78720500  0.04277200  1
  Se  Se47  1  0.03568900  0.78720500  0.04277200  1
  Se  Se48  1  0.88875300  0.95337800  0.21437300  1
  Se  Se49  1  0.07402700  0.04860100  0.26035800  1
  Se  Se50  1  0.57402700  0.95139900  0.73964200  1
  Se  Se51  1  0.38875300  0.04662200  0.78562700  1
  Cl  Cl52  1  0.14956800  0.10847900  0.01519700  1
  Cl  Cl53  1  0.14903900  0.41656500  0.45343900  1
  Cl  Cl54  1  0.64903900  0.58343500  0.54656100  1
  Cl  Cl55  1  0.75000000  0.85803400  0.39701900  1
  Cl  Cl56  1  0.35043200  0.10847900  0.01519700  1
  Cl  Cl57  1  0.64956800  0.89152100  0.98480300  1
  Cl  Cl58  1  0.35096100  0.41656500  0.45343900  1
  Cl  Cl59  1  0.85043200  0.89152100  0.98480300  1
  Cl  Cl60  1  0.75000000  0.98205700  0.77310900  1
  Cl  Cl61  1  0.85096100  0.58343500  0.54656100  1
  Cl  Cl62  1  0.25000000  0.01794300  0.22689100  1
  Cl  Cl63  1  0.25000000  0.14196600  0.60298100  1
