# generated using pymatgen
data_Ca2As3Pb3ClO12
_symmetry_space_group_name_H-M   'P 1'
_cell_length_a   10.39668224
_cell_length_b   10.39668224
_cell_length_c   7.18141300
_cell_angle_alpha   90.00000000
_cell_angle_beta   90.00000000
_cell_angle_gamma   120.00000150
_symmetry_Int_Tables_number   1
_chemical_formula_structural   Ca2As3Pb3ClO12
_chemical_formula_sum   'Ca4 As6 Pb6 Cl2 O24'
_cell_volume   672.24885237
_cell_formula_units_Z   2
loop_
 _symmetry_equiv_pos_site_id
 _symmetry_equiv_pos_as_xyz
  1  'x, y, z'
loop_
 _atom_site_type_symbol
 _atom_site_label
 _atom_site_symmetry_multiplicity
 _atom_site_fract_x
 _atom_site_fract_y
 _atom_site_fract_z
 _atom_site_occupancy
  Ca  Ca0  1  0.66666700  0.33333300  0.50616900  1
  Ca  Ca1  1  0.33333300  0.66666700  0.49383100  1
  Ca  Ca2  1  0.66666700  0.33333300  0.99383100  1
  Ca  Ca3  1  0.33333300  0.66666700  0.00616900  1
  As  As4  1  0.60874300  0.02977500  0.25000000  1
  As  As5  1  0.02977500  0.42103300  0.75000000  1
  As  As6  1  0.57896700  0.60874300  0.75000000  1
  As  As7  1  0.39125700  0.97022500  0.75000000  1
  As  As8  1  0.97022500  0.57896700  0.25000000  1
  As  As9  1  0.42103300  0.39125700  0.25000000  1
  Pb  Pb10  1  0.23550000  0.26203400  0.75000000  1
  Pb  Pb11  1  0.02653300  0.76450000  0.75000000  1
  Pb  Pb12  1  0.76450000  0.73796600  0.25000000  1
  Pb  Pb13  1  0.73796600  0.97346700  0.75000000  1
  Pb  Pb14  1  0.97346700  0.23550000  0.25000000  1
  Pb  Pb15  1  0.26203400  0.02653300  0.25000000  1
  Cl  Cl16  1  0.00000000  0.00000000  0.50000000  1
  Cl  Cl17  1  0.00000000  0.00000000  0.00000000  1
  O  O18  1  0.36352300  0.27456500  0.44074100  1
  O  O19  1  0.53076200  0.14484300  0.25000000  1
  O  O20  1  0.72543500  0.08895800  0.05925900  1
  O  O21  1  0.91104200  0.63647700  0.05925900  1
  O  O22  1  0.46923800  0.85515700  0.75000000  1
  O  O23  1  0.08895800  0.36352300  0.55925900  1
  O  O24  1  0.27456500  0.91104200  0.94074100  1
  O  O25  1  0.63345600  0.47860500  0.75000000  1
  O  O26  1  0.14484300  0.61408100  0.75000000  1
  O  O27  1  0.38591900  0.53076200  0.75000000  1
  O  O28  1  0.36654400  0.52139500  0.25000000  1
  O  O29  1  0.63647700  0.72543500  0.94074100  1
  O  O30  1  0.84514900  0.36654400  0.75000000  1
  O  O31  1  0.15485100  0.63345600  0.25000000  1
  O  O32  1  0.63647700  0.72543500  0.55925900  1
  O  O33  1  0.27456500  0.91104200  0.55925900  1
  O  O34  1  0.08895800  0.36352300  0.94074100  1
  O  O35  1  0.85515700  0.38591900  0.25000000  1
  O  O36  1  0.47860500  0.84514900  0.25000000  1
  O  O37  1  0.36352300  0.27456500  0.05925900  1
  O  O38  1  0.61408100  0.46923800  0.25000000  1
  O  O39  1  0.91104200  0.63647700  0.44074100  1
  O  O40  1  0.72543500  0.08895800  0.44074100  1
  O  O41  1  0.52139500  0.15485100  0.75000000  1
