# generated using pymatgen
data_Cs2Zn3S4
_symmetry_space_group_name_H-M   'P 1'
_cell_length_a   9.58083951
_cell_length_b   9.58083951
_cell_length_c   9.58083951
_cell_angle_alpha   144.00049335
_cell_angle_beta   106.12652817
_cell_angle_gamma   85.02152273
_symmetry_Int_Tables_number   1
_chemical_formula_structural   Cs2Zn3S4
_chemical_formula_sum   'Cs4 Zn6 S8'
_cell_volume   481.53665663
_cell_formula_units_Z   2
loop_
 _symmetry_equiv_pos_site_id
 _symmetry_equiv_pos_as_xyz
  1  'x, y, z'
loop_
 _atom_site_type_symbol
 _atom_site_label
 _atom_site_symmetry_multiplicity
 _atom_site_fract_x
 _atom_site_fract_y
 _atom_site_fract_z
 _atom_site_occupancy
  Cs  Cs0  1  0.87909400  0.76571800  0.64481200  1
  Cs  Cs1  1  0.62090600  0.26571800  0.88662400  1
  Cs  Cs2  1  0.37909400  0.73428200  0.11337600  1
  Cs  Cs3  1  0.12090600  0.23428200  0.35518800  1
  Zn  Zn4  1  0.25000000  0.75000000  0.50000000  1
  Zn  Zn5  1  0.75000000  0.25000000  0.50000000  1
  Zn  Zn6  1  0.02449900  0.25000000  0.77449900  1
  Zn  Zn7  1  0.47550100  0.25000000  0.22550100  1
  Zn  Zn8  1  0.97550100  0.75000000  0.22550100  1
  Zn  Zn9  1  0.52449900  0.75000000  0.77449900  1
  S  S10  1  0.79233400  0.93947800  0.41580800  1
  S  S11  1  0.70766600  0.12347400  0.14714400  1
  S  S12  1  0.97633000  0.56052200  0.85285600  1
  S  S13  1  0.52367000  0.37652600  0.58419200  1
  S  S14  1  0.20766600  0.06052200  0.58419200  1
  S  S15  1  0.29233400  0.87652600  0.85285600  1
  S  S16  1  0.02367000  0.43947800  0.14714400  1
  S  S17  1  0.47633000  0.62347400  0.41580800  1
