# generated using pymatgen
data_KH5S2O9
_symmetry_space_group_name_H-M   'P 1'
_cell_length_a   13.70490200
_cell_length_b   7.49136800
_cell_length_c   8.59882604
_cell_angle_alpha   72.69625793
_cell_angle_beta   90.00000000
_cell_angle_gamma   90.00000000
_symmetry_Int_Tables_number   1
_chemical_formula_structural   KH5S2O9
_chemical_formula_sum   'K4 H20 S8 O36'
_cell_volume   842.87267117
_cell_formula_units_Z   4
loop_
 _symmetry_equiv_pos_site_id
 _symmetry_equiv_pos_as_xyz
  1  'x, y, z'
loop_
 _atom_site_type_symbol
 _atom_site_label
 _atom_site_symmetry_multiplicity
 _atom_site_fract_x
 _atom_site_fract_y
 _atom_site_fract_z
 _atom_site_occupancy
  K  K0  1  0.46829300  0.90465600  0.77535900  1
  K  K1  1  0.96829300  0.09534400  0.72464100  1
  K  K2  1  0.53170700  0.09534400  0.22464100  1
  K  K3  1  0.03170700  0.90465600  0.27535900  1
  H  H4  1  0.43269900  0.37823400  0.51443500  1
  H  H5  1  0.93269900  0.62176600  0.98556500  1
  H  H6  1  0.56730100  0.62176600  0.48556500  1
  H  H7  1  0.06730100  0.37823400  0.01443500  1
  H  H8  1  0.72555700  0.85276300  0.96794900  1
  H  H9  1  0.22555700  0.14723700  0.53205100  1
  H  H10  1  0.27444300  0.14723700  0.03205100  1
  H  H11  1  0.77444300  0.85276300  0.46794900  1
  H  H12  1  0.79375500  0.45089500  0.79697300  1
  H  H13  1  0.29375500  0.54910500  0.70302700  1
  H  H14  1  0.20624500  0.54910500  0.20302700  1
  H  H15  1  0.70624500  0.45089500  0.29697300  1
  H  H16  1  0.66930100  0.45741500  0.78419300  1
  H  H17  1  0.16930100  0.54258500  0.71580700  1
  H  H18  1  0.33069900  0.54258500  0.21580700  1
  H  H19  1  0.83069900  0.45741500  0.28419300  1
  H  H20  1  0.72550600  0.30631800  0.95013600  1
  H  H21  1  0.22550600  0.69368200  0.54986400  1
  H  H22  1  0.27449400  0.69368200  0.04986400  1
  H  H23  1  0.77449400  0.30631800  0.45013600  1
  S  S24  1  0.47522200  0.40338400  0.75412700  1
  S  S25  1  0.97522200  0.59661600  0.74587300  1
  S  S26  1  0.52477800  0.59661600  0.24587300  1
  S  S27  1  0.02477800  0.40338400  0.25412700  1
  S  S28  1  0.79825300  0.99100900  0.12217700  1
  S  S29  1  0.29825300  0.00899100  0.37782300  1
  S  S30  1  0.20174700  0.00899100  0.87782300  1
  S  S31  1  0.70174700  0.99100900  0.62217700  1
  O  O32  1  0.49559000  0.25493600  0.90190300  1
  O  O33  1  0.99559000  0.74506400  0.59809700  1
  O  O34  1  0.50441000  0.74506400  0.09809700  1
  O  O35  1  0.00441000  0.25493600  0.40190300  1
  O  O36  1  0.56611200  0.50331300  0.67771600  1
  O  O37  1  0.06611200  0.49668700  0.82228400  1
  O  O38  1  0.43388800  0.49668700  0.32228400  1
  O  O39  1  0.93388800  0.50331300  0.17771600  1
  O  O40  1  0.40114700  0.53982400  0.76930000  1
  O  O41  1  0.90114700  0.46017600  0.73070000  1
  O  O42  1  0.59885300  0.46017600  0.23070000  1
  O  O43  1  0.09885300  0.53982400  0.26930000  1
  O  O44  1  0.43368300  0.29850900  0.63313300  1
  O  O45  1  0.93368300  0.70149100  0.86686700  1
  O  O46  1  0.56631700  0.70149100  0.36686700  1
  O  O47  1  0.06631700  0.29850900  0.13313300  1
  O  O48  1  0.82572500  0.91805000  0.29444500  1
  O  O49  1  0.32572500  0.08195000  0.20555500  1
  O  O50  1  0.17427500  0.08195000  0.70555500  1
  O  O51  1  0.67427500  0.91805000  0.79444500  1
  O  O52  1  0.88266300  0.05620200  0.01777900  1
  O  O53  1  0.38266300  0.94379800  0.48222100  1
  O  O54  1  0.11733700  0.94379800  0.98222100  1
  O  O55  1  0.61733700  0.05620200  0.51777900  1
  O  O56  1  0.72042900  0.13562800  0.09453500  1
  O  O57  1  0.22042900  0.86437200  0.40546500  1
  O  O58  1  0.27957100  0.86437200  0.90546500  1
  O  O59  1  0.77957100  0.13562800  0.59453500  1
  O  O60  1  0.75250600  0.81571700  0.08338900  1
  O  O61  1  0.25250600  0.18428300  0.41661100  1
  O  O62  1  0.24749400  0.18428300  0.91661100  1
  O  O63  1  0.74749400  0.81571700  0.58338900  1
  O  O64  1  0.72853600  0.43353200  0.85778400  1
  O  O65  1  0.22853600  0.56646800  0.64221600  1
  O  O66  1  0.27146400  0.56646800  0.14221600  1
  O  O67  1  0.77146400  0.43353200  0.35778400  1
