# generated using pymatgen
data_TbCuS2
_symmetry_space_group_name_H-M   'P 1'
_cell_length_a   7.02754800
_cell_length_b   6.37915900
_cell_length_c   6.76287481
_cell_angle_alpha   82.74803425
_cell_angle_beta   90.00000000
_cell_angle_gamma   90.00000000
_symmetry_Int_Tables_number   1
_chemical_formula_structural   TbCuS2
_chemical_formula_sum   'Tb4 Cu4 S8'
_cell_volume   300.75339541
_cell_formula_units_Z   4
loop_
 _symmetry_equiv_pos_site_id
 _symmetry_equiv_pos_as_xyz
  1  'x, y, z'
loop_
 _atom_site_type_symbol
 _atom_site_label
 _atom_site_symmetry_multiplicity
 _atom_site_fract_x
 _atom_site_fract_y
 _atom_site_fract_z
 _atom_site_occupancy
  Tb  Tb0  1  0.04804900  0.30677400  0.30070200  1
  Tb  Tb1  1  0.54804900  0.69322600  0.19929800  1
  Tb  Tb2  1  0.95195100  0.69322600  0.69929800  1
  Tb  Tb3  1  0.45195100  0.30677400  0.80070200  1
  Cu  Cu4  1  0.83859500  0.08037200  0.94976300  1
  Cu  Cu5  1  0.16140500  0.91962800  0.05023700  1
  Cu  Cu6  1  0.33859500  0.91962800  0.55023700  1
  Cu  Cu7  1  0.66140500  0.08037200  0.44976300  1
  S  S8  1  0.72656300  0.42507600  0.49771300  1
  S  S9  1  0.22656300  0.57492400  0.00228700  1
  S  S10  1  0.27343700  0.57492400  0.50228700  1
  S  S11  1  0.77343700  0.42507600  0.99771300  1
  S  S12  1  0.38659000  0.09183400  0.21913000  1
  S  S13  1  0.11341000  0.09183400  0.71913000  1
  S  S14  1  0.61341000  0.90816600  0.78087000  1
  S  S15  1  0.88659000  0.90816600  0.28087000  1
