# generated using pymatgen
data_EuNi5P3
_symmetry_space_group_name_H-M   'P 1'
_cell_length_a   6.11888270
_cell_length_b   6.11888270
_cell_length_c   11.49897200
_cell_angle_alpha   90.00000000
_cell_angle_beta   90.00000000
_cell_angle_gamma   145.80870460
_symmetry_Int_Tables_number   1
_chemical_formula_structural   EuNi5P3
_chemical_formula_sum   'Eu2 Ni10 P6'
_cell_volume   241.93957463
_cell_formula_units_Z   2
loop_
 _symmetry_equiv_pos_site_id
 _symmetry_equiv_pos_as_xyz
  1  'x, y, z'
loop_
 _atom_site_type_symbol
 _atom_site_label
 _atom_site_symmetry_multiplicity
 _atom_site_fract_x
 _atom_site_fract_y
 _atom_site_fract_z
 _atom_site_occupancy
  Eu  Eu0  1  0.16153400  0.83846600  0.25000000  1
  Eu  Eu1  1  0.83846600  0.16153400  0.75000000  1
  Ni  Ni2  1  0.44872300  0.55127700  0.14491000  1
  Ni  Ni3  1  0.44872300  0.55127700  0.35509000  1
  Ni  Ni4  1  0.19833100  0.80166900  0.93188300  1
  Ni  Ni5  1  0.55127700  0.44872300  0.85509000  1
  Ni  Ni6  1  0.80166900  0.19833100  0.43188300  1
  Ni  Ni7  1  0.55127700  0.44872300  0.64491000  1
  Ni  Ni8  1  0.19833100  0.80166900  0.56811700  1
  Ni  Ni9  1  0.00000000  0.00000000  0.00000000  1
  Ni  Ni10  1  0.00000000  0.00000000  0.50000000  1
  Ni  Ni11  1  0.80166900  0.19833100  0.06811700  1
  P  P12  1  0.11674400  0.88325600  0.75000000  1
  P  P13  1  0.38185900  0.61814100  0.95941300  1
  P  P14  1  0.38185900  0.61814100  0.54058700  1
  P  P15  1  0.61814100  0.38185900  0.45941300  1
  P  P16  1  0.61814100  0.38185900  0.04058700  1
  P  P17  1  0.88325600  0.11674400  0.25000000  1
