# generated using pymatgen
data_KMnPO4
_symmetry_space_group_name_H-M   'P 1'
_cell_length_a   5.56653770
_cell_length_b   8.78321256
_cell_length_c   9.05735215
_cell_angle_alpha   88.03092912
_cell_angle_beta   89.14462778
_cell_angle_gamma   87.71850980
_symmetry_Int_Tables_number   1
_chemical_formula_structural   KMnPO4
_chemical_formula_sum   'K4 Mn4 P4 O16'
_cell_volume   442.17973951
_cell_formula_units_Z   4
loop_
 _symmetry_equiv_pos_site_id
 _symmetry_equiv_pos_as_xyz
  1  'x, y, z'
loop_
 _atom_site_type_symbol
 _atom_site_label
 _atom_site_symmetry_multiplicity
 _atom_site_fract_x
 _atom_site_fract_y
 _atom_site_fract_z
 _atom_site_occupancy
  K  K0  1  0.76127600  0.99915700  0.67921200  1
  K  K1  1  0.23871800  0.00074700  0.32077800  1
  K  K2  1  0.78240800  0.49490000  0.82332400  1
  K  K3  1  0.21755300  0.50507300  0.17666400  1
  Mn  Mn4  1  0.72747600  0.82383600  0.10379000  1
  Mn  Mn5  1  0.69032400  0.34196000  0.42107100  1
  Mn  Mn6  1  0.27241200  0.17643700  0.89619000  1
  Mn  Mn7  1  0.30971900  0.65807100  0.57896600  1
  P  P8  1  0.76649200  0.20329200  0.09288400  1
  P  P9  1  0.23355600  0.79672700  0.90711500  1
  P  P10  1  0.78109100  0.70385800  0.44364900  1
  P  P11  1  0.21889800  0.29610000  0.55632400  1
  O  O12  1  0.24377500  0.95686700  0.82966300  1
  O  O13  1  0.75625500  0.04318700  0.17039200  1
  O  O14  1  0.00183000  0.21952900  0.48814500  1
  O  O15  1  0.99817200  0.78038100  0.51186100  1
  O  O16  1  0.34986900  0.67408700  0.80564600  1
  O  O17  1  0.65019500  0.32588000  0.19443900  1
  O  O18  1  0.73522000  0.54821000  0.52711300  1
  O  O19  1  0.26477900  0.45175000  0.47287000  1
  O  O20  1  0.96581800  0.75682100  0.93882400  1
  O  O21  1  0.03419200  0.24312600  0.06113100  1
  O  O22  1  0.63009400  0.20785200  0.94304200  1
  O  O23  1  0.36998600  0.79214500  0.05692300  1
  O  O24  1  0.17144600  0.32303700  0.72313200  1
  O  O25  1  0.82845100  0.67705100  0.27679900  1
  O  O26  1  0.45055500  0.19412800  0.53325500  1
  O  O27  1  0.54944000  0.80579100  0.46679600  1
