# generated using pymatgen
data_NaHfCuSe3
_symmetry_space_group_name_H-M   'P 1'
_cell_length_a   3.83903300
_cell_length_b   10.30814000
_cell_length_c   13.72320500
_cell_angle_alpha   90.00000000
_cell_angle_beta   90.00000000
_cell_angle_gamma   90.00000000
_symmetry_Int_Tables_number   1
_chemical_formula_structural   NaHfCuSe3
_chemical_formula_sum   'Na4 Hf4 Cu4 Se12'
_cell_volume   543.07236610
_cell_formula_units_Z   4
loop_
 _symmetry_equiv_pos_site_id
 _symmetry_equiv_pos_as_xyz
  1  'x, y, z'
loop_
 _atom_site_type_symbol
 _atom_site_label
 _atom_site_symmetry_multiplicity
 _atom_site_fract_x
 _atom_site_fract_y
 _atom_site_fract_z
 _atom_site_occupancy
  Na  Na0  1  0.25000000  0.04083900  0.22953000  1
  Na  Na1  1  0.75000000  0.95916100  0.77047000  1
  Na  Na2  1  0.75000000  0.54083900  0.27047000  1
  Na  Na3  1  0.25000000  0.45916100  0.72953000  1
  Hf  Hf4  1  0.25000000  0.32210900  0.01104900  1
  Hf  Hf5  1  0.75000000  0.67789100  0.98895100  1
  Hf  Hf6  1  0.75000000  0.82210900  0.48895100  1
  Hf  Hf7  1  0.25000000  0.17789100  0.51104900  1
  Cu  Cu8  1  0.25000000  0.59064500  0.49107400  1
  Cu  Cu9  1  0.75000000  0.40935500  0.50892600  1
  Cu  Cu10  1  0.75000000  0.09064500  0.00892600  1
  Cu  Cu11  1  0.25000000  0.90935500  0.99107400  1
  Se  Se12  1  0.25000000  0.56438300  0.10129100  1
  Se  Se13  1  0.75000000  0.43561700  0.89870900  1
  Se  Se14  1  0.75000000  0.06438300  0.39870900  1
  Se  Se15  1  0.25000000  0.93561700  0.60129100  1
  Se  Se16  1  0.25000000  0.37893900  0.39562700  1
  Se  Se17  1  0.75000000  0.62106100  0.60437300  1
  Se  Se18  1  0.75000000  0.87893900  0.10437300  1
  Se  Se19  1  0.25000000  0.12106100  0.89562700  1
  Se  Se20  1  0.25000000  0.75449300  0.36249900  1
  Se  Se21  1  0.75000000  0.24550700  0.63750100  1
  Se  Se22  1  0.75000000  0.25449300  0.13750100  1
  Se  Se23  1  0.25000000  0.74550700  0.86249900  1
