# generated using pymatgen
data_CsZr2(PO4)3
_symmetry_space_group_name_H-M   'P 1'
_cell_length_a   9.79488905
_cell_length_b   9.79488905
_cell_length_c   9.79488809
_cell_angle_alpha   53.15988967
_cell_angle_beta   53.15988967
_cell_angle_gamma   53.15989339
_symmetry_Int_Tables_number   1
_chemical_formula_structural   CsZr2(PO4)3
_chemical_formula_sum   'Cs2 Zr4 P6 O24'
_cell_volume   558.00636564
_cell_formula_units_Z   2
loop_
 _symmetry_equiv_pos_site_id
 _symmetry_equiv_pos_as_xyz
  1  'x, y, z'
loop_
 _atom_site_type_symbol
 _atom_site_label
 _atom_site_symmetry_multiplicity
 _atom_site_fract_x
 _atom_site_fract_y
 _atom_site_fract_z
 _atom_site_occupancy
  Cs  Cs0  1  0.00000000  0.00000000  0.00000000  1
  Cs  Cs1  1  0.50000000  0.50000000  0.50000000  1
  Zr  Zr2  1  0.15220400  0.15220400  0.15220400  1
  Zr  Zr3  1  0.65220400  0.65220400  0.65220400  1
  Zr  Zr4  1  0.34779600  0.34779600  0.34779600  1
  Zr  Zr5  1  0.84779600  0.84779600  0.84779600  1
  P  P6  1  0.53330500  0.96669500  0.25000000  1
  P  P7  1  0.96669500  0.25000000  0.53330500  1
  P  P8  1  0.25000000  0.53330500  0.96669500  1
  P  P9  1  0.03330500  0.75000000  0.46669500  1
  P  P10  1  0.46669500  0.03330500  0.75000000  1
  P  P11  1  0.75000000  0.46669500  0.03330500  1
  O  O12  1  0.19405200  0.57605800  0.42467300  1
  O  O13  1  0.80594800  0.42394200  0.57532700  1
  O  O14  1  0.01329500  0.73816600  0.64210400  1
  O  O15  1  0.07532700  0.92394200  0.30594800  1
  O  O16  1  0.73816600  0.64210400  0.01329500  1
  O  O17  1  0.69405200  0.92467300  0.07605800  1
  O  O18  1  0.64210400  0.01329500  0.73816600  1
  O  O19  1  0.57605800  0.42467300  0.19405200  1
  O  O20  1  0.76183400  0.48670500  0.85789600  1
  O  O21  1  0.57532700  0.80594800  0.42394200  1
  O  O22  1  0.14210400  0.23816600  0.51329500  1
  O  O23  1  0.92394200  0.30594800  0.07532700  1
  O  O24  1  0.42394200  0.57532700  0.80594800  1
  O  O25  1  0.48670500  0.85789600  0.76183400  1
  O  O26  1  0.98670500  0.26183400  0.35789600  1
  O  O27  1  0.35789600  0.98670500  0.26183400  1
  O  O28  1  0.26183400  0.35789600  0.98670500  1
  O  O29  1  0.92467300  0.07605800  0.69405200  1
  O  O30  1  0.51329500  0.14210400  0.23816600  1
  O  O31  1  0.07605800  0.69405200  0.92467300  1
  O  O32  1  0.23816600  0.51329500  0.14210400  1
  O  O33  1  0.30594800  0.07532700  0.92394200  1
  O  O34  1  0.85789600  0.76183400  0.48670500  1
  O  O35  1  0.42467300  0.19405200  0.57605800  1
