# generated using pymatgen
data_Rb16Yb3Ti13(PO4)24
_symmetry_space_group_name_H-M   'P 1'
_cell_length_a   10.16216564
_cell_length_b   10.15983440
_cell_length_c   20.32323886
_cell_angle_alpha   89.93269085
_cell_angle_beta   89.97664136
_cell_angle_gamma   90.32053291
_symmetry_Int_Tables_number   1
_chemical_formula_structural   Rb16Yb3Ti13(PO4)24
_chemical_formula_sum   'Rb16 Yb3 Ti13 P24 O96'
_cell_volume   2098.25703065
_cell_formula_units_Z   1
loop_
 _symmetry_equiv_pos_site_id
 _symmetry_equiv_pos_as_xyz
  1  'x, y, z'
loop_
 _atom_site_type_symbol
 _atom_site_label
 _atom_site_symmetry_multiplicity
 _atom_site_fract_x
 _atom_site_fract_y
 _atom_site_fract_z
 _atom_site_occupancy
  O  O0  1  0.00582816  0.07795115  0.17317176  1
  O  O1  1  0.00474285  0.10628234  0.66748351  1
  O  O2  1  0.02628227  0.93199478  0.40059658  1
  O  O3  1  0.99173636  0.97158675  0.89541356  1
  O  O4  1  0.02791927  0.80982572  0.12844827  1
  O  O5  1  0.01048289  0.78773417  0.62193209  1
  O  O6  1  0.03597587  0.29067483  0.23692594  1
  O  O7  1  0.03054410  0.30413685  0.74349538  1
  O  O8  1  0.06536043  0.17071975  0.37517587  1
  O  O9  1  0.07967107  0.19922885  0.86767394  1
  O  O10  1  0.07826726  0.37892781  0.00099792  1
  O  O11  1  0.08460094  0.35003075  0.50525773  1
  O  O12  1  0.13681227  0.99279272  0.29327179  1
  O  O13  1  0.14468748  1.00504650  0.79744660  1
  O  O14  1  0.19951717  0.76163296  0.23653144  1
  O  O15  1  0.20392284  0.74574850  0.74785514  1
  O  O16  1  0.19196756  0.73367714  0.04306492  1
  O  O17  1  0.19004481  0.72352935  0.53899070  1
  O  O18  1  0.21049591  0.52492017  0.26539545  1
  O  O19  1  0.20923232  0.50439214  0.76918752  1
  O  O20  1  0.24541297  0.43412105  0.41690939  1
  O  O21  1  0.22972591  0.42261173  0.90393092  1
  O  O22  1  0.25735744  0.02050905  0.40148660  1
  O  O23  1  0.22640117  0.01701643  0.91427592  1
  O  O24  1  0.25107092  0.97543848  0.16556232  1
  O  O25  1  0.25631966  0.99041821  0.64397730  1
  O  O26  1  0.27699170  0.59264521  0.15182525  1
  O  O27  1  0.27375881  0.58733501  0.65690427  1
  O  O28  1  0.29397995  0.50143554  0.01703689  1
  O  O29  1  0.29733701  0.47116560  0.53592451  1
  O  O30  1  0.32936743  0.24654955  0.28136981  1
  O  O31  1  0.30607477  0.26912919  0.79472819  1
  O  O32  1  0.30682413  0.24155403  0.49098348  1
  O  O33  1  0.29543926  0.26142581  0.99476697  1
  O  O34  1  0.34620386  0.01135031  0.05375654  1
  O  O35  1  0.37094134  0.00143490  0.53485665  1
  O  O36  1  0.42322823  0.65304850  0.24968735  1
  O  O37  1  0.42292921  0.63509562  0.75372561  1
  O  O38  1  0.41810196  0.81026575  0.11875163  1
  O  O39  1  0.41672263  0.80904141  0.61116938  1
  O  O40  1  0.46747605  0.70292543  0.99573961  1
  O  O41  1  0.45455066  0.70051095  0.48955081  1
  O  O42  1  0.47801941  0.19791396  0.37861971  1
  O  O43  1  0.49503000  0.19758855  0.86894365  1
  O  O44  1  0.48719977  0.03762875  0.15610629  1
  O  O45  1  0.49781772  0.03542238  0.64128091  1
  O  O46  1  0.49259467  0.91586119  0.42473949  1
  O  O47  1  0.48940351  0.89172538  0.91574650  1
  O  O48  1  0.50239849  0.41516184  0.31743916  1
  O  O49  1  0.50927755  0.41583889  0.81307212  1
  O  O50  1  0.51688302  0.53366186  0.10069558  1
  O  O51  1  0.51989999  0.54664796  0.60236618  1
  O  O52  1  0.52991804  0.65824065  0.87896822  1
  O  O53  1  0.51943350  0.69433945  0.37137128  1
  O  O54  1  0.52407836  0.20593428  0.74686890  1
  O  O55  1  0.57061475  0.19763461  0.26519475  1
  O  O56  1  0.58032316  0.30605653  0.14085028  1
  O  O57  1  0.58712493  0.31385488  0.63238653  1
  O  O58  1  0.59105330  0.14398824  0.49407621  1
  O  O59  1  0.60330937  0.16416562  0.99799250  1
  O  O60  1  0.64766092  0.50974626  0.20686763  1
  O  O61  1  0.65497957  0.51062755  0.70558600  1
  O  O62  1  0.69865079  0.74152408  0.26572570  1
  O  O63  1  0.66194227  0.75310524  0.76643757  1
  O  O64  1  0.68534971  0.77456451  0.45819694  1
  O  O65  1  0.69288921  0.76782249  0.95813995  1
  O  O66  1  0.70735582  0.97527157  0.22847648  1
  O  O67  1  0.69086267  0.99050378  0.73493905  1
  O  O68  1  0.73254013  0.08471062  0.09721293  1
  O  O69  1  0.73365724  0.08648491  0.59451433  1
  O  O70  1  0.75329560  0.46537301  0.09610775  1
  O  O71  1  0.75404068  0.48256031  0.59184089  1
  O  O72  1  0.72795999  0.52263397  0.35034895  1
  O  O73  1  0.75256514  0.52646756  0.84192347  1
  O  O74  1  0.77756809  0.92103202  0.34499488  1
  O  O75  1  0.75689626  0.91334822  0.84877824  1
  O  O76  1  0.80443500  0.01617179  0.48033501  1
  O  O77  1  0.79780824  0.01146152  0.98414819  1
  O  O78  1  0.81009588  0.22224104  0.20323148  1
  O  O79  1  0.80311545  0.23195828  0.70758949  1
  O  O80  1  0.81231232  0.25417639  0.51132831  1
  O  O81  1  0.83243392  0.24776808  0.01308645  1
  O  O82  1  0.84536989  0.49446476  0.45892523  1
  O  O83  1  0.84665768  0.49177743  0.95663121  1
  O  O84  1  0.91952943  0.85079050  0.24729933  1
  O  O85  1  0.88939938  0.84251671  0.74732271  1
  O  O86  1  0.89767204  0.69238411  0.38465072  1
  O  O87  1  0.91626153  0.69334182  0.88868246  1
  O  O88  1  0.95804913  0.78682278  0.50332901  1
  O  O89  1  0.96429064  0.80344984  0.00878492  1
  O  O90  1  0.97817664  0.30321915  0.11854319  1
  O  O91  1  0.96421436  0.33380154  0.62570626  1
  O  O92  1  0.96758166  0.46686937  0.35108413  1
  O  O93  1  0.98782752  0.46649084  0.85338276  1
  O  O94  1  0.98834937  0.59057639  0.07290324  1
  O  O95  1  0.99845305  0.57285910  0.56335657  1
  P  P96  1  0.04407700  0.73173955  0.06313347  1
  P  P97  1  0.04171011  0.71944643  0.55783366  1
  P  P98  1  0.12026033  0.03406788  0.36696233  1
  P  P99  1  0.11599619  0.04749728  0.86679236  1
  P  P100  1  0.23138827  0.37488554  0.48486278  1
  P  P101  1  0.22474546  0.38776846  0.97865792  1
  P  P102  1  0.27809235  0.63162823  0.22623156  1
  P  P103  1  0.27704453  0.62033818  0.73183118  1
  P  P104  1  0.37533085  0.95738047  0.12084190  1
  P  P105  1  0.38281842  0.95840587  0.60825325  1
  P  P106  1  0.46556372  0.26679449  0.30942934  1
  P  P107  1  0.45702345  0.27222073  0.80746600  1
  P  P108  1  0.54600494  0.76087560  0.93565913  1
  P  P109  1  0.53859565  0.77230964  0.43651960  1
  P  P110  1  0.62370611  0.45326952  0.13691359  1
  P  P111  1  0.62909592  0.46109263  0.63459829  1
  P  P112  1  0.73686363  0.12779123  0.02369401  1
  P  P113  1  0.73187717  0.12449631  0.52053302  1
  P  P114  1  0.77717482  0.87243874  0.27228683  1
  P  P115  1  0.75565789  0.87549017  0.77449348  1
  P  P116  1  0.86226734  0.54295005  0.38684577  1
  P  P117  1  0.87541933  0.54556570  0.88656128  1
  P  P118  1  0.95881606  0.22251134  0.18355981  1
  P  P119  1  0.95149974  0.23893456  0.68624247  1
  Rb  Rb120  1  0.07771244  0.07427337  0.03323351  1
  Rb  Rb121  1  0.07612235  0.06542463  0.53360299  1
  Rb  Rb122  1  0.20018888  0.69969667  0.39213739  1
  Rb  Rb123  1  0.20810276  0.72007563  0.89685768  1
  Rb  Rb124  1  0.28815289  0.29670421  0.14571385  1
  Rb  Rb125  1  0.28897678  0.28657526  0.65085273  1
  Rb  Rb126  1  0.42801712  0.93456586  0.28712490  1
  Rb  Rb127  1  0.41654424  0.93440094  0.78202628  1
  Rb  Rb128  1  0.56267386  0.42450462  0.96311522  1
  Rb  Rb129  1  0.56137770  0.42879983  0.46436755  1
  Rb  Rb130  1  0.70832529  0.79233901  0.10351902  1
  Rb  Rb131  1  0.71192281  0.79617567  0.60583469  1
  Rb  Rb132  1  0.80029314  0.21486662  0.35157957  1
  Rb  Rb133  1  0.78841721  0.20328226  0.85440333  1
  Rb  Rb134  1  0.93709426  0.56275491  0.21686014  1
  Rb  Rb135  1  0.93821020  0.57593589  0.71411729  1
  Ti  Ti136  1  0.08991838  0.91483263  0.20826972  1
  Ti  Ti137  1  0.13957450  0.35789855  0.82300327  1
  Ti  Ti138  1  0.35972342  0.64743123  0.07007846  1
  Ti  Ti139  1  0.35774967  0.63869126  0.57309360  1
  Ti  Ti140  1  0.41506452  0.08675001  0.45352107  1
  Ti  Ti141  1  0.58418668  0.58683498  0.29282675  1
  Ti  Ti142  1  0.58759793  0.58441602  0.79287080  1
  Ti  Ti143  1  0.64545765  0.13879154  0.18083073  1
  Ti  Ti144  1  0.64119240  0.14412469  0.67746239  1
  Ti  Ti145  1  0.85740911  0.85512741  0.42889736  1
  Ti  Ti146  1  0.85508285  0.86200295  0.92965149  1
  Ti  Ti147  1  0.91348549  0.41285452  0.54184827  1
  Ti  Ti148  1  0.91343651  0.41265616  0.04283637  1
  Yb  Yb149  1  0.08226915  0.91422448  0.70483747  1
  Yb  Yb150  1  0.15025984  0.35113233  0.32498932  1
  Yb  Yb151  1  0.41549698  0.08551374  0.95706853  1
