# generated using pymatgen
data_BaTi2O5
_symmetry_space_group_name_H-M   'P 1'
_cell_length_a   3.94525100
_cell_length_b   10.52300300
_cell_length_c   11.00939900
_cell_angle_alpha   90.00000000
_cell_angle_beta   90.00000000
_cell_angle_gamma   90.00000000
_symmetry_Int_Tables_number   1
_chemical_formula_structural   BaTi2O5
_chemical_formula_sum   'Ba4 Ti8 O20'
_cell_volume   457.06497703
_cell_formula_units_Z   4
loop_
 _symmetry_equiv_pos_site_id
 _symmetry_equiv_pos_as_xyz
  1  'x, y, z'
loop_
 _atom_site_type_symbol
 _atom_site_label
 _atom_site_symmetry_multiplicity
 _atom_site_fract_x
 _atom_site_fract_y
 _atom_site_fract_z
 _atom_site_occupancy
  Ba  Ba0  1  0.25000000  0.05094100  0.17816400  1
  Ba  Ba1  1  0.75000000  0.44905900  0.67816400  1
  Ba  Ba2  1  0.25000000  0.55094100  0.32183600  1
  Ba  Ba3  1  0.75000000  0.94905900  0.82183600  1
  Ti  Ti4  1  0.75000000  0.23571400  0.39770800  1
  Ti  Ti5  1  0.75000000  0.85206700  0.40733800  1
  Ti  Ti6  1  0.25000000  0.14793300  0.59266200  1
  Ti  Ti7  1  0.75000000  0.35206700  0.09266200  1
  Ti  Ti8  1  0.75000000  0.73571400  0.10229200  1
  Ti  Ti9  1  0.25000000  0.26428600  0.89770800  1
  Ti  Ti10  1  0.25000000  0.76428600  0.60229200  1
  Ti  Ti11  1  0.25000000  0.64793300  0.90733800  1
  O  O12  1  0.75000000  0.23421200  0.22059100  1
  O  O13  1  0.25000000  0.32456100  0.06896200  1
  O  O14  1  0.75000000  0.30065300  0.91678200  1
  O  O15  1  0.75000000  0.50735900  0.14990400  1
  O  O16  1  0.25000000  0.49264100  0.85009600  1
  O  O17  1  0.25000000  0.69934700  0.08321800  1
  O  O18  1  0.25000000  0.99264100  0.64990400  1
  O  O19  1  0.25000000  0.26578800  0.72059100  1
  O  O20  1  0.75000000  0.80065300  0.58321800  1
  O  O21  1  0.25000000  0.59965000  0.57572300  1
  O  O22  1  0.75000000  0.73421200  0.27940900  1
  O  O23  1  0.25000000  0.82456100  0.43103800  1
  O  O24  1  0.75000000  0.67543900  0.93103800  1
  O  O25  1  0.75000000  0.90035000  0.07572300  1
  O  O26  1  0.75000000  0.40035000  0.42427700  1
  O  O27  1  0.75000000  0.17543900  0.56896200  1
  O  O28  1  0.25000000  0.19934700  0.41678200  1
  O  O29  1  0.75000000  0.00735900  0.35009600  1
  O  O30  1  0.25000000  0.09965000  0.92427700  1
  O  O31  1  0.25000000  0.76578800  0.77940900  1
