# generated using pymatgen
data_K3Ga3As4
_symmetry_space_group_name_H-M   'P 1'
_cell_length_a   6.72789200
_cell_length_b   10.83236200
_cell_length_c   15.19163400
_cell_angle_alpha   90.00000000
_cell_angle_beta   90.00000000
_cell_angle_gamma   90.00000000
_symmetry_Int_Tables_number   1
_chemical_formula_structural   K3Ga3As4
_chemical_formula_sum   'K12 Ga12 As16'
_cell_volume   1107.15051155
_cell_formula_units_Z   4
loop_
 _symmetry_equiv_pos_site_id
 _symmetry_equiv_pos_as_xyz
  1  'x, y, z'
loop_
 _atom_site_type_symbol
 _atom_site_label
 _atom_site_symmetry_multiplicity
 _atom_site_fract_x
 _atom_site_fract_y
 _atom_site_fract_z
 _atom_site_occupancy
  K  K0  1  0.05995900  0.37907300  0.59481800  1
  K  K1  1  0.05995900  0.12092700  0.90518200  1
  K  K2  1  0.55995900  0.87907300  0.90518200  1
  K  K3  1  0.75000000  0.07904000  0.50000000  1
  K  K4  1  0.94004100  0.87907300  0.09481800  1
  K  K5  1  0.55995900  0.62092700  0.59481800  1
  K  K6  1  0.94004100  0.62092700  0.40518200  1
  K  K7  1  0.25000000  0.57904000  0.00000000  1
  K  K8  1  0.75000000  0.42096000  0.00000000  1
  K  K9  1  0.44004100  0.37907300  0.40518200  1
  K  K10  1  0.44004100  0.12092700  0.09481800  1
  K  K11  1  0.25000000  0.92096000  0.50000000  1
  Ga  Ga12  1  0.40225500  0.11126500  0.71666200  1
  Ga  Ga13  1  0.90225500  0.61126500  0.78333800  1
  Ga  Ga14  1  0.09774500  0.38873500  0.21666200  1
  Ga  Ga15  1  0.40225500  0.38873500  0.78333800  1
  Ga  Ga16  1  0.30807500  0.75000000  0.75000000  1
  Ga  Ga17  1  0.80807500  0.25000000  0.75000000  1
  Ga  Ga18  1  0.59774500  0.88873500  0.28333800  1
  Ga  Ga19  1  0.90225500  0.88873500  0.71666200  1
  Ga  Ga20  1  0.19192500  0.75000000  0.25000000  1
  Ga  Ga21  1  0.69192500  0.25000000  0.25000000  1
  Ga  Ga22  1  0.59774500  0.61126500  0.21666200  1
  Ga  Ga23  1  0.09774500  0.11126500  0.28333800  1
  As  As24  1  0.04060000  0.09483000  0.67562300  1
  As  As25  1  0.04047300  0.80587700  0.86297500  1
  As  As26  1  0.45952700  0.80587700  0.13702500  1
  As  As27  1  0.45940000  0.40517000  0.17562300  1
  As  As28  1  0.54060000  0.59483000  0.82437700  1
  As  As29  1  0.54060000  0.90517000  0.67562300  1
  As  As30  1  0.04047300  0.69412300  0.63702500  1
  As  As31  1  0.04060000  0.40517000  0.82437700  1
  As  As32  1  0.95952700  0.19412300  0.13702500  1
  As  As33  1  0.54047300  0.19412300  0.86297500  1
  As  As34  1  0.95940000  0.90517000  0.32437700  1
  As  As35  1  0.45940000  0.09483000  0.32437700  1
  As  As36  1  0.95952700  0.30587700  0.36297500  1
  As  As37  1  0.54047300  0.30587700  0.63702500  1
  As  As38  1  0.45952700  0.69412300  0.36297500  1
  As  As39  1  0.95940000  0.59483000  0.17562300  1
