# generated using pymatgen
data_MnF3
_symmetry_space_group_name_H-M   'P 1'
_cell_length_a   5.34122196
_cell_length_b   5.34122196
_cell_length_c   5.46799294
_cell_angle_alpha   61.32162454
_cell_angle_beta   61.32162454
_cell_angle_gamma   61.84911689
_symmetry_Int_Tables_number   1
_chemical_formula_structural   MnF3
_chemical_formula_sum   'Mn2 F6'
_cell_volume   114.00641645
_cell_formula_units_Z   2
loop_
 _symmetry_equiv_pos_site_id
 _symmetry_equiv_pos_as_xyz
  1  'x, y, z'
loop_
 _atom_site_type_symbol
 _atom_site_label
 _atom_site_symmetry_multiplicity
 _atom_site_fract_x
 _atom_site_fract_y
 _atom_site_fract_z
 _atom_site_occupancy
  Mn  Mn0  1  0.00000000  0.50000000  0.00000000  1
  Mn  Mn1  1  0.50000000  0.00000000  0.50000000  1
  F  F2  1  0.67433300  0.32566700  0.25000000  1
  F  F3  1  0.32566700  0.67433300  0.75000000  1
  F  F4  1  0.83936200  0.73760700  0.23461800  1
  F  F5  1  0.26239300  0.16063800  0.26538200  1
  F  F6  1  0.16063800  0.26239300  0.76538200  1
  F  F7  1  0.73760700  0.83936200  0.73461800  1
