# generated using pymatgen
data_MnVBiO5
_symmetry_space_group_name_H-M   'P 1'
_cell_length_a   5.46632384
_cell_length_b   7.05047530
_cell_length_c   7.09958479
_cell_angle_alpha   109.76390961
_cell_angle_beta   107.66225058
_cell_angle_gamma   96.83565758
_symmetry_Int_Tables_number   1
_chemical_formula_structural   MnVBiO5
_chemical_formula_sum   'Mn2 V2 Bi2 O10'
_cell_volume   237.75212413
_cell_formula_units_Z   2
loop_
 _symmetry_equiv_pos_site_id
 _symmetry_equiv_pos_as_xyz
  1  'x, y, z'
loop_
 _atom_site_type_symbol
 _atom_site_label
 _atom_site_symmetry_multiplicity
 _atom_site_fract_x
 _atom_site_fract_y
 _atom_site_fract_z
 _atom_site_occupancy
  Mn  Mn0  1  0.32712400  0.36754600  0.22763500  1
  Mn  Mn1  1  0.67287600  0.63245400  0.77236500  1
  V  V2  1  0.65820100  0.18085600  0.88593300  1
  V  V3  1  0.34179900  0.81914400  0.11406700  1
  Bi  Bi4  1  0.10297100  0.75600500  0.53527200  1
  Bi  Bi5  1  0.89702900  0.24399500  0.46472800  1
  O  O6  1  0.22541300  0.65993700  0.23044000  1
  O  O7  1  0.77458700  0.34006300  0.76956000  1
  O  O8  1  0.43431400  0.08501400  0.28917000  1
  O  O9  1  0.56568600  0.91498600  0.71083000  1
  O  O10  1  0.61750700  0.75563400  0.07151300  1
  O  O11  1  0.38249300  0.24436600  0.92848700  1
  O  O12  1  0.73569800  0.50278000  0.44983000  1
  O  O13  1  0.26430200  0.49722000  0.55017000  1
  O  O14  1  0.90962600  0.21703700  0.12964900  1
  O  O15  1  0.09037400  0.78296300  0.87035100  1
