# generated using pymatgen
data_Y4CdRu
_symmetry_space_group_name_H-M   'P 1'
_cell_length_a   9.66520642
_cell_length_b   9.66520642
_cell_length_c   9.66520642
_cell_angle_alpha   60.00000000
_cell_angle_beta   60.00000000
_cell_angle_gamma   60.00000000
_symmetry_Int_Tables_number   1
_chemical_formula_structural   Y4CdRu
_chemical_formula_sum   'Y16 Cd4 Ru4'
_cell_volume   638.43752166
_cell_formula_units_Z   4
loop_
 _symmetry_equiv_pos_site_id
 _symmetry_equiv_pos_as_xyz
  1  'x, y, z'
loop_
 _atom_site_type_symbol
 _atom_site_label
 _atom_site_symmetry_multiplicity
 _atom_site_fract_x
 _atom_site_fract_y
 _atom_site_fract_z
 _atom_site_occupancy
  Y  Y0  1  0.43895300  0.43895300  0.06104700  1
  Y  Y1  1  0.06104700  0.06104700  0.43895300  1
  Y  Y2  1  0.43895300  0.06104700  0.06104700  1
  Y  Y3  1  0.84711400  0.84711400  0.84711400  1
  Y  Y4  1  0.68945200  0.31054800  0.31054800  1
  Y  Y5  1  0.06104700  0.43895300  0.43895300  1
  Y  Y6  1  0.31054800  0.68945200  0.68945200  1
  Y  Y7  1  0.31054800  0.31054800  0.68945200  1
  Y  Y8  1  0.84711400  0.84711400  0.45865800  1
  Y  Y9  1  0.68945200  0.68945200  0.31054800  1
  Y  Y10  1  0.45865800  0.84711400  0.84711400  1
  Y  Y11  1  0.06104700  0.43895300  0.06104700  1
  Y  Y12  1  0.84711400  0.45865800  0.84711400  1
  Y  Y13  1  0.43895300  0.06104700  0.43895300  1
  Y  Y14  1  0.31054800  0.68945200  0.31054800  1
  Y  Y15  1  0.68945200  0.31054800  0.68945200  1
  Cd  Cd16  1  0.07998800  0.76003600  0.07998800  1
  Cd  Cd17  1  0.07998800  0.07998800  0.76003600  1
  Cd  Cd18  1  0.76003600  0.07998800  0.07998800  1
  Cd  Cd19  1  0.07998800  0.07998800  0.07998800  1
  Ru  Ru20  1  0.63968100  0.08095600  0.63968100  1
  Ru  Ru21  1  0.63968100  0.63968100  0.63968100  1
  Ru  Ru22  1  0.63968100  0.63968100  0.08095600  1
  Ru  Ru23  1  0.08095600  0.63968100  0.63968100  1
