# generated using pymatgen
data_Nb2O5
_symmetry_space_group_name_H-M   'P 1'
_cell_length_a   3.87190600
_cell_length_b   19.78875700
_cell_length_c   20.81448077
_cell_angle_alpha   64.29076373
_cell_angle_beta   90.00000000
_cell_angle_gamma   90.00000000
_symmetry_Int_Tables_number   1
_chemical_formula_structural   Nb2O5
_chemical_formula_sum   'Nb28 O70'
_cell_volume   1436.93497824
_cell_formula_units_Z   14
loop_
 _symmetry_equiv_pos_site_id
 _symmetry_equiv_pos_as_xyz
  1  'x, y, z'
loop_
 _atom_site_type_symbol
 _atom_site_label
 _atom_site_symmetry_multiplicity
 _atom_site_fract_x
 _atom_site_fract_y
 _atom_site_fract_z
 _atom_site_occupancy
  Nb  Nb0  1  0.01130500  0.15985100  0.83412700  1
  Nb  Nb1  1  0.49961700  0.42148700  0.70358200  1
  Nb  Nb2  1  0.99289800  0.00405600  0.76314900  1
  Nb  Nb3  1  0.02046300  0.15570700  0.56655500  1
  Nb  Nb4  1  0.99803800  0.69319900  0.62887900  1
  Nb  Nb5  1  0.99289800  0.99594400  0.23685100  1
  Nb  Nb6  1  0.00348300  0.15156000  0.30343500  1
  Nb  Nb7  1  0.50372100  0.73427900  0.84158100  1
  Nb  Nb8  1  0.99903300  0.31509800  0.63909100  1
  Nb  Nb9  1  0.99903300  0.68490200  0.36090900  1
  Nb  Nb10  1  0.00348300  0.84844000  0.69656500  1
  Nb  Nb11  1  0.99982500  0.53177800  0.56216200  1
  Nb  Nb12  1  0.48565700  0.11035800  0.09260300  1
  Nb  Nb13  1  0.50145800  0.58117800  0.77084000  1
  Nb  Nb14  1  0.50642800  0.26526800  0.89804400  1
  Nb  Nb15  1  0.47536500  0.42506100  0.96406100  1
  Nb  Nb16  1  0.49961700  0.57851300  0.29641800  1
  Nb  Nb17  1  0.97253300  0.00000000  0.50000000  1
  Nb  Nb18  1  0.76621000  0.00000000  0.00000000  1
  Nb  Nb19  1  0.48565700  0.88964200  0.90739700  1
  Nb  Nb20  1  0.99982500  0.46822200  0.43783800  1
  Nb  Nb21  1  0.02046300  0.84429300  0.43344500  1
  Nb  Nb22  1  0.50145800  0.41882200  0.22916000  1
  Nb  Nb23  1  0.50372100  0.26572100  0.15841900  1
  Nb  Nb24  1  0.01130500  0.84014900  0.16587300  1
  Nb  Nb25  1  0.99803800  0.30680100  0.37112100  1
  Nb  Nb26  1  0.47536500  0.57493900  0.03593900  1
  Nb  Nb27  1  0.50642800  0.73473200  0.10195600  1
  O  O28  1  0.49981300  0.18186300  0.13181300  1
  O  O29  1  0.50498700  0.33941000  0.06638200  1
  O  O30  1  0.00155100  0.75457000  0.81305500  1
  O  O31  1  0.99976600  0.57723100  0.46171200  1
  O  O32  1  0.00688700  0.08672200  0.93891300  1
  O  O33  1  0.49548000  0.01370000  0.20631500  1
  O  O34  1  0.00020800  0.40499700  0.25911500  1
  O  O35  1  0.00703100  0.07952700  0.53612100  1
  O  O36  1  0.99976600  0.42276900  0.53828800  1
  O  O37  1  0.49943800  0.16545900  0.57383700  1
  O  O38  1  0.49959900  0.34133800  0.20097400  1
  O  O39  1  0.50356700  0.50092800  0.86192900  1
  O  O40  1  0.99964700  0.42633300  0.67072100  1
  O  O41  1  0.49943800  0.83454100  0.42616300  1
  O  O42  1  0.00020800  0.59500300  0.74088500  1
  O  O43  1  0.49996200  0.34046900  0.79161300  1
  O  O44  1  0.49928100  0.66429600  0.65336100  1
  O  O45  1  0.49981700  0.50357400  0.58582200  1
  O  O46  1  0.00029500  0.41499600  0.96337600  1
  O  O47  1  0.49959900  0.65866200  0.79902600  1
  O  O48  1  0.99180800  0.91817700  0.32675500  1
  O  O49  1  0.00006600  0.24630100  0.73722200  1
  O  O50  1  0.49944500  0.34324600  0.64545900  1
  O  O51  1  0.99886800  0.07640300  0.26441800  1
  O  O52  1  0.50536100  0.82012000  0.15315400  1
  O  O53  1  0.99511800  0.23830900  0.46602500  1
  O  O54  1  0.49981700  0.49642600  0.41417800  1
  O  O55  1  0.99974000  0.76216300  0.66822100  1
  O  O56  1  0.00003200  0.60732100  0.58889600  1
  O  O57  1  0.50136800  0.82593200  0.72321600  1
  O  O58  1  0.49981300  0.81813700  0.86818700  1
  O  O59  1  0.49907500  0.00000000  0.50000000  1
  O  O60  1  0.49459400  0.02629900  0.05953400  1
  O  O61  1  0.99964700  0.57366700  0.32927900  1
  O  O62  1  0.00688700  0.91327800  0.06108700  1
  O  O63  1  0.49511100  0.18146300  0.99688100  1
  O  O64  1  0.99180800  0.08182300  0.67324500  1
  O  O65  1  0.50356700  0.49907200  0.13807100  1
  O  O66  1  0.00029500  0.58500400  0.03662400  1
  O  O67  1  0.00362500  0.91889000  0.60267700  1
  O  O68  1  0.49996200  0.65953100  0.20838700  1
  O  O69  1  0.00458600  0.91421400  0.19556900  1
  O  O70  1  0.00458600  0.08578600  0.80443100  1
  O  O71  1  0.49945200  0.50124000  0.27170000  1
  O  O72  1  0.99974000  0.23783700  0.33177900  1
  O  O73  1  0.00155100  0.24543000  0.18694500  1
  O  O74  1  0.99867100  0.25309200  0.59721000  1
  O  O75  1  0.49548000  0.98630000  0.79368500  1
  O  O76  1  0.50136800  0.17406800  0.27678400  1
  O  O77  1  0.50536100  0.17988000  0.84684600  1
  O  O78  1  0.00362500  0.08111000  0.39732300  1
  O  O79  1  0.49944500  0.65675400  0.35454100  1
  O  O80  1  0.99867100  0.74690800  0.40279000  1
  O  O81  1  0.99387900  0.91503600  0.88210800  1
  O  O82  1  0.50618100  0.33906900  0.92721200  1
  O  O83  1  0.49928100  0.33570400  0.34663900  1
  O  O84  1  0.49511100  0.81853700  0.00311900  1
  O  O85  1  0.49945200  0.49876000  0.72830000  1
  O  O86  1  0.49459400  0.97370100  0.94046600  1
  O  O87  1  0.00003200  0.39267900  0.41110400  1
  O  O88  1  0.00703100  0.92047300  0.46387900  1
  O  O89  1  0.99511800  0.76169100  0.53397500  1
  O  O90  1  0.50010400  0.50000000  0.00000000  1
  O  O91  1  0.99387900  0.08496400  0.11789200  1
  O  O92  1  0.99886800  0.92359700  0.73558200  1
  O  O93  1  0.50498700  0.66059000  0.93361800  1
  O  O94  1  0.00351400  0.24743700  0.88533500  1
  O  O95  1  0.50618100  0.66093100  0.07278800  1
  O  O96  1  0.00351400  0.75256300  0.11466500  1
  O  O97  1  0.00006600  0.75369900  0.26277800  1
