# generated using pymatgen
data_DyAl2Ni
_symmetry_space_group_name_H-M   'P 1'
_cell_length_a   5.44774287
_cell_length_b   5.44774287
_cell_length_c   6.82186400
_cell_angle_alpha   90.00000000
_cell_angle_beta   90.00000000
_cell_angle_gamma   136.53153722
_symmetry_Int_Tables_number   1
_chemical_formula_structural   DyAl2Ni
_chemical_formula_sum   'Dy2 Al4 Ni2'
_cell_volume   139.28245698
_cell_formula_units_Z   2
loop_
 _symmetry_equiv_pos_site_id
 _symmetry_equiv_pos_as_xyz
  1  'x, y, z'
loop_
 _atom_site_type_symbol
 _atom_site_label
 _atom_site_symmetry_multiplicity
 _atom_site_fract_x
 _atom_site_fract_y
 _atom_site_fract_z
 _atom_site_occupancy
  Dy  Dy0  1  0.93760900  0.06239100  0.75000000  1
  Dy  Dy1  1  0.06239100  0.93760900  0.25000000  1
  Al  Al2  1  0.34464200  0.65535800  0.44621700  1
  Al  Al3  1  0.65535800  0.34464200  0.94621700  1
  Al  Al4  1  0.65535800  0.34464200  0.55378300  1
  Al  Al5  1  0.34464200  0.65535800  0.05378300  1
  Ni  Ni6  1  0.78560300  0.21439700  0.25000000  1
  Ni  Ni7  1  0.21439700  0.78560300  0.75000000  1
