# generated using pymatgen
data_Ba5Re3NO18
_symmetry_space_group_name_H-M   'P 1'
_cell_length_a   11.46720625
_cell_length_b   11.46720625
_cell_length_c   7.81435000
_cell_angle_alpha   90.00000000
_cell_angle_beta   90.00000000
_cell_angle_gamma   120.00000147
_symmetry_Int_Tables_number   1
_chemical_formula_structural   Ba5Re3NO18
_chemical_formula_sum   'Ba10 Re6 N2 O36'
_cell_volume   889.89492979
_cell_formula_units_Z   2
loop_
 _symmetry_equiv_pos_site_id
 _symmetry_equiv_pos_as_xyz
  1  'x, y, z'
loop_
 _atom_site_type_symbol
 _atom_site_label
 _atom_site_symmetry_multiplicity
 _atom_site_fract_x
 _atom_site_fract_y
 _atom_site_fract_z
 _atom_site_occupancy
  Ba  Ba0  1  0.27926900  0.27926900  0.25213700  1
  Ba  Ba1  1  0.00000000  0.72073100  0.25213700  1
  Ba  Ba2  1  0.66666700  0.33333300  0.50327100  1
  Ba  Ba3  1  0.72073100  0.00000000  0.25213700  1
  Ba  Ba4  1  0.00000000  0.27926900  0.75213700  1
  Ba  Ba5  1  0.33333300  0.66666700  0.50327100  1
  Ba  Ba6  1  0.66666700  0.33333300  0.00327100  1
  Ba  Ba7  1  0.27926900  0.00000000  0.75213700  1
  Ba  Ba8  1  0.33333300  0.66666700  0.00327100  1
  Ba  Ba9  1  0.72073100  0.72073100  0.75213700  1
  Re  Re10  1  0.39562800  0.39562800  0.80235500  1
  Re  Re11  1  0.00000000  0.39562800  0.30235500  1
  Re  Re12  1  0.39562800  0.00000000  0.30235500  1
  Re  Re13  1  0.60437200  0.00000000  0.80235500  1
  Re  Re14  1  0.00000000  0.60437200  0.80235500  1
  Re  Re15  1  0.60437200  0.60437200  0.30235500  1
  N  N16  1  0.00000000  0.00000000  0.43876900  1
  N  N17  1  0.00000000  0.00000000  0.93876900  1
  O  O18  1  0.69509100  0.00000000  0.62006400  1
  O  O19  1  0.44960300  0.87238400  0.26103700  1
  O  O20  1  0.87097600  0.26807200  0.44426200  1
  O  O21  1  0.39709600  0.26807200  0.94426200  1
  O  O22  1  0.88949400  0.88949400  0.43674200  1
  O  O23  1  0.42278100  0.55039700  0.26103700  1
  O  O24  1  0.00000000  0.88949400  0.93674200  1
  O  O25  1  0.00000000  0.11050600  0.43674200  1
  O  O26  1  0.57721900  0.12761600  0.26103700  1
  O  O27  1  0.73192800  0.12902400  0.94426200  1
  O  O28  1  0.87238400  0.42278100  0.76103700  1
  O  O29  1  0.44960300  0.57721900  0.76103700  1
  O  O30  1  0.69509100  0.69509100  0.12006400  1
  O  O31  1  0.12761600  0.57721900  0.26103700  1
  O  O32  1  0.00000000  0.69509100  0.62006400  1
  O  O33  1  0.12902400  0.73192800  0.94426200  1
  O  O34  1  0.88949400  0.00000000  0.93674200  1
  O  O35  1  0.87238400  0.44960300  0.26103700  1
  O  O36  1  0.12761600  0.55039700  0.76103700  1
  O  O37  1  0.26807200  0.39709600  0.94426200  1
  O  O38  1  0.26807200  0.87097600  0.44426200  1
  O  O39  1  0.12902400  0.39709600  0.44426200  1
  O  O40  1  0.30490900  0.00000000  0.12006400  1
  O  O41  1  0.39709600  0.12902400  0.44426200  1
  O  O42  1  0.60290400  0.73192800  0.44426200  1
  O  O43  1  0.42278100  0.87238400  0.76103700  1
  O  O44  1  0.11050600  0.00000000  0.43674200  1
  O  O45  1  0.57721900  0.44960300  0.76103700  1
  O  O46  1  0.60290400  0.87097600  0.94426200  1
  O  O47  1  0.55039700  0.42278100  0.26103700  1
  O  O48  1  0.11050600  0.11050600  0.93674200  1
  O  O49  1  0.00000000  0.30490900  0.12006400  1
  O  O50  1  0.55039700  0.12761600  0.76103700  1
  O  O51  1  0.73192800  0.60290400  0.44426200  1
  O  O52  1  0.87097600  0.60290400  0.94426200  1
  O  O53  1  0.30490900  0.30490900  0.62006400  1
