# generated using pymatgen
data_Gd3CuSnS7
_symmetry_space_group_name_H-M   'P 1'
_cell_length_a   9.89389799
_cell_length_b   9.89389799
_cell_length_c   6.22647900
_cell_angle_alpha   90.00000000
_cell_angle_beta   90.00000000
_cell_angle_gamma   119.99999994
_symmetry_Int_Tables_number   1
_chemical_formula_structural   Gd3CuSnS7
_chemical_formula_sum   'Gd6 Cu2 Sn2 S14'
_cell_volume   527.84694986
_cell_formula_units_Z   2
loop_
 _symmetry_equiv_pos_site_id
 _symmetry_equiv_pos_as_xyz
  1  'x, y, z'
loop_
 _atom_site_type_symbol
 _atom_site_label
 _atom_site_symmetry_multiplicity
 _atom_site_fract_x
 _atom_site_fract_y
 _atom_site_fract_z
 _atom_site_occupancy
  Gd  Gd0  1  0.64137600  0.85863100  0.76757100  1
  Gd  Gd1  1  0.35862400  0.14136900  0.26757100  1
  Gd  Gd2  1  0.21725500  0.35862400  0.76757100  1
  Gd  Gd3  1  0.78274500  0.64137600  0.26757100  1
  Gd  Gd4  1  0.85863100  0.21725500  0.26757100  1
  Gd  Gd5  1  0.14136900  0.78274500  0.76757100  1
  Cu  Cu6  1  0.00000000  0.00000000  0.16738800  1
  Cu  Cu7  1  0.00000000  0.00000000  0.66738800  1
  Sn  Sn8  1  0.66666700  0.33333300  0.83398000  1
  Sn  Sn9  1  0.33333300  0.66666700  0.33398000  1
  S  S10  1  0.48395700  0.56849200  0.51356400  1
  S  S11  1  0.08453500  0.51604300  0.51356400  1
  S  S12  1  0.91546500  0.48395700  0.01356400  1
  S  S13  1  0.66666700  0.33333300  0.44939200  1
  S  S14  1  0.89299800  0.15153100  0.69671200  1
  S  S15  1  0.56849200  0.08453500  0.01356400  1
  S  S16  1  0.33333300  0.66666700  0.94939200  1
  S  S17  1  0.43150800  0.91546500  0.51356400  1
  S  S18  1  0.25853400  0.10700200  0.69671200  1
  S  S19  1  0.15153100  0.25853400  0.19671200  1
  S  S20  1  0.74146600  0.89299800  0.19671200  1
  S  S21  1  0.51604300  0.43150800  0.01356400  1
  S  S22  1  0.10700200  0.84846900  0.19671200  1
  S  S23  1  0.84846900  0.74146600  0.69671200  1
