# generated using pymatgen
data_CsAl(SiO3)2
_symmetry_space_group_name_H-M   'P 1'
_cell_length_a   12.07489351
_cell_length_b   12.07489351
_cell_length_c   12.07489351
_cell_angle_alpha   109.72552840
_cell_angle_beta   109.72552840
_cell_angle_gamma   108.96379363
_symmetry_Int_Tables_number   1
_chemical_formula_structural   CsAl(SiO3)2
_chemical_formula_sum   'Cs8 Al8 Si16 O48'
_cell_volume   1355.19726226
_cell_formula_units_Z   8
loop_
 _symmetry_equiv_pos_site_id
 _symmetry_equiv_pos_as_xyz
  1  'x, y, z'
loop_
 _atom_site_type_symbol
 _atom_site_label
 _atom_site_symmetry_multiplicity
 _atom_site_fract_x
 _atom_site_fract_y
 _atom_site_fract_z
 _atom_site_occupancy
  Cs  Cs0  1  0.87726300  0.37726300  0.25452600  1
  Cs  Cs1  1  0.12273700  0.62273700  0.74547400  1
  Cs  Cs2  1  0.37726300  0.12273700  0.50000000  1
  Cs  Cs3  1  0.37273700  0.12726300  0.00000000  1
  Cs  Cs4  1  0.62726300  0.62726300  0.75452600  1
  Cs  Cs5  1  0.87273700  0.87273700  0.24547400  1
  Cs  Cs6  1  0.62273700  0.87726300  0.50000000  1
  Cs  Cs7  1  0.12726300  0.37273700  0.00000000  1
  Al  Al8  1  0.33745700  0.83745700  0.17491400  1
  Al  Al9  1  0.08745700  0.08745700  0.67491400  1
  Al  Al10  1  0.16254300  0.33745700  0.50000000  1
  Al  Al11  1  0.91254300  0.58745700  0.00000000  1
  Al  Al12  1  0.66254300  0.16254300  0.82508600  1
  Al  Al13  1  0.58745700  0.91254300  0.00000000  1
  Al  Al14  1  0.83745700  0.66254300  0.50000000  1
  Al  Al15  1  0.41254300  0.41254300  0.32508600  1
  Si  Si16  1  0.16727100  0.69916800  0.28919400  1
  Si  Si17  1  0.30083200  0.59002600  0.46810300  1
  Si  Si18  1  0.34002600  0.37192300  0.78919400  1
  Si  Si19  1  0.84002600  0.05083200  0.96810300  1
  Si  Si20  1  0.40997400  0.87807700  0.71080600  1
  Si  Si21  1  0.80083200  0.33272900  0.71080600  1
  Si  Si22  1  0.44916800  0.65997400  0.03189700  1
  Si  Si23  1  0.66727100  0.37807700  0.46810300  1
  Si  Si24  1  0.08272900  0.87192300  0.03189700  1
  Si  Si25  1  0.62807700  0.41727100  0.96810300  1
  Si  Si26  1  0.12192300  0.83272900  0.53189700  1
  Si  Si27  1  0.62192300  0.09002600  0.28919400  1
  Si  Si28  1  0.12807700  0.15997400  0.21080600  1
  Si  Si29  1  0.94916800  0.91727100  0.78919400  1
  Si  Si30  1  0.58272900  0.55083200  0.21080600  1
  Si  Si31  1  0.90997400  0.19916800  0.53189700  1
  O  O32  1  0.13890300  0.79726400  0.39628800  1
  O  O33  1  0.61109700  0.45273600  0.10371200  1
  O  O34  1  0.71877400  0.65145700  0.35806600  1
  O  O35  1  0.70273600  0.36109700  0.60371200  1
  O  O36  1  0.51072500  0.00684500  0.71300600  1
  O  O37  1  0.49315500  0.98927500  0.28699400  1
  O  O38  1  0.79339100  0.15145700  0.93268300  1
  O  O39  1  0.40097600  0.74261500  0.60371200  1
  O  O40  1  0.23927500  0.24315500  0.78699400  1
  O  O41  1  0.75738500  0.09902400  0.39628800  1
  O  O42  1  0.45616100  0.45228100  0.21300600  1
  O  O43  1  0.53122600  0.38929200  0.43268300  1
  O  O44  1  0.84854300  0.78122600  0.64193400  1
  O  O45  1  0.04726400  0.88890300  0.89628800  1
  O  O46  1  0.13929200  0.20660900  0.35806600  1
  O  O47  1  0.25738500  0.86109700  0.65836100  1
  O  O48  1  0.90097600  0.29726400  0.65836100  1
  O  O49  1  0.49261500  0.38890300  0.84163900  1
  O  O50  1  0.29339100  0.36070800  0.64193400  1
  O  O51  1  0.03122600  0.59854300  0.14193400  1
  O  O52  1  0.45660900  0.88929200  0.85806600  1
  O  O53  1  0.01072500  0.29771900  0.50388000  1
  O  O54  1  0.79383900  0.50684500  0.49612000  1
  O  O55  1  0.25684500  0.26072500  0.21300600  1
  O  O56  1  0.99315500  0.70616100  0.50388000  1
  O  O57  1  0.40145700  0.54339100  0.43268300  1
  O  O58  1  0.21877400  0.86070800  0.06731700  1
  O  O59  1  0.34902400  0.50738500  0.89628800  1
  O  O60  1  0.54771900  0.76072500  0.00388000  1
  O  O61  1  0.11109700  0.00738500  0.15836100  1
  O  O62  1  0.61070800  0.04339100  0.14193400  1
  O  O63  1  0.95660900  0.09854300  0.56731700  1
  O  O64  1  0.90145700  0.46877400  0.85806600  1
  O  O65  1  0.04771900  0.04383900  0.78699400  1
  O  O66  1  0.63929200  0.28122600  0.93268300  1
  O  O67  1  0.11070800  0.96877400  0.56731700  1
  O  O68  1  0.29383900  0.79771900  0.28699400  1
  O  O69  1  0.20273600  0.59902400  0.34163900  1
  O  O70  1  0.99261500  0.15097600  0.10371200  1
  O  O71  1  0.73927500  0.95228100  0.99612000  1
  O  O72  1  0.20228100  0.48927500  0.49612000  1
  O  O73  1  0.63890300  0.24261500  0.34163900  1
  O  O74  1  0.34854300  0.70660900  0.06731700  1
  O  O75  1  0.84902400  0.95273600  0.84163900  1
  O  O76  1  0.54726400  0.65097600  0.15836100  1
  O  O77  1  0.70228100  0.20616100  0.71300600  1
  O  O78  1  0.75684500  0.54383900  0.99612000  1
  O  O79  1  0.95616100  0.74315500  0.00388000  1
