# generated using pymatgen
data_Ga2BiSe4
_symmetry_space_group_name_H-M   'P 1'
_cell_length_a   7.94781400
_cell_length_b   7.94781400
_cell_length_c   12.80106500
_cell_angle_alpha   90.00000000
_cell_angle_beta   90.00000000
_cell_angle_gamma   90.00000000
_symmetry_Int_Tables_number   1
_chemical_formula_structural   Ga2BiSe4
_chemical_formula_sum   'Ga8 Bi4 Se16'
_cell_volume   808.61444010
_cell_formula_units_Z   4
loop_
 _symmetry_equiv_pos_site_id
 _symmetry_equiv_pos_as_xyz
  1  'x, y, z'
loop_
 _atom_site_type_symbol
 _atom_site_label
 _atom_site_symmetry_multiplicity
 _atom_site_fract_x
 _atom_site_fract_y
 _atom_site_fract_z
 _atom_site_occupancy
  Ga  Ga0  1  0.50000000  0.00000000  0.75000000  1
  Ga  Ga1  1  0.00000000  0.50000000  0.75000000  1
  Ga  Ga2  1  0.00000000  0.50000000  0.00000000  1
  Ga  Ga3  1  0.00000000  0.50000000  0.25000000  1
  Ga  Ga4  1  0.50000000  0.00000000  0.50000000  1
  Ga  Ga5  1  0.50000000  0.00000000  0.25000000  1
  Ga  Ga6  1  0.00000000  0.50000000  0.50000000  1
  Ga  Ga7  1  0.50000000  0.00000000  0.00000000  1
  Bi  Bi8  1  0.00000000  0.00000000  0.12372900  1
  Bi  Bi9  1  0.00000000  0.00000000  0.87627100  1
  Bi  Bi10  1  0.50000000  0.50000000  0.37627100  1
  Bi  Bi11  1  0.50000000  0.50000000  0.62372900  1
  Se  Se12  1  0.66265600  0.83087800  0.87546100  1
  Se  Se13  1  0.16265600  0.33087800  0.62453900  1
  Se  Se14  1  0.83734400  0.66912200  0.62453900  1
  Se  Se15  1  0.16265600  0.66912200  0.37546100  1
  Se  Se16  1  0.66912200  0.16265600  0.62453900  1
  Se  Se17  1  0.83087800  0.33734400  0.87546100  1
  Se  Se18  1  0.66912200  0.83734400  0.37546100  1
  Se  Se19  1  0.66265600  0.16912200  0.12453900  1
  Se  Se20  1  0.16912200  0.33734400  0.12453900  1
  Se  Se21  1  0.33087800  0.83734400  0.62453900  1
  Se  Se22  1  0.16912200  0.66265600  0.87546100  1
  Se  Se23  1  0.83734400  0.33087800  0.37546100  1
  Se  Se24  1  0.83087800  0.66265600  0.12453900  1
  Se  Se25  1  0.33734400  0.16912200  0.87546100  1
  Se  Se26  1  0.33087800  0.16265600  0.37546100  1
  Se  Se27  1  0.33734400  0.83087800  0.12453900  1
