# generated using pymatgen
data_PrCoC2
_symmetry_space_group_name_H-M   'P 1'
_cell_length_a   3.83027092
_cell_length_b   3.83027092
_cell_length_c   7.43304735
_cell_angle_alpha   81.56322589
_cell_angle_beta   81.56322589
_cell_angle_gamma   90.02037204
_symmetry_Int_Tables_number   1
_chemical_formula_structural   PrCoC2
_chemical_formula_sum   'Pr2 Co2 C4'
_cell_volume   106.67594123
_cell_formula_units_Z   2
loop_
 _symmetry_equiv_pos_site_id
 _symmetry_equiv_pos_as_xyz
  1  'x, y, z'
loop_
 _atom_site_type_symbol
 _atom_site_label
 _atom_site_symmetry_multiplicity
 _atom_site_fract_x
 _atom_site_fract_y
 _atom_site_fract_z
 _atom_site_occupancy
  Pr  Pr0  1  0.63071300  0.48521400  0.30700100  1
  Pr  Pr1  1  0.48521400  0.63071300  0.80700100  1
  Co  Co2  1  0.07047100  0.93133400  0.50101800  1
  Co  Co3  1  0.93133400  0.07047100  0.00101800  1
  C  C4  1  0.40910400  0.04770200  0.08025900  1
  C  C5  1  0.04770200  0.40910400  0.58025900  1
  C  C6  1  0.15233400  0.00112700  0.23272300  1
  C  C7  1  0.00112700  0.15233400  0.73272300  1
