# generated using pymatgen
data_BaFe2P2O7F2
_symmetry_space_group_name_H-M   'P 1'
_cell_length_a   4.66892600
_cell_length_b   6.93008000
_cell_length_c   12.04696200
_cell_angle_alpha   90.00000000
_cell_angle_beta   90.00000000
_cell_angle_gamma   90.00000000
_symmetry_Int_Tables_number   1
_chemical_formula_structural   BaFe2P2O7F2
_chemical_formula_sum   'Ba2 Fe4 P4 O14 F4'
_cell_volume   389.79187224
_cell_formula_units_Z   2
loop_
 _symmetry_equiv_pos_site_id
 _symmetry_equiv_pos_as_xyz
  1  'x, y, z'
loop_
 _atom_site_type_symbol
 _atom_site_label
 _atom_site_symmetry_multiplicity
 _atom_site_fract_x
 _atom_site_fract_y
 _atom_site_fract_z
 _atom_site_occupancy
  Ba  Ba0  1  0.39203300  0.25000000  0.75000000  1
  Ba  Ba1  1  0.60796700  0.75000000  0.25000000  1
  Fe  Fe2  1  0.00000000  0.50000000  0.50000000  1
  Fe  Fe3  1  0.00000000  0.50000000  0.00000000  1
  Fe  Fe4  1  0.00000000  0.00000000  0.50000000  1
  Fe  Fe5  1  0.00000000  0.00000000  0.00000000  1
  P  P6  1  0.51323500  0.25000000  0.37393600  1
  P  P7  1  0.48676500  0.75000000  0.87393600  1
  P  P8  1  0.48676500  0.75000000  0.62606400  1
  P  P9  1  0.51323500  0.25000000  0.12606400  1
  O  O10  1  0.62590800  0.75000000  0.75000000  1
  O  O11  1  0.37409200  0.25000000  0.25000000  1
  O  O12  1  0.74948300  0.75000000  0.94987100  1
  O  O13  1  0.25051700  0.25000000  0.05012900  1
  O  O14  1  0.25051700  0.25000000  0.44987100  1
  O  O15  1  0.74948300  0.75000000  0.55012900  1
  O  O16  1  0.30981600  0.93483300  0.88387700  1
  O  O17  1  0.69018400  0.06516700  0.38387700  1
  O  O18  1  0.30981600  0.56516700  0.61612300  1
  O  O19  1  0.69018400  0.06516700  0.11612300  1
  O  O20  1  0.69018400  0.43483300  0.38387700  1
  O  O21  1  0.69018400  0.43483300  0.11612300  1
  O  O22  1  0.30981600  0.56516700  0.88387700  1
  O  O23  1  0.30981600  0.93483300  0.61612300  1
  F  F24  1  0.12836800  0.75000000  0.38605300  1
  F  F25  1  0.12836800  0.75000000  0.11394700  1
  F  F26  1  0.87163200  0.25000000  0.61394700  1
  F  F27  1  0.87163200  0.25000000  0.88605300  1
