# generated using pymatgen
data_Hf5Sb9
_symmetry_space_group_name_H-M   'P 1'
_cell_length_a   8.84360600
_cell_length_b   8.84360600
_cell_length_c   8.73503500
_cell_angle_alpha   90.00000000
_cell_angle_beta   90.00000000
_cell_angle_gamma   90.00000000
_symmetry_Int_Tables_number   1
_chemical_formula_structural   Hf5Sb9
_chemical_formula_sum   'Hf10 Sb18'
_cell_volume   683.16155880
_cell_formula_units_Z   2
loop_
 _symmetry_equiv_pos_site_id
 _symmetry_equiv_pos_as_xyz
  1  'x, y, z'
loop_
 _atom_site_type_symbol
 _atom_site_label
 _atom_site_symmetry_multiplicity
 _atom_site_fract_x
 _atom_site_fract_y
 _atom_site_fract_z
 _atom_site_occupancy
  Hf  Hf0  1  0.50000000  0.00000000  0.25483400  1
  Hf  Hf1  1  0.00000000  0.50000000  0.74516600  1
  Hf  Hf2  1  0.10534400  0.79267900  0.26647100  1
  Hf  Hf3  1  0.39465600  0.70732100  0.73352900  1
  Hf  Hf4  1  0.29267900  0.39465600  0.26647100  1
  Hf  Hf5  1  0.89465600  0.20732100  0.26647100  1
  Hf  Hf6  1  0.60534400  0.29267900  0.73352900  1
  Hf  Hf7  1  0.20732100  0.10534400  0.73352900  1
  Hf  Hf8  1  0.70732100  0.60534400  0.26647100  1
  Hf  Hf9  1  0.79267900  0.89465600  0.73352900  1
  Sb  Sb10  1  0.41989500  0.23134600  0.00194900  1
  Sb  Sb11  1  0.76865400  0.41989500  0.99805100  1
  Sb  Sb12  1  0.19651600  0.09676000  0.38178600  1
  Sb  Sb13  1  0.09676000  0.80348400  0.61821400  1
  Sb  Sb14  1  0.30348400  0.40324000  0.61821400  1
  Sb  Sb15  1  0.40324000  0.69651600  0.38178600  1
  Sb  Sb16  1  0.58010500  0.76865400  0.00194900  1
  Sb  Sb17  1  0.00000000  0.50000000  0.39224400  1
  Sb  Sb18  1  0.69651600  0.59676000  0.61821400  1
  Sb  Sb19  1  0.91989500  0.73134600  0.99805100  1
  Sb  Sb20  1  0.23134600  0.58010500  0.99805100  1
  Sb  Sb21  1  0.08010500  0.26865400  0.99805100  1
  Sb  Sb22  1  0.59676000  0.30348400  0.38178600  1
  Sb  Sb23  1  0.50000000  0.00000000  0.60775600  1
  Sb  Sb24  1  0.73134600  0.08010500  0.00194900  1
  Sb  Sb25  1  0.90324000  0.19651600  0.61821400  1
  Sb  Sb26  1  0.26865400  0.91989500  0.00194900  1
  Sb  Sb27  1  0.80348400  0.90324000  0.38178600  1
