# generated using pymatgen
data_Mo(PO3)3
_symmetry_space_group_name_H-M   'P 1'
_cell_length_a   12.13225116
_cell_length_b   12.13225116
_cell_length_c   9.86495679
_cell_angle_alpha   69.91891156
_cell_angle_beta   69.91891156
_cell_angle_gamma   110.64094180
_symmetry_Int_Tables_number   1
_chemical_formula_structural   Mo(PO3)3
_chemical_formula_sum   'Mo6 P18 O54'
_cell_volume   1083.53961042
_cell_formula_units_Z   6
loop_
 _symmetry_equiv_pos_site_id
 _symmetry_equiv_pos_as_xyz
  1  'x, y, z'
loop_
 _atom_site_type_symbol
 _atom_site_label
 _atom_site_symmetry_multiplicity
 _atom_site_fract_x
 _atom_site_fract_y
 _atom_site_fract_z
 _atom_site_occupancy
  Mo  Mo0  1  0.02474200  0.51416900  0.46224100  1
  Mo  Mo1  1  0.51416900  0.02474200  0.96224100  1
  Mo  Mo2  1  0.83922000  0.66257000  0.99531200  1
  Mo  Mo3  1  0.66257000  0.83922000  0.49531200  1
  Mo  Mo4  1  0.33228100  0.17419200  0.49336700  1
  Mo  Mo5  1  0.17419200  0.33228100  0.99336700  1
  P  P6  1  0.69098100  0.31003000  0.24922300  1
  P  P7  1  0.31003000  0.69098100  0.74922300  1
  P  P8  1  0.01417300  0.96534800  0.26577300  1
  P  P9  1  0.96534800  0.01417300  0.76577300  1
  P  P10  1  0.42855800  0.36543700  0.66429900  1
  P  P11  1  0.36543700  0.42855800  0.16429900  1
  P  P12  1  0.63266000  0.57697300  0.83027800  1
  P  P13  1  0.57697300  0.63266000  0.33027800  1
  P  P14  1  0.10302600  0.70634600  0.64484700  1
  P  P15  1  0.70634600  0.10302600  0.14484700  1
  P  P16  1  0.66699700  0.38451200  0.70407600  1
  P  P17  1  0.38451200  0.66699700  0.20407600  1
  P  P18  1  0.31226600  0.92053000  0.80389900  1
  P  P19  1  0.92053000  0.31226600  0.30389900  1
  P  P20  1  0.04542600  0.77168100  0.14625500  1
  P  P21  1  0.77168100  0.04542600  0.64625500  1
  P  P22  1  0.25151000  0.97986100  0.31192400  1
  P  P23  1  0.97986100  0.25151000  0.81192400  1
  O  O24  1  0.45296300  0.49498100  0.51158500  1
  O  O25  1  0.49498100  0.45296300  0.01158500  1
  O  O26  1  0.19589900  0.65934500  0.69894200  1
  O  O27  1  0.65934500  0.19589900  0.19894200  1
  O  O28  1  0.58548400  0.40686300  0.60801800  1
  O  O29  1  0.40686300  0.58548400  0.10801800  1
  O  O30  1  0.68612300  0.49062400  0.76794600  1
  O  O31  1  0.49062400  0.68612300  0.26794600  1
  O  O32  1  0.28304700  0.76797600  0.85081200  1
  O  O33  1  0.76797600  0.28304700  0.35081200  1
  O  O34  1  0.18038500  0.88738600  0.96122900  1
  O  O35  1  0.88738600  0.18038500  0.46122900  1
  O  O36  1  0.99630900  0.86781000  0.18885000  1
  O  O37  1  0.86781000  0.99630900  0.68885000  1
  O  O38  1  0.09647000  0.93675500  0.35719900  1
  O  O39  1  0.93675500  0.09647000  0.85719900  1
  O  O40  1  0.22209000  0.84676600  0.46497800  1
  O  O41  1  0.84676600  0.22209000  0.96497800  1
  O  O42  1  0.24049000  0.58176600  0.35692500  1
  O  O43  1  0.58176600  0.24049000  0.85692500  1
  O  O44  1  0.08501600  0.71034000  0.26737800  1
  O  O45  1  0.71034000  0.08501600  0.76737800  1
  O  O46  1  0.98816700  0.32686300  0.64924200  1
  O  O47  1  0.32686300  0.98816700  0.14924200  1
  O  O48  1  0.36517000  0.36277000  0.82632300  1
  O  O49  1  0.36277000  0.36517000  0.32632300  1
  O  O50  1  0.23707000  0.34945400  0.16678500  1
  O  O51  1  0.34945400  0.23707000  0.66678500  1
  O  O52  1  0.27401800  0.55317000  0.87622400  1
  O  O53  1  0.55317000  0.27401800  0.37622400  1
  O  O54  1  0.98258500  0.30786400  0.14679200  1
  O  O55  1  0.30786400  0.98258500  0.64679200  1
  O  O56  1  0.09497600  0.11247400  0.12199500  1
  O  O57  1  0.11247400  0.09497600  0.62199500  1
  O  O58  1  0.10432100  0.31717100  0.82304700  1
  O  O59  1  0.31717100  0.10432100  0.32304700  1
  O  O60  1  0.66290700  0.73803100  0.35559800  1
  O  O61  1  0.73803100  0.66290700  0.85559800  1
  O  O62  1  0.87357600  0.90734700  0.41076600  1
  O  O63  1  0.90734700  0.87357600  0.91076600  1
  O  O64  1  0.59590700  0.65126900  0.71447800  1
  O  O65  1  0.65126900  0.59590700  0.21447800  1
  O  O66  1  0.45082300  0.78551400  0.58850300  1
  O  O67  1  0.78551400  0.45082300  0.08850300  1
  O  O68  1  0.73612300  0.02547900  0.26770700  1
  O  O69  1  0.02547900  0.73612300  0.76770700  1
  O  O70  1  0.67144700  0.93824300  0.63601300  1
  O  O71  1  0.93824300  0.67144700  0.13601300  1
  O  O72  1  0.43480100  0.80777900  0.06710200  1
  O  O73  1  0.80777900  0.43480100  0.56710200  1
  O  O74  1  0.59758000  0.01935200  0.12173700  1
  O  O75  1  0.01935200  0.59758000  0.62173700  1
  O  O76  1  0.43889300  0.00648000  0.79933400  1
  O  O77  1  0.00648000  0.43889300  0.29933400  1
