# generated using pymatgen
data_CsTiCu3Se4
_symmetry_space_group_name_H-M   'P 1'
_cell_length_a   7.85482000
_cell_length_b   5.82540700
_cell_length_c   10.39528079
_cell_angle_alpha   73.69938122
_cell_angle_beta   90.00000000
_cell_angle_gamma   90.00000000
_symmetry_Int_Tables_number   1
_chemical_formula_structural   CsTiCu3Se4
_chemical_formula_sum   'Cs2 Ti2 Cu6 Se8'
_cell_volume   456.54175469
_cell_formula_units_Z   2
loop_
 _symmetry_equiv_pos_site_id
 _symmetry_equiv_pos_as_xyz
  1  'x, y, z'
loop_
 _atom_site_type_symbol
 _atom_site_label
 _atom_site_symmetry_multiplicity
 _atom_site_fract_x
 _atom_site_fract_y
 _atom_site_fract_z
 _atom_site_occupancy
  Cs  Cs0  1  0.25000000  0.17841900  0.62199000  1
  Cs  Cs1  1  0.75000000  0.82158100  0.37801000  1
  Ti  Ti2  1  0.75000000  0.35195800  0.79468300  1
  Ti  Ti3  1  0.25000000  0.64804200  0.20531700  1
  Cu  Cu4  1  0.50577800  0.72210400  0.99786700  1
  Cu  Cu5  1  0.75000000  0.85009800  0.80033900  1
  Cu  Cu6  1  0.25000000  0.14990200  0.19966100  1
  Cu  Cu7  1  0.49422200  0.27789600  0.00213300  1
  Cu  Cu8  1  0.00577800  0.27789600  0.00213300  1
  Cu  Cu9  1  0.99422200  0.72210400  0.99786700  1
  Se  Se10  1  0.49688200  0.59771100  0.78921900  1
  Se  Se11  1  0.99688200  0.40228900  0.21078100  1
  Se  Se12  1  0.00311800  0.59771100  0.78921900  1
  Se  Se13  1  0.50311800  0.40228900  0.21078100  1
  Se  Se14  1  0.25000000  0.98208900  0.99691600  1
  Se  Se15  1  0.75000000  0.01791100  0.00308400  1
  Se  Se16  1  0.25000000  0.79822700  0.39381400  1
  Se  Se17  1  0.75000000  0.20177300  0.60618600  1
