# generated using pymatgen
data_HgI2
_symmetry_space_group_name_H-M   'P 1'
_cell_length_a   15.97453537
_cell_length_b   15.97453537
_cell_length_c   15.97453537
_cell_angle_alpha   130.95130777
_cell_angle_beta   130.95130777
_cell_angle_gamma   71.89045220
_symmetry_Int_Tables_number   1
_chemical_formula_structural   HgI2
_chemical_formula_sum   'Hg16 I32'
_cell_volume   2274.40090530
_cell_formula_units_Z   16
loop_
 _symmetry_equiv_pos_site_id
 _symmetry_equiv_pos_as_xyz
  1  'x, y, z'
loop_
 _atom_site_type_symbol
 _atom_site_label
 _atom_site_symmetry_multiplicity
 _atom_site_fract_x
 _atom_site_fract_y
 _atom_site_fract_z
 _atom_site_occupancy
  Hg  Hg0  1  0.94393800  0.18629900  0.00692700  1
  Hg  Hg1  1  0.43629900  0.69393800  0.50692700  1
  Hg  Hg2  1  0.06298900  0.05606200  0.24236100  1
  Hg  Hg3  1  0.31370100  0.55606200  0.99307300  1
  Hg  Hg4  1  0.80606200  0.06370100  0.49307300  1
  Hg  Hg5  1  0.93629900  0.42937200  0.74236100  1
  Hg  Hg6  1  0.57062800  0.31298900  0.50692700  1
  Hg  Hg7  1  0.68701100  0.19393800  0.25763900  1
  Hg  Hg8  1  0.17937200  0.93701100  0.99307300  1
  Hg  Hg9  1  0.67937200  0.68629900  0.24236100  1
  Hg  Hg10  1  0.18701100  0.92937200  0.49307300  1
  Hg  Hg11  1  0.44393800  0.43701100  0.75763900  1
  Hg  Hg12  1  0.07062800  0.56370100  0.25763900  1
  Hg  Hg13  1  0.56298900  0.32062800  0.00692700  1
  Hg  Hg14  1  0.30606200  0.81298900  0.74236100  1
  Hg  Hg15  1  0.81370100  0.82062800  0.75763900  1
  I  I16  1  0.62500000  0.62993800  0.50493800  1
  I  I17  1  0.87006200  0.87500000  0.49506200  1
  I  I18  1  0.49615700  0.25535100  0.25226000  1
  I  I19  1  0.87106500  0.87106500  0.00000000  1
  I  I20  1  0.62500000  0.12993800  0.00493800  1
  I  I21  1  0.37993800  0.37500000  0.50493800  1
  I  I22  1  0.50309100  0.75535100  0.75919400  1
  I  I23  1  0.74690900  0.00610300  0.75226000  1
  I  I24  1  0.37893500  0.87893500  0.50000000  1
  I  I25  1  0.75384300  0.50610300  0.25919400  1
  I  I26  1  0.24464900  0.00384300  0.74774000  1
  I  I27  1  0.87893500  0.37893500  0.50000000  1
  I  I28  1  0.12500000  0.62006200  0.99506200  1
  I  I29  1  0.37006200  0.87500000  0.99506200  1
  I  I30  1  0.00309100  0.24389700  0.74774000  1
  I  I31  1  0.75610300  0.50384300  0.75919400  1
  I  I32  1  0.62106500  0.12106500  0.50000000  1
  I  I33  1  0.25384300  0.99464900  0.24774000  1
  I  I34  1  0.12500000  0.12006200  0.49506200  1
  I  I35  1  0.24690900  0.49464900  0.74080600  1
  I  I36  1  0.25610300  0.49690900  0.25226000  1
  I  I37  1  0.12106500  0.62106500  0.50000000  1
  I  I38  1  0.00535100  0.25309100  0.25919400  1
  I  I39  1  0.12893500  0.12893500  0.00000000  1
  I  I40  1  0.50535100  0.24615700  0.75226000  1
  I  I41  1  0.74464900  0.99690900  0.24080600  1
  I  I42  1  0.37106500  0.37106500  0.00000000  1
  I  I43  1  0.49389700  0.75309100  0.24774000  1
  I  I44  1  0.99389700  0.74615700  0.74080600  1
  I  I45  1  0.87993800  0.37500000  0.00493800  1
  I  I46  1  0.62893500  0.62893500  0.00000000  1
  I  I47  1  0.99615700  0.74389700  0.24080600  1
