# generated using pymatgen
data_NaMnF4
_symmetry_space_group_name_H-M   'P 1'
_cell_length_a   5.01737700
_cell_length_b   5.85351200
_cell_length_c   5.90836563
_cell_angle_alpha   71.32819040
_cell_angle_beta   90.00000000
_cell_angle_gamma   90.00000000
_symmetry_Int_Tables_number   1
_chemical_formula_structural   NaMnF4
_chemical_formula_sum   'Na2 Mn2 F8'
_cell_volume   164.39147068
_cell_formula_units_Z   2
loop_
 _symmetry_equiv_pos_site_id
 _symmetry_equiv_pos_as_xyz
  1  'x, y, z'
loop_
 _atom_site_type_symbol
 _atom_site_label
 _atom_site_symmetry_multiplicity
 _atom_site_fract_x
 _atom_site_fract_y
 _atom_site_fract_z
 _atom_site_occupancy
  Na  Na0  1  0.50000000  0.50000000  0.00000000  1
  Na  Na1  1  0.00000000  0.50000000  0.50000000  1
  Mn  Mn2  1  0.50000000  0.00000000  0.50000000  1
  Mn  Mn3  1  0.00000000  0.00000000  0.00000000  1
  F  F4  1  0.14909000  0.30750700  0.88640600  1
  F  F5  1  0.64909000  0.69249300  0.61359400  1
  F  F6  1  0.85091000  0.69249300  0.11359400  1
  F  F7  1  0.35091000  0.30750700  0.38640600  1
  F  F8  1  0.23461900  0.88080100  0.33422700  1
  F  F9  1  0.73461900  0.11919900  0.16577300  1
  F  F10  1  0.76538100  0.11919900  0.66577300  1
  F  F11  1  0.26538100  0.88080100  0.83422700  1
