# generated using pymatgen
data_RbSiBiS4
_symmetry_space_group_name_H-M   'P 1'
_cell_length_a   6.89040500
_cell_length_b   6.58470600
_cell_length_c   18.19786149
_cell_angle_alpha   72.01593433
_cell_angle_beta   90.00000000
_cell_angle_gamma   90.00000000
_symmetry_Int_Tables_number   1
_chemical_formula_structural   RbSiBiS4
_chemical_formula_sum   'Rb4 Si4 Bi4 S16'
_cell_volume   785.32069859
_cell_formula_units_Z   4
loop_
 _symmetry_equiv_pos_site_id
 _symmetry_equiv_pos_as_xyz
  1  'x, y, z'
loop_
 _atom_site_type_symbol
 _atom_site_label
 _atom_site_symmetry_multiplicity
 _atom_site_fract_x
 _atom_site_fract_y
 _atom_site_fract_z
 _atom_site_occupancy
  Rb  Rb0  1  0.25324600  0.70978200  0.03600000  1
  Rb  Rb1  1  0.24675400  0.70978200  0.53600000  1
  Rb  Rb2  1  0.75324600  0.29021800  0.46400000  1
  Rb  Rb3  1  0.74675400  0.29021800  0.96400000  1
  Si  Si4  1  0.27082600  0.20234000  0.84062100  1
  Si  Si5  1  0.22917400  0.20234000  0.34062100  1
  Si  Si6  1  0.77082600  0.79766000  0.65937900  1
  Si  Si7  1  0.72917400  0.79766000  0.15937900  1
  Bi  Bi8  1  0.80955400  0.23915000  0.22322600  1
  Bi  Bi9  1  0.19044600  0.76085000  0.77677400  1
  Bi  Bi10  1  0.69044600  0.23915000  0.72322600  1
  Bi  Bi11  1  0.30955400  0.76085000  0.27677400  1
  S  S12  1  0.51544600  0.99092300  0.64592300  1
  S  S13  1  0.18115600  0.39772100  0.22229000  1
  S  S14  1  0.48455400  0.00907700  0.35407700  1
  S  S15  1  0.01544600  0.00907700  0.85407700  1
  S  S16  1  0.31884400  0.39772100  0.72229000  1
  S  S17  1  0.24536300  0.40864900  0.91004000  1
  S  S18  1  0.75463700  0.59135100  0.08996000  1
  S  S19  1  0.81884400  0.60227900  0.77771000  1
  S  S20  1  0.74536300  0.59135100  0.58996000  1
  S  S21  1  0.25463700  0.40864900  0.41004000  1
  S  S22  1  0.50779200  0.98670100  0.86519700  1
  S  S23  1  0.00779200  0.01329900  0.63480300  1
  S  S24  1  0.49220800  0.01329900  0.13480300  1
  S  S25  1  0.98455400  0.99092300  0.14592300  1
  S  S26  1  0.99220800  0.98670100  0.36519700  1
  S  S27  1  0.68115600  0.60227900  0.27771000  1
