# generated using pymatgen
data_Tl2CO3
_symmetry_space_group_name_H-M   'P 1'
_cell_length_a   7.07053628
_cell_length_b   7.07053628
_cell_length_c   7.72876090
_cell_angle_alpha   60.63190395
_cell_angle_beta   60.63190395
_cell_angle_gamma   45.81286105
_symmetry_Int_Tables_number   1
_chemical_formula_structural   Tl2CO3
_chemical_formula_sum   'Tl4 C2 O6'
_cell_volume   234.52910314
_cell_formula_units_Z   2
loop_
 _symmetry_equiv_pos_site_id
 _symmetry_equiv_pos_as_xyz
  1  'x, y, z'
loop_
 _atom_site_type_symbol
 _atom_site_label
 _atom_site_symmetry_multiplicity
 _atom_site_fract_x
 _atom_site_fract_y
 _atom_site_fract_z
 _atom_site_occupancy
  Tl  Tl0  1  0.09470900  0.09470900  0.69274300  1
  Tl  Tl1  1  0.90529100  0.90529100  0.30725700  1
  Tl  Tl2  1  0.63875200  0.63875200  0.22812800  1
  Tl  Tl3  1  0.36124800  0.36124800  0.77187200  1
  C  C4  1  0.66496200  0.66496200  0.80548000  1
  C  C5  1  0.33503800  0.33503800  0.19452000  1
  O  O6  1  0.66687900  0.66687900  0.63656200  1
  O  O7  1  0.33312100  0.33312100  0.36343800  1
  O  O8  1  0.86858300  0.45813100  0.89312900  1
  O  O9  1  0.54186900  0.13141700  0.10687100  1
  O  O10  1  0.13141700  0.54186900  0.10687100  1
  O  O11  1  0.45813100  0.86858300  0.89312900  1
