# generated using pymatgen
data_Pr3CuSnS7
_symmetry_space_group_name_H-M   'P 1'
_cell_length_a   10.22764441
_cell_length_b   10.22764441
_cell_length_c   6.14173100
_cell_angle_alpha   90.00000000
_cell_angle_beta   90.00000000
_cell_angle_gamma   120.00000266
_symmetry_Int_Tables_number   1
_chemical_formula_structural   Pr3CuSnS7
_chemical_formula_sum   'Pr6 Cu2 Sn2 S14'
_cell_volume   556.38146242
_cell_formula_units_Z   2
loop_
 _symmetry_equiv_pos_site_id
 _symmetry_equiv_pos_as_xyz
  1  'x, y, z'
loop_
 _atom_site_type_symbol
 _atom_site_label
 _atom_site_symmetry_multiplicity
 _atom_site_fract_x
 _atom_site_fract_y
 _atom_site_fract_z
 _atom_site_occupancy
  Pr  Pr0  1  0.78192400  0.64262200  0.26481900  1
  Pr  Pr1  1  0.86069800  0.21807600  0.26481900  1
  Pr  Pr2  1  0.13930200  0.78192400  0.76481900  1
  Pr  Pr3  1  0.35737800  0.13930200  0.26481900  1
  Pr  Pr4  1  0.64262200  0.86069800  0.76481900  1
  Pr  Pr5  1  0.21807600  0.35737800  0.76481900  1
  Cu  Cu6  1  0.00000000  0.00000000  0.71051700  1
  Cu  Cu7  1  0.00000000  0.00000000  0.21051700  1
  Sn  Sn8  1  0.66666700  0.33333300  0.83660000  1
  Sn  Sn9  1  0.33333300  0.66666700  0.33660000  1
  S  S10  1  0.10114600  0.84752700  0.22520300  1
  S  S11  1  0.57082100  0.08833700  0.00669500  1
  S  S12  1  0.48248500  0.57082100  0.50669500  1
  S  S13  1  0.66666700  0.33333300  0.44893400  1
  S  S14  1  0.84752700  0.74638100  0.72520300  1
  S  S15  1  0.91166300  0.48248500  0.00669500  1
  S  S16  1  0.25361900  0.10114600  0.72520300  1
  S  S17  1  0.74638100  0.89885400  0.22520300  1
  S  S18  1  0.89885400  0.15247300  0.72520300  1
  S  S19  1  0.33333300  0.66666700  0.94893400  1
  S  S20  1  0.15247300  0.25361900  0.22520300  1
  S  S21  1  0.08833700  0.51751500  0.50669500  1
  S  S22  1  0.42917900  0.91166300  0.50669500  1
  S  S23  1  0.51751500  0.42917900  0.00669500  1
