# generated using pymatgen
data_Na2V3O7
_symmetry_space_group_name_H-M   'P 1'
_cell_length_a   11.09423495
_cell_length_b   11.09423495
_cell_length_c   9.70143000
_cell_angle_alpha   90.00000000
_cell_angle_beta   90.00000000
_cell_angle_gamma   119.99999374
_symmetry_Int_Tables_number   1
_chemical_formula_structural   Na2V3O7
_chemical_formula_sum   'Na12 V18 O42'
_cell_volume   1034.09665070
_cell_formula_units_Z   6
loop_
 _symmetry_equiv_pos_site_id
 _symmetry_equiv_pos_as_xyz
  1  'x, y, z'
loop_
 _atom_site_type_symbol
 _atom_site_label
 _atom_site_symmetry_multiplicity
 _atom_site_fract_x
 _atom_site_fract_y
 _atom_site_fract_z
 _atom_site_occupancy
  Na  Na0  1  0.52152800  0.02929200  0.24887500  1
  Na  Na1  1  0.02929200  0.50776400  0.75112500  1
  Na  Na2  1  0.47847200  0.97070800  0.75112500  1
  Na  Na3  1  0.49223600  0.52152800  0.75112500  1
  Na  Na4  1  0.66666700  0.33333300  0.56818900  1
  Na  Na5  1  0.97070800  0.49223600  0.24887500  1
  Na  Na6  1  0.50776400  0.47847200  0.24887500  1
  Na  Na7  1  0.33333300  0.66666700  0.07042200  1
  Na  Na8  1  0.00000000  0.00000000  0.00000000  1
  Na  Na9  1  0.66666700  0.33333300  0.92957800  1
  Na  Na10  1  0.00000000  0.00000000  0.50000000  1
  Na  Na11  1  0.33333300  0.66666700  0.43181100  1
  V  V12  1  0.18605300  0.86986600  0.90004100  1
  V  V13  1  0.79275500  0.68295300  0.40104500  1
  V  V14  1  0.31527200  0.14840900  0.75053800  1
  V  V15  1  0.68295300  0.89019900  0.59895500  1
  V  V16  1  0.86986600  0.68381300  0.09995900  1
  V  V17  1  0.83313600  0.68472800  0.75053800  1
  V  V18  1  0.31618700  0.18605300  0.09995900  1
  V  V19  1  0.31704700  0.10980100  0.40104500  1
  V  V20  1  0.68472800  0.85159100  0.24946200  1
  V  V21  1  0.89019900  0.20724500  0.40104500  1
  V  V22  1  0.20724500  0.31704700  0.59895500  1
  V  V23  1  0.16686400  0.31527200  0.24946200  1
  V  V24  1  0.13013400  0.31618700  0.90004100  1
  V  V25  1  0.85159100  0.16686400  0.75053800  1
  V  V26  1  0.81394700  0.13013400  0.09995900  1
  V  V27  1  0.14840900  0.83313600  0.24946200  1
  V  V28  1  0.68381300  0.81394700  0.90004100  1
  V  V29  1  0.10980100  0.79275500  0.59895500  1
  O  O30  1  0.83305800  0.08044900  0.56709100  1
  O  O31  1  0.16694200  0.91955100  0.43290900  1
  O  O32  1  0.83398800  0.52167600  0.06454200  1
  O  O33  1  0.33162200  0.48033900  0.56304000  1
  O  O34  1  0.08044900  0.24739200  0.43290900  1
  O  O35  1  0.75612300  0.05125900  0.28893800  1
  O  O36  1  0.48033900  0.14871700  0.43696000  1
  O  O37  1  0.21490900  0.72710400  0.24781000  1
  O  O38  1  0.17400800  0.23799200  0.06762100  1
  O  O39  1  0.05125900  0.29513600  0.71106200  1
  O  O40  1  0.72957500  0.70184100  0.21129100  1
  O  O41  1  0.51966100  0.85128300  0.56304000  1
  O  O42  1  0.47832400  0.31231200  0.06454200  1
  O  O43  1  0.02773400  0.72957500  0.78870900  1
  O  O44  1  0.23799200  0.06398500  0.93237900  1
  O  O45  1  0.14871700  0.66837800  0.56304000  1
  O  O46  1  0.97226600  0.27042500  0.21129100  1
  O  O47  1  0.94874100  0.70486400  0.28893800  1
  O  O48  1  0.29815900  0.02773400  0.21129100  1
  O  O49  1  0.68768800  0.16601200  0.06454200  1
  O  O50  1  0.06398500  0.82599200  0.06762100  1
  O  O51  1  0.52167600  0.68768800  0.93545800  1
  O  O52  1  0.75260800  0.83305800  0.43290900  1
  O  O53  1  0.51219400  0.78509100  0.24781000  1
  O  O54  1  0.27289600  0.48780600  0.24781000  1
  O  O55  1  0.70184100  0.97226600  0.78870900  1
  O  O56  1  0.82599200  0.76200800  0.93237900  1
  O  O57  1  0.24387700  0.94874100  0.71106200  1
  O  O58  1  0.66837800  0.51966100  0.43696000  1
  O  O59  1  0.91955100  0.75260800  0.56709100  1
  O  O60  1  0.93601500  0.17400800  0.93237900  1
  O  O61  1  0.85128300  0.33162200  0.43696000  1
  O  O62  1  0.78509100  0.27289600  0.75219000  1
  O  O63  1  0.31231200  0.83398800  0.93545800  1
  O  O64  1  0.27042500  0.29815900  0.78870900  1
  O  O65  1  0.70486400  0.75612300  0.71106200  1
  O  O66  1  0.48780600  0.21490900  0.75219000  1
  O  O67  1  0.72710400  0.51219400  0.75219000  1
  O  O68  1  0.16601200  0.47832400  0.93545800  1
  O  O69  1  0.76200800  0.93601500  0.06762100  1
  O  O70  1  0.24739200  0.16694200  0.56709100  1
  O  O71  1  0.29513600  0.24387700  0.28893800  1
