# generated using pymatgen
data_RbTeNO3F4
_symmetry_space_group_name_H-M   'P 1'
_cell_length_a   8.47471800
_cell_length_b   8.55636214
_cell_length_c   10.69929854
_cell_angle_alpha   88.67279158
_cell_angle_beta   108.62278958
_cell_angle_gamma   111.72472109
_symmetry_Int_Tables_number   1
_chemical_formula_structural   RbTeNO3F4
_chemical_formula_sum   'Rb4 Te4 N4 O12 F16'
_cell_volume   679.00210577
_cell_formula_units_Z   4
loop_
 _symmetry_equiv_pos_site_id
 _symmetry_equiv_pos_as_xyz
  1  'x, y, z'
loop_
 _atom_site_type_symbol
 _atom_site_label
 _atom_site_symmetry_multiplicity
 _atom_site_fract_x
 _atom_site_fract_y
 _atom_site_fract_z
 _atom_site_occupancy
  Rb  Rb0  1  0.42544700  0.43489700  0.98002000  1
  Rb  Rb1  1  0.92264600  0.68880600  0.49462200  1
  Rb  Rb2  1  0.44847500  0.95650600  0.86809900  1
  Rb  Rb3  1  0.88682700  0.16610300  0.59806000  1
  Te  Te4  1  0.42289800  0.25204800  0.56769700  1
  Te  Te5  1  0.43978600  0.74570300  0.27380700  1
  Te  Te6  1  0.91660100  0.87558100  0.90093800  1
  Te  Te7  1  0.90969600  0.38000200  0.19589200  1
  N  N8  1  0.99633500  0.05828900  0.26136800  1
  N  N9  1  0.35642500  0.06660200  0.21096800  1
  N  N10  1  0.33996500  0.55843200  0.60312700  1
  N  N11  1  0.99817000  0.55759700  0.86922900  1
  O  O12  1  0.46325400  0.57422200  0.55507300  1
  O  O13  1  0.05916800  0.71005500  0.83230800  1
  O  O14  1  0.05945700  0.95569300  0.31740800  1
  O  O15  1  0.88801100  0.53063200  0.93033100  1
  O  O16  1  0.29571600  0.17159100  0.15726400  1
  O  O17  1  0.05186800  0.45053600  0.84206300  1
  O  O18  1  0.32272200  0.92859700  0.13754700  1
  O  O19  1  0.90567400  0.04010600  0.14052800  1
  O  O20  1  0.44694300  0.08158500  0.33163200  1
  O  O21  1  0.25500100  0.40762000  0.62950500  1
  O  O22  1  0.30020400  0.67829800  0.62476300  1
  O  O23  1  0.02750400  0.19691900  0.33265600  1
  F  F24  1  0.52894000  0.31560300  0.75507600  1
  F  F25  1  0.67915100  0.38312200  0.57402900  1
  F  F26  1  0.82247100  0.56235800  0.16547000  1
  F  F27  1  0.12094100  0.04901900  0.85662800  1
  F  F28  1  0.24056200  0.57676400  0.12664600  1
  F  F29  1  0.80568900  0.34185100  0.33420700  1
  F  F30  1  0.81137800  0.82834800  0.71186400  1
  F  F31  1  0.11441100  0.55114800  0.33975900  1
  F  F32  1  0.51635100  0.07335400  0.60382600  1
  F  F33  1  0.22476200  0.07687400  0.61920700  1
  F  F34  1  0.54967600  0.78701500  0.13887800  1
  F  F35  1  0.69462800  0.88839500  0.38739100  1
  F  F36  1  0.82773600  0.05725300  0.87359100  1
  F  F37  1  0.65423700  0.23446900  0.08580400  1
  F  F38  1  0.65981500  0.73711900  0.88982900  1
  F  F39  1  0.52476200  0.56188800  0.30659200  1
