# generated using pymatgen
data_LiMnF4
_symmetry_space_group_name_H-M   'P 1'
_cell_length_a   4.73684300
_cell_length_b   5.53378300
_cell_length_c   5.82388585
_cell_angle_alpha   66.52984208
_cell_angle_beta   90.00000000
_cell_angle_gamma   90.00000000
_symmetry_Int_Tables_number   1
_chemical_formula_structural   LiMnF4
_chemical_formula_sum   'Li2 Mn2 F8'
_cell_volume   140.02966167
_cell_formula_units_Z   2
loop_
 _symmetry_equiv_pos_site_id
 _symmetry_equiv_pos_as_xyz
  1  'x, y, z'
loop_
 _atom_site_type_symbol
 _atom_site_label
 _atom_site_symmetry_multiplicity
 _atom_site_fract_x
 _atom_site_fract_y
 _atom_site_fract_z
 _atom_site_occupancy
  Li  Li0  1  0.50000000  0.50000000  0.00000000  1
  Li  Li1  1  0.00000000  0.50000000  0.50000000  1
  Mn  Mn2  1  0.00000000  0.00000000  0.00000000  1
  Mn  Mn3  1  0.50000000  0.00000000  0.50000000  1
  F  F4  1  0.21833300  0.85195100  0.35899900  1
  F  F5  1  0.18084800  0.32617300  0.85780000  1
  F  F6  1  0.78166700  0.14804900  0.64100100  1
  F  F7  1  0.71833300  0.14804900  0.14100100  1
  F  F8  1  0.28166700  0.85195100  0.85899900  1
  F  F9  1  0.81915200  0.67382700  0.14220000  1
  F  F10  1  0.31915200  0.32617300  0.35780000  1
  F  F11  1  0.68084800  0.67382700  0.64220000  1
