# generated using pymatgen
data_NaLuP2O7
_symmetry_space_group_name_H-M   'P 1'
_cell_length_a   5.41513900
_cell_length_b   9.07779300
_cell_length_c   13.96099879
_cell_angle_alpha   63.83876062
_cell_angle_beta   90.00000000
_cell_angle_gamma   90.00000000
_symmetry_Int_Tables_number   1
_chemical_formula_structural   NaLuP2O7
_chemical_formula_sum   'Na4 Lu4 P8 O28'
_cell_volume   615.98244611
_cell_formula_units_Z   4
loop_
 _symmetry_equiv_pos_site_id
 _symmetry_equiv_pos_as_xyz
  1  'x, y, z'
loop_
 _atom_site_type_symbol
 _atom_site_label
 _atom_site_symmetry_multiplicity
 _atom_site_fract_x
 _atom_site_fract_y
 _atom_site_fract_z
 _atom_site_occupancy
  Na  Na0  1  0.77187400  0.55499300  0.80806500  1
  Na  Na1  1  0.22812600  0.44500700  0.19193500  1
  Na  Na2  1  0.72812600  0.55499300  0.30806500  1
  Na  Na3  1  0.27187400  0.44500700  0.69193500  1
  Lu  Lu4  1  0.26261600  0.25557700  0.47449600  1
  Lu  Lu5  1  0.76261600  0.74442300  0.02550400  1
  Lu  Lu6  1  0.73738400  0.74442300  0.52550400  1
  Lu  Lu7  1  0.23738400  0.25557700  0.97449600  1
  P  P8  1  0.24998000  0.82127900  0.15240000  1
  P  P9  1  0.72191300  0.31376600  0.11697100  1
  P  P10  1  0.75002000  0.17872100  0.84760000  1
  P  P11  1  0.27808700  0.68623400  0.88302900  1
  P  P12  1  0.22191300  0.68623400  0.38302900  1
  P  P13  1  0.74998000  0.17872100  0.34760000  1
  P  P14  1  0.25002000  0.82127900  0.65240000  1
  P  P15  1  0.77808700  0.31376600  0.61697100  1
  O  O16  1  0.46607500  0.71562500  0.14496400  1
  O  O17  1  0.11172300  0.72352300  0.95706800  1
  O  O18  1  0.77651100  0.16726100  0.23522800  1
  O  O19  1  0.23782200  0.99709100  0.56730800  1
  O  O20  1  0.05350100  0.30941600  0.59202200  1
  O  O21  1  0.70956700  0.47306400  0.62383100  1
  O  O22  1  0.99742200  0.26500700  0.84253200  1
  O  O23  1  0.29043300  0.52693600  0.37616900  1
  O  O24  1  0.00257800  0.73499300  0.15746800  1
  O  O25  1  0.76217800  0.00290900  0.43269200  1
  O  O26  1  0.27651100  0.83273900  0.26477200  1
  O  O27  1  0.61172300  0.27647700  0.54293200  1
  O  O28  1  0.72348900  0.16726100  0.73522800  1
  O  O29  1  0.55350100  0.69058400  0.90797800  1
  O  O30  1  0.22348900  0.83273900  0.76477200  1
  O  O31  1  0.94649900  0.69058400  0.40797800  1
  O  O32  1  0.38827700  0.72352300  0.45706800  1
  O  O33  1  0.53392500  0.28437500  0.85503600  1
  O  O34  1  0.50257800  0.26500700  0.34253200  1
  O  O35  1  0.44649900  0.30941600  0.09202200  1
  O  O36  1  0.20956700  0.52693600  0.87616900  1
  O  O37  1  0.96607500  0.28437500  0.35503600  1
  O  O38  1  0.73782200  0.00290900  0.93269200  1
  O  O39  1  0.26217800  0.99709100  0.06730800  1
  O  O40  1  0.88827700  0.27647700  0.04293200  1
  O  O41  1  0.03392500  0.71562500  0.64496400  1
  O  O42  1  0.49742200  0.73499300  0.65746800  1
  O  O43  1  0.79043300  0.47306400  0.12383100  1
