# generated using pymatgen
data_Rb3Zr2P5S18
_symmetry_space_group_name_H-M   'P 1'
_cell_length_a   6.96110469
_cell_length_b   6.96110469
_cell_length_c   34.12899508
_cell_angle_alpha   86.31667304
_cell_angle_beta   86.31667304
_cell_angle_gamma   93.06736585
_symmetry_Int_Tables_number   1
_chemical_formula_structural   Rb3Zr2P5S18
_chemical_formula_sum   'Rb6 Zr4 P10 S36'
_cell_volume   1644.20209025
_cell_formula_units_Z   2
loop_
 _symmetry_equiv_pos_site_id
 _symmetry_equiv_pos_as_xyz
  1  'x, y, z'
loop_
 _atom_site_type_symbol
 _atom_site_label
 _atom_site_symmetry_multiplicity
 _atom_site_fract_x
 _atom_site_fract_y
 _atom_site_fract_z
 _atom_site_occupancy
  Rb  Rb0  1  0.72213900  0.54305400  0.86510400  1
  Rb  Rb1  1  0.54305400  0.72213900  0.36510400  1
  Rb  Rb2  1  0.08604900  0.32450500  0.25365900  1
  Rb  Rb3  1  0.32450500  0.08604900  0.75365900  1
  Rb  Rb4  1  0.20439000  0.01569600  0.56933900  1
  Rb  Rb5  1  0.01569600  0.20439000  0.06933900  1
  Zr  Zr6  1  0.87798000  0.46071300  0.46321400  1
  Zr  Zr7  1  0.46071300  0.87798000  0.96321400  1
  Zr  Zr8  1  0.62956200  0.48719500  0.65454400  1
  Zr  Zr9  1  0.48719500  0.62956200  0.15454400  1
  P  P10  1  0.82364400  0.25648700  0.37837100  1
  P  P11  1  0.92606900  0.99651500  0.94457300  1
  P  P12  1  0.72389200  0.44303800  0.55842800  1
  P  P13  1  0.25648700  0.82364400  0.87837100  1
  P  P14  1  0.36652900  0.81864200  0.23932900  1
  P  P15  1  0.17368200  0.58359700  0.67367600  1
  P  P16  1  0.58359700  0.17368200  0.17367600  1
  P  P17  1  0.81864200  0.36652900  0.73932900  1
  P  P18  1  0.44303800  0.72389200  0.05842800  1
  P  P19  1  0.99651500  0.92606900  0.44457300  1
  S  S20  1  0.20701700  0.80410700  0.19120000  1
  S  S21  1  0.61477000  0.56068800  0.72936200  1
  S  S22  1  0.78646100  0.39668600  0.16880500  1
  S  S23  1  0.68983700  0.95862200  0.14231300  1
  S  S24  1  0.60307300  0.66791400  0.58544200  1
  S  S25  1  0.19220300  0.72190100  0.44989300  1
  S  S26  1  0.71557500  0.24438000  0.32636100  1
  S  S27  1  0.80410700  0.20701700  0.69120000  1
  S  S28  1  0.56068800  0.61477000  0.22936200  1
  S  S29  1  0.72190100  0.19220300  0.94989300  1
  S  S30  1  0.15540600  0.08111400  0.97519900  1
  S  S31  1  0.22276200  0.81400600  0.29114500  1
  S  S32  1  0.48491700  0.00621400  0.88864000  1
  S  S33  1  0.95862200  0.68983700  0.64231300  1
  S  S34  1  0.33185800  0.27773400  0.15518800  1
  S  S35  1  0.27773400  0.33185800  0.65518800  1
  S  S36  1  0.39668600  0.78646100  0.66880500  1
  S  S37  1  0.62779500  0.25406900  0.42575300  1
  S  S38  1  0.57679400  0.35757300  0.51182000  1
  S  S39  1  0.09379900  0.53435100  0.73515100  1
  S  S40  1  0.81400600  0.22276200  0.79114500  1
  S  S41  1  0.71333900  0.22960400  0.60324800  1
  S  S42  1  0.08111400  0.15540600  0.47519900  1
  S  S43  1  0.51072400  0.99874900  0.03448900  1
  S  S44  1  0.99034400  0.00247200  0.38286400  1
  S  S45  1  0.25406900  0.62779500  0.92575300  1
  S  S46  1  0.73182500  0.79841700  0.46312100  1
  S  S47  1  0.00621400  0.48491700  0.38864000  1
  S  S48  1  0.00247200  0.99034400  0.88286400  1
  S  S49  1  0.53435100  0.09379900  0.23515100  1
  S  S50  1  0.35757300  0.57679400  0.01182000  1
  S  S51  1  0.79841700  0.73182500  0.96312100  1
  S  S52  1  0.22960400  0.71333900  0.10324800  1
  S  S53  1  0.24438000  0.71557500  0.82636100  1
  S  S54  1  0.99874900  0.51072400  0.53448900  1
  S  S55  1  0.66791400  0.60307300  0.08544200  1
