# generated using pymatgen
data_Mg(AlB14)2
_symmetry_space_group_name_H-M   'P 1'
_cell_length_a   7.17324600
_cell_length_b   7.17534556
_cell_length_c   10.95402892
_cell_angle_alpha   101.37390576
_cell_angle_beta   102.48690757
_cell_angle_gamma   111.42941983
_symmetry_Int_Tables_number   1
_chemical_formula_structural   Mg(AlB14)2
_chemical_formula_sum   'Mg2 Al4 B56'
_cell_volume   488.18110642
_cell_formula_units_Z   2
loop_
 _symmetry_equiv_pos_site_id
 _symmetry_equiv_pos_as_xyz
  1  'x, y, z'
loop_
 _atom_site_type_symbol
 _atom_site_label
 _atom_site_symmetry_multiplicity
 _atom_site_fract_x
 _atom_site_fract_y
 _atom_site_fract_z
 _atom_site_occupancy
  Mg  Mg0  1  0.50248500  0.88734100  0.11301700  1
  Mg  Mg1  1  0.99615100  0.09255000  0.39865500  1
  Al  Al2  1  0.21719700  0.47777700  0.23531300  1
  Al  Al3  1  0.51037700  0.50996100  0.49923500  1
  Al  Al4  1  0.79371800  0.53220300  0.76617500  1
  Al  Al5  1  0.45470800  0.14884800  0.81154700  1
  B  B6  1  0.11865700  0.86908500  0.08599200  1
  B  B7  1  0.13248900  0.25916100  0.04020600  1
  B  B8  1  0.30166000  0.52978200  0.07499100  1
  B  B9  1  0.20426900  0.72421900  0.17284100  1
  B  B10  1  0.27515000  0.09798700  0.04919400  1
  B  B11  1  0.88413800  0.89977500  0.11241200  1
  B  B12  1  0.71052800  0.46424400  0.08590000  1
  B  B13  1  0.54045700  0.53488600  0.16637200  1
  B  B14  1  0.37173600  0.87323500  0.33468700  1
  B  B15  1  0.54010200  0.27309100  0.14099900  1
  B  B16  1  0.80270100  0.72516600  0.20325400  1
  B  B17  1  0.89082000  0.13985300  0.08252400  1
  B  B18  1  0.80712300  0.30768700  0.16633300  1
  B  B19  1  0.96586000  0.58935000  0.20481100  1
  B  B20  1  0.53664400  0.41300400  0.29371600  1
  B  B21  1  0.69762900  0.69460300  0.33556400  1
  B  B22  1  0.61387900  0.86286800  0.41919600  1
  B  B23  1  0.69926200  0.27386500  0.29882400  1
  B  B24  1  0.96222000  0.72483000  0.36069600  1
  B  B25  1  0.12922500  0.12043100  0.16314500  1
  B  B26  1  0.95871200  0.46621100  0.33531400  1
  B  B27  1  0.79311600  0.53646100  0.41714700  1
  B  B28  1  0.62188700  0.87692100  0.58681200  1
  B  B29  1  0.61726300  0.10146600  0.39091100  1
  B  B30  1  0.22498800  0.89651500  0.45220500  1
  B  B31  1  0.29515700  0.26963100  0.32605100  1
  B  B32  1  0.19653200  0.46947000  0.42506900  1
  B  B33  1  0.37043800  0.74197400  0.45706600  1
  B  B34  1  0.62866300  0.25876800  0.54428300  1
  B  B35  1  0.80674500  0.53031400  0.57735000  1
  B  B36  1  0.70626300  0.73134700  0.67679800  1
  B  B37  1  0.77455900  0.10228200  0.54803900  1
  B  B38  1  0.38292800  0.89814100  0.61013400  1
  B  B39  1  0.38074100  0.12226700  0.41510200  1
  B  B40  1  0.21077600  0.46763700  0.58641200  1
  B  B41  1  0.04229000  0.53415300  0.66571500  1
  B  B42  1  0.87071000  0.87835900  0.83778900  1
  B  B43  1  0.03696400  0.27328600  0.64003900  1
  B  B44  1  0.30527700  0.72993800  0.70747800  1
  B  B45  1  0.38617500  0.13531400  0.58222000  1
  B  B46  1  0.30150200  0.30512200  0.66647300  1
  B  B47  1  0.46633700  0.58709900  0.70833900  1
  B  B48  1  0.03202800  0.40668600  0.79540300  1
  B  B49  1  0.19148900  0.68902800  0.83527300  1
  B  B50  1  0.10828900  0.85603800  0.91897400  1
  B  B51  1  0.19439800  0.27220300  0.79710900  1
  B  B52  1  0.46099300  0.72728300  0.86203000  1
  B  B53  1  0.63173900  0.12421800  0.66363200  1
  B  B54  1  0.45739900  0.46909800  0.83581800  1
  B  B55  1  0.28647000  0.53138700  0.91650300  1
  B  B56  1  0.12137700  0.09633100  0.89124800  1
  B  B57  1  0.72712100  0.89915500  0.95361600  1
  B  B58  1  0.79107300  0.26970000  0.82876400  1
  B  B59  1  0.69382700  0.46323000  0.92613300  1
  B  B60  1  0.86837000  0.73890400  0.96216400  1
  B  B61  1  0.88221500  0.12726400  0.91599000  1
