# generated using pymatgen
data_UP2
_symmetry_space_group_name_H-M   'P 1'
_cell_length_a   8.60555732
_cell_length_b   8.60555732
_cell_length_c   8.60555732
_cell_angle_alpha   143.65434126
_cell_angle_beta   143.65434126
_cell_angle_gamma   52.34448750
_symmetry_Int_Tables_number   1
_chemical_formula_structural   UP2
_chemical_formula_sum   'U4 P8'
_cell_volume   222.53855004
_cell_formula_units_Z   4
loop_
 _symmetry_equiv_pos_site_id
 _symmetry_equiv_pos_as_xyz
  1  'x, y, z'
loop_
 _atom_site_type_symbol
 _atom_site_label
 _atom_site_symmetry_multiplicity
 _atom_site_fract_x
 _atom_site_fract_y
 _atom_site_fract_z
 _atom_site_occupancy
  U  U0  1  0.99603800  0.99603800  0.00000000  1
  U  U1  1  0.50854000  0.50854000  0.00000000  1
  U  U2  1  0.21891700  0.71891700  0.50000000  1
  U  U3  1  0.71891700  0.21891700  0.50000000  1
  P  P4  1  0.03816700  0.53816700  0.50000000  1
  P  P5  1  0.53816700  0.03816700  0.50000000  1
  P  P6  1  0.17754100  0.17754100  0.00000000  1
  P  P7  1  0.68617400  0.68617400  0.00000000  1
  P  P8  1  0.58710500  0.58710500  0.45298700  1
  P  P9  1  0.58710500  0.13411700  0.00000000  1
  P  P10  1  0.13411700  0.58710500  0.00000000  1
  P  P11  1  0.13411700  0.13411700  0.54701300  1
