# generated using pymatgen
data_Zr2H12(N2O7)5
_symmetry_space_group_name_H-M   'P 1'
_cell_length_a   10.54590333
_cell_length_b   10.54590333
_cell_length_c   15.00515800
_cell_angle_alpha   90.00000000
_cell_angle_beta   90.00000000
_cell_angle_gamma   119.99999582
_symmetry_Int_Tables_number   1
_chemical_formula_structural   Zr2H12(N2O7)5
_chemical_formula_sum   'Zr4 H24 N20 O70'
_cell_volume   1445.23607993
_cell_formula_units_Z   2
loop_
 _symmetry_equiv_pos_site_id
 _symmetry_equiv_pos_as_xyz
  1  'x, y, z'
loop_
 _atom_site_type_symbol
 _atom_site_label
 _atom_site_symmetry_multiplicity
 _atom_site_fract_x
 _atom_site_fract_y
 _atom_site_fract_z
 _atom_site_occupancy
  Zr  Zr0  1  0.33333300  0.66666700  0.03710800  1
  Zr  Zr1  1  0.33333300  0.66666700  0.53710800  1
  Zr  Zr2  1  0.66666700  0.33333300  0.46289200  1
  Zr  Zr3  1  0.66666700  0.33333300  0.96289200  1
  H  H4  1  0.45688500  0.56688100  0.67595100  1
  H  H5  1  0.81656500  0.56002200  0.33332500  1
  H  H6  1  0.89000400  0.43311900  0.82404900  1
  H  H7  1  0.18343500  0.43997800  0.66667500  1
  H  H8  1  0.43997800  0.25654300  0.33332500  1
  H  H9  1  0.25654300  0.81656500  0.66667500  1
  H  H10  1  0.74345700  0.18343500  0.33332500  1
  H  H11  1  0.56002200  0.81656500  0.16667500  1
  H  H12  1  0.45688500  0.89000400  0.17595100  1
  H  H13  1  0.54311500  0.10999600  0.82404900  1
  H  H14  1  0.25654300  0.43997800  0.16667500  1
  H  H15  1  0.56688100  0.45688500  0.82404900  1
  H  H16  1  0.43997800  0.18343500  0.83332500  1
  H  H17  1  0.43311900  0.54311500  0.17595100  1
  H  H18  1  0.18343500  0.74345700  0.16667500  1
  H  H19  1  0.56688100  0.10999600  0.32404900  1
  H  H20  1  0.56002200  0.74345700  0.66667500  1
  H  H21  1  0.43311900  0.89000400  0.67595100  1
  H  H22  1  0.10999600  0.54311500  0.67595100  1
  H  H23  1  0.54311500  0.43311900  0.32404900  1
  H  H24  1  0.89000400  0.45688500  0.32404900  1
  H  H25  1  0.81656500  0.25654300  0.83332500  1
  H  H26  1  0.10999600  0.56688100  0.17595100  1
  H  H27  1  0.74345700  0.56002200  0.83332500  1
  N  N28  1  0.68950800  0.68950800  0.25000000  1
  N  N29  1  0.00000000  0.31049200  0.25000000  1
  N  N30  1  0.22977600  0.40241700  0.45347200  1
  N  N31  1  0.77022400  0.17264200  0.04652800  1
  N  N32  1  0.17264200  0.40241700  0.95347200  1
  N  N33  1  0.40241700  0.17264200  0.54652800  1
  N  N34  1  0.31049200  0.00000000  0.25000000  1
  N  N35  1  0.17264200  0.77022400  0.45347200  1
  N  N36  1  0.59758300  0.77022400  0.95347200  1
  N  N37  1  0.77022400  0.59758300  0.54652800  1
  N  N38  1  0.00000000  0.00000000  0.75000000  1
  N  N39  1  0.40241700  0.22977600  0.04652800  1
  N  N40  1  0.22977600  0.82735800  0.95347200  1
  N  N41  1  0.00000000  0.68950800  0.75000000  1
  N  N42  1  0.31049200  0.31049200  0.75000000  1
  N  N43  1  0.82735800  0.22977600  0.54652800  1
  N  N44  1  0.59758300  0.82735800  0.45347200  1
  N  N45  1  0.68950800  0.00000000  0.75000000  1
  N  N46  1  0.00000000  0.00000000  0.25000000  1
  N  N47  1  0.82735800  0.59758300  0.04652800  1
  O  O48  1  0.10481300  0.80250100  0.71563900  1
  O  O49  1  0.80087400  0.49857800  0.57243600  1
  O  O50  1  0.87339100  0.55742000  0.97775100  1
  O  O51  1  0.71535100  0.81619200  0.91698800  1
  O  O52  1  0.80250100  0.69768800  0.28436100  1
  O  O53  1  0.65273900  0.16856900  0.36388600  1
  O  O54  1  0.10084100  0.81619200  0.41698800  1
  O  O55  1  0.48417000  0.65273900  0.63611400  1
  O  O56  1  0.43179200  0.00000000  0.25000000  1
  O  O57  1  0.55742000  0.68403000  0.02224900  1
  O  O58  1  0.30229600  0.80087400  0.42756400  1
  O  O59  1  0.83143100  0.34726100  0.86388600  1
  O  O60  1  0.43179200  0.43179200  0.75000000  1
  O  O61  1  0.51583000  0.16856900  0.86388600  1
  O  O62  1  0.89518700  0.69768800  0.78436100  1
  O  O63  1  0.89518700  0.19749900  0.28436100  1
  O  O64  1  0.30231200  0.10481300  0.28436100  1
  O  O65  1  0.83143100  0.48417000  0.36388600  1
  O  O66  1  0.19912600  0.69770400  0.92756400  1
  O  O67  1  0.80087400  0.30229600  0.07243600  1
  O  O68  1  0.80250100  0.10481300  0.78436100  1
  O  O69  1  0.12660900  0.44258000  0.02224900  1
  O  O70  1  0.89915900  0.18380800  0.58301200  1
  O  O71  1  0.51583000  0.34726100  0.36388600  1
  O  O72  1  0.00000000  0.00000000  0.17412800  1
  O  O73  1  0.69770400  0.19912600  0.57243600  1
  O  O74  1  0.55742000  0.87339100  0.52224900  1
  O  O75  1  0.69770400  0.49857800  0.07243600  1
  O  O76  1  0.89915900  0.71535100  0.08301200  1
  O  O77  1  0.10481300  0.30231200  0.21563900  1
  O  O78  1  0.12660900  0.68403000  0.52224900  1
  O  O79  1  0.34726100  0.51583000  0.13611400  1
  O  O80  1  0.69768800  0.89518700  0.71563900  1
  O  O81  1  0.18380800  0.89915900  0.91698800  1
  O  O82  1  0.50142200  0.19912600  0.07243600  1
  O  O83  1  0.30229600  0.50142200  0.92756400  1
  O  O84  1  0.16856900  0.65273900  0.13611400  1
  O  O85  1  0.31597000  0.44258000  0.52224900  1
  O  O86  1  0.68403000  0.55742000  0.47775100  1
  O  O87  1  0.34726100  0.83143100  0.63611400  1
  O  O88  1  0.81619200  0.10084100  0.08301200  1
  O  O89  1  0.50142200  0.30229600  0.57243600  1
  O  O90  1  0.28464900  0.10084100  0.58301200  1
  O  O91  1  0.44258000  0.12660900  0.47775100  1
  O  O92  1  0.48417000  0.83143100  0.13611400  1
  O  O93  1  0.00000000  0.00000000  0.67412800  1
  O  O94  1  0.49857800  0.69770400  0.42756400  1
  O  O95  1  0.16856900  0.51583000  0.63611400  1
  O  O96  1  0.49857800  0.80087400  0.92756400  1
  O  O97  1  0.00000000  0.56820800  0.75000000  1
  O  O98  1  0.44258000  0.31597000  0.97775100  1
  O  O99  1  0.69768800  0.80250100  0.21563900  1
  O  O100  1  0.87339100  0.31597000  0.47775100  1
  O  O101  1  0.56820800  0.00000000  0.75000000  1
  O  O102  1  0.81619200  0.71535100  0.58301200  1
  O  O103  1  0.10084100  0.28464900  0.91698800  1
  O  O104  1  0.00000000  0.00000000  0.82587200  1
  O  O105  1  0.65273900  0.48417000  0.86388600  1
  O  O106  1  0.19912600  0.50142200  0.42756400  1
  O  O107  1  0.00000000  0.43179200  0.25000000  1
  O  O108  1  0.56820800  0.56820800  0.25000000  1
  O  O109  1  0.18380800  0.28464900  0.41698800  1
  O  O110  1  0.00000000  0.00000000  0.32587200  1
  O  O111  1  0.71535100  0.89915900  0.41698800  1
  O  O112  1  0.19749900  0.89518700  0.21563900  1
  O  O113  1  0.28464900  0.18380800  0.08301200  1
  O  O114  1  0.30231200  0.19749900  0.78436100  1
  O  O115  1  0.19749900  0.30231200  0.71563900  1
  O  O116  1  0.31597000  0.87339100  0.02224900  1
  O  O117  1  0.68403000  0.12660900  0.97775100  1
