# generated using pymatgen
data_Ce(BO2)3
_symmetry_space_group_name_H-M   'P 1'
_cell_length_a   11.81006700
_cell_length_b   4.26268900
_cell_length_c   7.30804093
_cell_angle_alpha   88.64421024
_cell_angle_beta   90.00000000
_cell_angle_gamma   90.00000000
_symmetry_Int_Tables_number   1
_chemical_formula_structural   Ce(BO2)3
_chemical_formula_sum   'Ce4 B12 O24'
_cell_volume   367.80309578
_cell_formula_units_Z   4
loop_
 _symmetry_equiv_pos_site_id
 _symmetry_equiv_pos_as_xyz
  1  'x, y, z'
loop_
 _atom_site_type_symbol
 _atom_site_label
 _atom_site_symmetry_multiplicity
 _atom_site_fract_x
 _atom_site_fract_y
 _atom_site_fract_z
 _atom_site_occupancy
  Ce  Ce0  1  0.87966400  0.21378500  0.61949000  1
  Ce  Ce1  1  0.37966400  0.78621500  0.88051000  1
  Ce  Ce2  1  0.12033600  0.78621500  0.38051000  1
  Ce  Ce3  1  0.62033600  0.21378500  0.11949000  1
  B  B4  1  0.90594200  0.19390500  0.12602600  1
  B  B5  1  0.87843000  0.68825300  0.92592400  1
  B  B6  1  0.16660700  0.32491200  0.71162600  1
  B  B7  1  0.83339300  0.67508800  0.28837400  1
  B  B8  1  0.12157000  0.31174700  0.07407600  1
  B  B9  1  0.40594200  0.80609500  0.37397400  1
  B  B10  1  0.09405800  0.80609500  0.87397400  1
  B  B11  1  0.33339300  0.32491200  0.21162600  1
  B  B12  1  0.59405800  0.19390500  0.62602600  1
  B  B13  1  0.37843000  0.31174700  0.57407600  1
  B  B14  1  0.62157000  0.68825300  0.42592400  1
  B  B15  1  0.66660700  0.67508800  0.78837400  1
  O  O16  1  0.90941300  0.74740600  0.43855000  1
  O  O17  1  0.11944400  0.65139700  0.04827300  1
  O  O18  1  0.61944400  0.34860300  0.45172700  1
  O  O19  1  0.87315800  0.84539800  0.11029400  1
  O  O20  1  0.40941300  0.25259400  0.06145000  1
  O  O21  1  0.21547900  0.21965300  0.19394000  1
  O  O22  1  0.78452100  0.78034700  0.80606000  1
  O  O23  1  0.28452100  0.21965300  0.69394000  1
  O  O24  1  0.62684200  0.84539800  0.61029400  1
  O  O25  1  0.37315800  0.15460200  0.38970600  1
  O  O26  1  0.12684200  0.15460200  0.88970600  1
  O  O27  1  0.09058700  0.25259400  0.56145000  1
  O  O28  1  0.38055600  0.65139700  0.54827300  1
  O  O29  1  0.88055600  0.34860300  0.95172700  1
  O  O30  1  0.97617700  0.79552000  0.81692300  1
  O  O31  1  0.33132700  0.66906000  0.23620400  1
  O  O32  1  0.59058700  0.74740600  0.93855000  1
  O  O33  1  0.71547900  0.78034700  0.30606000  1
  O  O34  1  0.66867300  0.33094000  0.76379600  1
  O  O35  1  0.47617700  0.20448000  0.68307700  1
  O  O36  1  0.02382300  0.20448000  0.18307700  1
  O  O37  1  0.83132700  0.33094000  0.26379600  1
  O  O38  1  0.16867300  0.66906000  0.73620400  1
  O  O39  1  0.52382300  0.79552000  0.31692300  1
