# generated using pymatgen
data_Sc2B6Rh
_symmetry_space_group_name_H-M   'P 1'
_cell_length_a   3.46592800
_cell_length_b   8.92934300
_cell_length_c   11.19848800
_cell_angle_alpha   90.00000000
_cell_angle_beta   90.00000000
_cell_angle_gamma   90.00000000
_symmetry_Int_Tables_number   1
_chemical_formula_structural   Sc2B6Rh
_chemical_formula_sum   'Sc8 B24 Rh4'
_cell_volume   346.57595709
_cell_formula_units_Z   4
loop_
 _symmetry_equiv_pos_site_id
 _symmetry_equiv_pos_as_xyz
  1  'x, y, z'
loop_
 _atom_site_type_symbol
 _atom_site_label
 _atom_site_symmetry_multiplicity
 _atom_site_fract_x
 _atom_site_fract_y
 _atom_site_fract_z
 _atom_site_occupancy
  Sc  Sc0  1  0.00000000  0.94472700  0.37333200  1
  Sc  Sc1  1  0.00000000  0.05527300  0.62666800  1
  Sc  Sc2  1  0.00000000  0.55527300  0.87333200  1
  Sc  Sc3  1  0.00000000  0.18119500  0.91433500  1
  Sc  Sc4  1  0.00000000  0.81880500  0.08566500  1
  Sc  Sc5  1  0.00000000  0.68119500  0.58566500  1
  Sc  Sc6  1  0.00000000  0.31880500  0.41433500  1
  Sc  Sc7  1  0.00000000  0.44472700  0.12666800  1
  B  B8  1  0.50000000  0.36817300  0.81903800  1
  B  B9  1  0.50000000  0.98047900  0.21289300  1
  B  B10  1  0.50000000  0.55464600  0.43670300  1
  B  B11  1  0.50000000  0.29689800  0.23815700  1
  B  B12  1  0.50000000  0.20310200  0.73815700  1
  B  B13  1  0.50000000  0.10242600  0.47237000  1
  B  B14  1  0.50000000  0.79689800  0.26184300  1
  B  B15  1  0.50000000  0.44535400  0.56329700  1
  B  B16  1  0.50000000  0.24687500  0.57802700  1
  B  B17  1  0.50000000  0.48047900  0.28710700  1
  B  B18  1  0.50000000  0.70310200  0.76184300  1
  B  B19  1  0.50000000  0.75312500  0.42197300  1
  B  B20  1  0.50000000  0.51952100  0.71289300  1
  B  B21  1  0.50000000  0.89757400  0.52763000  1
  B  B22  1  0.50000000  0.05464600  0.06329700  1
  B  B23  1  0.50000000  0.60242600  0.02763000  1
  B  B24  1  0.50000000  0.74687500  0.92197300  1
  B  B25  1  0.50000000  0.01952100  0.78710700  1
  B  B26  1  0.50000000  0.39757400  0.97237000  1
  B  B27  1  0.50000000  0.94535400  0.93670300  1
  B  B28  1  0.50000000  0.63182700  0.18096200  1
  B  B29  1  0.50000000  0.25312500  0.07802700  1
  B  B30  1  0.50000000  0.86817300  0.68096200  1
  B  B31  1  0.50000000  0.13182700  0.31903800  1
  Rh  Rh32  1  0.00000000  0.14122600  0.17994700  1
  Rh  Rh33  1  0.00000000  0.35877400  0.67994700  1
  Rh  Rh34  1  0.00000000  0.85877400  0.82005300  1
  Rh  Rh35  1  0.00000000  0.64122600  0.32005300  1
