# generated using pymatgen
data_SrBi2(B2O5)2
_symmetry_space_group_name_H-M   'P 1'
_cell_length_a   6.85598200
_cell_length_b   7.03602732
_cell_length_c   9.90353677
_cell_angle_alpha   96.01316063
_cell_angle_beta   108.93319555
_cell_angle_gamma   101.62707052
_symmetry_Int_Tables_number   1
_chemical_formula_structural   SrBi2(B2O5)2
_chemical_formula_sum   'Sr2 Bi4 B8 O20'
_cell_volume   435.08793678
_cell_formula_units_Z   2
loop_
 _symmetry_equiv_pos_site_id
 _symmetry_equiv_pos_as_xyz
  1  'x, y, z'
loop_
 _atom_site_type_symbol
 _atom_site_label
 _atom_site_symmetry_multiplicity
 _atom_site_fract_x
 _atom_site_fract_y
 _atom_site_fract_z
 _atom_site_occupancy
  Sr  Sr0  1  0.03413100  0.84950400  0.16556200  1
  Sr  Sr1  1  0.96586900  0.15049600  0.83443800  1
  Bi  Bi2  1  0.73246600  0.64244100  0.66394700  1
  Bi  Bi3  1  0.26753400  0.35755900  0.33605300  1
  Bi  Bi4  1  0.69595400  0.01717900  0.39928700  1
  Bi  Bi5  1  0.30404600  0.98282100  0.60071300  1
  B  B6  1  0.39909500  0.20456700  0.07491900  1
  B  B7  1  0.60090500  0.79543300  0.92508100  1
  B  B8  1  0.84763600  0.60966300  0.36797000  1
  B  B9  1  0.15236400  0.39033700  0.63203000  1
  B  B10  1  0.41087900  0.74671700  0.09303500  1
  B  B11  1  0.19906400  0.69707100  0.82255900  1
  B  B12  1  0.80093600  0.30292900  0.17744100  1
  B  B13  1  0.58912100  0.25328300  0.90696500  1
  O  O14  1  0.07546700  0.18532300  0.60534900  1
  O  O15  1  0.64058600  0.89679400  0.58677000  1
  O  O16  1  0.60190000  0.77387100  0.06498600  1
  O  O17  1  0.41136200  0.77501800  0.81470200  1
  O  O18  1  0.58863800  0.22498200  0.18529800  1
  O  O19  1  0.35941400  0.10320600  0.41323000  1
  O  O20  1  0.21146200  0.16557700  0.09547900  1
  O  O21  1  0.78170300  0.29604600  0.02049400  1
  O  O22  1  0.21829700  0.70395400  0.97950600  1
  O  O23  1  0.74205500  0.51239400  0.44628800  1
  O  O24  1  0.88903200  0.51481400  0.25113100  1
  O  O25  1  0.93837500  0.18318900  0.25122100  1
  O  O26  1  0.58168200  0.22768800  0.76668500  1
  O  O27  1  0.78853800  0.83442300  0.90452100  1
  O  O28  1  0.11096800  0.48518600  0.74886900  1
  O  O29  1  0.25794500  0.48760600  0.55371200  1
  O  O30  1  0.06162500  0.81681100  0.74877900  1
  O  O31  1  0.92453300  0.81467700  0.39465100  1
  O  O32  1  0.41831800  0.77231200  0.23331500  1
  O  O33  1  0.39810000  0.22612900  0.93501400  1
