# generated using pymatgen
data_Na2Cd(SO4)2
_symmetry_space_group_name_H-M   'P 1'
_cell_length_a   6.59680087
_cell_length_b   6.59680087
_cell_length_c   8.82700792
_cell_angle_alpha   71.16311543
_cell_angle_beta   71.16311543
_cell_angle_gamma   78.39429634
_symmetry_Int_Tables_number   1
_chemical_formula_structural   Na2Cd(SO4)2
_chemical_formula_sum   'Na4 Cd2 S4 O16'
_cell_volume   342.06635261
_cell_formula_units_Z   2
loop_
 _symmetry_equiv_pos_site_id
 _symmetry_equiv_pos_as_xyz
  1  'x, y, z'
loop_
 _atom_site_type_symbol
 _atom_site_label
 _atom_site_symmetry_multiplicity
 _atom_site_fract_x
 _atom_site_fract_y
 _atom_site_fract_z
 _atom_site_occupancy
  Na  Na0  1  0.41852500  0.30622700  0.43924900  1
  Na  Na1  1  0.58147500  0.69377300  0.56075100  1
  Na  Na2  1  0.69377300  0.58147500  0.06075100  1
  Na  Na3  1  0.30622700  0.41852500  0.93924900  1
  Cd  Cd4  1  0.06969000  0.93031000  0.25000000  1
  Cd  Cd5  1  0.93031000  0.06969000  0.75000000  1
  S  S6  1  0.97626000  0.40075200  0.31369000  1
  S  S7  1  0.59924800  0.02374000  0.18631000  1
  S  S8  1  0.02374000  0.59924800  0.68631000  1
  S  S9  1  0.40075200  0.97626000  0.81369000  1
  O  O10  1  0.11933000  0.57682400  0.25199600  1
  O  O11  1  0.95502600  0.77139700  0.54958700  1
  O  O12  1  0.99007300  0.69188900  0.82928800  1
  O  O13  1  0.88067000  0.42317600  0.74800400  1
  O  O14  1  0.77139700  0.95502600  0.04958700  1
  O  O15  1  0.51634200  0.25477500  0.13464200  1
  O  O16  1  0.74522500  0.48365800  0.36535800  1
  O  O17  1  0.25477500  0.51634200  0.63464200  1
  O  O18  1  0.22860300  0.04497400  0.95041300  1
  O  O19  1  0.30811100  0.00992700  0.67071200  1
  O  O20  1  0.42317600  0.88067000  0.24800400  1
  O  O21  1  0.00992700  0.30811100  0.17071200  1
  O  O22  1  0.57682400  0.11933000  0.75199600  1
  O  O23  1  0.69188900  0.99007300  0.32928800  1
  O  O24  1  0.48365800  0.74522500  0.86535800  1
  O  O25  1  0.04497400  0.22860300  0.45041300  1
