# generated using pymatgen
data_DyBi2BrO4
_symmetry_space_group_name_H-M   'P 1'
_cell_length_a   3.91503800
_cell_length_b   3.91503800
_cell_length_c   9.31622100
_cell_angle_alpha   90.00000000
_cell_angle_beta   90.00000000
_cell_angle_gamma   90.00000000
_symmetry_Int_Tables_number   1
_chemical_formula_structural   DyBi2BrO4
_chemical_formula_sum   'Dy1 Bi2 Br1 O4'
_cell_volume   142.79458738
_cell_formula_units_Z   1
loop_
 _symmetry_equiv_pos_site_id
 _symmetry_equiv_pos_as_xyz
  1  'x, y, z'
loop_
 _atom_site_type_symbol
 _atom_site_label
 _atom_site_symmetry_multiplicity
 _atom_site_fract_x
 _atom_site_fract_y
 _atom_site_fract_z
 _atom_site_occupancy
  Dy  Dy0  1  0.00000000  0.00000000  0.00000000  1
  Bi  Bi1  1  0.50000000  0.50000000  0.26891300  1
  Bi  Bi2  1  0.50000000  0.50000000  0.73108700  1
  Br  Br3  1  0.00000000  0.00000000  0.50000000  1
  O  O4  1  0.00000000  0.50000000  0.85145200  1
  O  O5  1  0.00000000  0.50000000  0.14854800  1
  O  O6  1  0.50000000  0.00000000  0.85145200  1
  O  O7  1  0.50000000  0.00000000  0.14854800  1
