# generated using pymatgen
data_Cs2Ta6PbCl18
_symmetry_space_group_name_H-M   'P 1'
_cell_length_a   10.51480354
_cell_length_b   10.51480354
_cell_length_c   10.51480261
_cell_angle_alpha   54.85236662
_cell_angle_beta   54.85236662
_cell_angle_gamma   54.85236824
_symmetry_Int_Tables_number   1
_chemical_formula_structural   Cs2Ta6PbCl18
_chemical_formula_sum   'Cs2 Ta6 Pb1 Cl18'
_cell_volume   723.51777688
_cell_formula_units_Z   1
loop_
 _symmetry_equiv_pos_site_id
 _symmetry_equiv_pos_as_xyz
  1  'x, y, z'
loop_
 _atom_site_type_symbol
 _atom_site_label
 _atom_site_symmetry_multiplicity
 _atom_site_fract_x
 _atom_site_fract_y
 _atom_site_fract_z
 _atom_site_occupancy
  Cs  Cs0  1  0.27663700  0.27663700  0.27663700  1
  Cs  Cs1  1  0.72336300  0.72336300  0.72336300  1
  Ta  Ta2  1  0.42068300  0.30269000  0.64393900  1
  Ta  Ta3  1  0.35606100  0.57931700  0.69731000  1
  Ta  Ta4  1  0.69731000  0.35606100  0.57931700  1
  Ta  Ta5  1  0.64393900  0.42068300  0.30269000  1
  Ta  Ta6  1  0.57931700  0.69731000  0.35606100  1
  Ta  Ta7  1  0.30269000  0.64393900  0.42068300  1
  Pb  Pb8  1  0.00000000  0.00000000  0.00000000  1
  Cl  Cl9  1  0.63965300  0.09487300  0.76672900  1
  Cl  Cl10  1  0.76672900  0.63965300  0.09487300  1
  Cl  Cl11  1  0.09487300  0.76672900  0.63965300  1
  Cl  Cl12  1  0.82476200  0.32322400  0.04541300  1
  Cl  Cl13  1  0.16992000  0.43560700  0.57728200  1
  Cl  Cl14  1  0.67677600  0.95458700  0.17523800  1
  Cl  Cl15  1  0.90512700  0.23327100  0.36034700  1
  Cl  Cl16  1  0.56439300  0.42271800  0.83008000  1
  Cl  Cl17  1  0.42271800  0.83008000  0.56439300  1
  Cl  Cl18  1  0.95458700  0.17523800  0.67677600  1
  Cl  Cl19  1  0.17523800  0.67677600  0.95458700  1
  Cl  Cl20  1  0.04541300  0.82476200  0.32322400  1
  Cl  Cl21  1  0.32322400  0.04541300  0.82476200  1
  Cl  Cl22  1  0.23327100  0.36034700  0.90512700  1
  Cl  Cl23  1  0.57728200  0.16992000  0.43560700  1
  Cl  Cl24  1  0.43560700  0.57728200  0.16992000  1
  Cl  Cl25  1  0.36034700  0.90512700  0.23327100  1
  Cl  Cl26  1  0.83008000  0.56439300  0.42271800  1
