# generated using pymatgen
data_K2PuCl6
_symmetry_space_group_name_H-M   'P 1'
_cell_length_a   7.40889628
_cell_length_b   7.40889628
_cell_length_c   7.45741023
_cell_angle_alpha   59.98567311
_cell_angle_beta   59.98567311
_cell_angle_gamma   60.31299968
_symmetry_Int_Tables_number   1
_chemical_formula_structural   K2PuCl6
_chemical_formula_sum   'K2 Pu1 Cl6'
_cell_volume   290.06968133
_cell_formula_units_Z   1
loop_
 _symmetry_equiv_pos_site_id
 _symmetry_equiv_pos_as_xyz
  1  'x, y, z'
loop_
 _atom_site_type_symbol
 _atom_site_label
 _atom_site_symmetry_multiplicity
 _atom_site_fract_x
 _atom_site_fract_y
 _atom_site_fract_z
 _atom_site_occupancy
  K  K0  1  0.72737300  0.72737300  0.78181700  1
  K  K1  1  0.27262700  0.27262700  0.21818300  1
  Pu  Pu2  1  0.00000000  0.00000000  0.00000000  1
  Cl  Cl3  1  0.75234000  0.75234000  0.23834400  1
  Cl  Cl4  1  0.24766000  0.24766000  0.76165600  1
  Cl  Cl5  1  0.75261900  0.25262300  0.75566300  1
  Cl  Cl6  1  0.74737600  0.24738100  0.24433700  1
  Cl  Cl7  1  0.24738100  0.74737600  0.24433700  1
  Cl  Cl8  1  0.25262400  0.75261900  0.75566300  1
