# generated using pymatgen
data_NaPr(Si3O7)2
_symmetry_space_group_name_H-M   'P 1'
_cell_length_a   13.26815891
_cell_length_b   13.26815891
_cell_length_c   13.26815891
_cell_angle_alpha   145.93397824
_cell_angle_beta   107.79438710
_cell_angle_gamma   82.29950797
_symmetry_Int_Tables_number   1
_chemical_formula_structural   NaPr(Si3O7)2
_chemical_formula_sum   'Na4 Pr4 Si24 O56'
_cell_volume   1214.29622823
_cell_formula_units_Z   4
loop_
 _symmetry_equiv_pos_site_id
 _symmetry_equiv_pos_as_xyz
  1  'x, y, z'
loop_
 _atom_site_type_symbol
 _atom_site_label
 _atom_site_symmetry_multiplicity
 _atom_site_fract_x
 _atom_site_fract_y
 _atom_site_fract_z
 _atom_site_occupancy
  Na  Na0  1  0.75000000  0.75000000  0.00000000  1
  Na  Na1  1  0.50000000  0.00000000  0.50000000  1
  Na  Na2  1  0.25000000  0.25000000  0.00000000  1
  Na  Na3  1  0.00000000  0.50000000  0.50000000  1
  Pr  Pr4  1  0.02156300  0.25000000  0.77156300  1
  Pr  Pr5  1  0.52156300  0.75000000  0.77156300  1
  Pr  Pr6  1  0.97843700  0.75000000  0.22843700  1
  Pr  Pr7  1  0.47843700  0.25000000  0.22843700  1
  Si  Si8  1  0.47263900  0.00365400  0.77009000  1
  Si  Si9  1  0.02736100  0.79745100  0.53101500  1
  Si  Si10  1  0.33348700  0.73177300  0.06526000  1
  Si  Si11  1  0.76643600  0.29745100  0.77009000  1
  Si  Si12  1  0.63378600  0.67740100  0.31118700  1
  Si  Si13  1  0.27588400  0.09220500  0.66044100  1
  Si  Si14  1  0.73356400  0.50365400  0.53101500  1
  Si  Si15  1  0.86621400  0.17740100  0.04361500  1
  Si  Si16  1  0.22411600  0.88455700  0.81632100  1
  Si  Si17  1  0.97263900  0.20254900  0.46898500  1
  Si  Si18  1  0.77588400  0.11544300  0.18367900  1
  Si  Si19  1  0.16651300  0.23177300  0.39828600  1
  Si  Si20  1  0.06823600  0.40779500  0.18367900  1
  Si  Si21  1  0.83348700  0.76822700  0.60171400  1
  Si  Si22  1  0.26643600  0.49634600  0.46898500  1
  Si  Si23  1  0.56823600  0.38455700  0.66044100  1
  Si  Si24  1  0.52736100  0.99634600  0.22991000  1
  Si  Si25  1  0.66651300  0.26822700  0.93474000  1
  Si  Si26  1  0.93176400  0.59220500  0.81632100  1
  Si  Si27  1  0.13378600  0.82259900  0.95638500  1
  Si  Si28  1  0.72411600  0.90779500  0.33955900  1
  Si  Si29  1  0.36621400  0.32259900  0.68881300  1
  Si  Si30  1  0.43176400  0.61544300  0.33955900  1
  Si  Si31  1  0.23356400  0.70254900  0.22991000  1
  O  O32  1  0.88370300  0.42623500  0.93366600  1
  O  O33  1  0.38370300  0.45003700  0.45746800  1
  O  O34  1  0.14251500  0.80999300  0.82633500  1
  O  O35  1  0.70222200  0.91507300  0.98131900  1
  O  O36  1  0.85622400  0.12104100  0.31105700  1
  O  O37  1  0.81013600  0.60359400  0.54219300  1
  O  O38  1  0.79777800  0.77909700  0.21285100  1
  O  O39  1  0.06624600  0.27909700  0.98131900  1
  O  O40  1  0.77006900  0.25761100  0.02768000  1
  O  O41  1  0.64251500  0.81618000  0.33252200  1
  O  O42  1  0.31013600  0.76794300  0.20654200  1
  O  O43  1  0.18986400  0.39640600  0.45780700  1
  O  O44  1  0.49256900  0.95003700  0.06633400  1
  O  O45  1  0.99256900  0.92623500  0.54253200  1
  O  O46  1  0.85748500  0.19000700  0.17366500  1
  O  O47  1  0.06140100  0.26794300  0.45780700  1
  O  O48  1  0.13758900  0.03105300  0.16864200  1
  O  O49  1  0.20525600  0.89226000  0.42810700  1
  O  O50  1  0.68986400  0.23205700  0.79345800  1
  O  O51  1  0.36241100  0.53105300  0.89346400  1
  O  O52  1  0.11629700  0.57376500  0.06633400  1
  O  O53  1  0.69001600  0.37895900  0.73518300  1
  O  O54  1  0.61629700  0.54996300  0.54253200  1
  O  O55  1  0.48365800  0.30999300  0.66747800  1
  O  O56  1  0.20222200  0.22090300  0.78714900  1
  O  O57  1  0.93375400  0.72090300  0.01868100  1
  O  O58  1  0.98365800  0.31618000  0.17366500  1
  O  O59  1  0.35622400  0.04516700  0.73518300  1
  O  O60  1  0.56140100  0.10359400  0.79345800  1
  O  O61  1  0.72993100  0.75761100  0.48754200  1
  O  O62  1  0.00743100  0.07376500  0.45746800  1
  O  O63  1  0.80998400  0.54516700  0.68894300  1
  O  O64  1  0.29474400  0.72285100  0.68700400  1
  O  O65  1  0.86241100  0.96894700  0.83135800  1
  O  O66  1  0.22993100  0.74238900  0.97232000  1
  O  O67  1  0.29777800  0.08492700  0.01868100  1
  O  O68  1  0.01634200  0.68382000  0.82633500  1
  O  O69  1  0.56624600  0.58492700  0.78714900  1
  O  O70  1  0.19001600  0.45483300  0.31105700  1
  O  O71  1  0.96415300  0.39226000  0.68700400  1
  O  O72  1  0.03584700  0.60774000  0.31299600  1
  O  O73  1  0.64377600  0.95483300  0.26481700  1
  O  O74  1  0.70525600  0.27714900  0.31299600  1
  O  O75  1  0.43375400  0.41507300  0.21285100  1
  O  O76  1  0.53584700  0.22285100  0.42810700  1
  O  O77  1  0.51634200  0.69000700  0.33252200  1
  O  O78  1  0.27006900  0.24238900  0.51245800  1
  O  O79  1  0.50743100  0.04996300  0.93366600  1
  O  O80  1  0.30998400  0.62104100  0.26481700  1
  O  O81  1  0.46415300  0.77714900  0.57189300  1
  O  O82  1  0.79474400  0.10774000  0.57189300  1
  O  O83  1  0.35748500  0.18382000  0.66747800  1
  O  O84  1  0.14377600  0.87895900  0.68894300  1
  O  O85  1  0.63758900  0.46894700  0.10653600  1
  O  O86  1  0.43859900  0.89640600  0.20654200  1
  O  O87  1  0.93859900  0.73205700  0.54219300  1
