# generated using pymatgen
data_Na2Mn2Si2O7
_symmetry_space_group_name_H-M   'P 1'
_cell_length_a   13.47781500
_cell_length_b   5.82160000
_cell_length_c   10.62837976
_cell_angle_alpha   56.70287663
_cell_angle_beta   90.00000000
_cell_angle_gamma   90.00000000
_symmetry_Int_Tables_number   1
_chemical_formula_structural   Na2Mn2Si2O7
_chemical_formula_sum   'Na8 Mn8 Si8 O28'
_cell_volume   697.02672590
_cell_formula_units_Z   4
loop_
 _symmetry_equiv_pos_site_id
 _symmetry_equiv_pos_as_xyz
  1  'x, y, z'
loop_
 _atom_site_type_symbol
 _atom_site_label
 _atom_site_symmetry_multiplicity
 _atom_site_fract_x
 _atom_site_fract_y
 _atom_site_fract_z
 _atom_site_occupancy
  Na  Na0  1  0.75336000  0.58900500  0.69465000  1
  Na  Na1  1  0.25336000  0.41099500  0.80535000  1
  Na  Na2  1  0.24664000  0.41099500  0.30535000  1
  Na  Na3  1  0.74664000  0.58900500  0.19465000  1
  Na  Na4  1  0.84046600  0.94800600  0.38351800  1
  Na  Na5  1  0.34046600  0.05199400  0.11648200  1
  Na  Na6  1  0.15953400  0.05199400  0.61648200  1
  Na  Na7  1  0.65953400  0.94800600  0.88351800  1
  Mn  Mn8  1  0.99287100  0.57137300  0.29068600  1
  Mn  Mn9  1  0.49287100  0.42862700  0.20931400  1
  Mn  Mn10  1  0.00712900  0.42862700  0.70931400  1
  Mn  Mn11  1  0.50712900  0.57137300  0.79068600  1
  Mn  Mn12  1  0.91918000  0.78049000  0.88319100  1
  Mn  Mn13  1  0.41918000  0.21951000  0.61680900  1
  Mn  Mn14  1  0.08082000  0.21951000  0.11680900  1
  Mn  Mn15  1  0.58082000  0.78049000  0.38319100  1
  Si  Si16  1  0.11924300  0.84817700  0.97154800  1
  Si  Si17  1  0.61924300  0.15182300  0.52845200  1
  Si  Si18  1  0.88075700  0.15182300  0.02845200  1
  Si  Si19  1  0.38075700  0.84817700  0.47154800  1
  Si  Si20  1  0.83345400  0.26636400  0.54965100  1
  Si  Si21  1  0.33345400  0.73363600  0.95034900  1
  Si  Si22  1  0.16654600  0.73363600  0.45034900  1
  Si  Si23  1  0.66654600  0.26636400  0.04965100  1
  O  O24  1  0.79007800  0.33534700  0.04193700  1
  O  O25  1  0.29007800  0.66465300  0.45806300  1
  O  O26  1  0.20992200  0.66465300  0.95806300  1
  O  O27  1  0.70992200  0.33534700  0.54193700  1
  O  O28  1  0.95914500  0.39439700  0.90836100  1
  O  O29  1  0.45914500  0.60560300  0.59163900  1
  O  O30  1  0.04085500  0.60560300  0.09163900  1
  O  O31  1  0.54085500  0.39439700  0.40836100  1
  O  O32  1  0.86657900  0.34030300  0.38228500  1
  O  O33  1  0.36657900  0.65969700  0.11771500  1
  O  O34  1  0.13342100  0.65969700  0.61771500  1
  O  O35  1  0.63342100  0.34030300  0.88228500  1
  O  O36  1  0.83557700  0.95662600  0.97715900  1
  O  O37  1  0.33557700  0.04337400  0.52284100  1
  O  O38  1  0.16442300  0.04337400  0.02284100  1
  O  O39  1  0.66442300  0.95662600  0.47715900  1
  O  O40  1  0.84763200  0.94258900  0.68015200  1
  O  O41  1  0.34763200  0.05741100  0.81984800  1
  O  O42  1  0.15236800  0.05741100  0.31984800  1
  O  O43  1  0.65236800  0.94258900  0.18015200  1
  O  O44  1  0.94046500  0.98132100  0.19061200  1
  O  O45  1  0.44046500  0.01867900  0.30938800  1
  O  O46  1  0.05953500  0.01867900  0.80938800  1
  O  O47  1  0.55953500  0.98132100  0.69061200  1
  O  O48  1  0.88342800  0.48510400  0.58266100  1
  O  O49  1  0.38342800  0.51489600  0.91733900  1
  O  O50  1  0.11657200  0.51489600  0.41733900  1
  O  O51  1  0.61657200  0.48510400  0.08266100  1
