# generated using pymatgen
data_La2GaN3
_symmetry_space_group_name_H-M   'P 1'
_cell_length_a   6.19517810
_cell_length_b   6.19517810
_cell_length_c   12.00902549
_cell_angle_alpha   88.35352964
_cell_angle_beta   88.35352964
_cell_angle_gamma   124.77928247
_symmetry_Int_Tables_number   1
_chemical_formula_structural   La2GaN3
_chemical_formula_sum   'La8 Ga4 N12'
_cell_volume   377.84208389
_cell_formula_units_Z   4
loop_
 _symmetry_equiv_pos_site_id
 _symmetry_equiv_pos_as_xyz
  1  'x, y, z'
loop_
 _atom_site_type_symbol
 _atom_site_label
 _atom_site_symmetry_multiplicity
 _atom_site_fract_x
 _atom_site_fract_y
 _atom_site_fract_z
 _atom_site_occupancy
  La  La0  1  0.96717000  0.55329000  0.84925500  1
  La  La1  1  0.44671000  0.03283000  0.65074500  1
  La  La2  1  0.65604000  0.86759900  0.92525700  1
  La  La3  1  0.13240100  0.34396000  0.57474300  1
  La  La4  1  0.03283000  0.44671000  0.15074500  1
  La  La5  1  0.86759900  0.65604000  0.42525700  1
  La  La6  1  0.55329000  0.96717000  0.34925500  1
  La  La7  1  0.34396000  0.13240100  0.07474300  1
  Ga  Ga8  1  0.73150700  0.72817900  0.66245800  1
  Ga  Ga9  1  0.27182100  0.26849300  0.83754200  1
  Ga  Ga10  1  0.72817900  0.73150700  0.16245800  1
  Ga  Ga11  1  0.26849300  0.27182100  0.33754200  1
  N  N12  1  0.11807200  0.31914400  0.97298700  1
  N  N13  1  0.99157200  0.00842800  0.25000000  1
  N  N14  1  0.00842800  0.99157200  0.75000000  1
  N  N15  1  0.39956400  0.60043600  0.75000000  1
  N  N16  1  0.60043600  0.39956400  0.25000000  1
  N  N17  1  0.68085600  0.88192800  0.52701300  1
  N  N18  1  0.88192800  0.68085600  0.02701300  1
  N  N19  1  0.14735000  0.50470200  0.37042200  1
  N  N20  1  0.50470200  0.14735000  0.87042200  1
  N  N21  1  0.85265000  0.49529800  0.62957800  1
  N  N22  1  0.31914400  0.11807200  0.47298700  1
  N  N23  1  0.49529800  0.85265000  0.12957800  1
