# generated using pymatgen
data_V2Ga8Cu3
_symmetry_space_group_name_H-M   'P 1'
_cell_length_a   10.24841299
_cell_length_b   10.24841299
_cell_length_c   10.24841299
_cell_angle_alpha   109.47122063
_cell_angle_beta   109.47122063
_cell_angle_gamma   109.47122063
_symmetry_Int_Tables_number   1
_chemical_formula_structural   V2Ga8Cu3
_chemical_formula_sum   'V8 Ga32 Cu12'
_cell_volume   828.60579133
_cell_formula_units_Z   4
loop_
 _symmetry_equiv_pos_site_id
 _symmetry_equiv_pos_as_xyz
  1  'x, y, z'
loop_
 _atom_site_type_symbol
 _atom_site_label
 _atom_site_symmetry_multiplicity
 _atom_site_fract_x
 _atom_site_fract_y
 _atom_site_fract_z
 _atom_site_occupancy
  V  V0  1  0.02421300  0.02421300  0.02421300  1
  V  V1  1  0.97578700  0.50000000  0.00000000  1
  V  V2  1  0.00000000  0.47578700  0.50000000  1
  V  V3  1  0.52421300  0.52421300  0.52421300  1
  V  V4  1  0.00000000  0.97578700  0.50000000  1
  V  V5  1  0.50000000  0.00000000  0.47578700  1
  V  V6  1  0.47578700  0.50000000  0.00000000  1
  V  V7  1  0.50000000  0.00000000  0.97578700  1
  Ga  Ga8  1  0.50977700  0.26397400  0.00613500  1
  Ga  Ga9  1  0.72660000  0.50000000  0.00000000  1
  Ga  Ga10  1  0.49022300  0.25419700  0.49635800  1
  Ga  Ga11  1  0.50613500  0.76397400  0.00977700  1
  Ga  Ga12  1  0.99386500  0.00364200  0.25783900  1
  Ga  Ga13  1  0.00364200  0.25783900  0.99386500  1
  Ga  Ga14  1  0.24580300  0.73602600  0.24216100  1
  Ga  Ga15  1  0.00000000  0.72660000  0.50000000  1
  Ga  Ga16  1  0.74580300  0.74216100  0.23602600  1
  Ga  Ga17  1  0.50364200  0.49386500  0.75783900  1
  Ga  Ga18  1  0.76397400  0.00977700  0.50613500  1
  Ga  Ga19  1  0.50000000  0.00000000  0.22660000  1
  Ga  Ga20  1  0.00977700  0.50613500  0.76397400  1
  Ga  Ga21  1  0.73602600  0.24216100  0.24580300  1
  Ga  Ga22  1  0.22660000  0.50000000  0.00000000  1
  Ga  Ga23  1  0.26397400  0.00613500  0.50977700  1
  Ga  Ga24  1  0.50000000  0.00000000  0.72660000  1
  Ga  Ga25  1  0.75419700  0.99022300  0.99635800  1
  Ga  Ga26  1  0.99635800  0.75419700  0.99022300  1
  Ga  Ga27  1  0.49635800  0.49022300  0.25419700  1
  Ga  Ga28  1  0.25419700  0.49635800  0.49022300  1
  Ga  Ga29  1  0.75783900  0.50364200  0.49386500  1
  Ga  Ga30  1  0.77339900  0.77339900  0.77340000  1
  Ga  Ga31  1  0.24216100  0.24580300  0.73602600  1
  Ga  Ga32  1  0.00613500  0.50977700  0.26397400  1
  Ga  Ga33  1  0.74216100  0.23602600  0.74580300  1
  Ga  Ga34  1  0.27339900  0.27339900  0.27340000  1
  Ga  Ga35  1  0.00000000  0.22660000  0.50000000  1
  Ga  Ga36  1  0.99022300  0.99635800  0.75419700  1
  Ga  Ga37  1  0.25783900  0.99386500  0.00364200  1
  Ga  Ga38  1  0.49386500  0.75783900  0.50364200  1
  Ga  Ga39  1  0.23602600  0.74580300  0.74216100  1
  Cu  Cu40  1  0.74523700  0.75000000  0.49523700  1
  Cu  Cu41  1  0.75000000  0.25476300  0.50476300  1
  Cu  Cu42  1  0.75476300  0.25000000  0.00476300  1
  Cu  Cu43  1  0.75000000  0.49523700  0.74523700  1
  Cu  Cu44  1  0.00476300  0.75476300  0.25000000  1
  Cu  Cu45  1  0.49523700  0.74523700  0.75000000  1
  Cu  Cu46  1  0.25000000  0.00476300  0.75476300  1
  Cu  Cu47  1  0.25000000  0.24523700  0.99523700  1
  Cu  Cu48  1  0.24523700  0.99523700  0.25000000  1
  Cu  Cu49  1  0.25476300  0.50476300  0.75000000  1
  Cu  Cu50  1  0.99523700  0.25000000  0.24523700  1
  Cu  Cu51  1  0.50476300  0.75000000  0.25476300  1
