# generated using pymatgen
data_Na3ScSi2O7
_symmetry_space_group_name_H-M   'P 1'
_cell_length_a   5.40083800
_cell_length_b   9.45824800
_cell_length_c   13.23271700
_cell_angle_alpha   90.00000000
_cell_angle_beta   90.00000000
_cell_angle_gamma   90.00000000
_symmetry_Int_Tables_number   1
_chemical_formula_structural   Na3ScSi2O7
_chemical_formula_sum   'Na12 Sc4 Si8 O28'
_cell_volume   675.95980581
_cell_formula_units_Z   4
loop_
 _symmetry_equiv_pos_site_id
 _symmetry_equiv_pos_as_xyz
  1  'x, y, z'
loop_
 _atom_site_type_symbol
 _atom_site_label
 _atom_site_symmetry_multiplicity
 _atom_site_fract_x
 _atom_site_fract_y
 _atom_site_fract_z
 _atom_site_occupancy
  Na  Na0  1  0.01635800  0.34634000  0.40714300  1
  Na  Na1  1  0.98364200  0.65366000  0.90714300  1
  Na  Na2  1  0.51635800  0.15366000  0.59285700  1
  Na  Na3  1  0.98272600  0.98073600  0.75000000  1
  Na  Na4  1  0.48364200  0.84634000  0.09285700  1
  Na  Na5  1  0.48272600  0.51926400  0.25000000  1
  Na  Na6  1  0.01635800  0.34634000  0.09285700  1
  Na  Na7  1  0.51635800  0.15366000  0.90714300  1
  Na  Na8  1  0.48364200  0.84634000  0.40714300  1
  Na  Na9  1  0.51727400  0.48073600  0.75000000  1
  Na  Na10  1  0.98364200  0.65366000  0.59285700  1
  Na  Na11  1  0.01727400  0.01926400  0.25000000  1
  Sc  Sc12  1  0.50000000  0.50000000  0.00000000  1
  Sc  Sc13  1  0.00000000  0.00000000  0.50000000  1
  Sc  Sc14  1  0.00000000  0.00000000  0.00000000  1
  Sc  Sc15  1  0.50000000  0.50000000  0.50000000  1
  Si  Si16  1  0.51329400  0.17553800  0.13162200  1
  Si  Si17  1  0.01329400  0.32446200  0.63162200  1
  Si  Si18  1  0.51329400  0.17553800  0.36837800  1
  Si  Si19  1  0.48670600  0.82446200  0.86837800  1
  Si  Si20  1  0.48670600  0.82446200  0.63162200  1
  Si  Si21  1  0.98670600  0.67553800  0.13162200  1
  Si  Si22  1  0.01329400  0.32446200  0.86837800  1
  Si  Si23  1  0.98670600  0.67553800  0.36837800  1
  O  O24  1  0.47438700  0.34600500  0.11928400  1
  O  O25  1  0.31890100  0.08929800  0.43997700  1
  O  O26  1  0.68109900  0.91070200  0.56002300  1
  O  O27  1  0.20116400  0.87173500  0.60722400  1
  O  O28  1  0.31890100  0.08929800  0.06002300  1
  O  O29  1  0.47438700  0.34600500  0.38071600  1
  O  O30  1  0.29883600  0.37173500  0.60722400  1
  O  O31  1  0.18109900  0.58929800  0.43997700  1
  O  O32  1  0.97438700  0.15399500  0.61928400  1
  O  O33  1  0.52561300  0.65399500  0.61928400  1
  O  O34  1  0.02561300  0.84600500  0.38071600  1
  O  O35  1  0.02561300  0.84600500  0.11928400  1
  O  O36  1  0.18109900  0.58929800  0.06002300  1
  O  O37  1  0.79883600  0.12826500  0.39277600  1
  O  O38  1  0.79883600  0.12826500  0.10722400  1
  O  O39  1  0.29883600  0.37173500  0.89277600  1
  O  O40  1  0.55851000  0.87495600  0.75000000  1
  O  O41  1  0.52561300  0.65399500  0.88071600  1
  O  O42  1  0.44149000  0.12504400  0.25000000  1
  O  O43  1  0.97438700  0.15399500  0.88071600  1
  O  O44  1  0.20116400  0.87173500  0.89277600  1
  O  O45  1  0.68109900  0.91070200  0.93997700  1
  O  O46  1  0.70116400  0.62826500  0.10722400  1
  O  O47  1  0.70116400  0.62826500  0.39277600  1
  O  O48  1  0.81890100  0.41070200  0.93997700  1
  O  O49  1  0.94149000  0.37495600  0.75000000  1
  O  O50  1  0.05851000  0.62504400  0.25000000  1
  O  O51  1  0.81890100  0.41070200  0.56002300  1
