# generated using pymatgen
data_KVCdO4
_symmetry_space_group_name_H-M   'P 1'
_cell_length_a   5.82004700
_cell_length_b   15.15648300
_cell_length_c   25.22592949
_cell_angle_alpha   53.37203612
_cell_angle_beta   90.00000000
_cell_angle_gamma   90.00000000
_symmetry_Int_Tables_number   1
_chemical_formula_structural   KVCdO4
_chemical_formula_sum   'K16 V16 Cd16 O64'
_cell_volume   1785.79427271
_cell_formula_units_Z   16
loop_
 _symmetry_equiv_pos_site_id
 _symmetry_equiv_pos_as_xyz
  1  'x, y, z'
loop_
 _atom_site_type_symbol
 _atom_site_label
 _atom_site_symmetry_multiplicity
 _atom_site_fract_x
 _atom_site_fract_y
 _atom_site_fract_z
 _atom_site_occupancy
  K  K0  1  0.21559100  0.11259700  0.13629900  1
  K  K1  1  0.21723900  0.58031000  0.79418700  1
  K  K2  1  0.78095500  0.36911300  0.38368600  1
  K  K3  1  0.28095500  0.63088700  0.11631400  1
  K  K4  1  0.71723900  0.41969000  0.70581300  1
  K  K5  1  0.28276100  0.58031000  0.29418700  1
  K  K6  1  0.78440900  0.88740300  0.86370100  1
  K  K7  1  0.21477100  0.14749400  0.95632400  1
  K  K8  1  0.71477100  0.85250600  0.54367600  1
  K  K9  1  0.71904500  0.36911300  0.88368600  1
  K  K10  1  0.21904500  0.63088700  0.61631400  1
  K  K11  1  0.28522900  0.14749400  0.45632400  1
  K  K12  1  0.71559100  0.88740300  0.36370100  1
  K  K13  1  0.78276100  0.41969000  0.20581300  1
  K  K14  1  0.78522900  0.85250600  0.04367600  1
  K  K15  1  0.28440900  0.11259700  0.63629900  1
  V  V16  1  0.77438700  0.57730900  0.53734500  1
  V  V17  1  0.22404700  0.90848700  0.45788200  1
  V  V18  1  0.72404700  0.09151300  0.04211800  1
  V  V19  1  0.77595300  0.09151300  0.54211800  1
  V  V20  1  0.27145200  0.32782100  0.28440100  1
  V  V21  1  0.25759000  0.84320300  0.79230700  1
  V  V22  1  0.22854800  0.32782100  0.78440100  1
  V  V23  1  0.22561300  0.42269100  0.46265500  1
  V  V24  1  0.74241000  0.15679700  0.20769300  1
  V  V25  1  0.77145200  0.67217900  0.21559900  1
  V  V26  1  0.72854800  0.67217900  0.71559900  1
  V  V27  1  0.24241000  0.84320300  0.29230700  1
  V  V28  1  0.72561300  0.57730900  0.03734500  1
  V  V29  1  0.27438700  0.42269100  0.96265500  1
  V  V30  1  0.27595300  0.90848700  0.95788200  1
  V  V31  1  0.75759000  0.15679700  0.70769300  1
  Cd  Cd32  1  0.25273800  0.36809800  0.12264800  1
  Cd  Cd33  1  0.76697900  0.90846100  0.69704600  1
  Cd  Cd34  1  0.75273800  0.63190200  0.37735200  1
  Cd  Cd35  1  0.26697900  0.09153900  0.80295400  1
  Cd  Cd36  1  0.78515500  0.34584200  0.04619300  1
  Cd  Cd37  1  0.24855600  0.87216500  0.12894200  1
  Cd  Cd38  1  0.73302100  0.90846100  0.19704600  1
  Cd  Cd39  1  0.28515500  0.65415800  0.45380700  1
  Cd  Cd40  1  0.74855600  0.12783500  0.37105800  1
  Cd  Cd41  1  0.23302100  0.09153900  0.30295400  1
  Cd  Cd42  1  0.71484500  0.34584200  0.54619300  1
  Cd  Cd43  1  0.21484500  0.65415800  0.95380700  1
  Cd  Cd44  1  0.75144400  0.12783500  0.87105800  1
  Cd  Cd45  1  0.24726200  0.36809800  0.62264800  1
  Cd  Cd46  1  0.74726200  0.63190200  0.87735200  1
  Cd  Cd47  1  0.25144400  0.87216500  0.62894200  1
  O  O48  1  0.12168400  0.87537800  0.21882300  1
  O  O49  1  0.24310500  0.95746000  0.29176700  1
  O  O50  1  0.68769200  0.60743000  0.80056800  1
  O  O51  1  0.96598900  0.28504300  0.82754700  1
  O  O52  1  0.31283500  0.87512600  0.03661400  1
  O  O53  1  0.97281700  0.79864500  0.80002100  1
  O  O54  1  0.37393500  0.41629000  0.79191100  1
  O  O55  1  0.47950300  0.02575600  0.09189200  1
  O  O56  1  0.87393500  0.58371000  0.70808900  1
  O  O57  1  0.04756700  0.00114600  0.91865200  1
  O  O58  1  0.26894400  0.35871000  0.42717800  1
  O  O59  1  0.82161500  0.66317000  0.95392600  1
  O  O60  1  0.45243300  0.00114600  0.41865200  1
  O  O61  1  0.92469600  0.25961800  0.64071400  1
  O  O62  1  0.02718300  0.20135500  0.19997900  1
  O  O63  1  0.75689500  0.04254000  0.70823300  1
  O  O64  1  0.11064800  0.54394800  0.91928800  1
  O  O65  1  0.18716500  0.87512600  0.53661400  1
  O  O66  1  0.95243300  0.99885400  0.08134800  1
  O  O67  1  0.81230800  0.60743000  0.30056800  1
  O  O68  1  0.23105600  0.35871000  0.92717800  1
  O  O69  1  0.12606500  0.41629000  0.29191100  1
  O  O70  1  0.74310500  0.04254000  0.20823300  1
  O  O71  1  0.40912700  0.21048200  0.81868100  1
  O  O72  1  0.59087300  0.78951800  0.18131900  1
  O  O73  1  0.03401100  0.71495700  0.17245300  1
  O  O74  1  0.62606500  0.58371000  0.20808900  1
  O  O75  1  0.53401100  0.28504300  0.32754700  1
  O  O76  1  0.17838500  0.33683000  0.04607400  1
  O  O77  1  0.92867200  0.45795600  0.45602300  1
  O  O78  1  0.73105600  0.64129000  0.57282200  1
  O  O79  1  0.90912700  0.78951800  0.68131900  1
  O  O80  1  0.67838500  0.66317000  0.45392600  1
  O  O81  1  0.68716500  0.12487400  0.96338600  1
  O  O82  1  0.61064800  0.45605200  0.58071200  1
  O  O83  1  0.71763600  0.21059700  0.53400200  1
  O  O84  1  0.52049700  0.97424400  0.90810800  1
  O  O85  1  0.78236400  0.21059700  0.03400200  1
  O  O86  1  0.54756700  0.99885400  0.58134800  1
  O  O87  1  0.62168400  0.12462200  0.28117700  1
  O  O88  1  0.87831600  0.12462200  0.78117700  1
  O  O89  1  0.32161500  0.33683000  0.54607400  1
  O  O90  1  0.88935200  0.45605200  0.08071200  1
  O  O91  1  0.09087300  0.21048200  0.31868100  1
  O  O92  1  0.76894400  0.64129000  0.07282200  1
  O  O93  1  0.25689500  0.95746000  0.79176700  1
  O  O94  1  0.07530400  0.74038200  0.35928600  1
  O  O95  1  0.52718300  0.79864500  0.30002100  1
  O  O96  1  0.46598900  0.71495700  0.67245300  1
  O  O97  1  0.18769200  0.39257000  0.69943200  1
  O  O98  1  0.28236400  0.78940300  0.46599800  1
  O  O99  1  0.47281700  0.20135500  0.69997900  1
  O  O100  1  0.37831600  0.87537800  0.71882300  1
  O  O101  1  0.97950300  0.97424400  0.40810800  1
  O  O102  1  0.42867200  0.54204400  0.04397700  1
  O  O103  1  0.02049700  0.02575600  0.59189200  1
  O  O104  1  0.42469600  0.74038200  0.85928600  1
  O  O105  1  0.81283500  0.12487400  0.46338600  1
  O  O106  1  0.31230800  0.39257000  0.19943200  1
  O  O107  1  0.38935200  0.54394800  0.41928800  1
  O  O108  1  0.21763600  0.78940300  0.96599800  1
  O  O109  1  0.07132800  0.54204400  0.54397700  1
  O  O110  1  0.57530400  0.25961800  0.14071400  1
  O  O111  1  0.57132800  0.45795600  0.95602300  1
