# generated using pymatgen
data_SrSO4
_symmetry_space_group_name_H-M   'P 1'
_cell_length_a   5.45618400
_cell_length_b   6.96675700
_cell_length_c   8.45326500
_cell_angle_alpha   90.00000000
_cell_angle_beta   90.00000000
_cell_angle_gamma   90.00000000
_symmetry_Int_Tables_number   1
_chemical_formula_structural   SrSO4
_chemical_formula_sum   'Sr4 S4 O16'
_cell_volume   321.32473212
_cell_formula_units_Z   4
loop_
 _symmetry_equiv_pos_site_id
 _symmetry_equiv_pos_as_xyz
  1  'x, y, z'
loop_
 _atom_site_type_symbol
 _atom_site_label
 _atom_site_symmetry_multiplicity
 _atom_site_fract_x
 _atom_site_fract_y
 _atom_site_fract_z
 _atom_site_occupancy
  Sr  Sr0  1  0.25000000  0.34287800  0.68466800  1
  Sr  Sr1  1  0.75000000  0.65712200  0.31533200  1
  Sr  Sr2  1  0.75000000  0.84287800  0.81533200  1
  Sr  Sr3  1  0.25000000  0.15712200  0.18466800  1
  S  S4  1  0.75000000  0.31696700  0.93902600  1
  S  S5  1  0.25000000  0.68303300  0.06097400  1
  S  S6  1  0.25000000  0.81696700  0.56097400  1
  S  S7  1  0.75000000  0.18303300  0.43902600  1
  O  O8  1  0.47281400  0.80875600  0.07687200  1
  O  O9  1  0.97281400  0.19124400  0.92312800  1
  O  O10  1  0.52718600  0.30875600  0.42312800  1
  O  O11  1  0.02718600  0.69124400  0.57687200  1
  O  O12  1  0.52718600  0.19124400  0.92312800  1
  O  O13  1  0.02718600  0.80875600  0.07687200  1
  O  O14  1  0.47281400  0.69124400  0.57687200  1
  O  O15  1  0.97281400  0.30875600  0.42312800  1
  O  O16  1  0.75000000  0.09159900  0.59604600  1
  O  O17  1  0.25000000  0.90840100  0.40395400  1
  O  O18  1  0.25000000  0.59159900  0.90395400  1
  O  O19  1  0.75000000  0.40840100  0.09604600  1
  O  O20  1  0.75000000  0.04040400  0.30813800  1
  O  O21  1  0.25000000  0.95959600  0.69186200  1
  O  O22  1  0.25000000  0.54040400  0.19186200  1
  O  O23  1  0.75000000  0.45959600  0.80813800  1
