# generated using pymatgen
data_Li5B7S13
_symmetry_space_group_name_H-M   'P 1'
_cell_length_a   14.05147628
_cell_length_b   14.05147628
_cell_length_c   12.44121169
_cell_angle_alpha   63.75624886
_cell_angle_beta   63.75624886
_cell_angle_gamma   102.49455000
_symmetry_Int_Tables_number   1
_chemical_formula_structural   Li5B7S13
_chemical_formula_sum   'Li20 B28 S52'
_cell_volume   1697.47599846
_cell_formula_units_Z   4
loop_
 _symmetry_equiv_pos_site_id
 _symmetry_equiv_pos_as_xyz
  1  'x, y, z'
loop_
 _atom_site_type_symbol
 _atom_site_label
 _atom_site_symmetry_multiplicity
 _atom_site_fract_x
 _atom_site_fract_y
 _atom_site_fract_z
 _atom_site_occupancy
  Li  Li0  1  0.96677500  0.68403600  0.25961700  1
  Li  Li1  1  0.68403600  0.96677500  0.75961700  1
  Li  Li2  1  0.00949300  0.02215700  0.53131200  1
  Li  Li3  1  0.32106900  0.88568300  0.89270300  1
  Li  Li4  1  0.88568300  0.32106900  0.39270300  1
  Li  Li5  1  0.44281400  0.22333200  0.59037200  1
  Li  Li6  1  0.22333200  0.44281400  0.09037200  1
  Li  Li7  1  0.78294300  0.71851400  0.10306800  1
  Li  Li8  1  0.71851400  0.78294300  0.60306800  1
  Li  Li9  1  0.54530100  0.05150800  0.43383100  1
  Li  Li10  1  0.05150800  0.54530100  0.93383100  1
  Li  Li11  1  0.29801200  0.22610000  0.38653900  1
  Li  Li12  1  0.22610000  0.29801200  0.88653900  1
  Li  Li13  1  0.77832700  0.55406000  0.91769500  1
  Li  Li14  1  0.55406000  0.77832700  0.41769500  1
  Li  Li15  1  0.11283700  0.68505800  0.58510600  1
  Li  Li16  1  0.68505800  0.11283700  0.08510600  1
  Li  Li17  1  0.30177300  0.02857000  0.25351300  1
  Li  Li18  1  0.02857000  0.30177300  0.75351300  1
  Li  Li19  1  0.02215700  0.00949300  0.03131200  1
  B  B20  1  0.25296100  0.30643100  0.57472800  1
  B  B21  1  0.54455100  0.79251600  0.13990500  1
  B  B22  1  0.27530400  0.72663200  0.24785900  1
  B  B23  1  0.47601100  0.52490400  0.25025000  1
  B  B24  1  0.20689800  0.45593800  0.36011900  1
  B  B25  1  0.69445400  0.74733400  0.92521300  1
  B  B26  1  0.68372500  0.43305800  0.52307800  1
  B  B27  1  0.43305800  0.68372500  0.02307800  1
  B  B28  1  0.61974800  0.17306100  0.63313100  1
  B  B29  1  0.17306100  0.61974800  0.13313100  1
  B  B30  1  0.16595500  0.01532300  0.73940200  1
  B  B31  1  0.09148700  0.74573600  0.92376400  1
  B  B32  1  0.74573600  0.09148700  0.42376400  1
  B  B33  1  0.01532300  0.16595500  0.23940200  1
  B  B34  1  0.98516300  0.83161200  0.75945000  1
  B  B35  1  0.25496900  0.90602300  0.57962000  1
  B  B36  1  0.90602300  0.25496900  0.07962000  1
  B  B37  1  0.83161200  0.98516300  0.25945000  1
  B  B38  1  0.82881700  0.38097500  0.86643700  1
  B  B39  1  0.38097500  0.82881700  0.36643700  1
  B  B40  1  0.56849200  0.31538300  0.97675100  1
  B  B41  1  0.31538300  0.56849200  0.47675100  1
  B  B42  1  0.30643100  0.25296100  0.07472800  1
  B  B43  1  0.79251600  0.54455100  0.63990500  1
  B  B44  1  0.52490400  0.47601100  0.75025000  1
  B  B45  1  0.72663200  0.27530400  0.74785900  1
  B  B46  1  0.45593800  0.20689800  0.86011900  1
  B  B47  1  0.74733400  0.69445400  0.42521300  1
  S  S48  1  0.48308800  0.62899300  0.31260400  1
  S  S49  1  0.20467700  0.56019300  0.42305900  1
  S  S50  1  0.70994900  0.86071700  0.97317100  1
  S  S51  1  0.14016200  0.29063500  0.52606600  1
  S  S52  1  0.44156200  0.79523900  0.07512600  1
  S  S53  1  0.17701600  0.73091000  0.18257600  1
  S  S54  1  0.73091000  0.17701600  0.68257600  1
  S  S55  1  0.37120100  0.51657500  0.18850600  1
  S  S56  1  0.45135000  0.10355800  0.80052800  1
  S  S57  1  0.10355800  0.45135000  0.30052800  1
  S  S58  1  0.74838100  0.59653800  0.35511900  1
  S  S59  1  0.59653800  0.74838100  0.85511900  1
  S  S60  1  0.68189800  0.33386300  0.45706500  1
  S  S61  1  0.20492200  0.15204700  0.74824100  1
  S  S62  1  0.33386300  0.68189800  0.95706500  1
  S  S63  1  0.13035400  0.88504600  0.92553400  1
  S  S64  1  0.04571000  0.59886800  0.10615200  1
  S  S65  1  0.59886800  0.04571000  0.60615200  1
  S  S66  1  0.88504600  0.13035400  0.42553400  1
  S  S67  1  0.15204700  0.20492200  0.24824100  1
  S  S68  1  0.41584100  0.36224500  0.41063300  1
  S  S69  1  0.02168100  0.97615800  0.74861200  1
  S  S70  1  0.36224500  0.41584100  0.91063300  1
  S  S71  1  0.94208700  0.69064600  0.94084200  1
  S  S72  1  0.30851900  0.05669500  0.55983700  1
  S  S73  1  0.22677200  0.77284800  0.75340700  1
  S  S74  1  0.77284800  0.22677200  0.25340700  1
  S  S75  1  0.69064600  0.94208700  0.44084200  1
  S  S76  1  0.05669500  0.30851900  0.05983700  1
  S  S77  1  0.63932700  0.58584800  0.09087100  1
  S  S78  1  0.97615800  0.02168100  0.24861200  1
  S  S79  1  0.58584800  0.63932700  0.59087100  1
  S  S80  1  0.84782600  0.79497700  0.75033700  1
  S  S81  1  0.11756200  0.86713300  0.57433000  1
  S  S82  1  0.40029100  0.95392300  0.39497300  1
  S  S83  1  0.95392300  0.40029100  0.89497300  1
  S  S84  1  0.86713300  0.11756200  0.07433000  1
  S  S85  1  0.66713800  0.31551500  0.04388100  1
  S  S86  1  0.79497700  0.84782600  0.25033700  1
  S  S87  1  0.31551500  0.66713800  0.54388100  1
  S  S88  1  0.40458400  0.24982900  0.14532600  1
  S  S89  1  0.24982900  0.40458400  0.64532600  1
  S  S90  1  0.89560100  0.54903700  0.70187100  1
  S  S91  1  0.54903700  0.89560100  0.20187100  1
  S  S92  1  0.62899300  0.48308800  0.81260400  1
  S  S93  1  0.27389700  0.82751700  0.30942900  1
  S  S94  1  0.82751700  0.27389700  0.80942900  1
  S  S95  1  0.56019300  0.20467700  0.92305900  1
  S  S96  1  0.86071700  0.70994900  0.47317100  1
  S  S97  1  0.29063500  0.14016200  0.02606600  1
  S  S98  1  0.79523900  0.44156200  0.57512600  1
  S  S99  1  0.51657500  0.37120100  0.68850600  1
