# generated using pymatgen
data_Cs4NaHf3H2F19
_symmetry_space_group_name_H-M   'P 1'
_cell_length_a   6.98446600
_cell_length_b   11.62983700
_cell_length_c   13.47003511
_cell_angle_alpha   69.32634624
_cell_angle_beta   90.00000000
_cell_angle_gamma   90.00000000
_symmetry_Int_Tables_number   1
_chemical_formula_structural   Cs4NaHf3H2F19
_chemical_formula_sum   'Cs8 Na2 Hf6 H4 F38'
_cell_volume   1023.69075120
_cell_formula_units_Z   2
loop_
 _symmetry_equiv_pos_site_id
 _symmetry_equiv_pos_as_xyz
  1  'x, y, z'
loop_
 _atom_site_type_symbol
 _atom_site_label
 _atom_site_symmetry_multiplicity
 _atom_site_fract_x
 _atom_site_fract_y
 _atom_site_fract_z
 _atom_site_occupancy
  Cs  Cs0  1  0.25000000  0.35618200  0.42675200  1
  Cs  Cs1  1  0.75000000  0.47598500  0.92806300  1
  Cs  Cs2  1  0.75000000  0.64381800  0.57324800  1
  Cs  Cs3  1  0.75000000  0.02985200  0.58366000  1
  Cs  Cs4  1  0.25000000  0.97014800  0.41634000  1
  Cs  Cs5  1  0.25000000  0.52401500  0.07193700  1
  Cs  Cs6  1  0.25000000  0.13722200  0.07590800  1
  Cs  Cs7  1  0.75000000  0.86277800  0.92409200  1
  Na  Na8  1  0.25000000  0.73634000  0.25045900  1
  Na  Na9  1  0.75000000  0.26366000  0.74954100  1
  Hf  Hf10  1  0.75000000  0.91597300  0.24552500  1
  Hf  Hf11  1  0.75000000  0.59435800  0.25245200  1
  Hf  Hf12  1  0.25000000  0.08402700  0.75447500  1
  Hf  Hf13  1  0.75000000  0.23009000  0.25097200  1
  Hf  Hf14  1  0.25000000  0.40564200  0.74754800  1
  Hf  Hf15  1  0.25000000  0.76991000  0.74902800  1
  H  H16  1  0.75000000  0.37605500  0.49598800  1
  H  H17  1  0.25000000  0.86893000  0.99805000  1
  H  H18  1  0.25000000  0.62394500  0.50401200  1
  H  H19  1  0.75000000  0.13107000  0.00195000  1
  F  F20  1  0.94480100  0.19874600  0.36920800  1
  F  F21  1  0.25000000  0.28321000  0.65950200  1
  F  F22  1  0.75000000  0.71679000  0.34049800  1
  F  F23  1  0.25000000  0.51163500  0.58414900  1
  F  F24  1  0.25000000  0.98049000  0.91675900  1
  F  F25  1  0.03638800  0.58469100  0.25877800  1
  F  F26  1  0.25000000  0.70075500  0.43876600  1
  F  F27  1  0.25000000  0.21649000  0.84316300  1
  F  F28  1  0.75000000  0.21086500  0.93997100  1
  F  F29  1  0.97131700  0.12378200  0.75902100  1
  F  F30  1  0.44605700  0.68260700  0.86171500  1
  F  F31  1  0.75000000  0.78351000  0.15683700  1
  F  F32  1  0.58234600  0.08261400  0.23673000  1
  F  F33  1  0.94605700  0.31739300  0.13828500  1
  F  F34  1  0.02868300  0.87621800  0.24097900  1
  F  F35  1  0.75000000  0.29924500  0.56123400  1
  F  F36  1  0.52868300  0.12378200  0.75902100  1
  F  F37  1  0.05394300  0.68260700  0.86171500  1
  F  F38  1  0.25000000  0.59306100  0.73363300  1
  F  F39  1  0.44480100  0.80125400  0.63079200  1
  F  F40  1  0.08234600  0.91738600  0.76327000  1
  F  F41  1  0.75000000  0.90721900  0.39677400  1
  F  F42  1  0.75000000  0.48836500  0.41585100  1
  F  F43  1  0.46361200  0.58469100  0.25877800  1
  F  F44  1  0.55519900  0.19874600  0.36920800  1
  F  F45  1  0.96361200  0.41530900  0.74122200  1
  F  F46  1  0.91765400  0.08261400  0.23673000  1
  F  F47  1  0.75000000  0.01951000  0.08324100  1
  F  F48  1  0.05519900  0.80125400  0.63079200  1
  F  F49  1  0.53638800  0.41530900  0.74122200  1
  F  F50  1  0.25000000  0.78913500  0.06002900  1
  F  F51  1  0.47131700  0.87621800  0.24097900  1
  F  F52  1  0.41765400  0.91738600  0.76327000  1
  F  F53  1  0.25000000  0.39997000  0.89842300  1
  F  F54  1  0.55394300  0.31739300  0.13828500  1
  F  F55  1  0.75000000  0.40693900  0.26636700  1
  F  F56  1  0.75000000  0.60003000  0.10157700  1
  F  F57  1  0.25000000  0.09278100  0.60322600  1
