# generated using pymatgen
data_Na2NbAsO6
_symmetry_space_group_name_H-M   'P 1'
_cell_length_a   9.23160289
_cell_length_b   9.23160289
_cell_length_c   7.42882584
_cell_angle_alpha   75.27834058
_cell_angle_beta   75.27834058
_cell_angle_gamma   73.03482880
_symmetry_Int_Tables_number   1
_chemical_formula_structural   Na2NbAsO6
_chemical_formula_sum   'Na8 Nb4 As4 O24'
_cell_volume   574.48223933
_cell_formula_units_Z   4
loop_
 _symmetry_equiv_pos_site_id
 _symmetry_equiv_pos_as_xyz
  1  'x, y, z'
loop_
 _atom_site_type_symbol
 _atom_site_label
 _atom_site_symmetry_multiplicity
 _atom_site_fract_x
 _atom_site_fract_y
 _atom_site_fract_z
 _atom_site_occupancy
  Na  Na0  1  0.35173600  0.92957700  0.94042800  1
  Na  Na1  1  0.92957700  0.35173600  0.44042800  1
  Na  Na2  1  0.64826400  0.07042300  0.05957200  1
  Na  Na3  1  0.00511500  0.99488500  0.75000000  1
  Na  Na4  1  0.07042300  0.64826400  0.55957200  1
  Na  Na5  1  0.54635000  0.45365000  0.25000000  1
  Na  Na6  1  0.99488500  0.00511500  0.25000000  1
  Na  Na7  1  0.45365000  0.54635000  0.75000000  1
  Nb  Nb8  1  0.70825700  0.71322800  0.38387200  1
  Nb  Nb9  1  0.71322800  0.70825700  0.88387200  1
  Nb  Nb10  1  0.28677200  0.29174300  0.11612800  1
  Nb  Nb11  1  0.29174300  0.28677200  0.61612800  1
  As  As12  1  0.05901300  0.68394600  0.04671100  1
  As  As13  1  0.68394600  0.05901300  0.54671100  1
  As  As14  1  0.31605400  0.94098700  0.45328900  1
  As  As15  1  0.94098700  0.31605400  0.95328900  1
  O  O16  1  0.51971800  0.68036800  0.93810400  1
  O  O17  1  0.48028200  0.31963200  0.06189600  1
  O  O18  1  0.52328300  0.20889800  0.50396200  1
  O  O19  1  0.12672900  0.83952700  0.02804100  1
  O  O20  1  0.21050200  0.31340300  0.37540300  1
  O  O21  1  0.78949800  0.68659700  0.62459700  1
  O  O22  1  0.95305700  0.64023500  0.27569200  1
  O  O23  1  0.83952700  0.12672900  0.52804100  1
  O  O24  1  0.68659700  0.78949800  0.12459700  1
  O  O25  1  0.31340300  0.21050200  0.87540300  1
  O  O26  1  0.35976500  0.04694300  0.22430800  1
  O  O27  1  0.31963200  0.48028200  0.56189600  1
  O  O28  1  0.79110200  0.47671700  0.99603800  1
  O  O29  1  0.95599100  0.72316500  0.86865600  1
  O  O30  1  0.72316500  0.95599100  0.36865600  1
  O  O31  1  0.87327100  0.16047300  0.97195900  1
  O  O32  1  0.20889800  0.52328300  0.00396200  1
  O  O33  1  0.04400900  0.27683500  0.13134400  1
  O  O34  1  0.16047300  0.87327100  0.47195900  1
  O  O35  1  0.68036800  0.51971800  0.43810400  1
  O  O36  1  0.04694300  0.35976500  0.72430800  1
  O  O37  1  0.27683500  0.04400900  0.63134400  1
  O  O38  1  0.47671700  0.79110200  0.49603800  1
  O  O39  1  0.64023500  0.95305700  0.77569200  1
