# generated using pymatgen
data_Nd23Cd4Rh7
_symmetry_space_group_name_H-M   'P 1'
_cell_length_a   10.02300256
_cell_length_b   10.02300256
_cell_length_c   22.62376900
_cell_angle_alpha   90.00000000
_cell_angle_beta   90.00000000
_cell_angle_gamma   120.00000369
_symmetry_Int_Tables_number   1
_chemical_formula_structural   Nd23Cd4Rh7
_chemical_formula_sum   'Nd46 Cd8 Rh14'
_cell_volume   1968.29983386
_cell_formula_units_Z   2
loop_
 _symmetry_equiv_pos_site_id
 _symmetry_equiv_pos_as_xyz
  1  'x, y, z'
loop_
 _atom_site_type_symbol
 _atom_site_label
 _atom_site_symmetry_multiplicity
 _atom_site_fract_x
 _atom_site_fract_y
 _atom_site_fract_z
 _atom_site_occupancy
  Nd  Nd0  1  0.25368600  0.12684300  0.63551300  1
  Nd  Nd1  1  0.45856700  0.91713400  0.85633500  1
  Nd  Nd2  1  0.74631400  0.87315700  0.13551300  1
  Nd  Nd3  1  0.79235900  0.20764100  0.94715900  1
  Nd  Nd4  1  0.08286600  0.54143300  0.85633500  1
  Nd  Nd5  1  0.46007000  0.92013900  0.58539000  1
  Nd  Nd6  1  0.53993000  0.07986100  0.08539000  1
  Nd  Nd7  1  0.87315700  0.12684300  0.63551300  1
  Nd  Nd8  1  0.79837800  0.20162200  0.78285700  1
  Nd  Nd9  1  0.41528100  0.20764100  0.94715900  1
  Nd  Nd10  1  0.45856700  0.54143300  0.85633500  1
  Nd  Nd11  1  0.58504900  0.79252400  0.72109400  1
  Nd  Nd12  1  0.54143300  0.08286600  0.35633500  1
  Nd  Nd13  1  0.92013900  0.46007000  0.08539000  1
  Nd  Nd14  1  0.79067800  0.58135700  0.48950600  1
  Nd  Nd15  1  0.79252400  0.58504900  0.22109400  1
  Nd  Nd16  1  0.79067800  0.20932200  0.48950600  1
  Nd  Nd17  1  0.91713400  0.45856700  0.35633500  1
  Nd  Nd18  1  0.20764100  0.41528100  0.44715900  1
  Nd  Nd19  1  0.40324400  0.20162200  0.78285700  1
  Nd  Nd20  1  0.41495100  0.20747600  0.22109400  1
  Nd  Nd21  1  0.54143300  0.45856700  0.35633500  1
  Nd  Nd22  1  0.66666700  0.33333300  0.64518800  1
  Nd  Nd23  1  0.00000000  0.00000000  0.49511400  1
  Nd  Nd24  1  0.79837800  0.59675600  0.78285700  1
  Nd  Nd25  1  0.20764100  0.79235900  0.44715900  1
  Nd  Nd26  1  0.79235900  0.58471900  0.94715900  1
  Nd  Nd27  1  0.12684300  0.25368600  0.13551300  1
  Nd  Nd28  1  0.87315700  0.74631400  0.63551300  1
  Nd  Nd29  1  0.07986100  0.53993000  0.58539000  1
  Nd  Nd30  1  0.20932200  0.79067800  0.98950600  1
  Nd  Nd31  1  0.59675600  0.79837800  0.28285700  1
  Nd  Nd32  1  0.58471900  0.79235900  0.44715900  1
  Nd  Nd33  1  0.20747600  0.41495100  0.72109400  1
  Nd  Nd34  1  0.53993000  0.46007000  0.08539000  1
  Nd  Nd35  1  0.20747600  0.79252400  0.72109400  1
  Nd  Nd36  1  0.41864300  0.20932200  0.48950600  1
  Nd  Nd37  1  0.46007000  0.53993000  0.58539000  1
  Nd  Nd38  1  0.20932200  0.41864300  0.98950600  1
  Nd  Nd39  1  0.00000000  0.00000000  0.99511400  1
  Nd  Nd40  1  0.58135700  0.79067800  0.98950600  1
  Nd  Nd41  1  0.20162200  0.79837800  0.28285700  1
  Nd  Nd42  1  0.20162200  0.40324400  0.28285700  1
  Nd  Nd43  1  0.79252400  0.20747600  0.22109400  1
  Nd  Nd44  1  0.12684300  0.87315700  0.13551300  1
  Nd  Nd45  1  0.33333300  0.66666700  0.14518800  1
  Cd  Cd46  1  0.21512300  0.10756200  0.36291900  1
  Cd  Cd47  1  0.78487700  0.89243800  0.86291900  1
  Cd  Cd48  1  0.10756200  0.89243800  0.86291900  1
  Cd  Cd49  1  0.10756200  0.21512300  0.86291900  1
  Cd  Cd50  1  0.89243800  0.10756200  0.36291900  1
  Cd  Cd51  1  0.89243800  0.78487700  0.36291900  1
  Cd  Cd52  1  0.00000000  0.00000000  0.24903100  1
  Cd  Cd53  1  0.00000000  0.00000000  0.74903100  1
  Rh  Rh54  1  0.52167800  0.04335600  0.71098200  1
  Rh  Rh55  1  0.28516100  0.14258100  0.06266700  1
  Rh  Rh56  1  0.85741900  0.14258100  0.06266700  1
  Rh  Rh57  1  0.14258100  0.28516100  0.56266700  1
  Rh  Rh58  1  0.04335600  0.52167800  0.21098200  1
  Rh  Rh59  1  0.47832200  0.95664400  0.21098200  1
  Rh  Rh60  1  0.85741900  0.71483900  0.06266700  1
  Rh  Rh61  1  0.33333300  0.66666700  0.36308300  1
  Rh  Rh62  1  0.14258100  0.85741900  0.56266700  1
  Rh  Rh63  1  0.47832200  0.52167800  0.21098200  1
  Rh  Rh64  1  0.52167800  0.47832200  0.71098200  1
  Rh  Rh65  1  0.71483900  0.85741900  0.56266700  1
  Rh  Rh66  1  0.95664400  0.47832200  0.71098200  1
  Rh  Rh67  1  0.66666700  0.33333300  0.86308300  1
