# generated using pymatgen
data_CuMo3Br7
_symmetry_space_group_name_H-M   'P 1'
_cell_length_a   13.73653900
_cell_length_b   13.73653900
_cell_length_c   13.73653900
_cell_angle_alpha   90.00000000
_cell_angle_beta   90.00000000
_cell_angle_gamma   90.00000000
_symmetry_Int_Tables_number   1
_chemical_formula_structural   CuMo3Br7
_chemical_formula_sum   'Cu8 Mo24 Br56'
_cell_volume   2591.98193606
_cell_formula_units_Z   8
loop_
 _symmetry_equiv_pos_site_id
 _symmetry_equiv_pos_as_xyz
  1  'x, y, z'
loop_
 _atom_site_type_symbol
 _atom_site_label
 _atom_site_symmetry_multiplicity
 _atom_site_fract_x
 _atom_site_fract_y
 _atom_site_fract_z
 _atom_site_occupancy
  Cu  Cu0  1  0.18828300  0.18828300  0.18828300  1
  Cu  Cu1  1  0.81171700  0.81171700  0.18828300  1
  Cu  Cu2  1  0.18828300  0.81171700  0.81171700  1
  Cu  Cu3  1  0.68828300  0.68828300  0.31171700  1
  Cu  Cu4  1  0.68828300  0.31171700  0.68828300  1
  Cu  Cu5  1  0.31171700  0.31171700  0.31171700  1
  Cu  Cu6  1  0.81171700  0.18828300  0.81171700  1
  Cu  Cu7  1  0.31171700  0.68828300  0.68828300  1
  Mo  Mo8  1  0.77441700  0.28053800  0.38090900  1
  Mo  Mo9  1  0.38090900  0.77441700  0.28053800  1
  Mo  Mo10  1  0.71946200  0.61909100  0.77441700  1
  Mo  Mo11  1  0.88090900  0.72558300  0.78053800  1
  Mo  Mo12  1  0.21946200  0.88090900  0.27441700  1
  Mo  Mo13  1  0.78053800  0.88090900  0.72558300  1
  Mo  Mo14  1  0.28053800  0.38090900  0.77441700  1
  Mo  Mo15  1  0.61909100  0.77441700  0.71946200  1
  Mo  Mo16  1  0.71946200  0.38090900  0.22558300  1
  Mo  Mo17  1  0.72558300  0.21946200  0.11909100  1
  Mo  Mo18  1  0.88090900  0.27441700  0.21946200  1
  Mo  Mo19  1  0.21946200  0.11909100  0.72558300  1
  Mo  Mo20  1  0.22558300  0.71946200  0.38090900  1
  Mo  Mo21  1  0.77441700  0.71946200  0.61909100  1
  Mo  Mo22  1  0.78053800  0.11909100  0.27441700  1
  Mo  Mo23  1  0.28053800  0.61909100  0.22558300  1
  Mo  Mo24  1  0.72558300  0.78053800  0.88090900  1
  Mo  Mo25  1  0.22558300  0.28053800  0.61909100  1
  Mo  Mo26  1  0.11909100  0.72558300  0.21946200  1
  Mo  Mo27  1  0.61909100  0.22558300  0.28053800  1
  Mo  Mo28  1  0.27441700  0.21946200  0.88090900  1
  Mo  Mo29  1  0.11909100  0.27441700  0.78053800  1
  Mo  Mo30  1  0.38090900  0.22558300  0.71946200  1
  Mo  Mo31  1  0.27441700  0.78053800  0.11909100  1
  Br  Br32  1  0.11435600  0.11435600  0.88564400  1
  Br  Br33  1  0.56650300  0.67591500  0.87400500  1
  Br  Br34  1  0.43465400  0.18881900  0.32778100  1
  Br  Br35  1  0.56534600  0.18881900  0.67221900  1
  Br  Br36  1  0.82778100  0.93465400  0.31118100  1
  Br  Br37  1  0.12599500  0.56650300  0.32408500  1
  Br  Br38  1  0.61435600  0.38564400  0.38564400  1
  Br  Br39  1  0.17221900  0.06534600  0.31118100  1
  Br  Br40  1  0.88564400  0.88564400  0.88564400  1
  Br  Br41  1  0.38564400  0.61435600  0.38564400  1
  Br  Br42  1  0.62599500  0.93349700  0.82408500  1
  Br  Br43  1  0.12599500  0.43349700  0.67591500  1
  Br  Br44  1  0.06650300  0.82408500  0.37400500  1
  Br  Br45  1  0.06534600  0.68881900  0.82778100  1
  Br  Br46  1  0.67221900  0.43465400  0.81118100  1
  Br  Br47  1  0.32778100  0.43465400  0.18881900  1
  Br  Br48  1  0.56650300  0.32408500  0.12599500  1
  Br  Br49  1  0.87400500  0.43349700  0.32408500  1
  Br  Br50  1  0.18881900  0.32778100  0.43465400  1
  Br  Br51  1  0.61435600  0.61435600  0.61435600  1
  Br  Br52  1  0.82778100  0.06534600  0.68881900  1
  Br  Br53  1  0.17221900  0.93465400  0.68881900  1
  Br  Br54  1  0.62599500  0.06650300  0.17591500  1
  Br  Br55  1  0.31118100  0.82778100  0.93465400  1
  Br  Br56  1  0.11435600  0.88564400  0.11435600  1
  Br  Br57  1  0.93349700  0.17591500  0.37400500  1
  Br  Br58  1  0.38564400  0.38564400  0.61435600  1
  Br  Br59  1  0.82408500  0.62599500  0.93349700  1
  Br  Br60  1  0.68881900  0.82778100  0.06534600  1
  Br  Br61  1  0.18881900  0.67221900  0.56534600  1
  Br  Br62  1  0.17591500  0.62599500  0.06650300  1
  Br  Br63  1  0.68881900  0.17221900  0.93465400  1
  Br  Br64  1  0.88564400  0.11435600  0.11435600  1
  Br  Br65  1  0.82408500  0.37400500  0.06650300  1
  Br  Br66  1  0.67591500  0.87400500  0.56650300  1
  Br  Br67  1  0.17591500  0.37400500  0.93349700  1
  Br  Br68  1  0.32408500  0.87400500  0.43349700  1
  Br  Br69  1  0.06650300  0.17591500  0.62599500  1
  Br  Br70  1  0.37400500  0.93349700  0.17591500  1
  Br  Br71  1  0.93465400  0.68881900  0.17221900  1
  Br  Br72  1  0.06534600  0.31118100  0.17221900  1
  Br  Br73  1  0.81118100  0.67221900  0.43465400  1
  Br  Br74  1  0.37400500  0.06650300  0.82408500  1
  Br  Br75  1  0.43349700  0.67591500  0.12599500  1
  Br  Br76  1  0.32408500  0.12599500  0.56650300  1
  Br  Br77  1  0.67221900  0.56534600  0.18881900  1
  Br  Br78  1  0.31118100  0.17221900  0.06534600  1
  Br  Br79  1  0.93465400  0.31118100  0.82778100  1
  Br  Br80  1  0.56534600  0.81118100  0.32778100  1
  Br  Br81  1  0.43349700  0.32408500  0.87400500  1
  Br  Br82  1  0.87400500  0.56650300  0.67591500  1
  Br  Br83  1  0.93349700  0.82408500  0.62599500  1
  Br  Br84  1  0.67591500  0.12599500  0.43349700  1
  Br  Br85  1  0.32778100  0.56534600  0.81118100  1
  Br  Br86  1  0.81118100  0.32778100  0.56534600  1
  Br  Br87  1  0.43465400  0.81118100  0.67221900  1
