# generated using pymatgen
data_NaLa(CO3)2
_symmetry_space_group_name_H-M   'P 1'
_cell_length_a   5.21558000
_cell_length_b   6.50422900
_cell_length_c   7.28392700
_cell_angle_alpha   90.00000000
_cell_angle_beta   90.00000000
_cell_angle_gamma   90.00000000
_symmetry_Int_Tables_number   1
_chemical_formula_structural   NaLa(CO3)2
_chemical_formula_sum   'Na2 La2 C4 O12'
_cell_volume   247.09503519
_cell_formula_units_Z   2
loop_
 _symmetry_equiv_pos_site_id
 _symmetry_equiv_pos_as_xyz
  1  'x, y, z'
loop_
 _atom_site_type_symbol
 _atom_site_label
 _atom_site_symmetry_multiplicity
 _atom_site_fract_x
 _atom_site_fract_y
 _atom_site_fract_z
 _atom_site_occupancy
  Na  Na0  1  0.50000000  0.01730000  0.70254900  1
  Na  Na1  1  0.50000000  0.98270000  0.20254900  1
  La  La2  1  0.00000000  0.63230300  0.50297900  1
  La  La3  1  0.00000000  0.36769700  0.00297900  1
  C  C4  1  0.50000000  0.53388600  0.17402600  1
  C  C5  1  0.00000000  0.91866800  0.91742500  1
  C  C6  1  0.50000000  0.46611400  0.67402600  1
  C  C7  1  0.00000000  0.08133200  0.41742500  1
  O  O8  1  0.50000000  0.35898900  0.08888600  1
  O  O9  1  0.50000000  0.64101100  0.58888600  1
  O  O10  1  0.78818000  0.98638100  0.45436300  1
  O  O11  1  0.71808600  0.37881700  0.71081300  1
  O  O12  1  0.71808600  0.62118300  0.21081300  1
  O  O13  1  0.21182000  0.98638100  0.45436300  1
  O  O14  1  0.00000000  0.73774200  0.83978500  1
  O  O15  1  0.21182000  0.01361900  0.95436300  1
  O  O16  1  0.28191400  0.37881700  0.71081300  1
  O  O17  1  0.28191400  0.62118300  0.21081300  1
  O  O18  1  0.00000000  0.26225800  0.33978500  1
  O  O19  1  0.78818000  0.01361900  0.95436300  1
