# generated using pymatgen
data_Na2Ti2Si2O9
_symmetry_space_group_name_H-M   'P 1'
_cell_length_a   5.28700700
_cell_length_b   8.79768900
_cell_length_c   14.73470800
_cell_angle_alpha   90.00000000
_cell_angle_beta   90.00000000
_cell_angle_gamma   90.00000000
_symmetry_Int_Tables_number   1
_chemical_formula_structural   Na2Ti2Si2O9
_chemical_formula_sum   'Na8 Ti8 Si8 O36'
_cell_volume   685.36200550
_cell_formula_units_Z   4
loop_
 _symmetry_equiv_pos_site_id
 _symmetry_equiv_pos_as_xyz
  1  'x, y, z'
loop_
 _atom_site_type_symbol
 _atom_site_label
 _atom_site_symmetry_multiplicity
 _atom_site_fract_x
 _atom_site_fract_y
 _atom_site_fract_z
 _atom_site_occupancy
  Na  Na0  1  0.64059500  0.93668700  0.65434300  1
  Na  Na1  1  0.64059500  0.06331300  0.84565700  1
  Na  Na2  1  0.85940500  0.43668700  0.34565700  1
  Na  Na3  1  0.85940500  0.56331300  0.15434300  1
  Na  Na4  1  0.35940500  0.06331300  0.34565700  1
  Na  Na5  1  0.35940500  0.93668700  0.15434300  1
  Na  Na6  1  0.14059500  0.56331300  0.65434300  1
  Na  Na7  1  0.14059500  0.43668700  0.84565700  1
  Ti  Ti8  1  0.13019200  0.15035400  0.66891300  1
  Ti  Ti9  1  0.13019200  0.84964600  0.83108700  1
  Ti  Ti10  1  0.36980800  0.65035400  0.33108700  1
  Ti  Ti11  1  0.36980800  0.34964600  0.16891300  1
  Ti  Ti12  1  0.86980800  0.84964600  0.33108700  1
  Ti  Ti13  1  0.86980800  0.15035400  0.16891300  1
  Ti  Ti14  1  0.63019200  0.34964600  0.66891300  1
  Ti  Ti15  1  0.63019200  0.65035400  0.83108700  1
  Si  Si16  1  0.19980300  0.84197500  0.52651800  1
  Si  Si17  1  0.19980300  0.15802500  0.97348200  1
  Si  Si18  1  0.30019700  0.34197500  0.47348200  1
  Si  Si19  1  0.30019700  0.65802500  0.02651800  1
  Si  Si20  1  0.80019700  0.15802500  0.47348200  1
  Si  Si21  1  0.80019700  0.84197500  0.02651800  1
  Si  Si22  1  0.69980300  0.65802500  0.52651800  1
  Si  Si23  1  0.69980300  0.34197500  0.97348200  1
  O  O24  1  0.00807500  0.00000000  0.75000000  1
  O  O25  1  0.49192500  0.50000000  0.25000000  1
  O  O26  1  0.99192500  0.00000000  0.25000000  1
  O  O27  1  0.50807500  0.50000000  0.75000000  1
  O  O28  1  0.44052300  0.18328500  0.72200800  1
  O  O29  1  0.44052300  0.81671500  0.77799200  1
  O  O30  1  0.05947700  0.68328500  0.27799200  1
  O  O31  1  0.05947700  0.31671500  0.22200800  1
  O  O32  1  0.55947700  0.81671500  0.27799200  1
  O  O33  1  0.55947700  0.18328500  0.22200800  1
  O  O34  1  0.94052300  0.31671500  0.72200800  1
  O  O35  1  0.94052300  0.68328500  0.77799200  1
  O  O36  1  0.43559300  0.73500800  0.56689200  1
  O  O37  1  0.43559300  0.26499200  0.93310800  1
  O  O38  1  0.75940500  0.99381000  0.42607400  1
  O  O39  1  0.06440700  0.23500800  0.43310800  1
  O  O40  1  0.56440700  0.26499200  0.43310800  1
  O  O41  1  0.56440700  0.73500800  0.06689200  1
  O  O42  1  0.93559300  0.76499200  0.56689200  1
  O  O43  1  0.93559300  0.23500800  0.93310800  1
  O  O44  1  0.24059500  0.00619000  0.57392600  1
  O  O45  1  0.24059500  0.99381000  0.92607400  1
  O  O46  1  0.25940500  0.50619000  0.42607400  1
  O  O47  1  0.25940500  0.49381000  0.07392600  1
  O  O48  1  0.70105500  0.33480600  0.08392200  1
  O  O49  1  0.70105500  0.66519400  0.41607800  1
  O  O50  1  0.79894500  0.83480600  0.91607800  1
  O  O51  1  0.79894500  0.16519400  0.58392200  1
  O  O52  1  0.29894500  0.66519400  0.91607800  1
  O  O53  1  0.29894500  0.33480600  0.58392200  1
  O  O54  1  0.20105500  0.16519400  0.08392200  1
  O  O55  1  0.20105500  0.83480600  0.41607800  1
  O  O56  1  0.74059500  0.50619000  0.92607400  1
  O  O57  1  0.74059500  0.49381000  0.57392600  1
  O  O58  1  0.75940500  0.00619000  0.07392600  1
  O  O59  1  0.06440700  0.76499200  0.06689200  1
