# generated using pymatgen
data_RbVOF3
_symmetry_space_group_name_H-M   'P 1'
_cell_length_a   3.95725600
_cell_length_b   8.78780100
_cell_length_c   11.82595700
_cell_angle_alpha   90.00000000
_cell_angle_beta   90.00000000
_cell_angle_gamma   90.00000000
_symmetry_Int_Tables_number   1
_chemical_formula_structural   RbVOF3
_chemical_formula_sum   'Rb4 V4 O4 F12'
_cell_volume   411.25449285
_cell_formula_units_Z   4
loop_
 _symmetry_equiv_pos_site_id
 _symmetry_equiv_pos_as_xyz
  1  'x, y, z'
loop_
 _atom_site_type_symbol
 _atom_site_label
 _atom_site_symmetry_multiplicity
 _atom_site_fract_x
 _atom_site_fract_y
 _atom_site_fract_z
 _atom_site_occupancy
  Rb  Rb0  1  0.50000000  0.00884700  0.78208400  1
  Rb  Rb1  1  0.50000000  0.99115300  0.21791600  1
  Rb  Rb2  1  0.50000000  0.49115300  0.28208400  1
  Rb  Rb3  1  0.50000000  0.50884700  0.71791600  1
  V  V4  1  0.00000000  0.30822900  0.01697200  1
  V  V5  1  0.00000000  0.80822900  0.48302800  1
  V  V6  1  0.00000000  0.19177100  0.51697200  1
  V  V7  1  0.00000000  0.69177100  0.98302800  1
  O  O8  1  0.00000000  0.15703800  0.93517300  1
  O  O9  1  0.00000000  0.84296200  0.06482700  1
  O  O10  1  0.00000000  0.65703800  0.56482700  1
  O  O11  1  0.00000000  0.34296200  0.43517300  1
  F  F12  1  0.00000000  0.26682600  0.66882400  1
  F  F13  1  0.00000000  0.23317400  0.16882400  1
  F  F14  1  0.50000000  0.83307000  0.46671700  1
  F  F15  1  0.00000000  0.73317400  0.33117600  1
  F  F16  1  0.00000000  0.03084600  0.39731500  1
  F  F17  1  0.50000000  0.16693000  0.53328300  1
  F  F18  1  0.50000000  0.66693000  0.96671700  1
  F  F19  1  0.00000000  0.76682600  0.83117600  1
  F  F20  1  0.00000000  0.46915400  0.89731500  1
  F  F21  1  0.00000000  0.53084600  0.10268500  1
  F  F22  1  0.00000000  0.96915400  0.60268500  1
  F  F23  1  0.50000000  0.33307000  0.03328300  1
