# generated using pymatgen
data_Ba7B4Se13
_symmetry_space_group_name_H-M   'P 1'
_cell_length_a   13.84281234
_cell_length_b   13.84281234
_cell_length_c   10.66299975
_cell_angle_alpha   89.99170168
_cell_angle_beta   89.99170168
_cell_angle_gamma   134.66111746
_symmetry_Int_Tables_number   1
_chemical_formula_structural   Ba7B4Se13
_chemical_formula_sum   'Ba14 B8 Se26'
_cell_volume   1453.33785295
_cell_formula_units_Z   2
loop_
 _symmetry_equiv_pos_site_id
 _symmetry_equiv_pos_as_xyz
  1  'x, y, z'
loop_
 _atom_site_type_symbol
 _atom_site_label
 _atom_site_symmetry_multiplicity
 _atom_site_fract_x
 _atom_site_fract_y
 _atom_site_fract_z
 _atom_site_occupancy
  Ba  Ba0  1  0.06431200  0.72208000  0.52782600  1
  Ba  Ba1  1  0.27792000  0.93568800  0.97217400  1
  Ba  Ba2  1  0.45119000  0.10464600  0.35661900  1
  Ba  Ba3  1  0.33225300  0.66774700  0.25000000  1
  Ba  Ba4  1  0.66774700  0.33225300  0.75000000  1
  Ba  Ba5  1  0.54881000  0.89535400  0.64338100  1
  Ba  Ba6  1  0.99616300  0.00383700  0.75000000  1
  Ba  Ba7  1  0.93568800  0.27792000  0.47217400  1
  Ba  Ba8  1  0.89535400  0.54881000  0.14338100  1
  Ba  Ba9  1  0.00383700  0.99616300  0.25000000  1
  Ba  Ba10  1  0.10464600  0.45119000  0.85661900  1
  Ba  Ba11  1  0.50386500  0.49613500  0.25000000  1
  Ba  Ba12  1  0.49613500  0.50386500  0.75000000  1
  Ba  Ba13  1  0.72208000  0.06431200  0.02782600  1
  B  B14  1  0.51698100  0.28380700  0.06829600  1
  B  B15  1  0.06723700  0.29196800  0.14951500  1
  B  B16  1  0.48301900  0.71619300  0.93170400  1
  B  B17  1  0.93276300  0.70803200  0.85048500  1
  B  B18  1  0.28380700  0.51698100  0.56829600  1
  B  B19  1  0.29196800  0.06723700  0.64951500  1
  B  B20  1  0.71619300  0.48301900  0.43170400  1
  B  B21  1  0.70803200  0.93276300  0.35048500  1
  Se  Se22  1  0.37645500  0.99542600  0.65292900  1
  Se  Se23  1  0.20579600  0.79420400  0.25000000  1
  Se  Se24  1  0.34112200  0.18247200  0.15076600  1
  Se  Se25  1  0.59698400  0.20774400  0.06274700  1
  Se  Se26  1  0.20774400  0.59698400  0.56274700  1
  Se  Se27  1  0.65887800  0.81752800  0.84923400  1
  Se  Se28  1  0.81752800  0.65887800  0.34923400  1
  Se  Se29  1  0.32153800  0.16849400  0.79811800  1
  Se  Se30  1  0.79420400  0.20579600  0.75000000  1
  Se  Se31  1  0.82810100  0.97893200  0.48945700  1
  Se  Se32  1  0.46681900  0.62953200  0.49927000  1
  Se  Se33  1  0.97893200  0.82810100  0.98945700  1
  Se  Se34  1  0.02106800  0.17189900  0.01054300  1
  Se  Se35  1  0.62953200  0.46681900  0.99927000  1
  Se  Se36  1  0.83150600  0.67846200  0.70188200  1
  Se  Se37  1  0.67846200  0.83150600  0.20188200  1
  Se  Se38  1  0.00457400  0.62354500  0.84707100  1
  Se  Se39  1  0.40301600  0.79225600  0.93725300  1
  Se  Se40  1  0.53318100  0.37046800  0.50073000  1
  Se  Se41  1  0.99542600  0.37645500  0.15292900  1
  Se  Se42  1  0.16849400  0.32153800  0.29811800  1
  Se  Se43  1  0.62354500  0.00457400  0.34707100  1
  Se  Se44  1  0.37046800  0.53318100  0.00073000  1
  Se  Se45  1  0.17189900  0.02106800  0.51054300  1
  Se  Se46  1  0.18247200  0.34112200  0.65076600  1
  Se  Se47  1  0.79225600  0.40301600  0.43725300  1
