# generated using pymatgen
data_KZr2(AsO4)3
_symmetry_space_group_name_H-M   'P 1'
_cell_length_a   9.87988585
_cell_length_b   9.87988585
_cell_length_c   9.87988622
_cell_angle_alpha   55.84946786
_cell_angle_beta   55.84946786
_cell_angle_gamma   55.84946773
_symmetry_Int_Tables_number   1
_chemical_formula_structural   KZr2(AsO4)3
_chemical_formula_sum   'K2 Zr4 As6 O24'
_cell_volume   616.31572381
_cell_formula_units_Z   2
loop_
 _symmetry_equiv_pos_site_id
 _symmetry_equiv_pos_as_xyz
  1  'x, y, z'
loop_
 _atom_site_type_symbol
 _atom_site_label
 _atom_site_symmetry_multiplicity
 _atom_site_fract_x
 _atom_site_fract_y
 _atom_site_fract_z
 _atom_site_occupancy
  K  K0  1  0.50000000  0.50000000  0.50000000  1
  K  K1  1  0.00000000  0.00000000  0.00000000  1
  Zr  Zr2  1  0.64765900  0.64765900  0.64765900  1
  Zr  Zr3  1  0.85234100  0.85234100  0.85234100  1
  Zr  Zr4  1  0.35234100  0.35234100  0.35234100  1
  Zr  Zr5  1  0.14765900  0.14765900  0.14765900  1
  As  As6  1  0.46558100  0.03441900  0.75000000  1
  As  As7  1  0.03441900  0.75000000  0.46558100  1
  As  As8  1  0.75000000  0.46558100  0.03441900  1
  As  As9  1  0.53441900  0.96558100  0.25000000  1
  As  As10  1  0.96558100  0.25000000  0.53441900  1
  As  As11  1  0.25000000  0.53441900  0.96558100  1
  O  O12  1  0.48946600  0.85531700  0.73892300  1
  O  O13  1  0.85531700  0.73892300  0.48946600  1
  O  O14  1  0.73892300  0.48946600  0.85531700  1
  O  O15  1  0.64468300  0.01053400  0.76107700  1
  O  O16  1  0.01053400  0.76107700  0.64468300  1
  O  O17  1  0.76107700  0.64468300  0.01053400  1
  O  O18  1  0.51053400  0.14468300  0.26107700  1
  O  O19  1  0.14468300  0.26107700  0.51053400  1
  O  O20  1  0.26107700  0.51053400  0.14468300  1
  O  O21  1  0.35531700  0.98946600  0.23892300  1
  O  O22  1  0.98946600  0.23892300  0.35531700  1
  O  O23  1  0.23892300  0.35531700  0.98946600  1
  O  O24  1  0.56663300  0.78452900  0.43160200  1
  O  O25  1  0.78452900  0.43160200  0.56663300  1
  O  O26  1  0.43160200  0.56663300  0.78452900  1
  O  O27  1  0.71547100  0.93336700  0.06839800  1
  O  O28  1  0.93336700  0.06839800  0.71547100  1
  O  O29  1  0.06839800  0.71547100  0.93336700  1
  O  O30  1  0.43336700  0.21547100  0.56839800  1
  O  O31  1  0.21547100  0.56839800  0.43336700  1
  O  O32  1  0.56839800  0.43336700  0.21547100  1
  O  O33  1  0.28452900  0.06663300  0.93160200  1
  O  O34  1  0.06663300  0.93160200  0.28452900  1
  O  O35  1  0.93160200  0.28452900  0.06663300  1
