# generated using pymatgen
data_KCe(PO3)4
_symmetry_space_group_name_H-M   'P 1'
_cell_length_a   13.50802400
_cell_length_b   7.52332500
_cell_length_c   12.72320381
_cell_angle_alpha   53.78810302
_cell_angle_beta   90.00000000
_cell_angle_gamma   90.00000000
_symmetry_Int_Tables_number   1
_chemical_formula_structural   KCe(PO3)4
_chemical_formula_sum   'K4 Ce4 P16 O48'
_cell_volume   1043.24014923
_cell_formula_units_Z   4
loop_
 _symmetry_equiv_pos_site_id
 _symmetry_equiv_pos_as_xyz
  1  'x, y, z'
loop_
 _atom_site_type_symbol
 _atom_site_label
 _atom_site_symmetry_multiplicity
 _atom_site_fract_x
 _atom_site_fract_y
 _atom_site_fract_z
 _atom_site_occupancy
  K  K0  1  0.77480300  0.93492400  0.06737100  1
  K  K1  1  0.27480300  0.06507600  0.43262900  1
  K  K2  1  0.22519700  0.06507600  0.93262900  1
  K  K3  1  0.72519700  0.93492400  0.56737100  1
  Ce  Ce4  1  0.22038600  0.46923700  0.02227300  1
  Ce  Ce5  1  0.72038600  0.53076300  0.47772700  1
  Ce  Ce6  1  0.77961400  0.53076300  0.97772700  1
  Ce  Ce7  1  0.27961400  0.46923700  0.52227300  1
  P  P8  1  0.40127400  0.98790400  0.24710200  1
  P  P9  1  0.90127400  0.01209600  0.25289800  1
  P  P10  1  0.59872600  0.01209600  0.75289800  1
  P  P11  1  0.09872600  0.98790400  0.74710200  1
  P  P12  1  0.11268200  0.89603300  0.24124300  1
  P  P13  1  0.61268200  0.10396700  0.25875700  1
  P  P14  1  0.88731800  0.10396700  0.75875700  1
  P  P15  1  0.38731800  0.89603300  0.74124300  1
  P  P16  1  0.37635300  0.64560900  0.20141000  1
  P  P17  1  0.87635300  0.35439100  0.29859000  1
  P  P18  1  0.62364700  0.35439100  0.79859000  1
  P  P19  1  0.12364700  0.64560900  0.70141000  1
  P  P20  1  0.59107200  0.54226000  0.20483600  1
  P  P21  1  0.09107200  0.45774000  0.29516400  1
  P  P22  1  0.40892800  0.45774000  0.79516400  1
  P  P23  1  0.90892800  0.54226000  0.70483600  1
  O  O24  1  0.29809400  0.65538400  0.11439400  1
  O  O25  1  0.79809400  0.34461600  0.38560600  1
  O  O26  1  0.70190600  0.34461600  0.88560600  1
  O  O27  1  0.20190600  0.65538400  0.61439400  1
  O  O28  1  0.08064800  0.72422300  0.20945400  1
  O  O29  1  0.58064800  0.27577700  0.29054600  1
  O  O30  1  0.91935200  0.27577700  0.79054600  1
  O  O31  1  0.41935200  0.72422300  0.70945400  1
  O  O32  1  0.68629100  0.20747500  0.14955200  1
  O  O33  1  0.18629100  0.79252500  0.35044800  1
  O  O34  1  0.31370900  0.79252500  0.85044800  1
  O  O35  1  0.81370900  0.20747500  0.64955200  1
  O  O36  1  0.14127800  0.10521400  0.11301200  1
  O  O37  1  0.64127800  0.89478600  0.38698800  1
  O  O38  1  0.85872200  0.89478600  0.88698800  1
  O  O39  1  0.35872200  0.10521400  0.61301200  1
  O  O40  1  0.38152900  0.89299900  0.16327800  1
  O  O41  1  0.88152900  0.10700100  0.33672200  1
  O  O42  1  0.61847100  0.10700100  0.83672200  1
  O  O43  1  0.11847100  0.89299900  0.66327800  1
  O  O44  1  0.33768400  0.18937700  0.19149800  1
  O  O45  1  0.83768400  0.81062300  0.30850200  1
  O  O46  1  0.66231600  0.81062300  0.80850200  1
  O  O47  1  0.16231600  0.18937700  0.69149800  1
  O  O48  1  0.48031400  0.62310400  0.14838900  1
  O  O49  1  0.98031400  0.37689600  0.35161100  1
  O  O50  1  0.51968600  0.37689600  0.85161100  1
  O  O51  1  0.01968600  0.62310400  0.64838900  1
  O  O52  1  0.51365300  0.07113600  0.20272400  1
  O  O53  1  0.01365300  0.92886400  0.29727600  1
  O  O54  1  0.48634700  0.92886400  0.79727600  1
  O  O55  1  0.98634700  0.07113600  0.70272400  1
  O  O56  1  0.65614800  0.62742400  0.08861900  1
  O  O57  1  0.15614800  0.37257600  0.41138100  1
  O  O58  1  0.34385200  0.37257600  0.91138100  1
  O  O59  1  0.84385200  0.62742400  0.58861900  1
  O  O60  1  0.89381700  0.19048300  0.10875300  1
  O  O61  1  0.39381700  0.80951700  0.39124700  1
  O  O62  1  0.10618300  0.80951700  0.89124700  1
  O  O63  1  0.60618300  0.19048300  0.60875300  1
  O  O64  1  0.86721700  0.52115700  0.15383200  1
  O  O65  1  0.36721700  0.47884300  0.34616800  1
  O  O66  1  0.13278300  0.47884300  0.84616800  1
  O  O67  1  0.63278300  0.52115700  0.65383200  1
  O  O68  1  0.11582100  0.39772600  0.20458300  1
  O  O69  1  0.61582100  0.60227400  0.29541700  1
  O  O70  1  0.88417900  0.60227400  0.79541700  1
  O  O71  1  0.38417900  0.39772600  0.70458300  1
