# generated using pymatgen
data_Re2Te5
_symmetry_space_group_name_H-M   'P 1'
_cell_length_a   13.40349600
_cell_length_b   13.46490700
_cell_length_c   14.50695700
_cell_angle_alpha   90.00000000
_cell_angle_beta   90.00000000
_cell_angle_gamma   90.00000000
_symmetry_Int_Tables_number   1
_chemical_formula_structural   Re2Te5
_chemical_formula_sum   'Re24 Te60'
_cell_volume   2618.16957045
_cell_formula_units_Z   12
loop_
 _symmetry_equiv_pos_site_id
 _symmetry_equiv_pos_as_xyz
  1  'x, y, z'
loop_
 _atom_site_type_symbol
 _atom_site_label
 _atom_site_symmetry_multiplicity
 _atom_site_fract_x
 _atom_site_fract_y
 _atom_site_fract_z
 _atom_site_occupancy
  Re  Re0  1  0.05433600  0.54639900  0.11421100  1
  Re  Re1  1  0.05433600  0.04639900  0.38578900  1
  Re  Re2  1  0.94566400  0.45360100  0.88578900  1
  Re  Re3  1  0.13185200  0.97778900  0.54635200  1
  Re  Re4  1  0.55433600  0.95360100  0.11421100  1
  Re  Re5  1  0.49701000  0.63234700  0.45204700  1
  Re  Re6  1  0.86814800  0.02221100  0.45364800  1
  Re  Re7  1  0.44566400  0.04639900  0.88578900  1
  Re  Re8  1  0.36814800  0.97778900  0.04635200  1
  Re  Re9  1  0.49701000  0.13234700  0.04795300  1
  Re  Re10  1  0.55433600  0.45360100  0.38578900  1
  Re  Re11  1  0.63185200  0.02221100  0.95364800  1
  Re  Re12  1  0.99701000  0.86765300  0.45204700  1
  Re  Re13  1  0.36814800  0.47778900  0.45364800  1
  Re  Re14  1  0.50299000  0.36765300  0.54795300  1
  Re  Re15  1  0.00299000  0.13234700  0.54795300  1
  Re  Re16  1  0.63185200  0.52221100  0.54635200  1
  Re  Re17  1  0.99701000  0.36765300  0.04795300  1
  Re  Re18  1  0.50299000  0.86765300  0.95204700  1
  Re  Re19  1  0.86814800  0.52221100  0.04635200  1
  Re  Re20  1  0.94566400  0.95360100  0.61421100  1
  Re  Re21  1  0.44566400  0.54639900  0.61421100  1
  Re  Re22  1  0.00299000  0.63234700  0.95204700  1
  Re  Re23  1  0.13185200  0.47778900  0.95364800  1
  Te  Te24  1  0.57312300  0.20330600  0.88801100  1
  Te  Te25  1  0.69197100  0.84284700  0.02028000  1
  Te  Te26  1  0.68040900  0.06314100  0.38314900  1
  Te  Te27  1  0.81959100  0.06314100  0.88314900  1
  Te  Te28  1  0.03566800  0.81912000  0.87920100  1
  Te  Te29  1  0.31959100  0.43685900  0.88314900  1
  Te  Te30  1  0.19197100  0.15715300  0.47972000  1
  Te  Te31  1  0.19197100  0.65715300  0.02028000  1
  Te  Te32  1  0.53566800  0.18088000  0.62079900  1
  Te  Te33  1  0.81959100  0.56314100  0.61685100  1
  Te  Te34  1  0.68409400  0.60931000  0.38393200  1
  Te  Te35  1  0.08062600  0.56253400  0.78996100  1
  Te  Te36  1  0.13650000  0.61439100  0.27605400  1
  Te  Te37  1  0.30802900  0.65715300  0.52028000  1
  Te  Te38  1  0.92687700  0.70330600  0.11198900  1
  Te  Te39  1  0.68040900  0.56314100  0.11685100  1
  Te  Te40  1  0.96433200  0.18088000  0.12079900  1
  Te  Te41  1  0.18040900  0.93685900  0.11685100  1
  Te  Te42  1  0.80802900  0.84284700  0.52028000  1
  Te  Te43  1  0.46433200  0.31912000  0.12079900  1
  Te  Te44  1  0.63650000  0.38560900  0.22394600  1
  Te  Te45  1  0.13650000  0.11439100  0.22394600  1
  Te  Te46  1  0.91937400  0.93746600  0.28996100  1
  Te  Te47  1  0.96433200  0.68088000  0.37920100  1
  Te  Te48  1  0.41937400  0.06253400  0.21003900  1
  Te  Te49  1  0.00000000  0.50000000  0.50000000  1
  Te  Te50  1  0.57312300  0.70330600  0.61198900  1
  Te  Te51  1  0.86350000  0.88560900  0.77605400  1
  Te  Te52  1  0.30802900  0.15715300  0.97972000  1
  Te  Te53  1  0.18409400  0.89069000  0.38393200  1
  Te  Te54  1  0.31959100  0.93685900  0.61685100  1
  Te  Te55  1  0.18409400  0.39069000  0.11606800  1
  Te  Te56  1  0.36350000  0.11439100  0.72394600  1
  Te  Te57  1  0.42687700  0.79669400  0.11198900  1
  Te  Te58  1  0.03566800  0.31912000  0.62079900  1
  Te  Te59  1  0.00000000  0.00000000  0.00000000  1
  Te  Te60  1  0.80802900  0.34284700  0.97972000  1
  Te  Te61  1  0.53566800  0.68088000  0.87920100  1
  Te  Te62  1  0.46433200  0.81912000  0.37920100  1
  Te  Te63  1  0.08062600  0.06253400  0.71003900  1
  Te  Te64  1  0.41937400  0.56253400  0.28996100  1
  Te  Te65  1  0.50000000  0.50000000  0.00000000  1
  Te  Te66  1  0.07312300  0.29669400  0.88801100  1
  Te  Te67  1  0.31590600  0.39069000  0.61606800  1
  Te  Te68  1  0.58062600  0.93746600  0.78996100  1
  Te  Te69  1  0.69197100  0.34284700  0.47972000  1
  Te  Te70  1  0.91937400  0.43746600  0.21003900  1
  Te  Te71  1  0.07312300  0.79669400  0.61198900  1
  Te  Te72  1  0.86350000  0.38560900  0.72394600  1
  Te  Te73  1  0.63650000  0.88560900  0.27605400  1
  Te  Te74  1  0.58062600  0.43746600  0.71003900  1
  Te  Te75  1  0.42687700  0.29669400  0.38801100  1
  Te  Te76  1  0.31590600  0.89069000  0.88393200  1
  Te  Te77  1  0.81590600  0.10931000  0.61606800  1
  Te  Te78  1  0.36350000  0.61439100  0.77605400  1
  Te  Te79  1  0.68409400  0.10931000  0.11606800  1
  Te  Te80  1  0.81590600  0.60931000  0.88393200  1
  Te  Te81  1  0.18040900  0.43685900  0.38314900  1
  Te  Te82  1  0.92687700  0.20330600  0.38801100  1
  Te  Te83  1  0.50000000  0.00000000  0.50000000  1
