# generated using pymatgen
data_MnP4O11
_symmetry_space_group_name_H-M   'P 1'
_cell_length_a   12.71020100
_cell_length_b   8.43457200
_cell_length_c   11.58420076
_cell_angle_alpha   48.34067408
_cell_angle_beta   90.00000000
_cell_angle_gamma   90.00000000
_symmetry_Int_Tables_number   1
_chemical_formula_structural   MnP4O11
_chemical_formula_sum   'Mn4 P16 O44'
_cell_volume   927.82534617
_cell_formula_units_Z   4
loop_
 _symmetry_equiv_pos_site_id
 _symmetry_equiv_pos_as_xyz
  1  'x, y, z'
loop_
 _atom_site_type_symbol
 _atom_site_label
 _atom_site_symmetry_multiplicity
 _atom_site_fract_x
 _atom_site_fract_y
 _atom_site_fract_z
 _atom_site_occupancy
  Mn  Mn0  1  0.53283100  0.99262900  0.23633600  1
  Mn  Mn1  1  0.96716900  0.99262900  0.73633600  1
  Mn  Mn2  1  0.46716900  0.00737100  0.76366400  1
  Mn  Mn3  1  0.03283100  0.00737100  0.26366400  1
  P  P4  1  0.84615200  0.64960300  0.10306000  1
  P  P5  1  0.33507100  0.64851600  0.73353500  1
  P  P6  1  0.83507100  0.35148400  0.76646500  1
  P  P7  1  0.70981800  0.00139900  0.60155100  1
  P  P8  1  0.50373200  0.34328900  0.83796700  1
  P  P9  1  0.99626800  0.34328900  0.33796700  1
  P  P10  1  0.34615200  0.35039700  0.39694000  1
  P  P11  1  0.00373200  0.65671100  0.66203300  1
  P  P12  1  0.29018200  0.99860100  0.39844900  1
  P  P13  1  0.79018200  0.00139900  0.10155100  1
  P  P14  1  0.15384800  0.35039700  0.89694000  1
  P  P15  1  0.65384800  0.64960300  0.60306000  1
  P  P16  1  0.66492900  0.35148400  0.26646500  1
  P  P17  1  0.16492900  0.64851600  0.23353500  1
  P  P18  1  0.20981800  0.99860100  0.89844900  1
  P  P19  1  0.49626800  0.65671100  0.16203300  1
  O  O20  1  0.75440500  0.49131800  0.13745200  1
  O  O21  1  0.02918200  0.78326500  0.70535300  1
  O  O22  1  0.51239800  0.74663200  0.00141000  1
  O  O23  1  0.69408400  0.97220600  0.18546300  1
  O  O24  1  0.80591600  0.97220600  0.68546300  1
  O  O25  1  0.59452800  0.52990800  0.76206000  1
  O  O26  1  0.71781800  0.82941000  0.57789100  1
  O  O27  1  0.91267200  0.71510000  0.97405100  1
  O  O28  1  0.10196100  0.99927500  0.84930400  1
  O  O29  1  0.24559500  0.50868200  0.86254800  1
  O  O30  1  0.01239800  0.25336800  0.49859000  1
  O  O31  1  0.10381800  0.77141300  0.25796400  1
  O  O32  1  0.78218200  0.82941000  0.07789100  1
  O  O33  1  0.90547200  0.52990800  0.26206000  1
  O  O34  1  0.58732800  0.71510000  0.47405100  1
  O  O35  1  0.72991700  0.22109300  0.42114300  1
  O  O36  1  0.77008300  0.22109300  0.92114300  1
  O  O37  1  0.39618200  0.77141300  0.75796400  1
  O  O38  1  0.60196100  0.00072500  0.65069600  1
  O  O39  1  0.41267200  0.28490000  0.52594900  1
  O  O40  1  0.52918200  0.21673500  0.79464700  1
  O  O41  1  0.40031200  0.48883500  0.73357200  1
  O  O42  1  0.89803900  0.00072500  0.15069600  1
  O  O43  1  0.97081800  0.21673500  0.29464700  1
  O  O44  1  0.28218200  0.17059000  0.42210900  1
  O  O45  1  0.90031200  0.51116500  0.76642800  1
  O  O46  1  0.48760200  0.25336800  0.99859000  1
  O  O47  1  0.98760200  0.74663200  0.50141000  1
  O  O48  1  0.74559500  0.49131800  0.63745200  1
  O  O49  1  0.59968800  0.51116500  0.26642800  1
  O  O50  1  0.60381800  0.22858700  0.24203600  1
  O  O51  1  0.30591600  0.02779400  0.81453700  1
  O  O52  1  0.89618200  0.22858700  0.74203600  1
  O  O53  1  0.21781800  0.17059000  0.92210900  1
  O  O54  1  0.39803900  0.99927500  0.34930400  1
  O  O55  1  0.09968800  0.48883500  0.23357200  1
  O  O56  1  0.40547200  0.47009200  0.23794000  1
  O  O57  1  0.47081800  0.78326500  0.20535300  1
  O  O58  1  0.09452800  0.47009200  0.73794000  1
  O  O59  1  0.08732800  0.28490000  0.02594900  1
  O  O60  1  0.19408400  0.02779400  0.31453700  1
  O  O61  1  0.22991700  0.77890700  0.07885700  1
  O  O62  1  0.27008300  0.77890700  0.57885700  1
  O  O63  1  0.25440500  0.50868200  0.36254800  1
