# generated using pymatgen
data_Fe2NiP
_symmetry_space_group_name_H-M   'P 1'
_cell_length_a   6.70019570
_cell_length_b   6.70019570
_cell_length_c   6.70019570
_cell_angle_alpha   96.14187138
_cell_angle_beta   96.14187138
_cell_angle_gamma   141.81498496
_symmetry_Int_Tables_number   1
_chemical_formula_structural   Fe2NiP
_chemical_formula_sum   'Fe8 Ni4 P4'
_cell_volume   175.72010430
_cell_formula_units_Z   4
loop_
 _symmetry_equiv_pos_site_id
 _symmetry_equiv_pos_as_xyz
  1  'x, y, z'
loop_
 _atom_site_type_symbol
 _atom_site_label
 _atom_site_symmetry_multiplicity
 _atom_site_fract_x
 _atom_site_fract_y
 _atom_site_fract_z
 _atom_site_occupancy
  Fe  Fe0  1  0.15175800  0.33749800  0.02860600  1
  Fe  Fe1  1  0.04946600  0.37913500  0.39292000  1
  Fe  Fe2  1  0.87684700  0.84824200  0.18574000  1
  Fe  Fe3  1  0.66250200  0.69110800  0.81426000  1
  Fe  Fe4  1  0.98621500  0.65654600  0.60708000  1
  Fe  Fe5  1  0.30889200  0.12315300  0.97139400  1
  Fe  Fe6  1  0.34345400  0.95053400  0.32966900  1
  Fe  Fe7  1  0.62086500  0.01378500  0.67033100  1
  Ni  Ni8  1  0.46858300  0.42127000  0.39074700  1
  Ni  Ni9  1  0.92216400  0.53141700  0.95268800  1
  Ni  Ni10  1  0.57873000  0.96947600  0.04731200  1
  Ni  Ni11  1  0.03052400  0.07783600  0.60925300  1
  P  P12  1  0.46697600  0.22103200  0.66164200  1
  P  P13  1  0.77896800  0.44061000  0.24594400  1
  P  P14  1  0.55939000  0.80533400  0.33835800  1
  P  P15  1  0.19466600  0.53302400  0.75405600  1
