# generated using pymatgen
data_NbP2Se2Cl5
_symmetry_space_group_name_H-M   'P 1'
_cell_length_a   14.00933100
_cell_length_b   6.87766400
_cell_length_c   27.95096581
_cell_angle_alpha   79.71893292
_cell_angle_beta   90.00000000
_cell_angle_gamma   90.00000000
_symmetry_Int_Tables_number   1
_chemical_formula_structural   NbP2Se2Cl5
_chemical_formula_sum   'Nb8 P16 Se16 Cl40'
_cell_volume   2649.87618644
_cell_formula_units_Z   8
loop_
 _symmetry_equiv_pos_site_id
 _symmetry_equiv_pos_as_xyz
  1  'x, y, z'
loop_
 _atom_site_type_symbol
 _atom_site_label
 _atom_site_symmetry_multiplicity
 _atom_site_fract_x
 _atom_site_fract_y
 _atom_site_fract_z
 _atom_site_occupancy
  Nb  Nb0  1  0.60960300  0.02898100  0.29990800  1
  Nb  Nb1  1  0.70877300  0.25495400  0.52784000  1
  Nb  Nb2  1  0.10960300  0.97101900  0.20009200  1
  Nb  Nb3  1  0.39039700  0.97101900  0.70009200  1
  Nb  Nb4  1  0.29122700  0.74504600  0.47216000  1
  Nb  Nb5  1  0.89039700  0.02898100  0.79990800  1
  Nb  Nb6  1  0.20877300  0.74504600  0.97216000  1
  Nb  Nb7  1  0.79122700  0.25495400  0.02784000  1
  P  P8  1  0.83890800  0.33301000  0.59935600  1
  P  P9  1  0.91010000  0.24714300  0.70540200  1
  P  P10  1  0.92264800  0.52921300  0.38206000  1
  P  P11  1  0.33890800  0.66699000  0.90064400  1
  P  P12  1  0.42264800  0.47078700  0.11794000  1
  P  P13  1  0.08990000  0.75285700  0.29459800  1
  P  P14  1  0.42219400  0.91943800  0.85706800  1
  P  P15  1  0.16109200  0.66699000  0.40064400  1
  P  P16  1  0.07780600  0.91943800  0.35706800  1
  P  P17  1  0.66109200  0.33301000  0.09935600  1
  P  P18  1  0.07735200  0.47078700  0.61794000  1
  P  P19  1  0.41010000  0.75285700  0.79459800  1
  P  P20  1  0.57735200  0.52921300  0.88206000  1
  P  P21  1  0.57780600  0.08056200  0.14293200  1
  P  P22  1  0.92219400  0.08056200  0.64293200  1
  P  P23  1  0.58990000  0.24714300  0.20540200  1
  Se  Se24  1  0.55249000  0.57061700  0.07015500  1
  Se  Se25  1  0.07163000  0.13586700  0.61712700  1
  Se  Se26  1  0.05249000  0.42938300  0.42984500  1
  Se  Se27  1  0.53203000  0.53217500  0.80318000  1
  Se  Se28  1  0.92837000  0.86413300  0.38287300  1
  Se  Se29  1  0.44751000  0.42938300  0.92984500  1
  Se  Se30  1  0.57163000  0.86413300  0.88287300  1
  Se  Se31  1  0.72784800  0.38660400  0.17076900  1
  Se  Se32  1  0.27215200  0.61339600  0.82923100  1
  Se  Se33  1  0.42837000  0.13586700  0.11712700  1
  Se  Se34  1  0.46797000  0.46782500  0.19682000  1
  Se  Se35  1  0.77215200  0.38660400  0.67076900  1
  Se  Se36  1  0.94751000  0.57061700  0.57015500  1
  Se  Se37  1  0.22784800  0.61339600  0.32923100  1
  Se  Se38  1  0.03203000  0.46782500  0.69682000  1
  Se  Se39  1  0.96797000  0.53217500  0.30318000  1
  Cl  Cl40  1  0.39554400  0.58513600  0.42620100  1
  Cl  Cl41  1  0.39302700  0.81546100  0.53077800  1
  Cl  Cl42  1  0.01597500  0.71872900  0.17765400  1
  Cl  Cl43  1  0.69030100  0.96429500  0.58526600  1
  Cl  Cl44  1  0.03019400  0.89180500  0.77385700  1
  Cl  Cl45  1  0.14725000  0.87629700  0.49732300  1
  Cl  Cl46  1  0.63151200  0.83382000  0.37467200  1
  Cl  Cl47  1  0.51597500  0.28127100  0.32234600  1
  Cl  Cl48  1  0.48402500  0.71872900  0.67765400  1
  Cl  Cl49  1  0.60697300  0.18453900  0.46922200  1
  Cl  Cl50  1  0.53019400  0.10819500  0.72614300  1
  Cl  Cl51  1  0.20024200  0.16260100  0.24533800  1
  Cl  Cl52  1  0.29975800  0.16260100  0.74533800  1
  Cl  Cl53  1  0.64725000  0.12370300  0.00267700  1
  Cl  Cl54  1  0.25757300  0.75726500  0.70190200  1
  Cl  Cl55  1  0.13151200  0.16618000  0.12532800  1
  Cl  Cl56  1  0.24242700  0.75726500  0.20190200  1
  Cl  Cl57  1  0.35275000  0.87629700  0.99732300  1
  Cl  Cl58  1  0.74242700  0.24273500  0.29809800  1
  Cl  Cl59  1  0.76028400  0.56945500  0.48809200  1
  Cl  Cl60  1  0.36848800  0.16618000  0.62532800  1
  Cl  Cl61  1  0.86848800  0.83382000  0.87467200  1
  Cl  Cl62  1  0.75757300  0.24273500  0.79809800  1
  Cl  Cl63  1  0.85275000  0.12370300  0.50267700  1
  Cl  Cl64  1  0.73971600  0.56945500  0.98809200  1
  Cl  Cl65  1  0.70024200  0.83739900  0.25466200  1
  Cl  Cl66  1  0.89554400  0.41486400  0.07379900  1
  Cl  Cl67  1  0.19030100  0.03570500  0.91473400  1
  Cl  Cl68  1  0.96980600  0.10819500  0.22614300  1
  Cl  Cl69  1  0.98402500  0.28127100  0.82234600  1
  Cl  Cl70  1  0.26028400  0.43054500  0.01190800  1
  Cl  Cl71  1  0.80969900  0.96429500  0.08526600  1
  Cl  Cl72  1  0.10697300  0.81546100  0.03077800  1
  Cl  Cl73  1  0.46980600  0.89180500  0.27385700  1
  Cl  Cl74  1  0.23971600  0.43054500  0.51190800  1
  Cl  Cl75  1  0.30969900  0.03570500  0.41473400  1
  Cl  Cl76  1  0.89302700  0.18453900  0.96922200  1
  Cl  Cl77  1  0.79975800  0.83739900  0.75466200  1
  Cl  Cl78  1  0.10445600  0.58513600  0.92620100  1
  Cl  Cl79  1  0.60445600  0.41486400  0.57379900  1
