# generated using pymatgen
data_K2NaFeO3
_symmetry_space_group_name_H-M   'P 1'
_cell_length_a   6.34674000
_cell_length_b   9.30290281
_cell_length_c   9.30290094
_cell_angle_alpha   73.46344616
_cell_angle_beta   70.05410064
_cell_angle_gamma   70.05408025
_symmetry_Int_Tables_number   1
_chemical_formula_structural   K2NaFeO3
_chemical_formula_sum   'K8 Na4 Fe4 O12'
_cell_volume   476.47237865
_cell_formula_units_Z   4
loop_
 _symmetry_equiv_pos_site_id
 _symmetry_equiv_pos_as_xyz
  1  'x, y, z'
loop_
 _atom_site_type_symbol
 _atom_site_label
 _atom_site_symmetry_multiplicity
 _atom_site_fract_x
 _atom_site_fract_y
 _atom_site_fract_z
 _atom_site_occupancy
  K  K0  1  0.92103300  0.32895500  0.32895500  1
  K  K1  1  0.42103400  0.82895500  0.82895500  1
  K  K2  1  0.57896700  0.17104500  0.17104500  1
  K  K3  1  0.07896600  0.67104500  0.67104500  1
  K  K4  1  0.49999900  0.25000000  0.75000000  1
  K  K5  1  0.00000100  0.75000000  0.25000000  1
  K  K6  1  0.00000100  0.25000000  0.75000000  1
  K  K7  1  0.49999900  0.75000000  0.25000000  1
  Na  Na8  1  0.75000000  0.49999900  0.00000100  1
  Na  Na9  1  0.25000000  0.00000100  0.49999900  1
  Na  Na10  1  0.25000000  0.49999900  0.00000100  1
  Na  Na11  1  0.75000000  0.00000100  0.49999900  1
  Fe  Fe12  1  0.66711000  0.58288900  0.58288900  1
  Fe  Fe13  1  0.83289000  0.91711100  0.91711000  1
  Fe  Fe14  1  0.16708100  0.08291800  0.08291800  1
  Fe  Fe15  1  0.33291900  0.41708200  0.41708200  1
  O  O16  1  0.50000400  0.00000000  0.00000000  1
  O  O17  1  0.99999700  0.50000000  0.50000000  1
  O  O18  1  0.99999600  0.00000000  0.00000000  1
  O  O19  1  0.50000400  0.50000000  0.50000000  1
  O  O20  1  0.40715800  0.48600900  0.19968200  1
  O  O21  1  0.90715700  0.98600900  0.69968200  1
  O  O22  1  0.90715700  0.69968200  0.98600900  1
  O  O23  1  0.40715800  0.19968200  0.48600900  1
  O  O24  1  0.59284300  0.51399100  0.80031800  1
  O  O25  1  0.09284200  0.01399100  0.30031800  1
  O  O26  1  0.09284300  0.30031800  0.01399100  1
  O  O27  1  0.59284300  0.80031800  0.51399100  1
