# generated using pymatgen
data_BaTa2O6
_symmetry_space_group_name_H-M   'P 1'
_cell_length_a   21.43814373
_cell_length_b   21.43814373
_cell_length_c   3.97948100
_cell_angle_alpha   90.00000000
_cell_angle_beta   90.00000000
_cell_angle_gamma   119.99999916
_symmetry_Int_Tables_number   1
_chemical_formula_structural   BaTa2O6
_chemical_formula_sum   'Ba12 Ta24 O72'
_cell_volume   1583.91337951
_cell_formula_units_Z   12
loop_
 _symmetry_equiv_pos_site_id
 _symmetry_equiv_pos_as_xyz
  1  'x, y, z'
loop_
 _atom_site_type_symbol
 _atom_site_label
 _atom_site_symmetry_multiplicity
 _atom_site_fract_x
 _atom_site_fract_y
 _atom_site_fract_z
 _atom_site_occupancy
  Ba  Ba0  1  0.81780600  0.63561200  0.00000000  1
  Ba  Ba1  1  0.33333300  0.66666700  0.00000000  1
  Ba  Ba2  1  0.50000000  0.50000000  0.00000000  1
  Ba  Ba3  1  0.66666700  0.33333300  0.00000000  1
  Ba  Ba4  1  0.81780600  0.18219400  0.00000000  1
  Ba  Ba5  1  0.18219400  0.36438800  0.00000000  1
  Ba  Ba6  1  0.50000000  0.00000000  0.00000000  1
  Ba  Ba7  1  0.63561200  0.81780600  0.00000000  1
  Ba  Ba8  1  0.00000000  0.00000000  0.50000000  1
  Ba  Ba9  1  0.18219400  0.81780600  0.00000000  1
  Ba  Ba10  1  0.00000000  0.50000000  0.00000000  1
  Ba  Ba11  1  0.36438800  0.18219400  0.00000000  1
  Ta  Ta12  1  0.16376000  0.50725400  0.50000000  1
  Ta  Ta13  1  0.30822500  0.00000000  0.50000000  1
  Ta  Ta14  1  0.00000000  0.30822500  0.50000000  1
  Ta  Ta15  1  0.69177500  0.69177500  0.50000000  1
  Ta  Ta16  1  0.20349100  0.10174500  0.50000000  1
  Ta  Ta17  1  0.83624000  0.49274600  0.50000000  1
  Ta  Ta18  1  0.69177500  0.00000000  0.50000000  1
  Ta  Ta19  1  0.16376000  0.65650700  0.50000000  1
  Ta  Ta20  1  0.79650900  0.89825500  0.50000000  1
  Ta  Ta21  1  0.89825500  0.10174500  0.50000000  1
  Ta  Ta22  1  0.00000000  0.69177500  0.50000000  1
  Ta  Ta23  1  0.50725400  0.34349300  0.50000000  1
  Ta  Ta24  1  0.65650700  0.49274600  0.50000000  1
  Ta  Ta25  1  0.65650700  0.16376000  0.50000000  1
  Ta  Ta26  1  0.34349300  0.83624000  0.50000000  1
  Ta  Ta27  1  0.34349300  0.50725400  0.50000000  1
  Ta  Ta28  1  0.49274600  0.65650700  0.50000000  1
  Ta  Ta29  1  0.49274600  0.83624000  0.50000000  1
  Ta  Ta30  1  0.10174500  0.20349100  0.50000000  1
  Ta  Ta31  1  0.83624000  0.34349300  0.50000000  1
  Ta  Ta32  1  0.89825500  0.79650900  0.50000000  1
  Ta  Ta33  1  0.30822500  0.30822500  0.50000000  1
  Ta  Ta34  1  0.10174500  0.89825500  0.50000000  1
  Ta  Ta35  1  0.50725400  0.16376000  0.50000000  1
  O  O36  1  0.49317000  0.66175300  0.00000000  1
  O  O37  1  0.83141700  0.49317000  0.00000000  1
  O  O38  1  0.10522300  0.89477700  0.00000000  1
  O  O39  1  0.20580500  0.28387500  0.50000000  1
  O  O40  1  0.89477700  0.78955300  0.00000000  1
  O  O41  1  0.07807000  0.79419500  0.50000000  1
  O  O42  1  0.23747700  0.76252300  0.50000000  1
  O  O43  1  0.92084600  0.58726500  0.50000000  1
  O  O44  1  0.00000000  0.87373100  0.50000000  1
  O  O45  1  0.10522300  0.21044700  0.00000000  1
  O  O46  1  0.00000000  0.31085100  0.00000000  1
  O  O47  1  0.23747700  0.47495400  0.50000000  1
  O  O48  1  0.38369700  0.61630300  0.50000000  1
  O  O49  1  0.07807000  0.28387500  0.50000000  1
  O  O50  1  0.41273500  0.07915400  0.50000000  1
  O  O51  1  0.33358100  0.41273500  0.50000000  1
  O  O52  1  0.66641900  0.58726500  0.50000000  1
  O  O53  1  0.83141700  0.33824700  0.00000000  1
  O  O54  1  0.58726500  0.66641900  0.50000000  1
  O  O55  1  0.76252300  0.23747700  0.50000000  1
  O  O56  1  0.79419500  0.71612500  0.50000000  1
  O  O57  1  0.09505900  0.54753000  0.50000000  1
  O  O58  1  0.71612500  0.79419500  0.50000000  1
  O  O59  1  0.33358100  0.92084600  0.50000000  1
  O  O60  1  0.31085100  0.31085100  0.00000000  1
  O  O61  1  0.49317000  0.83141700  0.00000000  1
  O  O62  1  0.45247000  0.54753000  0.50000000  1
  O  O63  1  0.89477700  0.10522300  0.00000000  1
  O  O64  1  0.92084600  0.33358100  0.50000000  1
  O  O65  1  0.79419500  0.07807000  0.50000000  1
  O  O66  1  0.71612500  0.92193000  0.50000000  1
  O  O67  1  0.07915400  0.41273500  0.50000000  1
  O  O68  1  0.33824700  0.50683000  0.00000000  1
  O  O69  1  0.41273500  0.33358100  0.50000000  1
  O  O70  1  0.00000000  0.12626900  0.50000000  1
  O  O71  1  0.16858300  0.66175300  0.00000000  1
  O  O72  1  0.54753000  0.45247000  0.50000000  1
  O  O73  1  0.38369700  0.76739500  0.50000000  1
  O  O74  1  0.87373100  0.00000000  0.50000000  1
  O  O75  1  0.16858300  0.50683000  0.00000000  1
  O  O76  1  0.68914900  0.68914900  0.00000000  1
  O  O77  1  0.28387500  0.20580500  0.50000000  1
  O  O78  1  0.23260500  0.61630300  0.50000000  1
  O  O79  1  0.28387500  0.07807000  0.50000000  1
  O  O80  1  0.68914900  0.00000000  0.00000000  1
  O  O81  1  0.76739500  0.38369700  0.50000000  1
  O  O82  1  0.47495400  0.23747700  0.50000000  1
  O  O83  1  0.45247000  0.90494100  0.50000000  1
  O  O84  1  0.66641900  0.07915400  0.50000000  1
  O  O85  1  0.58726500  0.92084600  0.50000000  1
  O  O86  1  0.90494100  0.45247000  0.50000000  1
  O  O87  1  0.87373100  0.87373100  0.50000000  1
  O  O88  1  0.50683000  0.33824700  0.00000000  1
  O  O89  1  0.76252300  0.52504600  0.50000000  1
  O  O90  1  0.66175300  0.16858300  0.00000000  1
  O  O91  1  0.12626900  0.12626900  0.50000000  1
  O  O92  1  0.92193000  0.71612500  0.50000000  1
  O  O93  1  0.61630300  0.38369700  0.50000000  1
  O  O94  1  0.92193000  0.20580500  0.50000000  1
  O  O95  1  0.00000000  0.68914900  0.00000000  1
  O  O96  1  0.61630300  0.23260500  0.50000000  1
  O  O97  1  0.78955300  0.89477700  0.00000000  1
  O  O98  1  0.31085100  0.00000000  0.00000000  1
  O  O99  1  0.52504600  0.76252300  0.50000000  1
  O  O100  1  0.54753000  0.09505900  0.50000000  1
  O  O101  1  0.20580500  0.92193000  0.50000000  1
  O  O102  1  0.12626900  0.00000000  0.50000000  1
  O  O103  1  0.66175300  0.49317000  0.00000000  1
  O  O104  1  0.07915400  0.66641900  0.50000000  1
  O  O105  1  0.21044700  0.10522300  0.00000000  1
  O  O106  1  0.50683000  0.16858300  0.00000000  1
  O  O107  1  0.33824700  0.83141700  0.00000000  1
