# generated using pymatgen
data_RbB5O8
_symmetry_space_group_name_H-M   'P 1'
_cell_length_a   7.82908200
_cell_length_b   12.07429100
_cell_length_c   14.99579400
_cell_angle_alpha   90.00000000
_cell_angle_beta   90.00000000
_cell_angle_gamma   90.00000000
_symmetry_Int_Tables_number   1
_chemical_formula_structural   RbB5O8
_chemical_formula_sum   'Rb8 B40 O64'
_cell_volume   1417.56161920
_cell_formula_units_Z   8
loop_
 _symmetry_equiv_pos_site_id
 _symmetry_equiv_pos_as_xyz
  1  'x, y, z'
loop_
 _atom_site_type_symbol
 _atom_site_label
 _atom_site_symmetry_multiplicity
 _atom_site_fract_x
 _atom_site_fract_y
 _atom_site_fract_z
 _atom_site_occupancy
  Rb  Rb0  1  0.43256400  0.70803800  0.12111700  1
  Rb  Rb1  1  0.06743600  0.29196200  0.62111700  1
  Rb  Rb2  1  0.43256400  0.79196200  0.62111700  1
  Rb  Rb3  1  0.06743600  0.20803800  0.12111700  1
  Rb  Rb4  1  0.93256400  0.79196200  0.87888300  1
  Rb  Rb5  1  0.56743600  0.20803800  0.37888300  1
  Rb  Rb6  1  0.93256400  0.70803800  0.37888300  1
  Rb  Rb7  1  0.56743600  0.29196200  0.87888300  1
  B  B8  1  0.69294000  0.42702700  0.54511500  1
  B  B9  1  0.01494900  0.97134400  0.65650600  1
  B  B10  1  0.51494900  0.52865600  0.34349400  1
  B  B11  1  0.80706000  0.57297300  0.04511500  1
  B  B12  1  0.01494900  0.52865600  0.15650600  1
  B  B13  1  0.90222200  0.40369800  0.41966800  1
  B  B14  1  0.45213200  0.72742200  0.37394100  1
  B  B15  1  0.98505100  0.47134400  0.84349400  1
  B  B16  1  0.59777800  0.90369800  0.41966800  1
  B  B17  1  0.48505100  0.47134400  0.65650600  1
  B  B18  1  0.59777800  0.59630200  0.91966800  1
  B  B19  1  0.04786800  0.22742200  0.37394100  1
  B  B20  1  0.95213200  0.72742200  0.12605900  1
  B  B21  1  0.06974300  0.09888800  0.78704600  1
  B  B22  1  0.19294000  0.07297300  0.45488500  1
  B  B23  1  0.56974300  0.09888800  0.71295400  1
  B  B24  1  0.80706000  0.92702700  0.54511500  1
  B  B25  1  0.56974300  0.40111200  0.21295400  1
  B  B26  1  0.98505100  0.02865600  0.34349400  1
  B  B27  1  0.40222200  0.40369800  0.08033200  1
  B  B28  1  0.93025700  0.90111200  0.21295400  1
  B  B29  1  0.48505100  0.02865600  0.15650600  1
  B  B30  1  0.54786800  0.22742200  0.12605900  1
  B  B31  1  0.69294000  0.07297300  0.04511500  1
  B  B32  1  0.19294000  0.42702700  0.95488500  1
  B  B33  1  0.54786800  0.27257800  0.62605900  1
  B  B34  1  0.93025700  0.59888800  0.71295400  1
  B  B35  1  0.43025700  0.59888800  0.78704600  1
  B  B36  1  0.06974300  0.40111200  0.28704600  1
  B  B37  1  0.95213200  0.77257800  0.62605900  1
  B  B38  1  0.04786800  0.27257800  0.87394100  1
  B  B39  1  0.30706000  0.57297300  0.45488500  1
  B  B40  1  0.90222200  0.09630200  0.91966800  1
  B  B41  1  0.09777800  0.59630200  0.58033200  1
  B  B42  1  0.43025700  0.90111200  0.28704600  1
  B  B43  1  0.30706000  0.92702700  0.95488500  1
  B  B44  1  0.09777800  0.90369800  0.08033200  1
  B  B45  1  0.51494900  0.97134400  0.84349400  1
  B  B46  1  0.40222200  0.09630200  0.58033200  1
  B  B47  1  0.45213200  0.77257800  0.87394100  1
  O  O48  1  0.68004700  0.31800000  0.56605800  1
  O  O49  1  0.31995300  0.68200000  0.43394200  1
  O  O50  1  0.02281300  0.96268800  0.15023400  1
  O  O51  1  0.90304800  0.94491800  0.29637700  1
  O  O52  1  0.60071700  0.50709600  0.59157100  1
  O  O53  1  0.97718700  0.46268800  0.34976600  1
  O  O54  1  0.37408900  0.79680300  0.30399100  1
  O  O55  1  0.57304500  0.79322000  0.42897800  1
  O  O56  1  0.40304800  0.94491800  0.20362300  1
  O  O57  1  0.87408900  0.70319700  0.69600900  1
  O  O58  1  0.52281300  0.96268800  0.34976600  1
  O  O59  1  0.42695500  0.29322000  0.07102200  1
  O  O60  1  0.68004700  0.18200000  0.06605800  1
  O  O61  1  0.62591100  0.20319700  0.69600900  1
  O  O62  1  0.39928300  0.00709600  0.90842900  1
  O  O63  1  0.09695200  0.05508200  0.70362300  1
  O  O64  1  0.47718700  0.03731200  0.65023400  1
  O  O65  1  0.80060200  0.03501100  0.97767400  1
  O  O66  1  0.07304500  0.70678000  0.57102200  1
  O  O67  1  0.95148700  0.36301200  0.82862700  1
  O  O68  1  0.62591100  0.29680300  0.19600900  1
  O  O69  1  0.18004700  0.31800000  0.93394200  1
  O  O70  1  0.30060300  0.03501100  0.52232600  1
  O  O71  1  0.59695200  0.05508200  0.79637700  1
  O  O72  1  0.80060200  0.46498900  0.47767400  1
  O  O73  1  0.12591100  0.20319700  0.80399100  1
  O  O74  1  0.02281300  0.53731200  0.65023400  1
  O  O75  1  0.52281300  0.53731200  0.84976600  1
  O  O76  1  0.87408900  0.79680300  0.19600900  1
  O  O77  1  0.07304500  0.79322000  0.07102200  1
  O  O78  1  0.92695500  0.29322000  0.42897800  1
  O  O79  1  0.04851300  0.86301200  0.67137300  1
  O  O80  1  0.37408900  0.70319700  0.80399100  1
  O  O81  1  0.54851300  0.86301200  0.82862700  1
  O  O82  1  0.69939800  0.96498900  0.47767400  1
  O  O83  1  0.39928300  0.49290400  0.40842900  1
  O  O84  1  0.92695500  0.20678000  0.92897800  1
  O  O85  1  0.54851300  0.63698800  0.32862700  1
  O  O86  1  0.60071700  0.99290400  0.09157100  1
  O  O87  1  0.57304500  0.70678000  0.92897800  1
  O  O88  1  0.31995300  0.81800000  0.93394200  1
  O  O89  1  0.10071700  0.99290400  0.40842900  1
  O  O90  1  0.12591100  0.29680300  0.30399100  1
  O  O91  1  0.19939800  0.96498900  0.02232600  1
  O  O92  1  0.81995300  0.81800000  0.56605800  1
  O  O93  1  0.47718700  0.46268800  0.15023400  1
  O  O94  1  0.30060300  0.46498900  0.02232600  1
  O  O95  1  0.04851300  0.63698800  0.17137300  1
  O  O96  1  0.97718700  0.03731200  0.84976600  1
  O  O97  1  0.90304800  0.55508200  0.79637700  1
  O  O98  1  0.81995300  0.68200000  0.06605800  1
  O  O99  1  0.95148700  0.13698800  0.32862700  1
  O  O100  1  0.69939800  0.53501100  0.97767400  1
  O  O101  1  0.40304800  0.55508200  0.70362300  1
  O  O102  1  0.10071700  0.50709600  0.90842900  1
  O  O103  1  0.59695200  0.44491800  0.29637700  1
  O  O104  1  0.18004700  0.18200000  0.43394200  1
  O  O105  1  0.42695500  0.20678000  0.57102200  1
  O  O106  1  0.45148700  0.13698800  0.17137300  1
  O  O107  1  0.89928300  0.49290400  0.09157100  1
  O  O108  1  0.89928300  0.00709600  0.59157100  1
  O  O109  1  0.09695200  0.44491800  0.20362300  1
  O  O110  1  0.45148700  0.36301200  0.67137300  1
  O  O111  1  0.19939800  0.53501100  0.52232600  1
