# generated using pymatgen
data_Ba5Er2ZrAl2O13
_symmetry_space_group_name_H-M   'P 1'
_cell_length_a   6.01733614
_cell_length_b   6.01733614
_cell_length_c   25.17070900
_cell_angle_alpha   90.00000000
_cell_angle_beta   90.00000000
_cell_angle_gamma   120.00000153
_symmetry_Int_Tables_number   1
_chemical_formula_structural   Ba5Er2ZrAl2O13
_chemical_formula_sum   'Ba10 Er4 Zr2 Al4 O26'
_cell_volume   789.28639895
_cell_formula_units_Z   2
loop_
 _symmetry_equiv_pos_site_id
 _symmetry_equiv_pos_as_xyz
  1  'x, y, z'
loop_
 _atom_site_type_symbol
 _atom_site_label
 _atom_site_symmetry_multiplicity
 _atom_site_fract_x
 _atom_site_fract_y
 _atom_site_fract_z
 _atom_site_occupancy
  Ba  Ba0  1  0.00000000  0.00000000  0.36274900  1
  Ba  Ba1  1  0.66666700  0.33333300  0.95858000  1
  Ba  Ba2  1  0.00000000  0.00000000  0.63725100  1
  Ba  Ba3  1  0.00000000  0.00000000  0.86274900  1
  Ba  Ba4  1  0.66666700  0.33333300  0.54142000  1
  Ba  Ba5  1  0.33333300  0.66666700  0.45858000  1
  Ba  Ba6  1  0.00000000  0.00000000  0.13725100  1
  Ba  Ba7  1  0.33333300  0.66666700  0.04142000  1
  Ba  Ba8  1  0.66666700  0.33333300  0.25000000  1
  Ba  Ba9  1  0.33333300  0.66666700  0.75000000  1
  Er  Er10  1  0.66666700  0.33333300  0.10392300  1
  Er  Er11  1  0.33333300  0.66666700  0.89607700  1
  Er  Er12  1  0.33333300  0.66666700  0.60392300  1
  Er  Er13  1  0.66666700  0.33333300  0.39607700  1
  Zr  Zr14  1  0.00000000  0.00000000  0.50000000  1
  Zr  Zr15  1  0.00000000  0.00000000  0.00000000  1
  Al  Al16  1  0.66666700  0.33333300  0.81907800  1
  Al  Al17  1  0.33333300  0.66666700  0.18092200  1
  Al  Al18  1  0.66666700  0.33333300  0.68092200  1
  Al  Al19  1  0.33333300  0.66666700  0.31907800  1
  O  O20  1  0.83681600  0.67363100  0.05037600  1
  O  O21  1  0.83681600  0.67363100  0.44962400  1
  O  O22  1  0.16318400  0.83681600  0.94962400  1
  O  O23  1  0.16318400  0.32636900  0.55037600  1
  O  O24  1  0.50517500  0.49482500  0.84194100  1
  O  O25  1  0.83681600  0.16318400  0.05037600  1
  O  O26  1  0.49482500  0.98964900  0.15805900  1
  O  O27  1  0.01035100  0.50517500  0.15805900  1
  O  O28  1  0.83681600  0.16318400  0.44962400  1
  O  O29  1  0.32636900  0.16318400  0.05037600  1
  O  O30  1  0.98964900  0.49482500  0.65805900  1
  O  O31  1  0.50517500  0.01035100  0.65805900  1
  O  O32  1  0.01035100  0.50517500  0.34194100  1
  O  O33  1  0.67363100  0.83681600  0.55037600  1
  O  O34  1  0.66666700  0.33333300  0.75000000  1
  O  O35  1  0.49482500  0.50517500  0.34194100  1
  O  O36  1  0.67363100  0.83681600  0.94962400  1
  O  O37  1  0.50517500  0.01035100  0.84194100  1
  O  O38  1  0.98964900  0.49482500  0.84194100  1
  O  O39  1  0.50517500  0.49482500  0.65805900  1
  O  O40  1  0.16318400  0.83681600  0.55037600  1
  O  O41  1  0.16318400  0.32636900  0.94962400  1
  O  O42  1  0.49482500  0.50517500  0.15805900  1
  O  O43  1  0.32636900  0.16318400  0.44962400  1
  O  O44  1  0.33333300  0.66666700  0.25000000  1
  O  O45  1  0.49482500  0.98964900  0.34194100  1
