# generated using pymatgen
data_Ca3V2O8
_symmetry_space_group_name_H-M   'P 1'
_cell_length_a   14.24419207
_cell_length_b   14.24419207
_cell_length_c   14.24419201
_cell_angle_alpha   45.14381671
_cell_angle_beta   45.14381671
_cell_angle_gamma   45.14381493
_symmetry_Int_Tables_number   1
_chemical_formula_structural   Ca3V2O8
_chemical_formula_sum   'Ca21 V14 O56'
_cell_volume   1322.26283042
_cell_formula_units_Z   7
loop_
 _symmetry_equiv_pos_site_id
 _symmetry_equiv_pos_as_xyz
  1  'x, y, z'
loop_
 _atom_site_type_symbol
 _atom_site_label
 _atom_site_symmetry_multiplicity
 _atom_site_fract_x
 _atom_site_fract_y
 _atom_site_fract_z
 _atom_site_occupancy
  Ca  Ca0  1  0.26615700  0.26615700  0.26615700  1
  Ca  Ca1  1  0.61188200  0.20080300  0.19585700  1
  Ca  Ca2  1  0.20080300  0.19585700  0.61188200  1
  Ca  Ca3  1  0.19585700  0.61188200  0.20080300  1
  Ca  Ca4  1  0.72149800  0.27561200  0.32122900  1
  Ca  Ca5  1  0.27561200  0.32122900  0.72149800  1
  Ca  Ca6  1  0.70065600  0.11032000  0.69815700  1
  Ca  Ca7  1  0.32122900  0.72149800  0.27561200  1
  Ca  Ca8  1  0.36092000  0.31909300  0.92015700  1
  Ca  Ca9  1  0.92015700  0.36092000  0.31909300  1
  Ca  Ca10  1  0.69815700  0.70065600  0.11032000  1
  Ca  Ca11  1  0.11032000  0.69815700  0.70065600  1
  Ca  Ca12  1  0.80006100  0.20260700  0.82836800  1
  Ca  Ca13  1  0.57537000  0.57537000  0.57537000  1
  Ca  Ca14  1  0.31909300  0.92015700  0.36092000  1
  Ca  Ca15  1  0.82836800  0.80006100  0.20260700  1
  Ca  Ca16  1  0.20260700  0.82836800  0.80006100  1
  Ca  Ca17  1  0.85916200  0.42010500  0.82616900  1
  Ca  Ca18  1  0.42010500  0.82616900  0.85916200  1
  Ca  Ca19  1  0.82616900  0.85916200  0.42010500  1
  Ca  Ca20  1  0.76721000  0.76721000  0.76721000  1
  V  V21  1  0.00024700  0.00024700  0.00024700  1
  V  V22  1  0.58421000  0.03656500  0.08576100  1
  V  V23  1  0.03656500  0.08576100  0.58421000  1
  V  V24  1  0.08576100  0.58421000  0.03656500  1
  V  V25  1  0.53771900  0.08449000  0.58423400  1
  V  V26  1  0.58423400  0.53771900  0.08449000  1
  V  V27  1  0.08449000  0.58423400  0.53771900  1
  V  V28  1  0.49859800  0.49859800  0.49859800  1
  V  V29  1  0.50163700  0.46271700  0.93283400  1
  V  V30  1  0.93283400  0.50163700  0.46271700  1
  V  V31  1  0.46271700  0.93283400  0.50163700  1
  V  V32  1  0.99507900  0.44535900  0.96009300  1
  V  V33  1  0.44535900  0.96009300  0.99507900  1
  V  V34  1  0.96009300  0.99507900  0.44535900  1
  O  O35  1  0.39594000  0.12473900  0.15020600  1
  O  O36  1  0.12473900  0.15020600  0.39594000  1
  O  O37  1  0.15020600  0.39594000  0.12473900  1
  O  O38  1  0.65452700  0.08749300  0.09690400  1
  O  O39  1  0.08749300  0.09690400  0.65452700  1
  O  O40  1  0.40333300  0.11767300  0.39038300  1
  O  O41  1  0.86243000  0.00189500  0.16964000  1
  O  O42  1  0.11767300  0.39038300  0.40333300  1
  O  O43  1  0.39038300  0.40333300  0.11767300  1
  O  O44  1  0.09690400  0.65452700  0.08749300  1
  O  O45  1  0.00189500  0.16964000  0.86243000  1
  O  O46  1  0.59033400  0.15161300  0.40268900  1
  O  O47  1  0.35307700  0.12914100  0.69058900  1
  O  O48  1  0.88994500  0.00715300  0.37560500  1
  O  O49  1  0.15161300  0.40268900  0.59033400  1
  O  O50  1  0.69058900  0.35307700  0.12914100  1
  O  O51  1  0.40268900  0.59033400  0.15161300  1
  O  O52  1  0.16964000  0.86243000  0.00189500  1
  O  O53  1  0.58847100  0.15403700  0.59606500  1
  O  O54  1  0.00715300  0.37560500  0.88994500  1
  O  O55  1  0.12914100  0.69058900  0.35307700  1
  O  O56  1  0.37298900  0.14774600  0.91522900  1
  O  O57  1  0.86823600  0.17083700  0.43143100  1
  O  O58  1  0.45405900  0.45405900  0.45405900  1
  O  O59  1  0.59606500  0.58847100  0.15403700  1
  O  O60  1  0.15403700  0.59606500  0.58847100  1
  O  O61  1  0.91522900  0.37298900  0.14774600  1
  O  O62  1  0.37560500  0.88994500  0.00715300  1
  O  O63  1  0.17083700  0.43143100  0.86823600  1
  O  O64  1  0.65115100  0.09125300  0.90454200  1
  O  O65  1  0.51430600  0.37015200  0.66415300  1
  O  O66  1  0.66415300  0.51430600  0.37015200  1
  O  O67  1  0.85163700  0.19272500  0.63256900  1
  O  O68  1  0.37015200  0.66415300  0.51430600  1
  O  O69  1  0.14774600  0.91522900  0.37298900  1
  O  O70  1  0.43143100  0.86823600  0.17083700  1
  O  O71  1  0.90454200  0.65115100  0.09125300  1
  O  O72  1  0.19272500  0.63256900  0.85163700  1
  O  O73  1  0.52469500  0.41700500  0.82904900  1
  O  O74  1  0.82904900  0.52469500  0.41700500  1
  O  O75  1  0.09125300  0.90454200  0.65115100  1
  O  O76  1  0.63256900  0.85163700  0.19272500  1
  O  O77  1  0.86092700  0.43221900  0.64734500  1
  O  O78  1  0.67093200  0.36432200  0.93328700  1
  O  O79  1  0.41700500  0.82904900  0.52469500  1
  O  O80  1  0.43221900  0.64734500  0.86092700  1
  O  O81  1  0.93328700  0.67093200  0.36432200  1
  O  O82  1  0.64734500  0.86092700  0.43221900  1
  O  O83  1  0.36432200  0.93328700  0.67093200  1
  O  O84  1  0.65092200  0.62526200  0.89638700  1
  O  O85  1  0.89638700  0.65092200  0.62526200  1
  O  O86  1  0.62526200  0.89638700  0.65092200  1
  O  O87  1  0.89298300  0.63256800  0.90060500  1
  O  O88  1  0.90060500  0.89298300  0.63256800  1
  O  O89  1  0.63256800  0.90060500  0.89298300  1
  O  O90  1  0.95460100  0.95460100  0.95460100  1
