# generated using pymatgen
data_P2RhClF6
_symmetry_space_group_name_H-M   'P 1'
_cell_length_a   10.17607300
_cell_length_b   10.70566900
_cell_length_c   15.10944503
_cell_angle_alpha   66.80353411
_cell_angle_beta   90.00000000
_cell_angle_gamma   90.00000000
_symmetry_Int_Tables_number   1
_chemical_formula_structural   P2RhClF6
_chemical_formula_sum   'P16 Rh8 Cl8 F48'
_cell_volume   1512.98103112
_cell_formula_units_Z   8
loop_
 _symmetry_equiv_pos_site_id
 _symmetry_equiv_pos_as_xyz
  1  'x, y, z'
loop_
 _atom_site_type_symbol
 _atom_site_label
 _atom_site_symmetry_multiplicity
 _atom_site_fract_x
 _atom_site_fract_y
 _atom_site_fract_z
 _atom_site_occupancy
  P  P0  1  0.24212900  0.02077200  0.95205100  1
  P  P1  1  0.06111800  0.61897100  0.29979700  1
  P  P2  1  0.72349900  0.45731700  0.53281600  1
  P  P3  1  0.03711300  0.10004800  0.29168600  1
  P  P4  1  0.25787100  0.02077200  0.45205100  1
  P  P5  1  0.43888200  0.61897100  0.79979700  1
  P  P6  1  0.46288700  0.10004800  0.79168600  1
  P  P7  1  0.27650100  0.54268300  0.46718400  1
  P  P8  1  0.75787100  0.97922800  0.04794900  1
  P  P9  1  0.96288700  0.89995200  0.70831400  1
  P  P10  1  0.22349900  0.54268300  0.96718400  1
  P  P11  1  0.74212900  0.97922800  0.54794900  1
  P  P12  1  0.53711300  0.89995200  0.20831400  1
  P  P13  1  0.93888200  0.38102900  0.70020300  1
  P  P14  1  0.56111800  0.38102900  0.20020300  1
  P  P15  1  0.77650100  0.45731700  0.03281600  1
  Rh  Rh16  1  0.09118800  0.64769400  0.43168100  1
  Rh  Rh17  1  0.57917400  0.06678300  0.07401700  1
  Rh  Rh18  1  0.07917400  0.93321700  0.42598300  1
  Rh  Rh19  1  0.92082600  0.06678300  0.57401700  1
  Rh  Rh20  1  0.59118800  0.35230600  0.06831900  1
  Rh  Rh21  1  0.90881200  0.35230600  0.56831900  1
  Rh  Rh22  1  0.42082600  0.93321700  0.92598300  1
  Rh  Rh23  1  0.40881200  0.64769400  0.93168100  1
  Cl  Cl24  1  0.37636100  0.72281300  0.06113600  1
  Cl  Cl25  1  0.62363900  0.27718700  0.93886400  1
  Cl  Cl26  1  0.59362300  0.80065800  0.89475500  1
  Cl  Cl27  1  0.09362300  0.19934200  0.60524500  1
  Cl  Cl28  1  0.40637700  0.19934200  0.10524500  1
  Cl  Cl29  1  0.87636100  0.27718700  0.43886400  1
  Cl  Cl30  1  0.90637700  0.80065800  0.39475500  1
  Cl  Cl31  1  0.12363900  0.72281300  0.56113600  1
  F  F32  1  0.90243400  0.36351900  0.05479200  1
  F  F33  1  0.29829200  0.99013800  0.55894300  1
  F  F34  1  0.67475500  0.55837100  0.57818100  1
  F  F35  1  0.78604100  0.82218500  0.09369400  1
  F  F36  1  0.11153600  0.97135800  0.91967300  1
  F  F37  1  0.59073200  0.75224900  0.23359300  1
  F  F38  1  0.38846400  0.97135800  0.41967300  1
  F  F39  1  0.41743200  0.40851200  0.22689400  1
  F  F40  1  0.71395900  0.82218500  0.59369400  1
  F  F41  1  0.79829200  0.00986200  0.94105700  1
  F  F42  1  0.69315900  0.54634000  0.42382000  1
  F  F43  1  0.17475500  0.44162900  0.92181900  1
  F  F44  1  0.86388700  0.49224800  0.72405300  1
  F  F45  1  0.90926800  0.75224900  0.73359300  1
  F  F46  1  0.80684100  0.54634000  0.92382000  1
  F  F47  1  0.09756600  0.63648100  0.94520800  1
  F  F48  1  0.82524500  0.55837100  0.07818100  1
  F  F49  1  0.28604100  0.17781500  0.40630600  1
  F  F50  1  0.09073200  0.24775100  0.26640700  1
  F  F51  1  0.40243400  0.63648100  0.44520800  1
  F  F52  1  0.41700800  0.08278000  0.69766900  1
  F  F53  1  0.88842500  0.13579400  0.26383100  1
  F  F54  1  0.88846400  0.02864200  0.08032700  1
  F  F55  1  0.91743200  0.59148800  0.27310600  1
  F  F56  1  0.11157500  0.86420600  0.73616900  1
  F  F57  1  0.32524500  0.44162900  0.42181900  1
  F  F58  1  0.38842500  0.86420600  0.23616900  1
  F  F59  1  0.70170800  0.00986200  0.44105700  1
  F  F60  1  0.58299200  0.91722000  0.30233100  1
  F  F61  1  0.13611300  0.50775200  0.27594700  1
  F  F62  1  0.19315900  0.45366000  0.07618000  1
  F  F63  1  0.59291600  0.25445600  0.29582300  1
  F  F64  1  0.36388700  0.50775200  0.77594700  1
  F  F65  1  0.09291600  0.74554400  0.20417700  1
  F  F66  1  0.40926800  0.24775100  0.76640700  1
  F  F67  1  0.40708400  0.74554400  0.70417700  1
  F  F68  1  0.91700800  0.91722000  0.80233100  1
  F  F69  1  0.08256800  0.40851200  0.72689400  1
  F  F70  1  0.90708400  0.25445600  0.79582300  1
  F  F71  1  0.58256800  0.59148800  0.77310600  1
  F  F72  1  0.21395900  0.17781500  0.90630600  1
  F  F73  1  0.61153600  0.02864200  0.58032700  1
  F  F74  1  0.20170800  0.99013800  0.05894300  1
  F  F75  1  0.61157500  0.13579400  0.76383100  1
  F  F76  1  0.08299200  0.08278000  0.19766900  1
  F  F77  1  0.30684100  0.45366000  0.57618000  1
  F  F78  1  0.59756600  0.36351900  0.55479200  1
  F  F79  1  0.63611300  0.49224800  0.22405300  1
