# generated using pymatgen
data_HoSi2Ni
_symmetry_space_group_name_H-M   'P 1'
_cell_length_a   8.45904611
_cell_length_b   8.45904611
_cell_length_c   3.94246200
_cell_angle_alpha   90.00000000
_cell_angle_beta   90.00000000
_cell_angle_gamma   152.92547564
_symmetry_Int_Tables_number   1
_chemical_formula_structural   HoSi2Ni
_chemical_formula_sum   'Ho2 Si4 Ni2'
_cell_volume   128.39967829
_cell_formula_units_Z   2
loop_
 _symmetry_equiv_pos_site_id
 _symmetry_equiv_pos_as_xyz
  1  'x, y, z'
loop_
 _atom_site_type_symbol
 _atom_site_label
 _atom_site_symmetry_multiplicity
 _atom_site_fract_x
 _atom_site_fract_y
 _atom_site_fract_z
 _atom_site_occupancy
  Ho  Ho0  1  0.10566400  0.89433600  0.25000000  1
  Ho  Ho1  1  0.89433600  0.10566400  0.75000000  1
  Si  Si2  1  0.74931900  0.25068100  0.25000000  1
  Si  Si3  1  0.25068100  0.74931900  0.75000000  1
  Si  Si4  1  0.53985500  0.46014500  0.75000000  1
  Si  Si5  1  0.46014500  0.53985500  0.25000000  1
  Ni  Ni6  1  0.67673600  0.32326400  0.75000000  1
  Ni  Ni7  1  0.32326400  0.67673600  0.25000000  1
