# generated using pymatgen
data_Ho2Te4O11
_symmetry_space_group_name_H-M   'P 1'
_cell_length_a   6.74478575
_cell_length_b   6.74478575
_cell_length_c   16.28275045
_cell_angle_alpha   75.88868931
_cell_angle_beta   75.88868931
_cell_angle_gamma   44.97915155
_symmetry_Int_Tables_number   1
_chemical_formula_structural   Ho2Te4O11
_chemical_formula_sum   'Ho4 Te8 O22'
_cell_volume   505.03203485
_cell_formula_units_Z   2
loop_
 _symmetry_equiv_pos_site_id
 _symmetry_equiv_pos_as_xyz
  1  'x, y, z'
loop_
 _atom_site_type_symbol
 _atom_site_label
 _atom_site_symmetry_multiplicity
 _atom_site_fract_x
 _atom_site_fract_y
 _atom_site_fract_z
 _atom_site_occupancy
  Ho  Ho0  1  0.63091100  0.13038900  0.03703000  1
  Ho  Ho1  1  0.86961100  0.36908900  0.46297000  1
  Ho  Ho2  1  0.36908900  0.86961100  0.96297000  1
  Ho  Ho3  1  0.13038900  0.63091100  0.53703000  1
  Te  Te4  1  0.58964300  0.15411800  0.37495300  1
  Te  Te5  1  0.84588200  0.41035700  0.12504700  1
  Te  Te6  1  0.41035700  0.84588200  0.62504700  1
  Te  Te7  1  0.15411800  0.58964300  0.87495300  1
  Te  Te8  1  0.15732800  0.59920400  0.19805800  1
  Te  Te9  1  0.40079600  0.84267200  0.30194200  1
  Te  Te10  1  0.84267200  0.40079600  0.80194200  1
  Te  Te11  1  0.59920400  0.15732800  0.69805800  1
  O  O12  1  0.68533800  0.80911700  0.37264800  1
  O  O13  1  0.19088300  0.31466200  0.12735200  1
  O  O14  1  0.31466200  0.19088300  0.62735200  1
  O  O15  1  0.80911700  0.68533800  0.87264800  1
  O  O16  1  0.24628800  0.33787100  0.44810200  1
  O  O17  1  0.66212900  0.75371200  0.05189800  1
  O  O18  1  0.75371200  0.66212900  0.55189800  1
  O  O19  1  0.33787100  0.24628800  0.94810200  1
  O  O20  1  0.82497400  0.03685400  0.45545000  1
  O  O21  1  0.96314600  0.17502600  0.04455000  1
  O  O22  1  0.17502600  0.96314600  0.54455000  1
  O  O23  1  0.03685400  0.82497400  0.95545000  1
  O  O24  1  0.44752100  0.60090800  0.40440000  1
  O  O25  1  0.39909200  0.55247900  0.09560000  1
  O  O26  1  0.55247900  0.39909200  0.59560000  1
  O  O27  1  0.60090800  0.44752100  0.90440000  1
  O  O28  1  0.09090700  0.20688900  0.33326300  1
  O  O29  1  0.79311100  0.90909300  0.16673700  1
  O  O30  1  0.90909300  0.79311100  0.66673700  1
  O  O31  1  0.20688900  0.09090700  0.83326300  1
  O  O32  1  0.14581600  0.85418400  0.25000000  1
  O  O33  1  0.85418400  0.14581600  0.75000000  1
