# generated using pymatgen
data_DyPS4
_symmetry_space_group_name_H-M   'P 1'
_cell_length_a   12.22752174
_cell_length_b   12.22752174
_cell_length_c   12.22752174
_cell_angle_alpha   127.57609512
_cell_angle_beta   127.57609512
_cell_angle_gamma   77.31275050
_symmetry_Int_Tables_number   1
_chemical_formula_structural   DyPS4
_chemical_formula_sum   'Dy8 P8 S32'
_cell_volume   1114.07719913
_cell_formula_units_Z   8
loop_
 _symmetry_equiv_pos_site_id
 _symmetry_equiv_pos_as_xyz
  1  'x, y, z'
loop_
 _atom_site_type_symbol
 _atom_site_label
 _atom_site_symmetry_multiplicity
 _atom_site_fract_x
 _atom_site_fract_y
 _atom_site_fract_z
 _atom_site_occupancy
  Dy  Dy0  1  0.50000000  0.50000000  0.00000000  1
  Dy  Dy1  1  0.25000000  0.75000000  0.50000000  1
  Dy  Dy2  1  0.75000000  0.25000000  0.50000000  1
  Dy  Dy3  1  0.00000000  0.00000000  0.00000000  1
  Dy  Dy4  1  0.25000000  0.25000000  0.00000000  1
  Dy  Dy5  1  0.00000000  0.50000000  0.50000000  1
  Dy  Dy6  1  0.50000000  0.00000000  0.50000000  1
  Dy  Dy7  1  0.75000000  0.75000000  0.00000000  1
  P  P8  1  0.62500000  0.91309600  0.78809600  1
  P  P9  1  0.62500000  0.41309600  0.28809600  1
  P  P10  1  0.16309600  0.37500000  0.28809600  1
  P  P11  1  0.08690400  0.87500000  0.71190400  1
  P  P12  1  0.12500000  0.33690400  0.71190400  1
  P  P13  1  0.12500000  0.83690400  0.21190400  1
  P  P14  1  0.58690400  0.87500000  0.21190400  1
  P  P15  1  0.66309600  0.37500000  0.78809600  1
  S  S16  1  0.98627200  0.70957800  0.45141200  1
  S  S17  1  0.25816600  0.53486000  0.54858800  1
  S  S18  1  0.28486000  0.23627200  0.77669400  1
  S  S19  1  0.45957800  0.50816600  0.22330600  1
  S  S20  1  0.99183400  0.04042200  0.77669400  1
  S  S21  1  0.26372800  0.21514000  0.22330600  1
  S  S22  1  0.79042200  0.51372800  0.54858800  1
  S  S23  1  0.96514000  0.24183400  0.45141200  1
  S  S24  1  0.77933600  0.96855900  0.31794400  1
  S  S25  1  0.71855900  0.90061500  0.68922300  1
  S  S26  1  0.21139200  0.02933600  0.31077700  1
  S  S27  1  0.47066400  0.28860800  0.68922300  1
  S  S28  1  0.59938500  0.78144100  0.31077700  1
  S  S29  1  0.03860800  0.84938500  0.31794400  1
  S  S30  1  0.53144100  0.72066400  0.68205600  1
  S  S31  1  0.65061500  0.46139200  0.68205600  1
  S  S32  1  0.97066400  0.28144100  0.18205600  1
  S  S33  1  0.03144100  0.34938500  0.81077700  1
  S  S34  1  0.53860800  0.22066400  0.18922300  1
  S  S35  1  0.27933600  0.96139200  0.81077700  1
  S  S36  1  0.15061500  0.46855900  0.18922300  1
  S  S37  1  0.71139200  0.40061500  0.18205600  1
  S  S38  1  0.21855900  0.52933600  0.81794400  1
  S  S39  1  0.09938500  0.78860800  0.81794400  1
  S  S40  1  0.49183400  0.71514000  0.95141200  1
  S  S41  1  0.46514000  0.01372800  0.72330600  1
  S  S42  1  0.29042200  0.74183400  0.27669400  1
  S  S43  1  0.75816600  0.20957800  0.72330600  1
  S  S44  1  0.48627200  0.03486000  0.27669400  1
  S  S45  1  0.95957800  0.73627200  0.95141200  1
  S  S46  1  0.78486000  0.00816600  0.04858800  1
  S  S47  1  0.76372800  0.54042200  0.04858800  1
