# generated using pymatgen
data_Nd10S19
_symmetry_space_group_name_H-M   'P 1'
_cell_length_a   8.96434300
_cell_length_b   8.96434300
_cell_length_c   16.23827600
_cell_angle_alpha   90.00000000
_cell_angle_beta   90.00000000
_cell_angle_gamma   90.00000000
_symmetry_Int_Tables_number   1
_chemical_formula_structural   Nd10S19
_chemical_formula_sum   'Nd20 S38'
_cell_volume   1304.89885396
_cell_formula_units_Z   2
loop_
 _symmetry_equiv_pos_site_id
 _symmetry_equiv_pos_as_xyz
  1  'x, y, z'
loop_
 _atom_site_type_symbol
 _atom_site_label
 _atom_site_symmetry_multiplicity
 _atom_site_fract_x
 _atom_site_fract_y
 _atom_site_fract_z
 _atom_site_occupancy
  Nd  Nd0  1  0.09834000  0.20924300  0.12769300  1
  Nd  Nd1  1  0.50000000  0.00000000  0.63548300  1
  Nd  Nd2  1  0.89547300  0.80537200  0.64720400  1
  Nd  Nd3  1  0.19462800  0.89547300  0.35279600  1
  Nd  Nd4  1  0.40166000  0.29075700  0.37230700  1
  Nd  Nd5  1  0.90166000  0.79075700  0.12769300  1
  Nd  Nd6  1  0.80537200  0.10452700  0.35279600  1
  Nd  Nd7  1  0.29075700  0.59834000  0.62769300  1
  Nd  Nd8  1  0.69462800  0.39547300  0.14720400  1
  Nd  Nd9  1  0.50000000  0.00000000  0.13548300  1
  Nd  Nd10  1  0.10452700  0.19462800  0.64720400  1
  Nd  Nd11  1  0.70924300  0.40166000  0.62769300  1
  Nd  Nd12  1  0.79075700  0.09834000  0.87230700  1
  Nd  Nd13  1  0.60452700  0.69462800  0.85279600  1
  Nd  Nd14  1  0.20924300  0.90166000  0.87230700  1
  Nd  Nd15  1  0.59834000  0.70924300  0.37230700  1
  Nd  Nd16  1  0.00000000  0.50000000  0.36451700  1
  Nd  Nd17  1  0.39547300  0.30537200  0.85279600  1
  Nd  Nd18  1  0.30537200  0.60452700  0.14720400  1
  Nd  Nd19  1  0.00000000  0.50000000  0.86451700  1
  S  S20  1  0.89826500  0.80311500  0.31193000  1
  S  S21  1  0.00000000  0.50000000  0.18420300  1
  S  S22  1  0.17288000  0.36111300  0.49999700  1
  S  S23  1  0.29918200  0.59816300  0.32374000  1
  S  S24  1  0.70081800  0.40183700  0.32374000  1
  S  S25  1  0.28017500  0.05409000  0.50093900  1
  S  S26  1  0.00000000  0.50000000  0.68420300  1
  S  S27  1  0.78017500  0.55409000  0.99906100  1
  S  S28  1  0.21982500  0.44591000  0.99906100  1
  S  S29  1  0.94591000  0.28017500  0.49906100  1
  S  S30  1  0.36111300  0.82712000  0.50000300  1
  S  S31  1  0.50000000  0.00000000  0.81579700  1
  S  S32  1  0.71982500  0.94591000  0.50093900  1
  S  S33  1  0.79918200  0.09816300  0.17626000  1
  S  S34  1  0.44591000  0.78017500  0.00093900  1
  S  S35  1  0.13888700  0.67288000  0.99999700  1
  S  S36  1  0.32712000  0.13888700  0.00000300  1
  S  S37  1  0.10173500  0.19688500  0.31193000  1
  S  S38  1  0.55409000  0.21982500  0.00093900  1
  S  S39  1  0.50000000  0.50000000  0.50000000  1
  S  S40  1  0.30311500  0.60173500  0.81193000  1
  S  S41  1  0.40183700  0.29918200  0.67626000  1
  S  S42  1  0.82712000  0.63888700  0.49999700  1
  S  S43  1  0.09816300  0.20081800  0.82374000  1
  S  S44  1  0.90183700  0.79918200  0.82374000  1
  S  S45  1  0.05409000  0.71982500  0.49906100  1
  S  S46  1  0.60173500  0.69688500  0.18807000  1
  S  S47  1  0.59816300  0.70081800  0.67626000  1
  S  S48  1  0.50000000  0.00000000  0.31579700  1
  S  S49  1  0.86111300  0.32712000  0.99999700  1
  S  S50  1  0.39826500  0.30311500  0.18807000  1
  S  S51  1  0.63888700  0.17288000  0.50000300  1
  S  S52  1  0.69688500  0.39826500  0.81193000  1
  S  S53  1  0.00000000  0.00000000  0.00000000  1
  S  S54  1  0.67288000  0.86111300  0.00000300  1
  S  S55  1  0.80311500  0.10173500  0.68807000  1
  S  S56  1  0.20081800  0.90183700  0.17626000  1
  S  S57  1  0.19688500  0.89826500  0.68807000  1
