# generated using pymatgen
data_NaY(SeO3)2
_symmetry_space_group_name_H-M   'P 1'
_cell_length_a   5.47590000
_cell_length_b   8.70769500
_cell_length_c   12.96512300
_cell_angle_alpha   90.00000000
_cell_angle_beta   90.00000000
_cell_angle_gamma   90.00000000
_symmetry_Int_Tables_number   1
_chemical_formula_structural   NaY(SeO3)2
_chemical_formula_sum   'Na4 Y4 Se8 O24'
_cell_volume   618.20905025
_cell_formula_units_Z   4
loop_
 _symmetry_equiv_pos_site_id
 _symmetry_equiv_pos_as_xyz
  1  'x, y, z'
loop_
 _atom_site_type_symbol
 _atom_site_label
 _atom_site_symmetry_multiplicity
 _atom_site_fract_x
 _atom_site_fract_y
 _atom_site_fract_z
 _atom_site_occupancy
  Na  Na0  1  0.79239800  0.98998700  0.61780700  1
  Na  Na1  1  0.79239800  0.51001300  0.11780700  1
  Na  Na2  1  0.29239800  0.01001300  0.38219300  1
  Na  Na3  1  0.29239800  0.48998700  0.88219300  1
  Y  Y4  1  0.24293600  0.17507200  0.08639900  1
  Y  Y5  1  0.74293600  0.82492800  0.91360100  1
  Y  Y6  1  0.74293600  0.67507200  0.41360100  1
  Y  Y7  1  0.24293600  0.32492800  0.58639900  1
  Se  Se8  1  0.74834100  0.96983100  0.20263600  1
  Se  Se9  1  0.24834100  0.46983100  0.29736400  1
  Se  Se10  1  0.79503900  0.26650200  0.42003900  1
  Se  Se11  1  0.29503900  0.73349800  0.57996100  1
  Se  Se12  1  0.74834100  0.53016900  0.70263600  1
  Se  Se13  1  0.29503900  0.76650200  0.07996100  1
  Se  Se14  1  0.24834100  0.03016900  0.79736400  1
  Se  Se15  1  0.79503900  0.23349800  0.92003900  1
  O  O16  1  0.99633400  0.15158800  0.48670700  1
  O  O17  1  0.05750200  0.87226500  0.79807100  1
  O  O18  1  0.19793900  0.09730200  0.67404000  1
  O  O19  1  0.38069200  0.56275900  0.51615800  1
  O  O20  1  0.01883900  0.78022200  0.52574800  1
  O  O21  1  0.49633400  0.84841200  0.51329300  1
  O  O22  1  0.53827900  0.54898800  0.28480300  1
  O  O23  1  0.05750200  0.62773500  0.29807100  1
  O  O24  1  0.01883900  0.71977800  0.02574800  1
  O  O25  1  0.69793900  0.90269800  0.32596000  1
  O  O26  1  0.03827900  0.04898800  0.21519700  1
  O  O27  1  0.51883900  0.21977800  0.47425200  1
  O  O28  1  0.69793900  0.59730200  0.82596000  1
  O  O29  1  0.19793900  0.40269800  0.17404000  1
  O  O30  1  0.99633400  0.34841200  0.98670700  1
  O  O31  1  0.38069200  0.93724100  0.01615800  1
  O  O32  1  0.55750200  0.37226500  0.70192900  1
  O  O33  1  0.88069200  0.43724100  0.48384200  1
  O  O34  1  0.49633400  0.65158800  0.01329300  1
  O  O35  1  0.03827900  0.45101200  0.71519700  1
  O  O36  1  0.55750200  0.12773500  0.20192900  1
  O  O37  1  0.53827900  0.95101200  0.78480300  1
  O  O38  1  0.51883900  0.28022200  0.97425200  1
  O  O39  1  0.88069200  0.06275900  0.98384200  1
