# generated using pymatgen
data_K2CrH2Cl5O
_symmetry_space_group_name_H-M   'P 1'
_cell_length_a   7.46962900
_cell_length_b   9.38129300
_cell_length_c   13.97787400
_cell_angle_alpha   90.00000000
_cell_angle_beta   90.00000000
_cell_angle_gamma   90.00000000
_symmetry_Int_Tables_number   1
_chemical_formula_structural   K2CrH2Cl5O
_chemical_formula_sum   'K8 Cr4 H8 Cl20 O4'
_cell_volume   979.49642096
_cell_formula_units_Z   4
loop_
 _symmetry_equiv_pos_site_id
 _symmetry_equiv_pos_as_xyz
  1  'x, y, z'
loop_
 _atom_site_type_symbol
 _atom_site_label
 _atom_site_symmetry_multiplicity
 _atom_site_fract_x
 _atom_site_fract_y
 _atom_site_fract_z
 _atom_site_occupancy
  K  K0  1  0.63129300  0.00234700  0.34865900  1
  K  K1  1  0.13129300  0.99765300  0.15134100  1
  K  K2  1  0.36870700  0.50234700  0.65134100  1
  K  K3  1  0.86870700  0.49765300  0.84865900  1
  K  K4  1  0.36870700  0.99765300  0.65134100  1
  K  K5  1  0.86870700  0.00234700  0.84865900  1
  K  K6  1  0.63129300  0.49765300  0.34865900  1
  K  K7  1  0.13129300  0.50234700  0.15134100  1
  Cr  Cr8  1  0.19002300  0.75000000  0.39367100  1
  Cr  Cr9  1  0.69002300  0.25000000  0.10632900  1
  Cr  Cr10  1  0.80997700  0.25000000  0.60632900  1
  Cr  Cr11  1  0.30997700  0.75000000  0.89367100  1
  H  H12  1  0.96522200  0.83526900  0.53432300  1
  H  H13  1  0.46522200  0.16473100  0.96567700  1
  H  H14  1  0.03477800  0.33526900  0.46567700  1
  H  H15  1  0.53477800  0.66473100  0.03432300  1
  H  H16  1  0.03477800  0.16473100  0.46567700  1
  H  H17  1  0.53477800  0.83526900  0.03432300  1
  H  H18  1  0.96522200  0.66473100  0.53432300  1
  H  H19  1  0.46522200  0.33526900  0.96567700  1
  Cl  Cl20  1  0.19132800  0.00400600  0.39822600  1
  Cl  Cl21  1  0.69132800  0.99599400  0.10177400  1
  Cl  Cl22  1  0.80867200  0.50400600  0.60177400  1
  Cl  Cl23  1  0.30867200  0.49599400  0.89822600  1
  Cl  Cl24  1  0.80867200  0.99599400  0.60177400  1
  Cl  Cl25  1  0.30867200  0.00400600  0.89822600  1
  Cl  Cl26  1  0.19132800  0.49599400  0.39822600  1
  Cl  Cl27  1  0.69132800  0.50400600  0.10177400  1
  Cl  Cl28  1  0.92729600  0.75000000  0.29611100  1
  Cl  Cl29  1  0.42729600  0.25000000  0.20388900  1
  Cl  Cl30  1  0.07270400  0.25000000  0.70388900  1
  Cl  Cl31  1  0.57270400  0.75000000  0.79611100  1
  Cl  Cl32  1  0.37437800  0.75000000  0.25566600  1
  Cl  Cl33  1  0.87437800  0.25000000  0.24433400  1
  Cl  Cl34  1  0.62562200  0.25000000  0.74433400  1
  Cl  Cl35  1  0.12562200  0.75000000  0.75566600  1
  Cl  Cl36  1  0.45393000  0.75000000  0.49250600  1
  Cl  Cl37  1  0.95393000  0.25000000  0.00749400  1
  Cl  Cl38  1  0.54607000  0.25000000  0.50749400  1
  Cl  Cl39  1  0.04607000  0.75000000  0.99250600  1
  O  O40  1  0.03540400  0.75000000  0.51568100  1
  O  O41  1  0.53540400  0.25000000  0.98431900  1
  O  O42  1  0.96459600  0.25000000  0.48431900  1
  O  O43  1  0.46459600  0.75000000  0.01568100  1
