# generated using pymatgen
data_K2HgBr2(NO6)2
_symmetry_space_group_name_H-M   'P 1'
_cell_length_a   5.74322500
_cell_length_b   7.43096900
_cell_length_c   14.49496200
_cell_angle_alpha   90.00000000
_cell_angle_beta   90.00000000
_cell_angle_gamma   90.00000000
_symmetry_Int_Tables_number   1
_chemical_formula_structural   K2HgBr2(NO6)2
_chemical_formula_sum   'K4 Hg2 Br4 N4 O24'
_cell_volume   618.61203017
_cell_formula_units_Z   2
loop_
 _symmetry_equiv_pos_site_id
 _symmetry_equiv_pos_as_xyz
  1  'x, y, z'
loop_
 _atom_site_type_symbol
 _atom_site_label
 _atom_site_symmetry_multiplicity
 _atom_site_fract_x
 _atom_site_fract_y
 _atom_site_fract_z
 _atom_site_occupancy
  K  K0  1  0.00000000  0.75645900  0.72006000  1
  K  K1  1  0.00000000  0.24354100  0.27994000  1
  K  K2  1  0.50000000  0.25645900  0.77994000  1
  K  K3  1  0.50000000  0.74354100  0.22006000  1
  Hg  Hg4  1  0.00000000  0.00000000  0.00000000  1
  Hg  Hg5  1  0.50000000  0.50000000  0.50000000  1
  Br  Br6  1  0.00000000  0.73035000  0.38461900  1
  Br  Br7  1  0.50000000  0.76965000  0.88461900  1
  Br  Br8  1  0.00000000  0.26965000  0.61538100  1
  Br  Br9  1  0.50000000  0.23035000  0.11538100  1
  N  N10  1  0.00000000  0.36980800  0.91182000  1
  N  N11  1  0.50000000  0.13019200  0.41182000  1
  N  N12  1  0.50000000  0.86980800  0.58818000  1
  N  N13  1  0.00000000  0.63019200  0.08818000  1
  O  O14  1  0.69120800  0.79124000  0.56756300  1
  O  O15  1  0.50000000  0.98072500  0.37243000  1
  O  O16  1  0.23082900  0.58693700  0.37517900  1
  O  O17  1  0.19120800  0.70876000  0.06756300  1
  O  O18  1  0.26917100  0.91306300  0.87517900  1
  O  O19  1  0.73082900  0.91306300  0.87517900  1
  O  O20  1  0.00000000  0.83973700  0.28416500  1
  O  O21  1  0.69120800  0.20876000  0.43243700  1
  O  O22  1  0.30879200  0.20876000  0.43243700  1
  O  O23  1  0.80879200  0.29124000  0.93243700  1
  O  O24  1  0.50000000  0.01927500  0.62757000  1
  O  O25  1  0.19120800  0.29124000  0.93243700  1
  O  O26  1  0.00000000  0.51927500  0.87243000  1
  O  O27  1  0.76917100  0.41306300  0.62482100  1
  O  O28  1  0.26917100  0.08693700  0.12482100  1
  O  O29  1  0.80879200  0.70876000  0.06756300  1
  O  O30  1  0.23082900  0.41306300  0.62482100  1
  O  O31  1  0.73082900  0.08693700  0.12482100  1
  O  O32  1  0.00000000  0.16026300  0.71583500  1
  O  O33  1  0.50000000  0.33973700  0.21583500  1
  O  O34  1  0.00000000  0.48072500  0.12757000  1
  O  O35  1  0.50000000  0.66026300  0.78416500  1
  O  O36  1  0.76917100  0.58693700  0.37517900  1
  O  O37  1  0.30879200  0.79124000  0.56756300  1
