# generated using pymatgen
data_In5B4Ir9
_symmetry_space_group_name_H-M   'P 1'
_cell_length_a   5.64561971
_cell_length_b   5.64561971
_cell_length_c   10.41326300
_cell_angle_alpha   90.00000000
_cell_angle_beta   90.00000000
_cell_angle_gamma   119.99999655
_symmetry_Int_Tables_number   1
_chemical_formula_structural   In5B4Ir9
_chemical_formula_sum   'In5 B4 Ir9'
_cell_volume   287.43571145
_cell_formula_units_Z   1
loop_
 _symmetry_equiv_pos_site_id
 _symmetry_equiv_pos_as_xyz
  1  'x, y, z'
loop_
 _atom_site_type_symbol
 _atom_site_label
 _atom_site_symmetry_multiplicity
 _atom_site_fract_x
 _atom_site_fract_y
 _atom_site_fract_z
 _atom_site_occupancy
  In  In0  1  0.00000000  0.00000000  0.00000000  1
  In  In1  1  0.66666700  0.33333300  0.50000000  1
  In  In2  1  0.00000000  0.00000000  0.65659000  1
  In  In3  1  0.00000000  0.00000000  0.34341000  1
  In  In4  1  0.33333300  0.66666700  0.50000000  1
  B  B5  1  0.66666700  0.33333300  0.14624600  1
  B  B6  1  0.33333300  0.66666700  0.85375400  1
  B  B7  1  0.66666700  0.33333300  0.85375400  1
  B  B8  1  0.33333300  0.66666700  0.14624600  1
  Ir  Ir9  1  0.00000000  0.48117200  0.27480300  1
  Ir  Ir10  1  0.48117200  0.00000000  0.72519700  1
  Ir  Ir11  1  0.48117200  0.00000000  0.27480300  1
  Ir  Ir12  1  0.00000000  0.48146700  0.00000000  1
  Ir  Ir13  1  0.51882800  0.51882800  0.72519700  1
  Ir  Ir14  1  0.00000000  0.48117200  0.72519700  1
  Ir  Ir15  1  0.51853300  0.51853300  0.00000000  1
  Ir  Ir16  1  0.48146700  0.00000000  0.00000000  1
  Ir  Ir17  1  0.51882800  0.51882800  0.27480300  1
