# generated using pymatgen
data_CdAs2(XeF5)4
_symmetry_space_group_name_H-M   'P 1'
_cell_length_a   8.93293900
_cell_length_b   13.98558900
_cell_length_c   17.10906000
_cell_angle_alpha   90.00000000
_cell_angle_beta   90.00000000
_cell_angle_gamma   90.00000000
_symmetry_Int_Tables_number   1
_chemical_formula_structural   CdAs2(XeF5)4
_chemical_formula_sum   'Cd4 As8 Xe16 F80'
_cell_volume   2137.47615708
_cell_formula_units_Z   4
loop_
 _symmetry_equiv_pos_site_id
 _symmetry_equiv_pos_as_xyz
  1  'x, y, z'
loop_
 _atom_site_type_symbol
 _atom_site_label
 _atom_site_symmetry_multiplicity
 _atom_site_fract_x
 _atom_site_fract_y
 _atom_site_fract_z
 _atom_site_occupancy
  Cd  Cd0  1  0.63359000  0.94985800  0.59634200  1
  Cd  Cd1  1  0.86641000  0.05014200  0.09634200  1
  Cd  Cd2  1  0.13359000  0.55014200  0.40365800  1
  Cd  Cd3  1  0.36641000  0.44985800  0.90365800  1
  As  As4  1  0.23237500  0.71090500  0.22182000  1
  As  As5  1  0.53013100  0.99251300  0.01182400  1
  As  As6  1  0.96986900  0.00748700  0.51182400  1
  As  As7  1  0.46986900  0.49251300  0.48817600  1
  As  As8  1  0.76762500  0.21090500  0.27818000  1
  As  As9  1  0.73237500  0.78909500  0.77818000  1
  As  As10  1  0.26762500  0.28909500  0.72182000  1
  As  As11  1  0.03013100  0.50748700  0.98817600  1
  Xe  Xe12  1  0.92968000  0.34229000  0.53902800  1
  Xe  Xe13  1  0.42968000  0.15771000  0.46097200  1
  Xe  Xe14  1  0.77412700  0.86625400  0.28506300  1
  Xe  Xe15  1  0.27412700  0.63374600  0.71493700  1
  Xe  Xe16  1  0.72587300  0.13374600  0.78506300  1
  Xe  Xe17  1  0.74870300  0.46200000  0.77236100  1
  Xe  Xe18  1  0.57032000  0.65771000  0.03902800  1
  Xe  Xe19  1  0.07032000  0.84229000  0.96097200  1
  Xe  Xe20  1  0.67900900  0.31446000  0.04074000  1
  Xe  Xe21  1  0.75129700  0.53800000  0.27236100  1
  Xe  Xe22  1  0.25129700  0.96200000  0.72763900  1
  Xe  Xe23  1  0.24870300  0.03800000  0.22763900  1
  Xe  Xe24  1  0.32099100  0.81446000  0.45926000  1
  Xe  Xe25  1  0.22587300  0.36625400  0.21493700  1
  Xe  Xe26  1  0.82099100  0.68554000  0.54074000  1
  Xe  Xe27  1  0.17900900  0.18554000  0.95926000  1
  F  F28  1  0.36058300  0.94798300  0.04889200  1
  F  F29  1  0.60578400  0.04075800  0.70987500  1
  F  F30  1  0.33321300  0.27485100  0.14026100  1
  F  F31  1  0.06317400  0.40219500  0.44781100  1
  F  F32  1  0.51731400  0.60859600  0.45479900  1
  F  F33  1  0.82327700  0.30848300  0.21815700  1
  F  F34  1  0.92000300  0.75048800  0.77154900  1
  F  F35  1  0.13941700  0.05201700  0.54889200  1
  F  F36  1  0.66678700  0.77485100  0.35973900  1
  F  F37  1  0.17672300  0.80848300  0.28184300  1
  F  F38  1  0.63941700  0.44798300  0.45110800  1
  F  F39  1  0.01731400  0.89140400  0.54520100  1
  F  F40  1  0.20390700  0.77889300  0.13676500  1
  F  F41  1  0.88846700  0.50731200  0.68577500  1
  F  F42  1  0.86058300  0.55201700  0.95110800  1
  F  F43  1  0.39397700  0.91260900  0.63531800  1
  F  F44  1  0.65017600  0.78734200  0.55327600  1
  F  F45  1  0.20924600  0.45850800  0.01895300  1
  F  F46  1  0.87824400  0.02711500  0.60540700  1
  F  F47  1  0.70053100  0.71470900  0.12530100  1
  F  F48  1  0.45476800  0.32993300  0.72193700  1
  F  F49  1  0.78881600  0.89032800  0.83199800  1
  F  F50  1  0.10578400  0.45924200  0.29012500  1
  F  F51  1  0.01788900  0.07979900  0.97573300  1
  F  F52  1  0.76521000  0.85904100  0.68850100  1
  F  F53  1  0.56317400  0.09780500  0.55218900  1
  F  F54  1  0.98268600  0.39140400  0.95479900  1
  F  F55  1  0.15017600  0.71265800  0.44672400  1
  F  F56  1  0.04686200  0.98195900  0.41956100  1
  F  F57  1  0.93682600  0.90219500  0.05218900  1
  F  F58  1  0.04523200  0.67006700  0.22193700  1
  F  F59  1  0.29609300  0.22110700  0.63676500  1
  F  F60  1  0.45313800  0.01804100  0.91956100  1
  F  F61  1  0.29946900  0.21470900  0.37469900  1
  F  F62  1  0.12175600  0.52711500  0.89459300  1
  F  F63  1  0.51788900  0.42020100  0.02426700  1
  F  F64  1  0.08631400  0.62127100  0.01831700  1
  F  F65  1  0.48211100  0.92020100  0.47573300  1
  F  F66  1  0.07999700  0.25048800  0.72845100  1
  F  F67  1  0.89421600  0.95924200  0.20987500  1
  F  F68  1  0.23479000  0.35904100  0.81149900  1
  F  F69  1  0.34982400  0.28734200  0.94672400  1
  F  F70  1  0.79946900  0.28529100  0.62530100  1
  F  F71  1  0.26521000  0.64095900  0.31149900  1
  F  F72  1  0.71118400  0.10967200  0.33199800  1
  F  F73  1  0.57999700  0.24951200  0.27154900  1
  F  F74  1  0.91368600  0.12127100  0.48168300  1
  F  F75  1  0.54686200  0.51804100  0.58043900  1
  F  F76  1  0.79075400  0.95850800  0.48104700  1
  F  F77  1  0.20053100  0.78529100  0.87469900  1
  F  F78  1  0.39421600  0.54075800  0.79012500  1
  F  F79  1  0.79609300  0.27889300  0.36323500  1
  F  F80  1  0.60602300  0.41260900  0.86468200  1
  F  F81  1  0.58631400  0.87872900  0.98168300  1
  F  F82  1  0.95476800  0.17006700  0.27806300  1
  F  F83  1  0.21118400  0.39032800  0.66800200  1
  F  F84  1  0.37824400  0.47288500  0.39459300  1
  F  F85  1  0.43682600  0.59780500  0.94781100  1
  F  F86  1  0.16678700  0.72514900  0.64026100  1
  F  F87  1  0.29075400  0.54149200  0.51895300  1
  F  F88  1  0.28881600  0.60967200  0.16800200  1
  F  F89  1  0.95313800  0.48195900  0.08043900  1
  F  F90  1  0.62175600  0.97288500  0.10540700  1
  F  F91  1  0.41368600  0.37872900  0.51831700  1
  F  F92  1  0.83321300  0.22514900  0.85973900  1
  F  F93  1  0.10602300  0.08739100  0.13531800  1
  F  F94  1  0.84982400  0.21265800  0.05327600  1
  F  F95  1  0.48268600  0.10859600  0.04520100  1
  F  F96  1  0.70390700  0.72110700  0.86323500  1
  F  F97  1  0.42000300  0.74951200  0.22845100  1
  F  F98  1  0.61153300  0.49268800  0.18577500  1
  F  F99  1  0.89397700  0.58739100  0.36468200  1
  F  F100  1  0.73479000  0.14095900  0.18850100  1
  F  F101  1  0.54523200  0.82993300  0.77806300  1
  F  F102  1  0.67672300  0.69151700  0.71815700  1
  F  F103  1  0.98211100  0.57979900  0.52426700  1
  F  F104  1  0.70924600  0.04149200  0.98104700  1
  F  F105  1  0.11153300  0.00731200  0.81422500  1
  F  F106  1  0.32327700  0.19151700  0.78184300  1
  F  F107  1  0.38846700  0.99268800  0.31422500  1
