# generated using pymatgen
data_Na10(Ga2Sn)3
_symmetry_space_group_name_H-M   'P 1'
_cell_length_a   14.64147600
_cell_length_b   14.64147600
_cell_length_c   9.04263800
_cell_angle_alpha   90.00000000
_cell_angle_beta   90.00000000
_cell_angle_gamma   90.00000000
_symmetry_Int_Tables_number   1
_chemical_formula_structural   Na10(Ga2Sn)3
_chemical_formula_sum   'Na40 Ga24 Sn12'
_cell_volume   1938.49580340
_cell_formula_units_Z   4
loop_
 _symmetry_equiv_pos_site_id
 _symmetry_equiv_pos_as_xyz
  1  'x, y, z'
loop_
 _atom_site_type_symbol
 _atom_site_label
 _atom_site_symmetry_multiplicity
 _atom_site_fract_x
 _atom_site_fract_y
 _atom_site_fract_z
 _atom_site_occupancy
  Na  Na0  1  0.50669300  0.77627400  0.30735900  1
  Na  Na1  1  0.58986100  0.58986100  0.50000000  1
  Na  Na2  1  0.63347900  0.81504900  0.00000000  1
  Na  Na3  1  0.18495100  0.36652100  0.00000000  1
  Na  Na4  1  0.50669300  0.77627400  0.69264100  1
  Na  Na5  1  0.49330700  0.22372600  0.69264100  1
  Na  Na6  1  0.81504900  0.63347900  0.00000000  1
  Na  Na7  1  0.26415300  0.73584700  0.18417000  1
  Na  Na8  1  0.22372600  0.49330700  0.69264100  1
  Na  Na9  1  0.86652100  0.31504900  0.50000000  1
  Na  Na10  1  0.08986100  0.91013900  0.00000000  1
  Na  Na11  1  0.73584700  0.26415300  0.81583000  1
  Na  Na12  1  0.76415300  0.76415300  0.68417000  1
  Na  Na13  1  0.27627400  0.99330700  0.80735900  1
  Na  Na14  1  0.99330700  0.27627400  0.19264100  1
  Na  Na15  1  0.13347900  0.68495100  0.50000000  1
  Na  Na16  1  0.26415300  0.73584700  0.81583000  1
  Na  Na17  1  0.77627400  0.50669300  0.69264100  1
  Na  Na18  1  0.22372600  0.49330700  0.30735900  1
  Na  Na19  1  0.00669300  0.72372600  0.80735900  1
  Na  Na20  1  0.41013900  0.41013900  0.50000000  1
  Na  Na21  1  0.23584700  0.23584700  0.31583000  1
  Na  Na22  1  0.36652100  0.18495100  0.00000000  1
  Na  Na23  1  0.50000000  0.00000000  0.25000000  1
  Na  Na24  1  0.99330700  0.27627400  0.80735900  1
  Na  Na25  1  0.77627400  0.50669300  0.30735900  1
  Na  Na26  1  0.27627400  0.99330700  0.19264100  1
  Na  Na27  1  0.72372600  0.00669300  0.19264100  1
  Na  Na28  1  0.73584700  0.26415300  0.18417000  1
  Na  Na29  1  0.49330700  0.22372600  0.30735900  1
  Na  Na30  1  0.72372600  0.00669300  0.80735900  1
  Na  Na31  1  0.68495100  0.13347900  0.50000000  1
  Na  Na32  1  0.31504900  0.86652100  0.50000000  1
  Na  Na33  1  0.76415300  0.76415300  0.31583000  1
  Na  Na34  1  0.91013900  0.08986100  0.00000000  1
  Na  Na35  1  0.50000000  0.00000000  0.75000000  1
  Na  Na36  1  0.23584700  0.23584700  0.68417000  1
  Na  Na37  1  0.00669300  0.72372600  0.19264100  1
  Na  Na38  1  0.00000000  0.50000000  0.75000000  1
  Na  Na39  1  0.00000000  0.50000000  0.25000000  1
  Ga  Ga40  1  0.06539000  0.06539000  0.25958600  1
  Ga  Ga41  1  0.61048400  0.61048400  0.15093500  1
  Ga  Ga42  1  0.11048400  0.88951600  0.65093500  1
  Ga  Ga43  1  0.43461000  0.56539000  0.75958600  1
  Ga  Ga44  1  0.38951600  0.38951600  0.84906500  1
  Ga  Ga45  1  0.11048400  0.88951600  0.34906500  1
  Ga  Ga46  1  0.82473100  0.95821800  0.50000000  1
  Ga  Ga47  1  0.04178200  0.17526900  0.50000000  1
  Ga  Ga48  1  0.54178200  0.32473100  0.00000000  1
  Ga  Ga49  1  0.43461000  0.56539000  0.24041400  1
  Ga  Ga50  1  0.38951600  0.38951600  0.15093500  1
  Ga  Ga51  1  0.88951600  0.11048400  0.65093500  1
  Ga  Ga52  1  0.32473100  0.54178200  0.00000000  1
  Ga  Ga53  1  0.17526900  0.04178200  0.50000000  1
  Ga  Ga54  1  0.67526900  0.45821800  0.00000000  1
  Ga  Ga55  1  0.93461000  0.93461000  0.74041400  1
  Ga  Ga56  1  0.93461000  0.93461000  0.25958600  1
  Ga  Ga57  1  0.56539000  0.43461000  0.75958600  1
  Ga  Ga58  1  0.88951600  0.11048400  0.34906500  1
  Ga  Ga59  1  0.45821800  0.67526900  0.00000000  1
  Ga  Ga60  1  0.95821800  0.82473100  0.50000000  1
  Ga  Ga61  1  0.56539000  0.43461000  0.24041400  1
  Ga  Ga62  1  0.06539000  0.06539000  0.74041400  1
  Ga  Ga63  1  0.61048400  0.61048400  0.84906500  1
  Sn  Sn64  1  0.08507400  0.35922000  0.50000000  1
  Sn  Sn65  1  0.41492600  0.85922000  0.00000000  1
  Sn  Sn66  1  0.14209500  0.14209500  0.00000000  1
  Sn  Sn67  1  0.35922000  0.08507400  0.50000000  1
  Sn  Sn68  1  0.58507400  0.14078000  0.00000000  1
  Sn  Sn69  1  0.85790500  0.85790500  0.00000000  1
  Sn  Sn70  1  0.85922000  0.41492600  0.00000000  1
  Sn  Sn71  1  0.91492600  0.64078000  0.50000000  1
  Sn  Sn72  1  0.64209500  0.35790500  0.50000000  1
  Sn  Sn73  1  0.35790500  0.64209500  0.50000000  1
  Sn  Sn74  1  0.14078000  0.58507400  0.00000000  1
  Sn  Sn75  1  0.64078000  0.91492600  0.50000000  1
