# generated using pymatgen
data_Sr3Bi(ClO)3
_symmetry_space_group_name_H-M   'P 1'
_cell_length_a   6.76145400
_cell_length_b   11.57798400
_cell_length_c   11.94254200
_cell_angle_alpha   90.00000000
_cell_angle_beta   90.00000000
_cell_angle_gamma   90.00000000
_symmetry_Int_Tables_number   1
_chemical_formula_structural   Sr3Bi(ClO)3
_chemical_formula_sum   'Sr12 Bi4 Cl12 O12'
_cell_volume   934.91003231
_cell_formula_units_Z   4
loop_
 _symmetry_equiv_pos_site_id
 _symmetry_equiv_pos_as_xyz
  1  'x, y, z'
loop_
 _atom_site_type_symbol
 _atom_site_label
 _atom_site_symmetry_multiplicity
 _atom_site_fract_x
 _atom_site_fract_y
 _atom_site_fract_z
 _atom_site_occupancy
  Sr  Sr0  1  0.33328300  0.42938600  0.11009800  1
  Sr  Sr1  1  0.84440300  0.25000000  0.03257500  1
  Sr  Sr2  1  0.83328300  0.42938600  0.38990200  1
  Sr  Sr3  1  0.66671700  0.57061400  0.88990200  1
  Sr  Sr4  1  0.83328300  0.07061400  0.38990200  1
  Sr  Sr5  1  0.16671700  0.92938600  0.61009800  1
  Sr  Sr6  1  0.65559700  0.75000000  0.53257500  1
  Sr  Sr7  1  0.66671700  0.92938600  0.88990200  1
  Sr  Sr8  1  0.33328300  0.07061400  0.11009800  1
  Sr  Sr9  1  0.16671700  0.57061400  0.61009800  1
  Sr  Sr10  1  0.34440300  0.25000000  0.46742500  1
  Sr  Sr11  1  0.15559700  0.75000000  0.96742500  1
  Bi  Bi12  1  0.59954500  0.75000000  0.12659700  1
  Bi  Bi13  1  0.90045500  0.25000000  0.62659700  1
  Bi  Bi14  1  0.40045500  0.25000000  0.87340300  1
  Bi  Bi15  1  0.09954500  0.75000000  0.37340300  1
  Cl  Cl16  1  0.09348400  0.00538400  0.85416100  1
  Cl  Cl17  1  0.58575400  0.25000000  0.22772500  1
  Cl  Cl18  1  0.09348400  0.49461600  0.85416100  1
  Cl  Cl19  1  0.08575400  0.25000000  0.27227500  1
  Cl  Cl20  1  0.90651600  0.99461600  0.14583900  1
  Cl  Cl21  1  0.59348400  0.00538400  0.64583900  1
  Cl  Cl22  1  0.90651600  0.50538400  0.14583900  1
  Cl  Cl23  1  0.40651600  0.99461600  0.35416100  1
  Cl  Cl24  1  0.59348400  0.49461600  0.64583900  1
  Cl  Cl25  1  0.41424600  0.75000000  0.77227500  1
  Cl  Cl26  1  0.40651600  0.50538400  0.35416100  1
  Cl  Cl27  1  0.91424600  0.75000000  0.72772500  1
  O  O28  1  0.57875400  0.12281500  0.95166800  1
  O  O29  1  0.42124600  0.62281500  0.04833200  1
  O  O30  1  0.92124600  0.87718500  0.45166800  1
  O  O31  1  0.20430400  0.25000000  0.01033900  1
  O  O32  1  0.79569600  0.75000000  0.98966100  1
  O  O33  1  0.07875300  0.37718500  0.54833200  1
  O  O34  1  0.70430400  0.25000000  0.48966100  1
  O  O35  1  0.29569600  0.75000000  0.51033900  1
  O  O36  1  0.92124600  0.62281500  0.45166800  1
  O  O37  1  0.07875300  0.12281500  0.54833200  1
  O  O38  1  0.57875400  0.37718500  0.95166800  1
  O  O39  1  0.42124600  0.87718500  0.04833200  1
