# generated using pymatgen
data_Cs4PbO4
_symmetry_space_group_name_H-M   'P 1'
_cell_length_a   7.55853200
_cell_length_b   11.96228400
_cell_length_c   12.08502963
_cell_angle_alpha   68.91703358
_cell_angle_beta   90.00000000
_cell_angle_gamma   90.00000000
_symmetry_Int_Tables_number   1
_chemical_formula_structural   Cs4PbO4
_chemical_formula_sum   'Cs16 Pb4 O16'
_cell_volume   1019.55133375
_cell_formula_units_Z   4
loop_
 _symmetry_equiv_pos_site_id
 _symmetry_equiv_pos_as_xyz
  1  'x, y, z'
loop_
 _atom_site_type_symbol
 _atom_site_label
 _atom_site_symmetry_multiplicity
 _atom_site_fract_x
 _atom_site_fract_y
 _atom_site_fract_z
 _atom_site_occupancy
  Cs  Cs0  1  0.41517100  0.69997400  0.93713700  1
  Cs  Cs1  1  0.33549900  0.10710000  0.37117400  1
  Cs  Cs2  1  0.91517100  0.80002600  0.06286300  1
  Cs  Cs3  1  0.83549900  0.39290000  0.62882600  1
  Cs  Cs4  1  0.66450100  0.89290000  0.62882600  1
  Cs  Cs5  1  0.82094200  0.21078300  0.42155700  1
  Cs  Cs6  1  0.32094200  0.28921700  0.57844300  1
  Cs  Cs7  1  0.88693100  0.58314200  0.84472100  1
  Cs  Cs8  1  0.38693100  0.91685800  0.15527900  1
  Cs  Cs9  1  0.61306900  0.08314200  0.84472100  1
  Cs  Cs10  1  0.58482900  0.30002600  0.06286300  1
  Cs  Cs11  1  0.67905800  0.71078300  0.42155700  1
  Cs  Cs12  1  0.08482900  0.19997400  0.93713700  1
  Cs  Cs13  1  0.11306900  0.41685800  0.15527900  1
  Cs  Cs14  1  0.16450100  0.60710000  0.37117400  1
  Cs  Cs15  1  0.17905800  0.78921700  0.57844300  1
  Pb  Pb16  1  0.37591400  0.49053600  0.75845700  1
  Pb  Pb17  1  0.87591400  0.00946400  0.24154300  1
  Pb  Pb18  1  0.12408600  0.99053600  0.75845700  1
  Pb  Pb19  1  0.62408600  0.50946400  0.24154300  1
  O  O20  1  0.48321800  0.67030700  0.21440100  1
  O  O21  1  0.33339000  0.00906400  0.63637100  1
  O  O22  1  0.51678200  0.32969300  0.78559900  1
  O  O23  1  0.01678200  0.17030700  0.21440100  1
  O  O24  1  0.16661000  0.50906400  0.63637100  1
  O  O25  1  0.53530500  0.64701400  0.68894300  1
  O  O26  1  0.03530500  0.85298600  0.31105700  1
  O  O27  1  0.96469500  0.14701400  0.68894300  1
  O  O28  1  0.66661000  0.99093600  0.36362900  1
  O  O29  1  0.23550100  0.97344400  0.92456100  1
  O  O30  1  0.76449900  0.02655600  0.07543900  1
  O  O31  1  0.46469500  0.35298600  0.31105700  1
  O  O32  1  0.73550100  0.52655600  0.07543900  1
  O  O33  1  0.26449900  0.47344400  0.92456100  1
  O  O34  1  0.83339000  0.49093600  0.36362900  1
  O  O35  1  0.98321800  0.82969300  0.78559900  1
