# generated using pymatgen
data_Sm2MnTe5Cl2O13
_symmetry_space_group_name_H-M   'P 1'
_cell_length_a   5.67547000
_cell_length_b   15.46250900
_cell_length_c   20.98271465
_cell_angle_alpha   57.71299818
_cell_angle_beta   90.00000000
_cell_angle_gamma   90.00000000
_symmetry_Int_Tables_number   1
_chemical_formula_structural   Sm2MnTe5Cl2O13
_chemical_formula_sum   'Sm8 Mn4 Te20 Cl8 O52'
_cell_volume   1556.67159489
_cell_formula_units_Z   4
loop_
 _symmetry_equiv_pos_site_id
 _symmetry_equiv_pos_as_xyz
  1  'x, y, z'
loop_
 _atom_site_type_symbol
 _atom_site_label
 _atom_site_symmetry_multiplicity
 _atom_site_fract_x
 _atom_site_fract_y
 _atom_site_fract_z
 _atom_site_occupancy
  Sm  Sm0  1  0.76186400  0.27299500  0.27850800  1
  Sm  Sm1  1  0.77474100  0.90465200  0.07557400  1
  Sm  Sm2  1  0.73813600  0.27299500  0.77850800  1
  Sm  Sm3  1  0.72525900  0.90465200  0.57557400  1
  Sm  Sm4  1  0.23813600  0.72700500  0.72149200  1
  Sm  Sm5  1  0.26186400  0.72700500  0.22149200  1
  Sm  Sm6  1  0.22525900  0.09534800  0.92442600  1
  Sm  Sm7  1  0.27474100  0.09534800  0.42442600  1
  Mn  Mn8  1  0.83013500  0.55679600  0.84978600  1
  Mn  Mn9  1  0.16986500  0.44320400  0.15021400  1
  Mn  Mn10  1  0.66986500  0.55679600  0.34978600  1
  Mn  Mn11  1  0.33013500  0.44320400  0.65021400  1
  Te  Te12  1  0.32222000  0.02826600  0.11270500  1
  Te  Te13  1  0.66584300  0.40287800  0.05821100  1
  Te  Te14  1  0.39380300  0.44541500  0.82289800  1
  Te  Te15  1  0.81074500  0.81513600  0.28870600  1
  Te  Te16  1  0.67778000  0.97173400  0.88729500  1
  Te  Te17  1  0.18925500  0.18486400  0.71129400  1
  Te  Te18  1  0.69269100  0.23685900  0.95815600  1
  Te  Te19  1  0.89380300  0.55458500  0.67710200  1
  Te  Te20  1  0.30730900  0.76314100  0.04184400  1
  Te  Te21  1  0.60619700  0.55458500  0.17710200  1
  Te  Te22  1  0.80730900  0.23685900  0.45815600  1
  Te  Te23  1  0.33415700  0.59712200  0.94178900  1
  Te  Te24  1  0.82222000  0.97173400  0.38729500  1
  Te  Te25  1  0.16584300  0.59712200  0.44178900  1
  Te  Te26  1  0.19269100  0.76314100  0.54184400  1
  Te  Te27  1  0.68925500  0.81513600  0.78870600  1
  Te  Te28  1  0.31074500  0.18486400  0.21129400  1
  Te  Te29  1  0.83415700  0.40287800  0.55821100  1
  Te  Te30  1  0.17778000  0.02826600  0.61270500  1
  Te  Te31  1  0.10619700  0.44541500  0.32289800  1
  Cl  Cl32  1  0.23740600  0.25727300  0.53561700  1
  Cl  Cl33  1  0.77331200  0.06695100  0.68212100  1
  Cl  Cl34  1  0.26259400  0.25727300  0.03561700  1
  Cl  Cl35  1  0.27331200  0.93304900  0.81787900  1
  Cl  Cl36  1  0.73740600  0.74272700  0.96438300  1
  Cl  Cl37  1  0.72668800  0.06695100  0.18212100  1
  Cl  Cl38  1  0.76259400  0.74272700  0.46438300  1
  Cl  Cl39  1  0.22668800  0.93304900  0.31787900  1
  O  O40  1  0.58430200  0.97613700  0.45070300  1
  O  O41  1  0.05601700  0.15419900  0.80439500  1
  O  O42  1  0.44398300  0.15419900  0.30439500  1
  O  O43  1  0.01820900  0.41942200  0.72138500  1
  O  O44  1  0.96505400  0.43013700  0.24585300  1
  O  O45  1  0.91569800  0.97613700  0.95070300  1
  O  O46  1  0.94549600  0.10649100  0.34609300  1
  O  O47  1  0.85519100  0.54113800  0.44586000  1
  O  O48  1  0.45884300  0.92712400  0.97309500  1
  O  O49  1  0.45555600  0.24795400  0.88903400  1
  O  O50  1  0.43093000  0.71517700  0.83275000  1
  O  O51  1  0.41569800  0.02386300  0.54929700  1
  O  O52  1  0.82994900  0.46865700  0.09775800  1
  O  O53  1  0.41960500  0.78234200  0.60041400  1
  O  O54  1  0.58829500  0.71776500  0.29704500  1
  O  O55  1  0.04444400  0.24795400  0.38903400  1
  O  O56  1  0.54115700  0.07287600  0.02690500  1
  O  O57  1  0.46505400  0.56986300  0.25414700  1
  O  O58  1  0.67005100  0.46865700  0.59775800  1
  O  O59  1  0.06907000  0.71517700  0.33275000  1
  O  O60  1  0.91960500  0.21765800  0.89958600  1
  O  O61  1  0.31509900  0.60209800  0.11239000  1
  O  O62  1  0.94398300  0.84580100  0.19560500  1
  O  O63  1  0.64480900  0.54113800  0.94586000  1
  O  O64  1  0.35519100  0.45886200  0.05414000  1
  O  O65  1  0.95884300  0.07287600  0.52690500  1
  O  O66  1  0.51820900  0.58057800  0.77861500  1
  O  O67  1  0.17005100  0.53134300  0.90224200  1
  O  O68  1  0.48179100  0.41942200  0.22138500  1
  O  O69  1  0.81509900  0.39790200  0.38761000  1
  O  O70  1  0.08430200  0.02386300  0.04929700  1
  O  O71  1  0.56907000  0.28482300  0.16725000  1
  O  O72  1  0.44549600  0.89350900  0.15390700  1
  O  O73  1  0.55601700  0.84580100  0.69560500  1
  O  O74  1  0.18490100  0.60209800  0.61239000  1
  O  O75  1  0.58039500  0.21765800  0.39958600  1
  O  O76  1  0.95555600  0.75204600  0.61096600  1
  O  O77  1  0.08039500  0.78234200  0.10041400  1
  O  O78  1  0.93093000  0.28482300  0.66725000  1
  O  O79  1  0.14480900  0.45886200  0.55414000  1
  O  O80  1  0.32994900  0.53134300  0.40224200  1
  O  O81  1  0.55450400  0.10649100  0.84609300  1
  O  O82  1  0.54444400  0.75204600  0.11096600  1
  O  O83  1  0.03494600  0.56986300  0.75414700  1
  O  O84  1  0.08829500  0.28223500  0.20295500  1
  O  O85  1  0.53494600  0.43013700  0.74585300  1
  O  O86  1  0.68490100  0.39790200  0.88761000  1
  O  O87  1  0.04115700  0.92712400  0.47309500  1
  O  O88  1  0.91170500  0.71776500  0.79704500  1
  O  O89  1  0.98179100  0.58057800  0.27861500  1
  O  O90  1  0.41170500  0.28223500  0.70295500  1
  O  O91  1  0.05450400  0.89350900  0.65390700  1
