# generated using pymatgen
data_K2PdSe10
_symmetry_space_group_name_H-M   'P 1'
_cell_length_a   13.22107107
_cell_length_b   13.22107107
_cell_length_c   13.22107107
_cell_angle_alpha   103.14785499
_cell_angle_beta   103.14785499
_cell_angle_gamma   123.02948565
_symmetry_Int_Tables_number   1
_chemical_formula_structural   K2PdSe10
_chemical_formula_sum   'K8 Pd4 Se40'
_cell_volume   1702.96318579
_cell_formula_units_Z   4
loop_
 _symmetry_equiv_pos_site_id
 _symmetry_equiv_pos_as_xyz
  1  'x, y, z'
loop_
 _atom_site_type_symbol
 _atom_site_label
 _atom_site_symmetry_multiplicity
 _atom_site_fract_x
 _atom_site_fract_y
 _atom_site_fract_z
 _atom_site_occupancy
  K  K0  1  0.85206500  0.65491900  0.00527700  1
  K  K1  1  0.39793500  0.90321200  0.30285400  1
  K  K2  1  0.90491900  0.60206500  0.50527700  1
  K  K3  1  0.60035800  0.09508100  0.69714600  1
  K  K4  1  0.09678800  0.39964200  0.49472300  1
  K  K5  1  0.34508100  0.35035800  0.19714600  1
  K  K6  1  0.64964200  0.84678800  0.99472300  1
  K  K7  1  0.15321200  0.14793500  0.80285400  1
  Pd  Pd8  1  0.75000000  0.25000000  0.50000000  1
  Pd  Pd9  1  0.25000000  0.75000000  0.50000000  1
  Pd  Pd10  1  0.50000000  0.50000000  0.00000000  1
  Pd  Pd11  1  0.00000000  0.00000000  0.00000000  1
  Se  Se12  1  0.08203100  0.13189700  0.32782800  1
  Se  Se13  1  0.40964000  0.76815100  0.65917400  1
  Se  Se14  1  0.32222800  0.26987200  0.41980500  1
  Se  Se15  1  0.23184900  0.51451700  0.80699800  1
  Se  Se16  1  0.51987200  0.07222800  0.91980500  1
  Se  Se17  1  0.57515000  0.76815100  0.28266800  1
  Se  Se18  1  0.92777200  0.84757700  0.44764500  1
  Se  Se19  1  0.39993300  0.48012800  0.55235500  1
  Se  Se20  1  0.44593000  0.61810300  0.45013400  1
  Se  Se21  1  0.23184900  0.89102300  0.64148900  1
  Se  Se22  1  0.15242300  0.60006700  0.08019500  1
  Se  Se23  1  0.10897700  0.75046600  0.34082600  1
  Se  Se24  1  0.86810300  0.19593000  0.95013400  1
  Se  Se25  1  0.64706100  0.56522000  0.19759700  1
  Se  Se26  1  0.38189700  0.83203100  0.82782800  1
  Se  Se27  1  0.81522000  0.39706100  0.69759700  1
  Se  Se28  1  0.14102300  0.98184900  0.14148900  1
  Se  Se29  1  0.60293900  0.30053600  0.41816000  1
  Se  Se30  1  0.00420300  0.55407000  0.17217200  1
  Se  Se31  1  0.76451700  0.98184900  0.30699800  1
  Se  Se32  1  0.16796900  0.99579700  0.54986600  1
  Se  Se33  1  0.24953400  0.59036000  0.35851100  1
  Se  Se34  1  0.67485000  0.45751900  0.69300200  1
  Se  Se35  1  0.85006700  0.90242300  0.58019500  1
  Se  Se36  1  0.01815100  0.15964000  0.15917400  1
  Se  Se37  1  0.36762400  0.44946400  0.80240300  1
  Se  Se38  1  0.88237600  0.18478000  0.58184000  1
  Se  Se39  1  0.55053600  0.35293900  0.91816000  1
  Se  Se40  1  0.00046600  0.85897700  0.84082600  1
  Se  Se41  1  0.54248100  0.23548300  0.21733200  1
  Se  Se42  1  0.73012800  0.14993300  0.05235500  1
  Se  Se43  1  0.80407000  0.75420300  0.67217200  1
  Se  Se44  1  0.48548300  0.29248100  0.71733200  1
  Se  Se45  1  0.43478000  0.63237600  0.08184000  1
  Se  Se46  1  0.69946400  0.11762400  0.30240300  1
  Se  Se47  1  0.84036000  0.99953400  0.85851100  1
  Se  Se48  1  0.09757700  0.67777200  0.94764500  1
  Se  Se49  1  0.70751900  0.42485000  0.19300200  1
  Se  Se50  1  0.01815100  0.32515000  0.78266800  1
  Se  Se51  1  0.24579700  0.91796900  0.04986600  1
