# generated using pymatgen
data_Sb2BrF17
_symmetry_space_group_name_H-M   'P 1'
_cell_length_a   8.65776200
_cell_length_b   12.15430900
_cell_length_c   16.13429805
_cell_angle_alpha   49.21183368
_cell_angle_beta   90.00000000
_cell_angle_gamma   90.00000000
_symmetry_Int_Tables_number   1
_chemical_formula_structural   Sb2BrF17
_chemical_formula_sum   'Sb8 Br4 F68'
_cell_volume   1285.45371415
_cell_formula_units_Z   4
loop_
 _symmetry_equiv_pos_site_id
 _symmetry_equiv_pos_as_xyz
  1  'x, y, z'
loop_
 _atom_site_type_symbol
 _atom_site_label
 _atom_site_symmetry_multiplicity
 _atom_site_fract_x
 _atom_site_fract_y
 _atom_site_fract_z
 _atom_site_occupancy
  Sb  Sb0  1  0.52206800  0.53322200  0.15659700  1
  Sb  Sb1  1  0.97793200  0.53322200  0.65659700  1
  Sb  Sb2  1  0.47793200  0.46677800  0.84340300  1
  Sb  Sb3  1  0.02206800  0.46677800  0.34340300  1
  Sb  Sb4  1  0.50224500  0.91670700  0.85683600  1
  Sb  Sb5  1  0.99775500  0.91670700  0.35683600  1
  Sb  Sb6  1  0.49775500  0.08329300  0.14316400  1
  Sb  Sb7  1  0.00224500  0.08329300  0.64316400  1
  Br  Br8  1  0.50000000  0.50000000  0.50000000  1
  Br  Br9  1  0.00000000  0.50000000  0.00000000  1
  Br  Br10  1  0.50000000  0.00000000  0.50000000  1
  Br  Br11  1  0.00000000  0.00000000  0.00000000  1
  F  F12  1  0.33468200  0.45271000  0.15524800  1
  F  F13  1  0.16531800  0.45271000  0.65524800  1
  F  F14  1  0.66531800  0.54729000  0.84475200  1
  F  F15  1  0.83468200  0.54729000  0.34475200  1
  F  F16  1  0.41021100  0.65687400  0.16980400  1
  F  F17  1  0.08978900  0.65687400  0.66980400  1
  F  F18  1  0.58978900  0.34312600  0.83019600  1
  F  F19  1  0.91021100  0.34312600  0.33019600  1
  F  F20  1  0.70707700  0.63423400  0.13310600  1
  F  F21  1  0.79292300  0.63423400  0.63310600  1
  F  F22  1  0.29292300  0.36576600  0.86689400  1
  F  F23  1  0.20707700  0.36576600  0.36689400  1
  F  F24  1  0.63044600  0.43379100  0.12047400  1
  F  F25  1  0.86955400  0.43379100  0.62047400  1
  F  F26  1  0.36955400  0.56620900  0.87952600  1
  F  F27  1  0.13044600  0.56620900  0.37952600  1
  F  F28  1  0.51898600  0.11803900  0.73454800  1
  F  F29  1  0.98101400  0.11803900  0.23454800  1
  F  F30  1  0.48101400  0.88196100  0.26545200  1
  F  F31  1  0.01898600  0.88196100  0.76545200  1
  F  F32  1  0.55057100  0.38656400  0.30972400  1
  F  F33  1  0.94942900  0.38656400  0.80972400  1
  F  F34  1  0.44942900  0.61343600  0.69027600  1
  F  F35  1  0.05057100  0.61343600  0.19027600  1
  F  F36  1  0.42693300  0.87275100  0.77109000  1
  F  F37  1  0.07306700  0.87275100  0.27109000  1
  F  F38  1  0.57306700  0.12724900  0.22891000  1
  F  F39  1  0.92693300  0.12724900  0.72891000  1
  F  F40  1  0.48404200  0.69408500  0.98928200  1
  F  F41  1  0.01595800  0.69408500  0.48928200  1
  F  F42  1  0.51595800  0.30591500  0.01071800  1
  F  F43  1  0.98404200  0.30591500  0.51071800  1
  F  F44  1  0.29680800  0.92255400  0.89497500  1
  F  F45  1  0.20319200  0.92255400  0.39497500  1
  F  F46  1  0.70319200  0.07744600  0.10502500  1
  F  F47  1  0.79680800  0.07744600  0.60502500  1
  F  F48  1  0.58015600  0.93508800  0.95717700  1
  F  F49  1  0.91984400  0.93508800  0.45717700  1
  F  F50  1  0.41984400  0.06491200  0.04282300  1
  F  F51  1  0.08015600  0.06491200  0.54282300  1
  F  F52  1  0.70669500  0.86764000  0.84544700  1
  F  F53  1  0.79330500  0.86764000  0.34544700  1
  F  F54  1  0.29330500  0.13236000  0.15455300  1
  F  F55  1  0.20669500  0.13236000  0.65455300  1
  F  F56  1  0.64831500  0.62648500  0.45333900  1
  F  F57  1  0.85168500  0.62648500  0.95333900  1
  F  F58  1  0.35168500  0.37351500  0.54666100  1
  F  F59  1  0.14831500  0.37351500  0.04666100  1
  F  F60  1  0.52850900  0.43146600  0.63395700  1
  F  F61  1  0.97149100  0.43146600  0.13395700  1
  F  F62  1  0.47149100  0.56853400  0.36604300  1
  F  F63  1  0.02850900  0.56853400  0.86604300  1
  F  F64  1  0.63265100  0.37398200  0.52293100  1
  F  F65  1  0.86734900  0.37398200  0.02293100  1
  F  F66  1  0.36734900  0.62601800  0.47706900  1
  F  F67  1  0.13265100  0.62601800  0.97706900  1
  F  F68  1  0.52131400  0.89505900  0.46234000  1
  F  F69  1  0.97868600  0.89505900  0.96234000  1
  F  F70  1  0.47868600  0.10494100  0.53766000  1
  F  F71  1  0.02131400  0.10494100  0.03766000  1
  F  F72  1  0.66251600  0.10056400  0.42305300  1
  F  F73  1  0.83748400  0.10056400  0.92305300  1
  F  F74  1  0.33748400  0.89943600  0.57694700  1
  F  F75  1  0.16251600  0.89943600  0.07694700  1
  F  F76  1  0.61729500  0.87778000  0.61364400  1
  F  F77  1  0.88270500  0.87778000  0.11364400  1
  F  F78  1  0.38270500  0.12222000  0.38635600  1
  F  F79  1  0.11729500  0.12222000  0.88635600  1
