# generated using pymatgen
data_Ho11Te16ClO48
_symmetry_space_group_name_H-M   'P 1'
_cell_length_a   5.56676900
_cell_length_b   11.99040350
_cell_length_c   18.62240202
_cell_angle_alpha   100.67495455
_cell_angle_beta   95.89006832
_cell_angle_gamma   99.81543752
_symmetry_Int_Tables_number   1
_chemical_formula_structural   Ho11Te16ClO48
_chemical_formula_sum   'Ho11 Te16 Cl1 O48'
_cell_volume   1191.99754394
_cell_formula_units_Z   1
loop_
 _symmetry_equiv_pos_site_id
 _symmetry_equiv_pos_as_xyz
  1  'x, y, z'
loop_
 _atom_site_type_symbol
 _atom_site_label
 _atom_site_symmetry_multiplicity
 _atom_site_fract_x
 _atom_site_fract_y
 _atom_site_fract_z
 _atom_site_occupancy
  Ho  Ho0  1  0.13142100  0.56971000  0.72937600  1
  Ho  Ho1  1  0.08339800  0.88622200  0.18627800  1
  Ho  Ho2  1  0.91660200  0.11377800  0.81372200  1
  Ho  Ho3  1  0.86857900  0.43029000  0.27062400  1
  Ho  Ho4  1  0.71866100  0.78476800  0.70555400  1
  Ho  Ho5  1  0.28330200  0.10375900  0.47781400  1
  Ho  Ho6  1  0.28133900  0.21523200  0.29444600  1
  Ho  Ho7  1  0.00000000  0.00000000  0.00000000  1
  Ho  Ho8  1  0.55709000  0.68070700  0.22249100  1
  Ho  Ho9  1  0.71669800  0.89624100  0.52218600  1
  Ho  Ho10  1  0.44291000  0.31929300  0.77750900  1
  Te  Te11  1  0.79032900  0.20898700  0.61827100  1
  Te  Te12  1  0.49187900  0.80466700  0.04992400  1
  Te  Te13  1  0.16515000  0.68339000  0.56397200  1
  Te  Te14  1  0.06944000  0.44824900  0.89019800  1
  Te  Te15  1  0.64688500  0.11354000  0.16531000  1
  Te  Te16  1  0.79445500  0.99372400  0.33899300  1
  Te  Te17  1  0.20554500  0.00627600  0.66100700  1
  Te  Te18  1  0.22878200  0.32570700  0.11886700  1
  Te  Te19  1  0.83485000  0.31661000  0.43602800  1
  Te  Te20  1  0.77121800  0.67429300  0.88113300  1
  Te  Te21  1  0.20967100  0.79101300  0.38172900  1
  Te  Te22  1  0.50812100  0.19533300  0.95007600  1
  Te  Te23  1  0.35311500  0.88646000  0.83469000  1
  Te  Te24  1  0.50990900  0.55472300  0.39226600  1
  Te  Te25  1  0.49009100  0.44527700  0.60773400  1
  Te  Te26  1  0.93056000  0.55175100  0.10980200  1
  Cl  Cl27  1  0.50000000  0.50000000  0.00000000  1
  O  O28  1  0.47094800  0.73198700  0.43370000  1
  O  O29  1  0.18431900  0.16213800  0.07882100  1
  O  O30  1  0.87190400  0.92470200  0.64791500  1
  O  O31  1  0.30881700  0.39356400  0.68092400  1
  O  O32  1  0.37782300  0.78152400  0.13979800  1
  O  O33  1  0.14749600  0.29133300  0.85424200  1
  O  O34  1  0.10975700  0.31232100  0.21067300  1
  O  O35  1  0.44355800  0.60302600  0.65646000  1
  O  O36  1  0.60006400  0.25671500  0.22110400  1
  O  O37  1  0.65874800  0.19856400  0.70908000  1
  O  O38  1  0.91029500  0.07686000  0.22509000  1
  O  O39  1  0.34125200  0.80143600  0.29092000  1
  O  O40  1  0.08970500  0.92314000  0.77491000  1
  O  O41  1  0.07019400  0.64835700  0.92834000  1
  O  O42  1  0.69118300  0.60643600  0.31907600  1
  O  O43  1  0.81568100  0.83786200  0.92117900  1
  O  O44  1  0.92980600  0.35164300  0.07166000  1
  O  O45  1  0.39666000  0.93460800  0.43726300  1
  O  O46  1  0.15021500  0.14195100  0.72646700  1
  O  O47  1  0.85250400  0.70866700  0.14575800  1
  O  O48  1  0.62217700  0.21847600  0.86020200  1
  O  O49  1  0.69776600  0.08103000  0.95760600  1
  O  O50  1  0.29117700  0.49498600  0.82440800  1
  O  O51  1  0.01978600  0.23149100  0.48830400  1
  O  O52  1  0.81330300  0.45410000  0.65351500  1
  O  O53  1  0.52905200  0.26801300  0.56630000  1
  O  O54  1  0.55426100  0.19590700  0.39992400  1
  O  O55  1  0.60496500  0.95984500  0.78711500  1
  O  O56  1  0.90065100  0.94869900  0.42848700  1
  O  O57  1  0.44573900  0.80409300  0.60007600  1
  O  O58  1  0.84978500  0.85804900  0.27353300  1
  O  O59  1  0.12809600  0.07529800  0.35208500  1
  O  O60  1  0.18669700  0.54590000  0.34648500  1
  O  O61  1  0.09934900  0.05130100  0.57151300  1
  O  O62  1  0.70882300  0.50501400  0.17559200  1
  O  O63  1  0.20104500  0.08550800  0.91166800  1
  O  O64  1  0.20337300  0.55291200  0.18250300  1
  O  O65  1  0.60334000  0.06539200  0.56273700  1
  O  O66  1  0.39503500  0.04015500  0.21288500  1
  O  O67  1  0.55644200  0.39697400  0.34354000  1
  O  O68  1  0.79895500  0.91449200  0.08833200  1
  O  O69  1  0.00195700  0.30886000  0.35142300  1
  O  O70  1  0.79662700  0.44708800  0.81749700  1
  O  O71  1  0.30223400  0.91897000  0.04239400  1
  O  O72  1  0.39993600  0.74328500  0.77889600  1
  O  O73  1  0.98021400  0.76850900  0.51169600  1
  O  O74  1  0.99804300  0.69114000  0.64857700  1
  O  O75  1  0.89024300  0.68767900  0.78932700  1
