# generated using pymatgen
data_YbIn2
_symmetry_space_group_name_H-M   'P 1'
_cell_length_a   4.93507584
_cell_length_b   4.93507584
_cell_length_c   7.64262800
_cell_angle_alpha   90.00000000
_cell_angle_beta   90.00000000
_cell_angle_gamma   119.99999785
_symmetry_Int_Tables_number   1
_chemical_formula_structural   YbIn2
_chemical_formula_sum   'Yb2 In4'
_cell_volume   161.19851041
_cell_formula_units_Z   2
loop_
 _symmetry_equiv_pos_site_id
 _symmetry_equiv_pos_as_xyz
  1  'x, y, z'
loop_
 _atom_site_type_symbol
 _atom_site_label
 _atom_site_symmetry_multiplicity
 _atom_site_fract_x
 _atom_site_fract_y
 _atom_site_fract_z
 _atom_site_occupancy
  Yb  Yb0  1  0.00000000  0.00000000  0.25000000  1
  Yb  Yb1  1  0.00000000  0.00000000  0.75000000  1
  In  In2  1  0.33333300  0.66666700  0.04634100  1
  In  In3  1  0.33333300  0.66666700  0.45365900  1
  In  In4  1  0.66666700  0.33333300  0.95365900  1
  In  In5  1  0.66666700  0.33333300  0.54634100  1
