# generated using pymatgen
data_K4Hf3Te17
_symmetry_space_group_name_H-M   'P 1'
_cell_length_a   31.17634500
_cell_length_b   10.42084000
_cell_length_c   11.97144798
_cell_angle_alpha   63.85531901
_cell_angle_beta   90.00000000
_cell_angle_gamma   90.00000000
_symmetry_Int_Tables_number   1
_chemical_formula_structural   K4Hf3Te17
_chemical_formula_sum   'K16 Hf12 Te68'
_cell_volume   3491.38870531
_cell_formula_units_Z   4
loop_
 _symmetry_equiv_pos_site_id
 _symmetry_equiv_pos_as_xyz
  1  'x, y, z'
loop_
 _atom_site_type_symbol
 _atom_site_label
 _atom_site_symmetry_multiplicity
 _atom_site_fract_x
 _atom_site_fract_y
 _atom_site_fract_z
 _atom_site_occupancy
  K  K0  1  0.98080600  0.73790200  0.46166200  1
  K  K1  1  0.72288800  0.30353300  0.43506200  1
  K  K2  1  0.51919400  0.73790200  0.96166200  1
  K  K3  1  0.93276300  0.22877400  0.01981600  1
  K  K4  1  0.56723700  0.22877400  0.51981600  1
  K  K5  1  0.06723700  0.77122600  0.98018400  1
  K  K6  1  0.70538900  0.75952800  0.96429600  1
  K  K7  1  0.29461100  0.24047200  0.03570400  1
  K  K8  1  0.48080600  0.26209800  0.03833800  1
  K  K9  1  0.27711200  0.69646700  0.56493800  1
  K  K10  1  0.43276300  0.77122600  0.48018400  1
  K  K11  1  0.77711200  0.30353300  0.93506200  1
  K  K12  1  0.20538900  0.24047200  0.53570400  1
  K  K13  1  0.79461100  0.75952800  0.46429600  1
  K  K14  1  0.01919400  0.26209800  0.53833800  1
  K  K15  1  0.22288800  0.69646700  0.06493800  1
  Hf  Hf16  1  0.38203500  0.44884800  0.33412500  1
  Hf  Hf17  1  0.11886300  0.78586400  0.50526500  1
  Hf  Hf18  1  0.88075600  0.88224500  0.82477700  1
  Hf  Hf19  1  0.61886300  0.21413600  0.99473500  1
  Hf  Hf20  1  0.61796500  0.55115200  0.66587500  1
  Hf  Hf21  1  0.88203500  0.55115200  0.16587500  1
  Hf  Hf22  1  0.61924400  0.88224500  0.32477700  1
  Hf  Hf23  1  0.11796500  0.44884800  0.83412500  1
  Hf  Hf24  1  0.38113700  0.78586400  0.00526500  1
  Hf  Hf25  1  0.11924400  0.11775500  0.17522300  1
  Hf  Hf26  1  0.38075600  0.11775500  0.67522300  1
  Hf  Hf27  1  0.88113700  0.21413600  0.49473500  1
  Te  Te28  1  0.67785500  0.31004400  0.77217500  1
  Te  Te29  1  0.17785500  0.68995600  0.72782500  1
  Te  Te30  1  0.05592500  0.69815900  0.71546500  1
  Te  Te31  1  0.59995900  0.20080300  0.24052400  1
  Te  Te32  1  0.11404600  0.13107300  0.91686800  1
  Te  Te33  1  0.90004100  0.20080300  0.74052400  1
  Te  Te34  1  0.70767500  0.60186800  0.70931500  1
  Te  Te35  1  0.44407500  0.69815900  0.21546500  1
  Te  Te36  1  0.46975500  0.00353800  0.65625600  1
  Te  Te37  1  0.29408900  0.99235600  0.65833600  1
  Te  Te38  1  0.69724000  0.93714900  0.63136000  1
  Te  Te39  1  0.79232500  0.60186800  0.20931500  1
  Te  Te40  1  0.10585000  0.98369800  0.62076700  1
  Te  Te41  1  0.02674700  0.40380000  0.78461500  1
  Te  Te42  1  0.61404600  0.86892700  0.58313200  1
  Te  Te43  1  0.61781600  0.62756000  0.26011200  1
  Te  Te44  1  0.88218400  0.62756000  0.76011200  1
  Te  Te45  1  0.32214500  0.68995600  0.22782500  1
  Te  Te46  1  0.43891300  0.38377600  0.54688100  1
  Te  Te47  1  0.94316700  0.97711300  0.60849400  1
  Te  Te48  1  0.55592500  0.30184100  0.78453500  1
  Te  Te49  1  0.56108700  0.61622400  0.45311900  1
  Te  Te50  1  0.60585000  0.01630200  0.87923300  1
  Te  Te51  1  0.47325300  0.40380000  0.28461500  1
  Te  Te52  1  0.17635100  0.62629400  0.41275800  1
  Te  Te53  1  0.82364900  0.37370600  0.58724200  1
  Te  Te54  1  0.18271600  0.01312200  0.38198800  1
  Te  Te55  1  0.10619600  0.47686300  0.57610700  1
  Te  Te56  1  0.97325300  0.59620000  0.21538500  1
  Te  Te57  1  0.40004100  0.79919700  0.75947600  1
  Te  Te58  1  0.68271600  0.98687800  0.11801200  1
  Te  Te59  1  0.29232500  0.39813200  0.29068500  1
  Te  Te60  1  0.89415000  0.01630200  0.37923300  1
  Te  Te61  1  0.32331800  0.37701700  0.54637600  1
  Te  Te62  1  0.94407500  0.30184100  0.28453500  1
  Te  Te63  1  0.38218400  0.37244000  0.73988800  1
  Te  Te64  1  0.44316700  0.02288700  0.89150600  1
  Te  Te65  1  0.39415000  0.98369800  0.12076700  1
  Te  Te66  1  0.55683300  0.97711300  0.10849400  1
  Te  Te67  1  0.81728400  0.98687800  0.61801200  1
  Te  Te68  1  0.19724000  0.06285100  0.86864000  1
  Te  Te69  1  0.67668200  0.62298300  0.45362400  1
  Te  Te70  1  0.82331800  0.62298300  0.95362400  1
  Te  Te71  1  0.80276000  0.93714900  0.13136000  1
  Te  Te72  1  0.89380400  0.52313700  0.42389300  1
  Te  Te73  1  0.60619600  0.52313700  0.92389300  1
  Te  Te74  1  0.38595400  0.13107300  0.41686800  1
  Te  Te75  1  0.96975500  0.99646200  0.84374400  1
  Te  Te76  1  0.67635100  0.37370600  0.08724200  1
  Te  Te77  1  0.20591100  0.99235600  0.15833600  1
  Te  Te78  1  0.70591100  0.00764400  0.34166400  1
  Te  Te79  1  0.03024500  0.00353800  0.15625600  1
  Te  Te80  1  0.53024500  0.99646200  0.34374400  1
  Te  Te81  1  0.39380400  0.47686300  0.07610700  1
  Te  Te82  1  0.31728400  0.01312200  0.88198800  1
  Te  Te83  1  0.88595400  0.86892700  0.08313200  1
  Te  Te84  1  0.52674700  0.59620000  0.71538500  1
  Te  Te85  1  0.30276000  0.06285100  0.36864000  1
  Te  Te86  1  0.11781600  0.37244000  0.23988800  1
  Te  Te87  1  0.82214500  0.31004400  0.27217500  1
  Te  Te88  1  0.09995900  0.79919700  0.25947600  1
  Te  Te89  1  0.32364900  0.62629400  0.91275800  1
  Te  Te90  1  0.05683300  0.02288700  0.39150600  1
  Te  Te91  1  0.93891300  0.61622400  0.95311900  1
  Te  Te92  1  0.06108700  0.38377600  0.04688100  1
  Te  Te93  1  0.79408900  0.00764400  0.84166400  1
  Te  Te94  1  0.20767500  0.39813200  0.79068500  1
  Te  Te95  1  0.17668200  0.37701700  0.04637600  1
