# generated using pymatgen
data_Na4Ce(As2O7)2
_symmetry_space_group_name_H-M   'P 1'
_cell_length_a   11.00105800
_cell_length_b   11.00105800
_cell_length_c   10.41413100
_cell_angle_alpha   90.00000000
_cell_angle_beta   90.00000000
_cell_angle_gamma   90.00000000
_symmetry_Int_Tables_number   1
_chemical_formula_structural   Na4Ce(As2O7)2
_chemical_formula_sum   'Na16 Ce4 As16 O56'
_cell_volume   1260.35226197
_cell_formula_units_Z   4
loop_
 _symmetry_equiv_pos_site_id
 _symmetry_equiv_pos_as_xyz
  1  'x, y, z'
loop_
 _atom_site_type_symbol
 _atom_site_label
 _atom_site_symmetry_multiplicity
 _atom_site_fract_x
 _atom_site_fract_y
 _atom_site_fract_z
 _atom_site_occupancy
  Na  Na0  1  0.42511300  0.35113800  0.39563200  1
  Na  Na1  1  0.14886200  0.07488700  0.89563200  1
  Na  Na2  1  0.64886200  0.42511300  0.60436800  1
  Na  Na3  1  0.57488700  0.64886200  0.39563200  1
  Na  Na4  1  0.85113800  0.07488700  0.39563200  1
  Na  Na5  1  0.42511300  0.64886200  0.89563200  1
  Na  Na6  1  0.92511300  0.14886200  0.10436800  1
  Na  Na7  1  0.57488700  0.35113800  0.89563200  1
  Na  Na8  1  0.92511300  0.85113800  0.60436800  1
  Na  Na9  1  0.14886200  0.92511300  0.39563200  1
  Na  Na10  1  0.85113800  0.92511300  0.89563200  1
  Na  Na11  1  0.07488700  0.85113800  0.10436800  1
  Na  Na12  1  0.07488700  0.14886200  0.60436800  1
  Na  Na13  1  0.64886200  0.57488700  0.10436800  1
  Na  Na14  1  0.35113800  0.57488700  0.60436800  1
  Na  Na15  1  0.35113800  0.42511300  0.10436800  1
  Ce  Ce16  1  0.50000000  0.00000000  0.93065800  1
  Ce  Ce17  1  0.00000000  0.50000000  0.06934200  1
  Ce  Ce18  1  0.50000000  0.00000000  0.43065800  1
  Ce  Ce19  1  0.00000000  0.50000000  0.56934200  1
  As  As20  1  0.77355200  0.60061500  0.82272200  1
  As  As21  1  0.60061500  0.77355200  0.67727800  1
  As  As22  1  0.77355200  0.39938500  0.32272200  1
  As  As23  1  0.39938500  0.22644800  0.67727800  1
  As  As24  1  0.60061500  0.22644800  0.17727800  1
  As  As25  1  0.22644800  0.60061500  0.32272200  1
  As  As26  1  0.22644800  0.39938500  0.82272200  1
  As  As27  1  0.10061500  0.27355200  0.32272200  1
  As  As28  1  0.39938500  0.77355200  0.17727800  1
  As  As29  1  0.89938500  0.72644800  0.32272200  1
  As  As30  1  0.27355200  0.10061500  0.17727800  1
  As  As31  1  0.72644800  0.89938500  0.17727800  1
  As  As32  1  0.89938500  0.27355200  0.82272200  1
  As  As33  1  0.10061500  0.72644800  0.82272200  1
  As  As34  1  0.72644800  0.10061500  0.67727800  1
  As  As35  1  0.27355200  0.89938500  0.67727800  1
  O  O36  1  0.94726100  0.13829300  0.88114300  1
  O  O37  1  0.75018300  0.24981700  0.25000000  1
  O  O38  1  0.48847100  0.82147600  0.30249800  1
  O  O39  1  0.32147600  0.98847100  0.80249800  1
  O  O40  1  0.01152900  0.67852400  0.69750200  1
  O  O41  1  0.86693500  0.62563600  0.44296300  1
  O  O42  1  0.13306500  0.62563600  0.94296300  1
  O  O43  1  0.13829300  0.05273900  0.11885700  1
  O  O44  1  0.87436400  0.36693500  0.44296300  1
  O  O45  1  0.62563600  0.86693500  0.05703700  1
  O  O46  1  0.55273900  0.36170700  0.11885700  1
  O  O47  1  0.37436400  0.86693500  0.55703700  1
  O  O48  1  0.67852400  0.98847100  0.30249800  1
  O  O49  1  0.74981700  0.74981700  0.25000000  1
  O  O50  1  0.36693500  0.87436400  0.05703700  1
  O  O51  1  0.48847100  0.17852400  0.80249800  1
  O  O52  1  0.36170700  0.55273900  0.38114300  1
  O  O53  1  0.32147600  0.01152900  0.30249800  1
  O  O54  1  0.12563600  0.63306500  0.44296300  1
  O  O55  1  0.63306500  0.87436400  0.55703700  1
  O  O56  1  0.87436400  0.63306500  0.94296300  1
  O  O57  1  0.82147600  0.51152900  0.69750200  1
  O  O58  1  0.17852400  0.48847100  0.69750200  1
  O  O59  1  0.63829300  0.44726100  0.38114300  1
  O  O60  1  0.51152900  0.82147600  0.80249800  1
  O  O61  1  0.25018300  0.25018300  0.25000000  1
  O  O62  1  0.17852400  0.51152900  0.19750200  1
  O  O63  1  0.24981700  0.24981700  0.75000000  1
  O  O64  1  0.67852400  0.01152900  0.80249800  1
  O  O65  1  0.55273900  0.63829300  0.61885700  1
  O  O66  1  0.98847100  0.67852400  0.19750200  1
  O  O67  1  0.37436400  0.13306500  0.05703700  1
  O  O68  1  0.24981700  0.75018300  0.25000000  1
  O  O69  1  0.82147600  0.48847100  0.19750200  1
  O  O70  1  0.36693500  0.12563600  0.55703700  1
  O  O71  1  0.86170700  0.94726100  0.11885700  1
  O  O72  1  0.36170700  0.44726100  0.88114300  1
  O  O73  1  0.51152900  0.17852400  0.30249800  1
  O  O74  1  0.86693500  0.37436400  0.94296300  1
  O  O75  1  0.44726100  0.36170700  0.61885700  1
  O  O76  1  0.63829300  0.55273900  0.88114300  1
  O  O77  1  0.05273900  0.86170700  0.88114300  1
  O  O78  1  0.94726100  0.86170700  0.38114300  1
  O  O79  1  0.62563600  0.13306500  0.55703700  1
  O  O80  1  0.74981700  0.25018300  0.75000000  1
  O  O81  1  0.01152900  0.32147600  0.19750200  1
  O  O82  1  0.98847100  0.32147600  0.69750200  1
  O  O83  1  0.86170700  0.05273900  0.61885700  1
  O  O84  1  0.44726100  0.63829300  0.11885700  1
  O  O85  1  0.75018300  0.75018300  0.75000000  1
  O  O86  1  0.05273900  0.13829300  0.38114300  1
  O  O87  1  0.63306500  0.12563600  0.05703700  1
  O  O88  1  0.12563600  0.36693500  0.94296300  1
  O  O89  1  0.13306500  0.37436400  0.44296300  1
  O  O90  1  0.25018300  0.74981700  0.75000000  1
  O  O91  1  0.13829300  0.94726100  0.61885700  1
