# generated using pymatgen
data_K3Ta2Ag3Se8
_symmetry_space_group_name_H-M   'P 1'
_cell_length_a   13.23587359
_cell_length_b   13.23587359
_cell_length_c   14.76470499
_cell_angle_alpha   61.51662572
_cell_angle_beta   61.51662572
_cell_angle_gamma   26.97500519
_symmetry_Int_Tables_number   1
_chemical_formula_structural   K3Ta2Ag3Se8
_chemical_formula_sum   'K6 Ta4 Ag6 Se16'
_cell_volume   1022.49836443
_cell_formula_units_Z   2
loop_
 _symmetry_equiv_pos_site_id
 _symmetry_equiv_pos_as_xyz
  1  'x, y, z'
loop_
 _atom_site_type_symbol
 _atom_site_label
 _atom_site_symmetry_multiplicity
 _atom_site_fract_x
 _atom_site_fract_y
 _atom_site_fract_z
 _atom_site_occupancy
  K  K0  1  0.22675600  0.38149400  0.60748300  1
  K  K1  1  0.77324400  0.61850600  0.39251700  1
  K  K2  1  0.38149400  0.22675600  0.10748300  1
  K  K3  1  0.00000000  0.00000000  0.50000000  1
  K  K4  1  0.61850600  0.77324400  0.89251700  1
  K  K5  1  0.00000000  0.00000000  0.00000000  1
  Ta  Ta6  1  0.17749800  0.56643200  0.28136100  1
  Ta  Ta7  1  0.56643200  0.17749800  0.78136100  1
  Ta  Ta8  1  0.43356800  0.82250200  0.21863900  1
  Ta  Ta9  1  0.82250200  0.43356800  0.71863900  1
  Ag  Ag10  1  0.30783200  0.69216800  0.25000000  1
  Ag  Ag11  1  0.06521700  0.67679000  0.79099500  1
  Ag  Ag12  1  0.69216800  0.30783200  0.75000000  1
  Ag  Ag13  1  0.67679000  0.06521700  0.29099500  1
  Ag  Ag14  1  0.32321000  0.93478300  0.70900500  1
  Ag  Ag15  1  0.93478300  0.32321000  0.20900500  1
  Se  Se16  1  0.73218100  0.69586300  0.10294900  1
  Se  Se17  1  0.57567700  0.51757100  0.34869800  1
  Se  Se18  1  0.19365600  0.00195500  0.10994100  1
  Se  Se19  1  0.42432300  0.48242900  0.65130200  1
  Se  Se20  1  0.00195500  0.19365600  0.60994100  1
  Se  Se21  1  0.08233200  0.23562400  0.81788900  1
  Se  Se22  1  0.69586300  0.73218100  0.60294900  1
  Se  Se23  1  0.48242900  0.42432300  0.15130200  1
  Se  Se24  1  0.51757100  0.57567700  0.84869800  1
  Se  Se25  1  0.30413700  0.26781900  0.39705100  1
  Se  Se26  1  0.76437600  0.91766800  0.68211100  1
  Se  Se27  1  0.80634400  0.99804500  0.89005900  1
  Se  Se28  1  0.26781900  0.30413700  0.89705100  1
  Se  Se29  1  0.99804500  0.80634400  0.39005900  1
  Se  Se30  1  0.91766800  0.76437600  0.18211100  1
  Se  Se31  1  0.23562400  0.08233200  0.31788900  1
