# generated using pymatgen
data_GaI2
_symmetry_space_group_name_H-M   'P 1'
_cell_length_a   15.83948930
_cell_length_b   15.83948930
_cell_length_c   15.83948906
_cell_angle_alpha   117.36302098
_cell_angle_beta   117.36302098
_cell_angle_gamma   117.36301681
_symmetry_Int_Tables_number   1
_chemical_formula_structural   GaI2
_chemical_formula_sum   'Ga12 I24'
_cell_volume   1648.26717687
_cell_formula_units_Z   12
loop_
 _symmetry_equiv_pos_site_id
 _symmetry_equiv_pos_as_xyz
  1  'x, y, z'
loop_
 _atom_site_type_symbol
 _atom_site_label
 _atom_site_symmetry_multiplicity
 _atom_site_fract_x
 _atom_site_fract_y
 _atom_site_fract_z
 _atom_site_occupancy
  Ga  Ga0  1  0.74417400  0.05658800  0.89560600  1
  Ga  Ga1  1  0.70291800  0.89274900  0.08344100  1
  Ga  Ga2  1  0.20291800  0.58344100  0.39274900  1
  Ga  Ga3  1  0.89274900  0.08344100  0.70291800  1
  Ga  Ga4  1  0.55658900  0.24417400  0.39560600  1
  Ga  Ga5  1  0.24417400  0.39560600  0.55658900  1
  Ga  Ga6  1  0.39560600  0.55658800  0.24417400  1
  Ga  Ga7  1  0.58344100  0.39274900  0.20291800  1
  Ga  Ga8  1  0.05658900  0.89560600  0.74417400  1
  Ga  Ga9  1  0.39274900  0.20291800  0.58344100  1
  Ga  Ga10  1  0.89560600  0.74417400  0.05658900  1
  Ga  Ga11  1  0.08344100  0.70291800  0.89274900  1
  I  I12  1  0.85533400  0.44978800  0.78308700  1
  I  I13  1  0.95455300  0.54816600  0.61603700  1
  I  I14  1  0.40546600  0.60339300  0.50378800  1
  I  I15  1  0.78308700  0.85533400  0.44978800  1
  I  I16  1  0.65240500  0.39919500  0.90031100  1
  I  I17  1  0.00378800  0.10339300  0.90546600  1
  I  I18  1  0.61603700  0.95455300  0.54816600  1
  I  I19  1  0.04816600  0.45455300  0.11603700  1
  I  I20  1  0.35533400  0.28308700  0.94978800  1
  I  I21  1  0.50378800  0.40546600  0.60339300  1
  I  I22  1  0.90031100  0.65240500  0.39919500  1
  I  I23  1  0.15240500  0.40031100  0.89919500  1
  I  I24  1  0.44978800  0.78308700  0.85533400  1
  I  I25  1  0.54816600  0.61603700  0.95455300  1
  I  I26  1  0.10339300  0.90546600  0.00378800  1
  I  I27  1  0.60339300  0.50378800  0.40546600  1
  I  I28  1  0.89919500  0.15240500  0.40031100  1
  I  I29  1  0.39919500  0.90031100  0.65240500  1
  I  I30  1  0.90546600  0.00378800  0.10339300  1
  I  I31  1  0.94978800  0.35533400  0.28308700  1
  I  I32  1  0.45455300  0.11603700  0.04816600  1
  I  I33  1  0.40031100  0.89919500  0.15240500  1
  I  I34  1  0.11603700  0.04816600  0.45455300  1
  I  I35  1  0.28308700  0.94978800  0.35533400  1
