# generated using pymatgen
data_CsPH3O4F
_symmetry_space_group_name_H-M   'P 1'
_cell_length_a   7.97026400
_cell_length_b   9.59874700
_cell_length_c   15.12581100
_cell_angle_alpha   90.00000000
_cell_angle_beta   90.00000000
_cell_angle_gamma   90.00000000
_symmetry_Int_Tables_number   1
_chemical_formula_structural   CsPH3O4F
_chemical_formula_sum   'Cs8 P8 H24 O32 F8'
_cell_volume   1157.19332853
_cell_formula_units_Z   8
loop_
 _symmetry_equiv_pos_site_id
 _symmetry_equiv_pos_as_xyz
  1  'x, y, z'
loop_
 _atom_site_type_symbol
 _atom_site_label
 _atom_site_symmetry_multiplicity
 _atom_site_fract_x
 _atom_site_fract_y
 _atom_site_fract_z
 _atom_site_occupancy
  Cs  Cs0  1  0.70415300  0.57009000  0.33516000  1
  Cs  Cs1  1  0.79584700  0.42991000  0.83516000  1
  Cs  Cs2  1  0.20415300  0.57009000  0.16484000  1
  Cs  Cs3  1  0.70415300  0.92991000  0.83516000  1
  Cs  Cs4  1  0.29584700  0.07009000  0.16484000  1
  Cs  Cs5  1  0.79584700  0.07009000  0.33516000  1
  Cs  Cs6  1  0.29584700  0.42991000  0.66484000  1
  Cs  Cs7  1  0.20415300  0.92991000  0.66484000  1
  P  P8  1  0.80932000  0.20180500  0.06123100  1
  P  P9  1  0.30932000  0.20180500  0.43876900  1
  P  P10  1  0.19068000  0.79819500  0.93876900  1
  P  P11  1  0.80932000  0.29819500  0.56123100  1
  P  P12  1  0.19068000  0.70180500  0.43876900  1
  P  P13  1  0.69068000  0.70180500  0.06123100  1
  P  P14  1  0.30932000  0.29819500  0.93876900  1
  P  P15  1  0.69068000  0.79819500  0.56123100  1
  H  H16  1  0.72271600  0.51645800  0.57303600  1
  H  H17  1  0.55444400  0.79870300  0.19757700  1
  H  H18  1  0.77728400  0.01645800  0.57303600  1
  H  H19  1  0.72271600  0.98354200  0.07303600  1
  H  H20  1  0.44555600  0.29870300  0.30242300  1
  H  H21  1  0.55444400  0.70129700  0.69757700  1
  H  H22  1  0.01777500  0.33706100  0.46362300  1
  H  H23  1  0.44555600  0.20129700  0.80242300  1
  H  H24  1  0.27728400  0.01645800  0.92696400  1
  H  H25  1  0.05444400  0.79870300  0.30242300  1
  H  H26  1  0.94555600  0.20129700  0.69757700  1
  H  H27  1  0.01777500  0.16293900  0.96362300  1
  H  H28  1  0.22271600  0.51645800  0.92696400  1
  H  H29  1  0.94555600  0.29870300  0.19757700  1
  H  H30  1  0.98222500  0.83706100  0.03637700  1
  H  H31  1  0.77728400  0.48354200  0.07303600  1
  H  H32  1  0.22271600  0.98354200  0.42696400  1
  H  H33  1  0.98222500  0.66293900  0.53637700  1
  H  H34  1  0.48222500  0.83706100  0.46362300  1
  H  H35  1  0.05444400  0.70129700  0.80242300  1
  H  H36  1  0.48222500  0.66293900  0.96362300  1
  H  H37  1  0.51777500  0.16293900  0.53637700  1
  H  H38  1  0.27728400  0.48354200  0.42696400  1
  H  H39  1  0.51777500  0.33706100  0.03637700  1
  O  O40  1  0.32255600  0.91728600  0.91714200  1
  O  O41  1  0.32255600  0.58271400  0.41714200  1
  O  O42  1  0.88893300  0.34277300  0.46950000  1
  O  O43  1  0.05239100  0.78981700  0.86886700  1
  O  O44  1  0.20800700  0.16381800  0.94916800  1
  O  O45  1  0.55239100  0.78981700  0.63113300  1
  O  O46  1  0.70800700  0.16381800  0.55083200  1
  O  O47  1  0.20800700  0.33618200  0.44916800  1
  O  O48  1  0.17744400  0.41728600  0.91714200  1
  O  O49  1  0.11106700  0.84277300  0.03050000  1
  O  O50  1  0.82255600  0.58271400  0.08285800  1
  O  O51  1  0.67744400  0.08271400  0.08285800  1
  O  O52  1  0.67744400  0.41728600  0.58285800  1
  O  O53  1  0.88893300  0.15722700  0.96950000  1
  O  O54  1  0.79199300  0.66381800  0.55083200  1
  O  O55  1  0.44760900  0.21018300  0.36886700  1
  O  O56  1  0.61106700  0.65722700  0.96950000  1
  O  O57  1  0.29199300  0.83618200  0.44916800  1
  O  O58  1  0.11106700  0.65722700  0.53050000  1
  O  O59  1  0.94760900  0.21018300  0.13113300  1
  O  O60  1  0.17744400  0.08271400  0.41714200  1
  O  O61  1  0.05239100  0.71018300  0.36886700  1
  O  O62  1  0.61106700  0.84277300  0.46950000  1
  O  O63  1  0.94760900  0.28981700  0.63113300  1
  O  O64  1  0.55239100  0.71018300  0.13113300  1
  O  O65  1  0.38893300  0.15722700  0.53050000  1
  O  O66  1  0.44760900  0.28981700  0.86886700  1
  O  O67  1  0.29199300  0.66381800  0.94916800  1
  O  O68  1  0.79199300  0.83618200  0.05083200  1
  O  O69  1  0.82255600  0.91728600  0.58285800  1
  O  O70  1  0.38893300  0.34277300  0.03050000  1
  O  O71  1  0.70800700  0.33618200  0.05083200  1
  F  F72  1  0.04657400  0.63530700  0.74636700  1
  F  F73  1  0.54657400  0.86469300  0.25363300  1
  F  F74  1  0.95342600  0.13530700  0.75363300  1
  F  F75  1  0.45342600  0.36469300  0.24636700  1
  F  F76  1  0.54657400  0.63530700  0.75363300  1
  F  F77  1  0.95342600  0.36469300  0.25363300  1
  F  F78  1  0.45342600  0.13530700  0.74636700  1
  F  F79  1  0.04657400  0.86469300  0.24636700  1
