# generated using pymatgen
data_Na3SO4F
_symmetry_space_group_name_H-M   'P 1'
_cell_length_a   7.03847100
_cell_length_b   11.64203000
_cell_length_c   18.32510410
_cell_angle_alpha   72.61266233
_cell_angle_beta   90.00000000
_cell_angle_gamma   90.00000000
_symmetry_Int_Tables_number   1
_chemical_formula_structural   Na3SO4F
_chemical_formula_sum   'Na36 S12 O48 F12'
_cell_volume   1432.98394096
_cell_formula_units_Z   12
loop_
 _symmetry_equiv_pos_site_id
 _symmetry_equiv_pos_as_xyz
  1  'x, y, z'
loop_
 _atom_site_type_symbol
 _atom_site_label
 _atom_site_symmetry_multiplicity
 _atom_site_fract_x
 _atom_site_fract_y
 _atom_site_fract_z
 _atom_site_occupancy
  Na  Na0  1  0.50000000  0.50000000  0.50000000  1
  Na  Na1  1  0.00000000  0.50000000  0.50000000  1
  Na  Na2  1  0.25000000  0.69708000  0.35038700  1
  Na  Na3  1  0.75000000  0.30292000  0.64961300  1
  Na  Na4  1  0.25000000  0.12646000  0.11730600  1
  Na  Na5  1  0.75000000  0.87354000  0.88269400  1
  Na  Na6  1  0.25000000  0.60432400  0.61576600  1
  Na  Na7  1  0.75000000  0.39567600  0.38423400  1
  Na  Na8  1  0.25000000  0.18468300  0.85269800  1
  Na  Na9  1  0.75000000  0.81531700  0.14730200  1
  Na  Na10  1  0.25000000  0.09122800  0.39328400  1
  Na  Na11  1  0.75000000  0.90877200  0.60671600  1
  Na  Na12  1  0.50000000  0.00000000  0.00000000  1
  Na  Na13  1  0.00000000  0.00000000  0.00000000  1
  Na  Na14  1  0.25000000  0.56289500  0.89284900  1
  Na  Na15  1  0.75000000  0.43710500  0.10715100  1
  Na  Na16  1  0.47348400  0.96759800  0.27948800  1
  Na  Na17  1  0.97348400  0.03240200  0.72051200  1
  Na  Na18  1  0.52651600  0.03240200  0.72051200  1
  Na  Na19  1  0.02651600  0.96759800  0.27948800  1
  Na  Na20  1  0.48180400  0.80908400  0.46547500  1
  Na  Na21  1  0.98180400  0.19091600  0.53452500  1
  Na  Na22  1  0.51819600  0.19091600  0.53452500  1
  Na  Na23  1  0.01819600  0.80908400  0.46547500  1
  Na  Na24  1  0.49938400  0.26529900  0.24529600  1
  Na  Na25  1  0.99938400  0.73470100  0.75470400  1
  Na  Na26  1  0.50061600  0.73470100  0.75470400  1
  Na  Na27  1  0.00061600  0.26529900  0.24529600  1
  Na  Na28  1  0.47737000  0.44879600  0.77424100  1
  Na  Na29  1  0.97737000  0.55120400  0.22575900  1
  Na  Na30  1  0.52263000  0.55120400  0.22575900  1
  Na  Na31  1  0.02263000  0.44879600  0.77424100  1
  Na  Na32  1  0.47695500  0.29203200  0.97025600  1
  Na  Na33  1  0.97695500  0.70796800  0.02974400  1
  Na  Na34  1  0.52304500  0.70796800  0.02974400  1
  Na  Na35  1  0.02304500  0.29203200  0.97025600  1
  S  S36  1  0.25000000  0.80666900  0.16161500  1
  S  S37  1  0.75000000  0.19333100  0.83838500  1
  S  S38  1  0.25000000  0.91927500  0.59673600  1
  S  S39  1  0.75000000  0.08072500  0.40326400  1
  S  S40  1  0.25000000  0.29904400  0.65357800  1
  S  S41  1  0.75000000  0.70095600  0.34642200  1
  S  S42  1  0.25000000  0.45587600  0.08543900  1
  S  S43  1  0.75000000  0.54412400  0.91456100  1
  S  S44  1  0.25000000  0.38666700  0.37474700  1
  S  S45  1  0.75000000  0.61333300  0.62525300  1
  S  S46  1  0.25000000  0.88058300  0.86982600  1
  S  S47  1  0.75000000  0.11941700  0.13017400  1
  O  O48  1  0.42274400  0.81991400  0.11267900  1
  O  O49  1  0.92274400  0.18008600  0.88732100  1
  O  O50  1  0.57725600  0.18008600  0.88732100  1
  O  O51  1  0.07725600  0.81991400  0.11267900  1
  O  O52  1  0.42348800  0.90744500  0.64553100  1
  O  O53  1  0.92348800  0.09255500  0.35446900  1
  O  O54  1  0.57651200  0.09255500  0.35446900  1
  O  O55  1  0.07651200  0.90744500  0.64553100  1
  O  O56  1  0.42352000  0.22564100  0.65277600  1
  O  O57  1  0.92352000  0.77435900  0.34722400  1
  O  O58  1  0.57648000  0.77435900  0.34722400  1
  O  O59  1  0.07648000  0.22564100  0.65277600  1
  O  O60  1  0.42322700  0.44588600  0.13384200  1
  O  O61  1  0.92322700  0.55411400  0.86615800  1
  O  O62  1  0.57677300  0.55411400  0.86615800  1
  O  O63  1  0.07677300  0.44588600  0.13384200  1
  O  O64  1  0.25000000  0.90133700  0.20130800  1
  O  O65  1  0.75000000  0.09866300  0.79869200  1
  O  O66  1  0.25000000  0.82164300  0.55934300  1
  O  O67  1  0.75000000  0.17835700  0.44065700  1
  O  O68  1  0.25000000  0.33744900  0.72449900  1
  O  O69  1  0.75000000  0.66255100  0.27550100  1
  O  O70  1  0.25000000  0.35790600  0.04827000  1
  O  O71  1  0.75000000  0.64209400  0.95173000  1
  O  O72  1  0.25000000  0.68441900  0.21960900  1
  O  O73  1  0.75000000  0.31558100  0.78039100  1
  O  O74  1  0.25000000  0.03906200  0.53723000  1
  O  O75  1  0.75000000  0.96093800  0.46277000  1
  O  O76  1  0.25000000  0.40588200  0.58466400  1
  O  O77  1  0.75000000  0.59411800  0.41533600  1
  O  O78  1  0.25000000  0.57597500  0.02497500  1
  O  O79  1  0.75000000  0.42402500  0.97502500  1
  O  O80  1  0.42295600  0.87160900  0.91829400  1
  O  O81  1  0.92295600  0.12839100  0.08170600  1
  O  O82  1  0.57704400  0.12839100  0.08170600  1
  O  O83  1  0.07704400  0.87160900  0.91829400  1
  O  O84  1  0.25000000  0.99913100  0.80841900  1
  O  O85  1  0.75000000  0.00086900  0.19158100  1
  O  O86  1  0.25000000  0.78090700  0.83401300  1
  O  O87  1  0.75000000  0.21909300  0.16598700  1
  O  O88  1  0.42286300  0.46124000  0.37527500  1
  O  O89  1  0.92286300  0.53876000  0.62472500  1
  O  O90  1  0.57713700  0.53876000  0.62472500  1
  O  O91  1  0.07713700  0.46124000  0.37527500  1
  O  O92  1  0.25000000  0.27783800  0.44308200  1
  O  O93  1  0.75000000  0.72216200  0.55691800  1
  O  O94  1  0.25000000  0.34885200  0.30355600  1
  O  O95  1  0.75000000  0.65114800  0.69644400  1
  F  F96  1  0.25000000  0.64287900  0.48017100  1
  F  F97  1  0.75000000  0.35712100  0.51982900  1
  F  F98  1  0.25000000  0.90417200  0.37776600  1
  F  F99  1  0.75000000  0.09582800  0.62223400  1
  F  F100  1  0.25000000  0.13475100  0.23900300  1
  F  F101  1  0.75000000  0.86524900  0.76099700  1
  F  F102  1  0.25000000  0.12411900  0.99046900  1
  F  F103  1  0.75000000  0.87588100  0.00953100  1
  F  F104  1  0.25000000  0.60556900  0.74372400  1
  F  F105  1  0.75000000  0.39443100  0.25627600  1
  F  F106  1  0.25000000  0.37315700  0.87565400  1
  F  F107  1  0.75000000  0.62684300  0.12434600  1
