# generated using pymatgen
data_SrEr2O4
_symmetry_space_group_name_H-M   'P 1'
_cell_length_a   3.39642400
_cell_length_b   10.09058600
_cell_length_c   11.91504500
_cell_angle_alpha   90.00000000
_cell_angle_beta   90.00000000
_cell_angle_gamma   90.00000000
_symmetry_Int_Tables_number   1
_chemical_formula_structural   SrEr2O4
_chemical_formula_sum   'Sr4 Er8 O16'
_cell_volume   408.35133159
_cell_formula_units_Z   4
loop_
 _symmetry_equiv_pos_site_id
 _symmetry_equiv_pos_as_xyz
  1  'x, y, z'
loop_
 _atom_site_type_symbol
 _atom_site_label
 _atom_site_symmetry_multiplicity
 _atom_site_fract_x
 _atom_site_fract_y
 _atom_site_fract_z
 _atom_site_occupancy
  Sr  Sr0  1  0.75000000  0.75346500  0.64976800  1
  Sr  Sr1  1  0.75000000  0.25346500  0.85023200  1
  Sr  Sr2  1  0.25000000  0.24653500  0.35023200  1
  Sr  Sr3  1  0.25000000  0.74653500  0.14976800  1
  Er  Er4  1  0.25000000  0.07730000  0.61001800  1
  Er  Er5  1  0.25000000  0.57730000  0.88998200  1
  Er  Er6  1  0.25000000  0.07572000  0.11203000  1
  Er  Er7  1  0.75000000  0.42270000  0.11001800  1
  Er  Er8  1  0.75000000  0.92428000  0.88797000  1
  Er  Er9  1  0.25000000  0.57572000  0.38797000  1
  Er  Er10  1  0.75000000  0.92270000  0.38998200  1
  Er  Er11  1  0.75000000  0.42428000  0.61203000  1
  O  O12  1  0.25000000  0.98465800  0.28382100  1
  O  O13  1  0.75000000  0.12386900  0.48033800  1
  O  O14  1  0.75000000  0.71093900  0.32739100  1
  O  O15  1  0.25000000  0.28906100  0.67260900  1
  O  O16  1  0.25000000  0.87613100  0.51966200  1
  O  O17  1  0.75000000  0.51534200  0.78382100  1
  O  O18  1  0.75000000  0.62386900  0.01966200  1
  O  O19  1  0.75000000  0.92555700  0.07681500  1
  O  O20  1  0.25000000  0.57444300  0.57681500  1
  O  O21  1  0.25000000  0.37613100  0.98033800  1
  O  O22  1  0.25000000  0.78906100  0.82739100  1
  O  O23  1  0.75000000  0.21093900  0.17260900  1
  O  O24  1  0.25000000  0.07444300  0.92318500  1
  O  O25  1  0.75000000  0.42555700  0.42318500  1
  O  O26  1  0.75000000  0.01534200  0.71617900  1
  O  O27  1  0.25000000  0.48465800  0.21617900  1
