# generated using pymatgen
data_CoBiO3
_symmetry_space_group_name_H-M   'P 1'
_cell_length_a   4.87235500
_cell_length_b   5.30444213
_cell_length_c   5.30444213
_cell_angle_alpha   90.00067213
_cell_angle_beta   89.99997257
_cell_angle_gamma   90.00003823
_symmetry_Int_Tables_number   1
_chemical_formula_structural   CoBiO3
_chemical_formula_sum   'Co2 Bi2 O6'
_cell_volume   137.09397057
_cell_formula_units_Z   2
loop_
 _symmetry_equiv_pos_site_id
 _symmetry_equiv_pos_as_xyz
  1  'x, y, z'
loop_
 _atom_site_type_symbol
 _atom_site_label
 _atom_site_symmetry_multiplicity
 _atom_site_fract_x
 _atom_site_fract_y
 _atom_site_fract_z
 _atom_site_occupancy
  Co  Co0  1  0.57160200  0.00000000  0.50000000  1
  Co  Co1  1  0.57160200  0.50000000  0.00000000  1
  Bi  Bi2  1  0.99437500  0.00000000  0.00000000  1
  Bi  Bi3  1  0.99437500  0.50000000  0.50000000  1
  O  O4  1  0.21135100  0.49999900  0.00000100  1
  O  O5  1  0.21135200  0.00000100  0.49999900  1
  O  O6  1  0.72558400  0.25000000  0.75000000  1
  O  O7  1  0.72558400  0.75000000  0.25000000  1
  O  O8  1  0.72558700  0.25000000  0.25000000  1
  O  O9  1  0.72558700  0.75000000  0.75000000  1
