# generated using pymatgen
data_Li2UBr6
_symmetry_space_group_name_H-M   'P 1'
_cell_length_a   6.96711065
_cell_length_b   6.96711065
_cell_length_c   41.24561600
_cell_angle_alpha   90.00000000
_cell_angle_beta   90.00000000
_cell_angle_gamma   120.00000616
_symmetry_Int_Tables_number   1
_chemical_formula_structural   Li2UBr6
_chemical_formula_sum   'Li12 U6 Br36'
_cell_volume   1733.85914979
_cell_formula_units_Z   6
loop_
 _symmetry_equiv_pos_site_id
 _symmetry_equiv_pos_as_xyz
  1  'x, y, z'
loop_
 _atom_site_type_symbol
 _atom_site_label
 _atom_site_symmetry_multiplicity
 _atom_site_fract_x
 _atom_site_fract_y
 _atom_site_fract_z
 _atom_site_occupancy
  Li  Li0  1  0.33333300  0.66666700  0.75000000  1
  Li  Li1  1  0.33333300  0.66666700  0.91595300  1
  Li  Li2  1  0.33333300  0.66666700  0.58404700  1
  Li  Li3  1  0.33333300  0.66666700  0.25000000  1
  Li  Li4  1  0.66666700  0.33333300  0.25000000  1
  Li  Li5  1  0.66666700  0.33333300  0.08404700  1
  Li  Li6  1  0.66666700  0.33333300  0.41595300  1
  Li  Li7  1  0.66666700  0.33333300  0.75000000  1
  Li  Li8  1  0.00000000  0.00000000  0.08270700  1
  Li  Li9  1  0.00000000  0.00000000  0.41729300  1
  Li  Li10  1  0.00000000  0.00000000  0.58270700  1
  Li  Li11  1  0.00000000  0.00000000  0.91729300  1
  U  U12  1  0.00000000  0.00000000  0.25000000  1
  U  U13  1  0.33333300  0.66666700  0.08331700  1
  U  U14  1  0.33333300  0.66666700  0.41668300  1
  U  U15  1  0.66666700  0.33333300  0.58331700  1
  U  U16  1  0.66666700  0.33333300  0.91668300  1
  U  U17  1  0.00000000  0.00000000  0.75000000  1
  Br  Br18  1  0.00008600  0.66728100  0.28778100  1
  Br  Br19  1  0.99916100  0.66595000  0.62114400  1
  Br  Br20  1  0.99956000  0.66599400  0.95445500  1
  Br  Br21  1  0.33271900  0.99991400  0.21221900  1
  Br  Br22  1  0.33400600  0.00044000  0.54554500  1
  Br  Br23  1  0.33405000  0.00083900  0.87885600  1
  Br  Br24  1  0.00008600  0.33280500  0.21221900  1
  Br  Br25  1  0.99956000  0.33356600  0.54554500  1
  Br  Br26  1  0.99916100  0.33321000  0.87885600  1
  Br  Br27  1  0.33271900  0.33280500  0.28778100  1
  Br  Br28  1  0.33405000  0.33321000  0.62114400  1
  Br  Br29  1  0.33400600  0.33356600  0.95445500  1
  Br  Br30  1  0.33321000  0.33405000  0.12114400  1
  Br  Br31  1  0.33356600  0.33400600  0.45445500  1
  Br  Br32  1  0.33280500  0.33271900  0.78778100  1
  Br  Br33  1  0.66719500  0.99991400  0.28778100  1
  Br  Br34  1  0.66643400  0.00044000  0.95445500  1
  Br  Br35  1  0.66679000  0.00083900  0.62114400  1
  Br  Br36  1  0.33356600  0.99956000  0.04554500  1
  Br  Br37  1  0.33321000  0.99916100  0.37885600  1
  Br  Br38  1  0.33280500  0.00008600  0.71221900  1
  Br  Br39  1  0.66643400  0.66599400  0.54554500  1
  Br  Br40  1  0.66719500  0.66728100  0.21221900  1
  Br  Br41  1  0.66679000  0.66595000  0.87885600  1
  Br  Br42  1  0.66599400  0.66643400  0.04554500  1
  Br  Br43  1  0.66595000  0.66679000  0.37885600  1
  Br  Br44  1  0.66728100  0.66719500  0.71221900  1
  Br  Br45  1  0.00083900  0.66679000  0.12114400  1
  Br  Br46  1  0.00044000  0.66643400  0.45445500  1
  Br  Br47  1  0.99991400  0.66719500  0.78778100  1
  Br  Br48  1  0.66595000  0.99916100  0.12114400  1
  Br  Br49  1  0.66599400  0.99956000  0.45445500  1
  Br  Br50  1  0.66728100  0.00008600  0.78778100  1
  Br  Br51  1  0.00044000  0.33400600  0.04554500  1
  Br  Br52  1  0.00083900  0.33405000  0.37885600  1
  Br  Br53  1  0.99991400  0.33271900  0.71221900  1
