# generated using pymatgen
data_Sr2MnP3O11
_symmetry_space_group_name_H-M   'P 1'
_cell_length_a   6.93932400
_cell_length_b   6.74933800
_cell_length_c   19.44562420
_cell_angle_alpha   80.55302198
_cell_angle_beta   90.00000000
_cell_angle_gamma   90.00000000
_symmetry_Int_Tables_number   1
_chemical_formula_structural   Sr2MnP3O11
_chemical_formula_sum   'Sr8 Mn4 P12 O44'
_cell_volume   898.40050689
_cell_formula_units_Z   4
loop_
 _symmetry_equiv_pos_site_id
 _symmetry_equiv_pos_as_xyz
  1  'x, y, z'
loop_
 _atom_site_type_symbol
 _atom_site_label
 _atom_site_symmetry_multiplicity
 _atom_site_fract_x
 _atom_site_fract_y
 _atom_site_fract_z
 _atom_site_occupancy
  Sr  Sr0  1  0.95684600  0.33780400  0.76702400  1
  Sr  Sr1  1  0.35907800  0.68075900  0.42702600  1
  Sr  Sr2  1  0.64092200  0.31924100  0.57297400  1
  Sr  Sr3  1  0.45684600  0.66219600  0.73297600  1
  Sr  Sr4  1  0.85907800  0.31924100  0.07297400  1
  Sr  Sr5  1  0.04315400  0.66219600  0.23297600  1
  Sr  Sr6  1  0.14092200  0.68075900  0.92702600  1
  Sr  Sr7  1  0.54315400  0.33780400  0.26702400  1
  Mn  Mn8  1  0.37111200  0.03965900  0.12351600  1
  Mn  Mn9  1  0.62888800  0.96034100  0.87648400  1
  Mn  Mn10  1  0.87111200  0.96034100  0.37648400  1
  Mn  Mn11  1  0.12888800  0.03965900  0.62351600  1
  P  P12  1  0.95613000  0.82258600  0.77132500  1
  P  P13  1  0.68988200  0.82180900  0.04310100  1
  P  P14  1  0.04387000  0.17741400  0.22867500  1
  P  P15  1  0.63801400  0.44113300  0.90805500  1
  P  P16  1  0.36198600  0.55886700  0.09194500  1
  P  P17  1  0.31011800  0.17819100  0.95689900  1
  P  P18  1  0.13801400  0.55886700  0.59194500  1
  P  P19  1  0.18988200  0.17819100  0.45689900  1
  P  P20  1  0.81011800  0.82180900  0.54310100  1
  P  P21  1  0.54387000  0.82258600  0.27132500  1
  P  P22  1  0.45613000  0.17741400  0.72867500  1
  P  P23  1  0.86198600  0.44113300  0.40805500  1
  O  O24  1  0.49889600  0.31075000  0.96787900  1
  O  O25  1  0.31815400  0.70391600  0.14313100  1
  O  O26  1  0.18184600  0.70391600  0.64313100  1
  O  O27  1  0.88638000  0.92251300  0.83565700  1
  O  O28  1  0.97764900  0.62759700  0.37538700  1
  O  O29  1  0.19502300  0.31030600  0.25454800  1
  O  O30  1  0.68795900  0.49059000  0.44954500  1
  O  O31  1  0.62294300  0.99975800  0.07961700  1
  O  O32  1  0.00110400  0.31075000  0.46787900  1
  O  O33  1  0.83826500  0.69187700  0.08504600  1
  O  O34  1  0.68184600  0.29608400  0.85686900  1
  O  O35  1  0.33826500  0.30812300  0.41495400  1
  O  O36  1  0.99889600  0.68925000  0.53212100  1
  O  O37  1  0.13337000  0.69434600  0.79750200  1
  O  O38  1  0.81204100  0.49059000  0.94954500  1
  O  O39  1  0.98864600  0.99084100  0.28421900  1
  O  O40  1  0.02235100  0.37240300  0.62461300  1
  O  O41  1  0.66173500  0.69187700  0.58504600  1
  O  O42  1  0.75914300  0.90845600  0.96823000  1
  O  O43  1  0.37705700  0.00024200  0.92038300  1
  O  O44  1  0.30497700  0.31030600  0.75454800  1
  O  O45  1  0.61362000  0.92251300  0.33565700  1
  O  O46  1  0.69502300  0.68969400  0.24545200  1
  O  O47  1  0.86663000  0.30565400  0.20249800  1
  O  O48  1  0.31204100  0.50941000  0.55045500  1
  O  O49  1  0.50110400  0.68925000  0.03212100  1
  O  O50  1  0.11362000  0.07748700  0.16434300  1
  O  O51  1  0.25914300  0.09154400  0.53177000  1
  O  O52  1  0.36663000  0.69434600  0.29750200  1
  O  O53  1  0.01135400  0.00915900  0.71578100  1
  O  O54  1  0.18795900  0.50941000  0.05045500  1
  O  O55  1  0.51135400  0.99084100  0.78421900  1
  O  O56  1  0.81815400  0.29608400  0.35686900  1
  O  O57  1  0.52235100  0.62759700  0.87538700  1
  O  O58  1  0.87705700  0.99975800  0.57961700  1
  O  O59  1  0.12294300  0.00024200  0.42038300  1
  O  O60  1  0.63337000  0.30565400  0.70249800  1
  O  O61  1  0.47764900  0.37240300  0.12461300  1
  O  O62  1  0.38638000  0.07748700  0.66434300  1
  O  O63  1  0.48864600  0.00915900  0.21578100  1
  O  O64  1  0.16173500  0.30812300  0.91495400  1
  O  O65  1  0.74085700  0.90845600  0.46823000  1
  O  O66  1  0.24085700  0.09154400  0.03177000  1
  O  O67  1  0.80497700  0.68969400  0.74545200  1
