# generated using pymatgen
data_CaAlSi
_symmetry_space_group_name_H-M   'P 1'
_cell_length_a   4.20560495
_cell_length_b   4.20560495
_cell_length_c   26.28603700
_cell_angle_alpha   90.00000000
_cell_angle_beta   90.00000000
_cell_angle_gamma   120.00001496
_symmetry_Int_Tables_number   1
_chemical_formula_structural   CaAlSi
_chemical_formula_sum   'Ca6 Al6 Si6'
_cell_volume   402.63602662
_cell_formula_units_Z   6
loop_
 _symmetry_equiv_pos_site_id
 _symmetry_equiv_pos_as_xyz
  1  'x, y, z'
loop_
 _atom_site_type_symbol
 _atom_site_label
 _atom_site_symmetry_multiplicity
 _atom_site_fract_x
 _atom_site_fract_y
 _atom_site_fract_z
 _atom_site_occupancy
  Ca  Ca0  1  0.00000000  0.00000000  0.33287400  1
  Ca  Ca1  1  0.00000000  0.00000000  0.83287400  1
  Ca  Ca2  1  0.00000000  0.00000000  0.16712600  1
  Ca  Ca3  1  0.00000000  0.00000000  0.00000000  1
  Ca  Ca4  1  0.00000000  0.00000000  0.66712600  1
  Ca  Ca5  1  0.00000000  0.00000000  0.50000000  1
  Al  Al6  1  0.33333300  0.66666700  0.40944900  1
  Al  Al7  1  0.33333300  0.66666700  0.25000000  1
  Al  Al8  1  0.33333300  0.66666700  0.09055100  1
  Al  Al9  1  0.66666700  0.33333300  0.90944900  1
  Al  Al10  1  0.66666700  0.33333300  0.75000000  1
  Al  Al11  1  0.66666700  0.33333300  0.59055100  1
  Si  Si12  1  0.33333300  0.66666700  0.57857400  1
  Si  Si13  1  0.33333300  0.66666700  0.92142600  1
  Si  Si14  1  0.33333300  0.66666700  0.75000000  1
  Si  Si15  1  0.66666700  0.33333300  0.25000000  1
  Si  Si16  1  0.66666700  0.33333300  0.07857400  1
  Si  Si17  1  0.66666700  0.33333300  0.42142600  1
