# generated using pymatgen
data_Bi2B8O15
_symmetry_space_group_name_H-M   'P 1'
_cell_length_a   22.65578600
_cell_length_b   4.37567900
_cell_length_c   6.54707125
_cell_angle_alpha   75.60563258
_cell_angle_beta   90.00000000
_cell_angle_gamma   90.00000000
_symmetry_Int_Tables_number   1
_chemical_formula_structural   Bi2B8O15
_chemical_formula_sum   'Bi4 B16 O30'
_cell_volume   628.66535861
_cell_formula_units_Z   2
loop_
 _symmetry_equiv_pos_site_id
 _symmetry_equiv_pos_as_xyz
  1  'x, y, z'
loop_
 _atom_site_type_symbol
 _atom_site_label
 _atom_site_symmetry_multiplicity
 _atom_site_fract_x
 _atom_site_fract_y
 _atom_site_fract_z
 _atom_site_occupancy
  Bi  Bi0  1  0.35260500  0.81739200  0.33748600  1
  Bi  Bi1  1  0.85260500  0.18260800  0.66251400  1
  Bi  Bi2  1  0.21783200  0.61339000  0.09956500  1
  Bi  Bi3  1  0.71783200  0.38661000  0.90043500  1
  B  B4  1  0.01173200  0.44432900  0.42939100  1
  B  B5  1  0.51173200  0.55567100  0.57060900  1
  B  B6  1  0.03663200  0.47120800  0.77918100  1
  B  B7  1  0.53663200  0.52879200  0.22081900  1
  B  B8  1  0.10319400  0.68718100  0.49149900  1
  B  B9  1  0.60319400  0.31281900  0.50850100  1
  B  B10  1  0.21221600  0.85638900  0.51783500  1
  B  B11  1  0.71221600  0.14361100  0.48216500  1
  B  B12  1  0.21403100  0.28009100  0.73383400  1
  B  B13  1  0.71403100  0.71990900  0.26616600  1
  B  B14  1  0.85598900  0.42821100  0.08578100  1
  B  B15  1  0.35598900  0.57178900  0.91421900  1
  B  B16  1  0.85276200  0.85132000  0.30076400  1
  B  B17  1  0.35276200  0.14868000  0.69923600  1
  B  B18  1  0.96801200  0.39705600  0.08738400  1
  B  B19  1  0.46801200  0.60294400  0.91261600  1
  O  O20  1  0.00048500  0.35561600  0.64460800  1
  O  O21  1  0.50048500  0.64438400  0.35539200  1
  O  O22  1  0.06167100  0.61336200  0.35335700  1
  O  O23  1  0.56167100  0.38663800  0.64664300  1
  O  O24  1  0.08862800  0.62658300  0.70548600  1
  O  O25  1  0.58862800  0.37341700  0.29451400  1
  O  O26  1  0.15491600  0.81297000  0.41072100  1
  O  O27  1  0.65491600  0.18703000  0.58927900  1
  O  O28  1  0.21358200  0.17034200  0.55619900  1
  O  O29  1  0.71358200  0.82965800  0.44380100  1
  O  O30  1  0.25663300  0.83471000  0.35606400  1
  O  O31  1  0.75663300  0.16529000  0.64393600  1
  O  O32  1  0.20963000  0.11028200  0.93934900  1
  O  O33  1  0.70963000  0.88971800  0.06065100  1
  O  O34  1  0.21896700  0.60561500  0.71575100  1
  O  O35  1  0.71896700  0.39438500  0.28424900  1
  O  O36  1  0.84816500  0.17631800  0.28337100  1
  O  O37  1  0.34816500  0.82368200  0.71662900  1
  O  O38  1  0.85829000  0.68243800  0.50638000  1
  O  O39  1  0.35829000  0.31756200  0.49362000  1
  O  O40  1  0.81370000  0.39909500  0.92068800  1
  O  O41  1  0.31370000  0.60090500  0.07931200  1
  O  O42  1  0.85124000  0.74122000  0.12410700  1
  O  O43  1  0.35124000  0.25878000  0.87589300  1
  O  O44  1  0.91557400  0.39804500  0.98871400  1
  O  O45  1  0.41557400  0.60195500  0.01128600  1
  O  O46  1  0.96983300  0.35958700  0.30483600  1
  O  O47  1  0.46983300  0.64041300  0.69516400  1
  O  O48  1  0.02186100  0.43436200  0.98470400  1
  O  O49  1  0.52186100  0.56563800  0.01529600  1
