# generated using pymatgen
data_Zr(SeCl6)2
_symmetry_space_group_name_H-M   'P 1'
_cell_length_a   13.15720390
_cell_length_b   12.98667836
_cell_length_c   9.10644981
_cell_angle_alpha   70.62444919
_cell_angle_beta   68.61286546
_cell_angle_gamma   40.76268534
_symmetry_Int_Tables_number   1
_chemical_formula_structural   Zr(SeCl6)2
_chemical_formula_sum   'Zr2 Se4 Cl24'
_cell_volume   942.03936838
_cell_formula_units_Z   2
loop_
 _symmetry_equiv_pos_site_id
 _symmetry_equiv_pos_as_xyz
  1  'x, y, z'
loop_
 _atom_site_type_symbol
 _atom_site_label
 _atom_site_symmetry_multiplicity
 _atom_site_fract_x
 _atom_site_fract_y
 _atom_site_fract_z
 _atom_site_occupancy
  Zr  Zr0  1  0.12332400  0.12332400  0.37667600  1
  Zr  Zr1  1  0.87332400  0.87332400  0.12667600  1
  Se  Se2  1  0.23523800  0.67568800  0.31228400  1
  Se  Se3  1  0.47321000  0.93771600  0.57431200  1
  Se  Se4  1  0.93771600  0.47321000  0.01476200  1
  Se  Se5  1  0.67568800  0.23523800  0.77679000  1
  Cl  Cl6  1  0.99430200  0.10338100  0.64376900  1
  Cl  Cl7  1  0.45016700  0.31442600  0.89519900  1
  Cl  Cl8  1  0.69250900  0.71171500  0.01462600  1
  Cl  Cl9  1  0.75798200  0.14670600  0.07178400  1
  Cl  Cl10  1  0.83215600  0.92265600  0.85355400  1
  Cl  Cl11  1  0.31442600  0.45016700  0.34020800  1
  Cl  Cl12  1  0.58196700  0.47023200  0.74702000  1
  Cl  Cl13  1  0.39644600  0.85836700  0.41784400  1
  Cl  Cl14  1  0.71171500  0.69250900  0.58115000  1
  Cl  Cl15  1  0.99145200  0.60623100  0.14661900  1
  Cl  Cl16  1  0.85836700  0.39644600  0.32734400  1
  Cl  Cl17  1  0.10338100  0.99430200  0.25854800  1
  Cl  Cl18  1  0.14670600  0.75798200  0.02352800  1
  Cl  Cl19  1  0.04922000  0.50298000  0.77976800  1
  Cl  Cl20  1  0.47023200  0.58196700  0.20078000  1
  Cl  Cl21  1  0.92265600  0.83215600  0.39163300  1
  Cl  Cl22  1  0.60623100  0.99145200  0.25569800  1
  Cl  Cl23  1  0.17821600  0.22647200  0.49201800  1
  Cl  Cl24  1  0.90979200  0.35480100  0.93557400  1
  Cl  Cl25  1  0.23537400  0.66885000  0.55749100  1
  Cl  Cl26  1  0.50298000  0.04922000  0.66803300  1
  Cl  Cl27  1  0.22647200  0.17821600  0.10329400  1
  Cl  Cl28  1  0.66885000  0.23537400  0.53828500  1
  Cl  Cl29  1  0.35480100  0.90979200  0.79983300  1
