# generated using pymatgen
data_CsTb2Ag3Se5
_symmetry_space_group_name_H-M   'P 1'
_cell_length_a   8.12359691
_cell_length_b   8.12359691
_cell_length_c   17.63785300
_cell_angle_alpha   90.00000000
_cell_angle_beta   90.00000000
_cell_angle_gamma   149.08999951
_symmetry_Int_Tables_number   1
_chemical_formula_structural   CsTb2Ag3Se5
_chemical_formula_sum   'Cs2 Tb4 Ag6 Se10'
_cell_volume   597.92184067
_cell_formula_units_Z   2
loop_
 _symmetry_equiv_pos_site_id
 _symmetry_equiv_pos_as_xyz
  1  'x, y, z'
loop_
 _atom_site_type_symbol
 _atom_site_label
 _atom_site_symmetry_multiplicity
 _atom_site_fract_x
 _atom_site_fract_y
 _atom_site_fract_z
 _atom_site_occupancy
  Cs  Cs0  1  0.56167800  0.43832200  0.75000000  1
  Cs  Cs1  1  0.43832200  0.56167800  0.25000000  1
  Tb  Tb2  1  0.69277700  0.30722300  0.40492500  1
  Tb  Tb3  1  0.30722300  0.69277700  0.59507500  1
  Tb  Tb4  1  0.30722300  0.69277700  0.90492500  1
  Tb  Tb5  1  0.69277700  0.30722300  0.09507500  1
  Ag  Ag6  1  0.84357000  0.15643000  0.75000000  1
  Ag  Ag7  1  0.15643000  0.84357000  0.25000000  1
  Ag  Ag8  1  0.91710400  0.08289600  0.45828300  1
  Ag  Ag9  1  0.08289600  0.91710400  0.54171700  1
  Ag  Ag10  1  0.08289600  0.91710400  0.95828300  1
  Ag  Ag11  1  0.91710400  0.08289600  0.04171700  1
  Se  Se12  1  0.93070000  0.06930000  0.88418400  1
  Se  Se13  1  0.06930000  0.93070000  0.11581600  1
  Se  Se14  1  0.06930000  0.93070000  0.38418400  1
  Se  Se15  1  0.93070000  0.06930000  0.61581600  1
  Se  Se16  1  0.24743000  0.75256900  0.75000000  1
  Se  Se17  1  0.75257000  0.24743000  0.25000000  1
  Se  Se18  1  0.68160100  0.31839900  0.93041500  1
  Se  Se19  1  0.31839900  0.68160100  0.06958500  1
  Se  Se20  1  0.31839900  0.68160100  0.43041500  1
  Se  Se21  1  0.68160100  0.31839900  0.56958500  1
