# generated using pymatgen
data_CaSiO3
_symmetry_space_group_name_H-M   'P 1'
_cell_length_a   7.39290100
_cell_length_b   7.15140700
_cell_length_c   15.60862811
_cell_angle_alpha   84.28688185
_cell_angle_beta   90.00000000
_cell_angle_gamma   90.00000000
_symmetry_Int_Tables_number   1
_chemical_formula_structural   CaSiO3
_chemical_formula_sum   'Ca12 Si12 O36'
_cell_volume   821.12356872
_cell_formula_units_Z   12
loop_
 _symmetry_equiv_pos_site_id
 _symmetry_equiv_pos_as_xyz
  1  'x, y, z'
loop_
 _atom_site_type_symbol
 _atom_site_label
 _atom_site_symmetry_multiplicity
 _atom_site_fract_x
 _atom_site_fract_y
 _atom_site_fract_z
 _atom_site_occupancy
  Ca  Ca0  1  0.12420700  0.97013600  0.25210800  1
  Ca  Ca1  1  0.62420700  0.02986400  0.24789200  1
  Ca  Ca2  1  0.87579300  0.02986400  0.74789200  1
  Ca  Ca3  1  0.37579300  0.97013600  0.75210800  1
  Ca  Ca4  1  0.37831000  0.73678400  0.10236400  1
  Ca  Ca5  1  0.87831000  0.26321600  0.39763600  1
  Ca  Ca6  1  0.62169000  0.26321600  0.89763600  1
  Ca  Ca7  1  0.12169000  0.73678400  0.60236400  1
  Ca  Ca8  1  0.87421100  0.74045200  0.09881300  1
  Ca  Ca9  1  0.37421100  0.25954800  0.40118700  1
  Ca  Ca10  1  0.12578900  0.25954800  0.90118700  1
  Ca  Ca11  1  0.62578900  0.74045200  0.59881300  1
  Si  Si12  1  0.12343000  0.44187600  0.19738000  1
  Si  Si13  1  0.62343000  0.55812400  0.30262000  1
  Si  Si14  1  0.87657000  0.55812400  0.80262000  1
  Si  Si15  1  0.37657000  0.44187600  0.69738000  1
  Si  Si16  1  0.40765600  0.23004500  0.09205100  1
  Si  Si17  1  0.90765600  0.76995500  0.40794900  1
  Si  Si18  1  0.59234400  0.76995500  0.90794900  1
  Si  Si19  1  0.09234400  0.23004500  0.59205100  1
  Si  Si20  1  0.84103100  0.22915900  0.09232200  1
  Si  Si21  1  0.34103100  0.77084100  0.40767800  1
  Si  Si22  1  0.15896900  0.77084100  0.90767800  1
  Si  Si23  1  0.65896900  0.22915900  0.59232200  1
  O  O24  1  0.94407400  0.40686900  0.13460200  1
  O  O25  1  0.44407400  0.59313100  0.36539800  1
  O  O26  1  0.05592600  0.59313100  0.86539800  1
  O  O27  1  0.55592600  0.40686900  0.63460200  1
  O  O28  1  0.30350000  0.40595600  0.13480900  1
  O  O29  1  0.80350000  0.59404400  0.36519100  1
  O  O30  1  0.69650000  0.59404400  0.86519100  1
  O  O31  1  0.19650000  0.40595600  0.63480900  1
  O  O32  1  0.62402800  0.27115100  0.11067800  1
  O  O33  1  0.12402800  0.72884900  0.38932200  1
  O  O34  1  0.37597200  0.72884900  0.88932200  1
  O  O35  1  0.87597200  0.27115100  0.61067800  1
  O  O36  1  0.12474000  0.66857900  0.19965000  1
  O  O37  1  0.62474000  0.33142100  0.30035000  1
  O  O38  1  0.12309100  0.29819400  0.28444200  1
  O  O39  1  0.87526000  0.33142100  0.80035000  1
  O  O40  1  0.37316100  0.23805100  0.98981400  1
  O  O41  1  0.87316100  0.76194900  0.51018600  1
  O  O42  1  0.62683900  0.76194900  0.01018600  1
  O  O43  1  0.12683900  0.23805100  0.48981400  1
  O  O44  1  0.87625100  0.23170100  0.99087700  1
  O  O45  1  0.37625100  0.76829900  0.50912300  1
  O  O46  1  0.12374900  0.76829900  0.00912300  1
  O  O47  1  0.62374900  0.23170100  0.49087700  1
  O  O48  1  0.61284300  0.03439700  0.65214500  1
  O  O49  1  0.11284300  0.96560300  0.84785500  1
  O  O50  1  0.38715700  0.96560300  0.34785500  1
  O  O51  1  0.88715700  0.03439700  0.15214500  1
  O  O52  1  0.13967700  0.03398100  0.65023200  1
  O  O53  1  0.63967700  0.96601900  0.84976800  1
  O  O54  1  0.86032300  0.96601900  0.34976800  1
  O  O55  1  0.36032300  0.03398100  0.15023200  1
  O  O56  1  0.37690900  0.29819400  0.78444200  1
  O  O57  1  0.87690900  0.70180600  0.71555800  1
  O  O58  1  0.62309100  0.70180600  0.21555800  1
  O  O59  1  0.37526000  0.66857900  0.69965000  1
