# generated using pymatgen
data_KThP3O10
_symmetry_space_group_name_H-M   'P 1'
_cell_length_a   8.33132500
_cell_length_b   10.14071600
_cell_length_c   10.35876600
_cell_angle_alpha   90.00000000
_cell_angle_beta   90.00000000
_cell_angle_gamma   90.00000000
_symmetry_Int_Tables_number   1
_chemical_formula_structural   KThP3O10
_chemical_formula_sum   'K4 Th4 P12 O40'
_cell_volume   875.16656832
_cell_formula_units_Z   4
loop_
 _symmetry_equiv_pos_site_id
 _symmetry_equiv_pos_as_xyz
  1  'x, y, z'
loop_
 _atom_site_type_symbol
 _atom_site_label
 _atom_site_symmetry_multiplicity
 _atom_site_fract_x
 _atom_site_fract_y
 _atom_site_fract_z
 _atom_site_occupancy
  K  K0  1  0.84628700  0.01302700  0.42623000  1
  K  K1  1  0.65371300  0.98697300  0.92623000  1
  K  K2  1  0.15371300  0.51302700  0.07377000  1
  K  K3  1  0.34628700  0.48697300  0.57377000  1
  Th  Th4  1  0.38922600  0.00279900  0.59843200  1
  Th  Th5  1  0.11077400  0.99720100  0.09843200  1
  Th  Th6  1  0.61077400  0.50279900  0.90156800  1
  Th  Th7  1  0.88922600  0.49720100  0.40156800  1
  P  P8  1  0.72837200  0.25225300  0.63602800  1
  P  P9  1  0.27162800  0.75225300  0.86397200  1
  P  P10  1  0.77162800  0.74774700  0.13602800  1
  P  P11  1  0.30086500  0.23001100  0.87463400  1
  P  P12  1  0.80086500  0.26998900  0.12536600  1
  P  P13  1  0.69913500  0.73001100  0.62536600  1
  P  P14  1  0.97483000  0.62096400  0.73892800  1
  P  P15  1  0.02517000  0.12096400  0.76107200  1
  P  P16  1  0.19913500  0.76998900  0.37463400  1
  P  P17  1  0.47483000  0.87903600  0.26107200  1
  P  P18  1  0.22837200  0.24774700  0.36397200  1
  P  P19  1  0.52517000  0.37903600  0.23892800  1
  O  O20  1  0.13017900  0.25007900  0.79693600  1
  O  O21  1  0.60236900  0.63092900  0.70491500  1
  O  O22  1  0.12195300  0.36252000  0.40499900  1
  O  O23  1  0.10236900  0.86907100  0.29508500  1
  O  O24  1  0.90477000  0.55711200  0.85841500  1
  O  O25  1  0.14710400  0.14134500  0.28447800  1
  O  O26  1  0.35289600  0.85865500  0.78447800  1
  O  O27  1  0.25625000  0.17682200  0.00823700  1
  O  O28  1  0.99057400  0.53437100  0.62054600  1
  O  O29  1  0.37094600  0.36835100  0.87848700  1
  O  O30  1  0.89763100  0.36907100  0.20491500  1
  O  O31  1  0.67533700  0.69695600  0.02111600  1
  O  O32  1  0.62905400  0.86835100  0.62151300  1
  O  O33  1  0.87094600  0.13164900  0.12151300  1
  O  O34  1  0.74375000  0.67682200  0.49176300  1
  O  O35  1  0.37804700  0.63748000  0.90499900  1
  O  O36  1  0.09523000  0.05711200  0.64158500  1
  O  O37  1  0.86982100  0.75007900  0.70306400  1
  O  O38  1  0.59523000  0.44288800  0.35841500  1
  O  O39  1  0.64710400  0.35865500  0.71552200  1
  O  O40  1  0.35323500  0.31882400  0.26248300  1
  O  O41  1  0.62195300  0.13748000  0.59500100  1
  O  O42  1  0.63017900  0.24992100  0.20306400  1
  O  O43  1  0.64676500  0.81882400  0.23751700  1
  O  O44  1  0.12905400  0.63164900  0.37848700  1
  O  O45  1  0.24375000  0.82317800  0.50823700  1
  O  O46  1  0.87804700  0.86252000  0.09500100  1
  O  O47  1  0.39763100  0.13092900  0.79508500  1
  O  O48  1  0.00942600  0.03437100  0.87945400  1
  O  O49  1  0.40477000  0.94288800  0.14158500  1
  O  O50  1  0.75625000  0.32317800  0.99176300  1
  O  O51  1  0.82466300  0.30304400  0.52111600  1
  O  O52  1  0.50942600  0.46562900  0.12054600  1
  O  O53  1  0.17533700  0.80304400  0.97888400  1
  O  O54  1  0.32466300  0.19695600  0.47888400  1
  O  O55  1  0.49057400  0.96562900  0.37945400  1
  O  O56  1  0.85323500  0.18117600  0.73751700  1
  O  O57  1  0.36982100  0.74992100  0.29693600  1
  O  O58  1  0.14676500  0.68117600  0.76248300  1
  O  O59  1  0.85289600  0.64134500  0.21552200  1
