# generated using pymatgen
data_K4U(PO5)2
_symmetry_space_group_name_H-M   'P 1'
_cell_length_a   6.95722400
_cell_length_b   6.95722400
_cell_length_c   12.08247100
_cell_angle_alpha   90.00000000
_cell_angle_beta   90.00000000
_cell_angle_gamma   90.00000000
_symmetry_Int_Tables_number   1
_chemical_formula_structural   K4U(PO5)2
_chemical_formula_sum   'K8 U2 P4 O20'
_cell_volume   584.82743043
_cell_formula_units_Z   2
loop_
 _symmetry_equiv_pos_site_id
 _symmetry_equiv_pos_as_xyz
  1  'x, y, z'
loop_
 _atom_site_type_symbol
 _atom_site_label
 _atom_site_symmetry_multiplicity
 _atom_site_fract_x
 _atom_site_fract_y
 _atom_site_fract_z
 _atom_site_occupancy
  K  K0  1  0.00000000  0.25120100  0.67109300  1
  K  K1  1  0.50000000  0.24879900  0.82890700  1
  K  K2  1  0.00000000  0.74879900  0.67109300  1
  K  K3  1  0.25120100  0.00000000  0.32890700  1
  K  K4  1  0.50000000  0.75120100  0.82890700  1
  K  K5  1  0.74879900  0.00000000  0.32890700  1
  K  K6  1  0.24879900  0.50000000  0.17109300  1
  K  K7  1  0.75120100  0.50000000  0.17109300  1
  U  U8  1  0.00000000  0.00000000  0.00000000  1
  U  U9  1  0.50000000  0.50000000  0.50000000  1
  P  P10  1  0.00000000  0.50000000  0.41707200  1
  P  P11  1  0.50000000  0.00000000  0.58292800  1
  P  P12  1  0.50000000  0.00000000  0.08292800  1
  P  P13  1  0.00000000  0.50000000  0.91707200  1
  O  O14  1  0.81645000  0.50000000  0.84685600  1
  O  O15  1  0.00000000  0.32438200  0.00142600  1
  O  O16  1  0.17561800  0.50000000  0.50142600  1
  O  O17  1  0.00000000  0.67561800  0.00142600  1
  O  O18  1  0.68355000  0.00000000  0.65314400  1
  O  O19  1  0.00000000  0.00000000  0.15323100  1
  O  O20  1  0.50000000  0.82438200  0.49857400  1
  O  O21  1  0.50000000  0.50000000  0.34676900  1
  O  O22  1  0.82438200  0.50000000  0.50142600  1
  O  O23  1  0.50000000  0.18355000  0.15314400  1
  O  O24  1  0.18355000  0.50000000  0.84685600  1
  O  O25  1  0.67561800  0.00000000  0.99857400  1
  O  O26  1  0.50000000  0.17561800  0.49857400  1
  O  O27  1  0.32438200  0.00000000  0.99857400  1
  O  O28  1  0.50000000  0.81645000  0.15314400  1
  O  O29  1  0.31645000  0.00000000  0.65314400  1
  O  O30  1  0.50000000  0.50000000  0.65323100  1
  O  O31  1  0.00000000  0.00000000  0.84676900  1
  O  O32  1  0.00000000  0.31645000  0.34685600  1
  O  O33  1  0.00000000  0.68355000  0.34685600  1
