# generated using pymatgen
data_NdNiGe2
_symmetry_space_group_name_H-M   'P 1'
_cell_length_a   8.65783157
_cell_length_b   8.65783157
_cell_length_c   4.25259500
_cell_angle_alpha   90.00000000
_cell_angle_beta   90.00000000
_cell_angle_gamma   151.68480338
_symmetry_Int_Tables_number   1
_chemical_formula_structural   NdNiGe2
_chemical_formula_sum   'Nd2 Ni2 Ge4'
_cell_volume   151.19774170
_cell_formula_units_Z   2
loop_
 _symmetry_equiv_pos_site_id
 _symmetry_equiv_pos_as_xyz
  1  'x, y, z'
loop_
 _atom_site_type_symbol
 _atom_site_label
 _atom_site_symmetry_multiplicity
 _atom_site_fract_x
 _atom_site_fract_y
 _atom_site_fract_z
 _atom_site_occupancy
  Nd  Nd0  1  0.10861200  0.89138800  0.75000000  1
  Nd  Nd1  1  0.89138800  0.10861200  0.25000000  1
  Ni  Ni2  1  0.31885600  0.68114400  0.75000000  1
  Ni  Ni3  1  0.68114400  0.31885600  0.25000000  1
  Ge  Ge4  1  0.74922100  0.25077900  0.75000000  1
  Ge  Ge5  1  0.45789500  0.54210500  0.75000000  1
  Ge  Ge6  1  0.25077900  0.74922100  0.25000000  1
  Ge  Ge7  1  0.54210500  0.45789500  0.25000000  1
