# generated using pymatgen
data_Lu6AgTe2
_symmetry_space_group_name_H-M   'P 1'
_cell_length_a   3.98268700
_cell_length_b   11.38229200
_cell_length_c   21.46912500
_cell_angle_alpha   90.00000000
_cell_angle_beta   90.00000000
_cell_angle_gamma   90.00000000
_symmetry_Int_Tables_number   1
_chemical_formula_structural   Lu6AgTe2
_chemical_formula_sum   'Lu24 Ag4 Te8'
_cell_volume   973.24065836
_cell_formula_units_Z   4
loop_
 _symmetry_equiv_pos_site_id
 _symmetry_equiv_pos_as_xyz
  1  'x, y, z'
loop_
 _atom_site_type_symbol
 _atom_site_label
 _atom_site_symmetry_multiplicity
 _atom_site_fract_x
 _atom_site_fract_y
 _atom_site_fract_z
 _atom_site_occupancy
  Lu  Lu0  1  0.75000000  0.68221600  0.89123300  1
  Lu  Lu1  1  0.25000000  0.37916200  0.47134800  1
  Lu  Lu2  1  0.75000000  0.87916200  0.02865200  1
  Lu  Lu3  1  0.75000000  0.97121800  0.83986200  1
  Lu  Lu4  1  0.25000000  0.18221600  0.60876700  1
  Lu  Lu5  1  0.25000000  0.74075300  0.26762500  1
  Lu  Lu6  1  0.75000000  0.11130100  0.49122700  1
  Lu  Lu7  1  0.75000000  0.56098300  0.14014400  1
  Lu  Lu8  1  0.25000000  0.31778400  0.10876700  1
  Lu  Lu9  1  0.25000000  0.02878200  0.16013800  1
  Lu  Lu10  1  0.25000000  0.47121800  0.66013800  1
  Lu  Lu11  1  0.25000000  0.75924700  0.76762500  1
  Lu  Lu12  1  0.75000000  0.52878200  0.33986200  1
  Lu  Lu13  1  0.75000000  0.93901700  0.64014400  1
  Lu  Lu14  1  0.25000000  0.61130100  0.00877300  1
  Lu  Lu15  1  0.75000000  0.25924700  0.73237500  1
  Lu  Lu16  1  0.75000000  0.24075300  0.23237500  1
  Lu  Lu17  1  0.75000000  0.62083800  0.52865200  1
  Lu  Lu18  1  0.75000000  0.81778400  0.39123300  1
  Lu  Lu19  1  0.25000000  0.12083800  0.97134800  1
  Lu  Lu20  1  0.25000000  0.88869900  0.50877300  1
  Lu  Lu21  1  0.75000000  0.38869900  0.99122700  1
  Lu  Lu22  1  0.25000000  0.43901700  0.85985600  1
  Lu  Lu23  1  0.25000000  0.06098300  0.35985600  1
  Ag  Ag24  1  0.75000000  0.13359700  0.07616100  1
  Ag  Ag25  1  0.25000000  0.63359700  0.42383900  1
  Ag  Ag26  1  0.25000000  0.86640300  0.92383900  1
  Ag  Ag27  1  0.75000000  0.36640300  0.57616100  1
  Te  Te28  1  0.25000000  0.76825000  0.12703900  1
  Te  Te29  1  0.25000000  0.73175000  0.62703900  1
  Te  Te30  1  0.25000000  0.04297900  0.73653700  1
  Te  Te31  1  0.75000000  0.26825000  0.37296100  1
  Te  Te32  1  0.75000000  0.54297900  0.76346300  1
  Te  Te33  1  0.25000000  0.45702100  0.23653700  1
  Te  Te34  1  0.75000000  0.95702100  0.26346300  1
  Te  Te35  1  0.75000000  0.23175000  0.87296100  1
