# generated using pymatgen
data_KPr6OsI10
_symmetry_space_group_name_H-M   'P 1'
_cell_length_a   13.86001800
_cell_length_b   14.33486300
_cell_length_c   15.82894100
_cell_angle_alpha   90.00000000
_cell_angle_beta   90.00000000
_cell_angle_gamma   90.00000000
_symmetry_Int_Tables_number   1
_chemical_formula_structural   KPr6OsI10
_chemical_formula_sum   'K4 Pr24 Os4 I40'
_cell_volume   3144.91709559
_cell_formula_units_Z   4
loop_
 _symmetry_equiv_pos_site_id
 _symmetry_equiv_pos_as_xyz
  1  'x, y, z'
loop_
 _atom_site_type_symbol
 _atom_site_label
 _atom_site_symmetry_multiplicity
 _atom_site_fract_x
 _atom_site_fract_y
 _atom_site_fract_z
 _atom_site_occupancy
  K  K0  1  0.75000000  0.48542700  0.44103200  1
  K  K1  1  0.25000000  0.98542700  0.05896800  1
  K  K2  1  0.25000000  0.51457300  0.55896800  1
  K  K3  1  0.75000000  0.01457300  0.94103200  1
  Pr  Pr4  1  0.10644600  0.38070200  0.05807300  1
  Pr  Pr5  1  0.89355400  0.88070200  0.44192700  1
  Pr  Pr6  1  0.25000000  0.61258800  0.98495000  1
  Pr  Pr7  1  0.10644600  0.11929800  0.55807300  1
  Pr  Pr8  1  0.75000000  0.38741200  0.01505000  1
  Pr  Pr9  1  0.39220100  0.61569800  0.20315400  1
  Pr  Pr10  1  0.89355400  0.61929800  0.94192700  1
  Pr  Pr11  1  0.60779900  0.38430200  0.79684600  1
  Pr  Pr12  1  0.89220100  0.11569800  0.29684600  1
  Pr  Pr13  1  0.75000000  0.61158500  0.72395700  1
  Pr  Pr14  1  0.10779900  0.88430200  0.70315400  1
  Pr  Pr15  1  0.75000000  0.11258800  0.51505000  1
  Pr  Pr16  1  0.60644600  0.61929800  0.94192700  1
  Pr  Pr17  1  0.25000000  0.11158500  0.77604300  1
  Pr  Pr18  1  0.39220100  0.88430200  0.70315400  1
  Pr  Pr19  1  0.39355400  0.38070200  0.05807300  1
  Pr  Pr20  1  0.10779900  0.61569800  0.20315400  1
  Pr  Pr21  1  0.39355400  0.11929800  0.55807300  1
  Pr  Pr22  1  0.89220100  0.38430200  0.79684600  1
  Pr  Pr23  1  0.25000000  0.38841500  0.27604300  1
  Pr  Pr24  1  0.75000000  0.88841500  0.22395700  1
  Pr  Pr25  1  0.25000000  0.88741200  0.48495000  1
  Pr  Pr26  1  0.60644600  0.88070200  0.44192700  1
  Pr  Pr27  1  0.60779900  0.11569800  0.29684600  1
  Os  Os28  1  0.75000000  0.50117600  0.87116800  1
  Os  Os29  1  0.25000000  0.00117600  0.62883200  1
  Os  Os30  1  0.25000000  0.49882400  0.12883200  1
  Os  Os31  1  0.75000000  0.99882400  0.37116800  1
  I  I32  1  0.41709900  0.49710000  0.87706800  1
  I  I33  1  0.91077600  0.76378400  0.78748800  1
  I  I34  1  0.07675100  0.75078600  0.03834500  1
  I  I35  1  0.25000000  0.23199900  0.96795800  1
  I  I36  1  0.42324900  0.75078600  0.03834500  1
  I  I37  1  0.25000000  0.77485300  0.28078700  1
  I  I38  1  0.08290100  0.49710000  0.87706800  1
  I  I39  1  0.75000000  0.22514700  0.71921300  1
  I  I40  1  0.75000000  0.27485300  0.21921300  1
  I  I41  1  0.25000000  0.26800100  0.46795800  1
  I  I42  1  0.91077600  0.73621600  0.28748800  1
  I  I43  1  0.41077600  0.23621600  0.21251200  1
  I  I44  1  0.91441300  0.49695700  0.62166200  1
  I  I45  1  0.41709900  0.00290000  0.37706800  1
  I  I46  1  0.58290100  0.99710000  0.62293200  1
  I  I47  1  0.08290100  0.00290000  0.37706800  1
  I  I48  1  0.58558700  0.00304300  0.12166200  1
  I  I49  1  0.08922400  0.23621600  0.21251200  1
  I  I50  1  0.57675100  0.24921400  0.96165500  1
  I  I51  1  0.75000000  0.73199900  0.53204200  1
  I  I52  1  0.91441300  0.00304300  0.12166200  1
  I  I53  1  0.41441300  0.50304300  0.37833800  1
  I  I54  1  0.41077600  0.26378400  0.71251200  1
  I  I55  1  0.91709900  0.50290000  0.12293200  1
  I  I56  1  0.41441300  0.99695700  0.87833800  1
  I  I57  1  0.58558700  0.49695700  0.62166200  1
  I  I58  1  0.75000000  0.76800100  0.03204200  1
  I  I59  1  0.58922400  0.76378400  0.78748800  1
  I  I60  1  0.58922400  0.73621600  0.28748800  1
  I  I61  1  0.07675100  0.74921400  0.53834500  1
  I  I62  1  0.92324900  0.24921400  0.96165500  1
  I  I63  1  0.42324900  0.74921400  0.53834500  1
  I  I64  1  0.91709900  0.99710000  0.62293200  1
  I  I65  1  0.08558700  0.99695700  0.87833800  1
  I  I66  1  0.08922400  0.26378400  0.71251200  1
  I  I67  1  0.25000000  0.72514700  0.78078700  1
  I  I68  1  0.92324900  0.25078600  0.46165500  1
  I  I69  1  0.08558700  0.50304300  0.37833800  1
  I  I70  1  0.58290100  0.50290000  0.12293200  1
  I  I71  1  0.57675100  0.25078600  0.46165500  1
