# generated using pymatgen
data_KLuP2O7
_symmetry_space_group_name_H-M   'P 1'
_cell_length_a   10.83685400
_cell_length_b   7.63587300
_cell_length_c   8.61781842
_cell_angle_alpha   73.16177497
_cell_angle_beta   90.00000000
_cell_angle_gamma   90.00000000
_symmetry_Int_Tables_number   1
_chemical_formula_structural   KLuP2O7
_chemical_formula_sum   'K4 Lu4 P8 O28'
_cell_volume   682.54073955
_cell_formula_units_Z   4
loop_
 _symmetry_equiv_pos_site_id
 _symmetry_equiv_pos_as_xyz
  1  'x, y, z'
loop_
 _atom_site_type_symbol
 _atom_site_label
 _atom_site_symmetry_multiplicity
 _atom_site_fract_x
 _atom_site_fract_y
 _atom_site_fract_z
 _atom_site_occupancy
  K  K0  1  0.17816300  0.81992000  0.56649100  1
  K  K1  1  0.82183700  0.18008000  0.43350900  1
  K  K2  1  0.32183700  0.81992000  0.06649100  1
  K  K3  1  0.67816300  0.18008000  0.93350900  1
  Lu  Lu4  1  0.40346300  0.23290300  0.24790400  1
  Lu  Lu5  1  0.59653700  0.76709700  0.75209600  1
  Lu  Lu6  1  0.90346300  0.76709700  0.25209600  1
  Lu  Lu7  1  0.09653700  0.23290300  0.74790400  1
  P  P8  1  0.39858100  0.13102300  0.68545700  1
  P  P9  1  0.89858100  0.86897700  0.81454300  1
  P  P10  1  0.10141900  0.13102300  0.18545700  1
  P  P11  1  0.60141900  0.86897700  0.31454300  1
  P  P12  1  0.35798900  0.44492400  0.80984100  1
  P  P13  1  0.64201100  0.55507600  0.19015900  1
  P  P14  1  0.14201100  0.44492400  0.30984100  1
  P  P15  1  0.85798900  0.55507600  0.69015900  1
  O  O16  1  0.09575200  0.13935800  0.00791000  1
  O  O17  1  0.88733600  0.66341200  0.51563400  1
  O  O18  1  0.50065500  0.00999100  0.78586800  1
  O  O19  1  0.92658400  0.66276000  0.80514100  1
  O  O20  1  0.41607300  0.63573200  0.76012600  1
  O  O21  1  0.99934500  0.00999100  0.28586800  1
  O  O22  1  0.49934500  0.99000900  0.21413200  1
  O  O23  1  0.27944200  0.45587200  0.26614200  1
  O  O24  1  0.90424800  0.86064200  0.99209000  1
  O  O25  1  0.00065500  0.99000900  0.71413200  1
  O  O26  1  0.38733600  0.33658800  0.98436600  1
  O  O27  1  0.08392700  0.63573200  0.26012600  1
  O  O28  1  0.77944200  0.54412800  0.23385800  1
  O  O29  1  0.40424800  0.13935800  0.50791000  1
  O  O30  1  0.22945700  0.07299200  0.25975400  1
  O  O31  1  0.27054300  0.07299200  0.75975400  1
  O  O32  1  0.58392700  0.36426800  0.23987400  1
  O  O33  1  0.61266400  0.66341200  0.01563400  1
  O  O34  1  0.11266400  0.33658800  0.48436600  1
  O  O35  1  0.42658400  0.33724000  0.69485900  1
  O  O36  1  0.91607300  0.36426800  0.73987400  1
  O  O37  1  0.59575200  0.86064200  0.49209000  1
  O  O38  1  0.57341600  0.66276000  0.30514100  1
  O  O39  1  0.72055800  0.54412800  0.73385800  1
  O  O40  1  0.07341600  0.33724000  0.19485900  1
  O  O41  1  0.72945700  0.92700800  0.24024600  1
  O  O42  1  0.77054300  0.92700800  0.74024600  1
  O  O43  1  0.22055800  0.45587200  0.76614200  1
