# generated using pymatgen
data_Ba8B5N10F
_symmetry_space_group_name_H-M   'P 1'
_cell_length_a   4.25956400
_cell_length_b   21.14171111
_cell_length_c   21.22529592
_cell_angle_alpha   91.73286455
_cell_angle_beta   90.01587523
_cell_angle_gamma   93.10959791
_symmetry_Int_Tables_number   1
_chemical_formula_structural   Ba8B5N10F
_chemical_formula_sum   'Ba32 B20 N40 F4'
_cell_volume   1907.74203741
_cell_formula_units_Z   4
loop_
 _symmetry_equiv_pos_site_id
 _symmetry_equiv_pos_as_xyz
  1  'x, y, z'
loop_
 _atom_site_type_symbol
 _atom_site_label
 _atom_site_symmetry_multiplicity
 _atom_site_fract_x
 _atom_site_fract_y
 _atom_site_fract_z
 _atom_site_occupancy
  Ba  Ba0  1  0.22040300  0.49049400  0.41661800  1
  Ba  Ba1  1  0.33105300  0.19701700  0.88383800  1
  Ba  Ba2  1  0.12490500  0.66014600  0.20625700  1
  Ba  Ba3  1  0.35467900  0.18099400  0.49631700  1
  Ba  Ba4  1  0.09173400  0.66980800  0.41438800  1
  Ba  Ba5  1  0.11790600  0.69356800  0.60962800  1
  Ba  Ba6  1  0.07514200  0.70461600  0.80428800  1
  Ba  Ba7  1  0.37614200  0.16840400  0.07834100  1
  Ba  Ba8  1  0.62385800  0.83159600  0.92165900  1
  Ba  Ba9  1  0.64532100  0.81900600  0.50368300  1
  Ba  Ba10  1  0.88209400  0.30643200  0.39037200  1
  Ba  Ba11  1  0.13160900  0.67982900  0.99887700  1
  Ba  Ba12  1  0.29042900  0.52696600  0.74953000  1
  Ba  Ba13  1  0.06087700  0.02377500  0.66313100  1
  Ba  Ba14  1  0.86839100  0.32017100  0.00112300  1
  Ba  Ba15  1  0.50000000  0.00000000  0.50000000  1
  Ba  Ba16  1  0.87509500  0.33985400  0.79374300  1
  Ba  Ba17  1  0.21340800  0.48595200  0.07958700  1
  Ba  Ba18  1  0.93912300  0.97622500  0.33686900  1
  Ba  Ba19  1  0.78659200  0.51404800  0.92041300  1
  Ba  Ba20  1  0.77959700  0.50950600  0.58338200  1
  Ba  Ba21  1  0.70957100  0.47303400  0.25047000  1
  Ba  Ba22  1  0.45563100  0.98146900  0.16529800  1
  Ba  Ba23  1  0.66894700  0.80298300  0.11616200  1
  Ba  Ba24  1  0.38012800  0.16041500  0.29096700  1
  Ba  Ba25  1  0.63320900  0.79754500  0.30766900  1
  Ba  Ba26  1  0.36679100  0.20245500  0.69233100  1
  Ba  Ba27  1  0.54436900  0.01853100  0.83470200  1
  Ba  Ba28  1  0.90826600  0.33019200  0.58561200  1
  Ba  Ba29  1  0.92485800  0.29538400  0.19571200  1
  Ba  Ba30  1  0.00000000  0.00000000  0.00000000  1
  Ba  Ba31  1  0.61987200  0.83958500  0.70903300  1
  B  B32  1  0.63832100  0.61170000  0.32588500  1
  B  B33  1  0.50061100  0.64457200  0.88831000  1
  B  B34  1  0.09546700  0.88813700  0.83831400  1
  B  B35  1  0.33082600  0.35131800  0.29742900  1
  B  B36  1  0.07944000  0.85211600  0.21656100  1
  B  B37  1  0.34232700  0.38139700  0.92045000  1
  B  B38  1  0.50512800  0.36940900  0.48404400  1
  B  B39  1  0.49938900  0.35542800  0.11169000  1
  B  B40  1  0.09359100  0.88097800  0.59018900  1
  B  B41  1  0.73831400  0.13367700  0.96808400  1
  B  B42  1  0.90453300  0.11186300  0.16168600  1
  B  B43  1  0.75714100  0.14207800  0.59772400  1
  B  B44  1  0.92056000  0.14788400  0.78343900  1
  B  B45  1  0.26168600  0.86632300  0.03191600  1
  B  B46  1  0.24285900  0.85792200  0.40227600  1
  B  B47  1  0.49487200  0.63059100  0.51595600  1
  B  B48  1  0.66917400  0.64868200  0.70257100  1
  B  B49  1  0.65767300  0.61860300  0.07955000  1
  B  B50  1  0.36167900  0.38830000  0.67411500  1
  B  B51  1  0.90640900  0.11902200  0.40981100  1
  N  N52  1  0.37053800  0.31017600  0.48960000  1
  N  N53  1  0.40538900  0.32646300  0.88986900  1
  N  N54  1  0.12237900  0.80889300  0.01619600  1
  N  N55  1  0.19175600  0.40646200  0.30610900  1
  N  N56  1  0.67420600  0.40787800  0.12909100  1
  N  N57  1  0.58622900  0.66973700  0.30374400  1
  N  N58  1  0.00307200  0.06676700  0.43711300  1
  N  N59  1  0.31191500  0.57750700  0.52293500  1
  N  N60  1  0.36367300  0.29843500  0.09334700  1
  N  N61  1  0.15431400  0.83327200  0.80706900  1
  N  N62  1  0.55451700  0.08144900  0.95398800  1
  N  N63  1  0.84079400  0.17651100  0.38801000  1
  N  N64  1  0.17035100  0.79170000  0.21187800  1
  N  N65  1  0.10850300  0.79902500  0.40843000  1
  N  N66  1  0.57792200  0.08851700  0.60522200  1
  N  N67  1  0.26312300  0.43110900  0.95731200  1
  N  N68  1  0.62946200  0.68982400  0.51040000  1
  N  N69  1  0.63632700  0.70156500  0.90665300  1
  N  N70  1  0.97679100  0.06233100  0.12373200  1
  N  N71  1  0.44548300  0.91855100  0.04601200  1
  N  N72  1  0.71960700  0.55879000  0.35410700  1
  N  N73  1  0.68808500  0.42249300  0.47706500  1
  N  N74  1  0.99692800  0.93323300  0.56288700  1
  N  N75  1  0.93686600  0.90721500  0.21945800  1
  N  N76  1  0.82964900  0.20830000  0.78812200  1
  N  N77  1  0.41377100  0.33026300  0.69625600  1
  N  N78  1  0.42207800  0.91148300  0.39477800  1
  N  N79  1  0.87762100  0.19110700  0.98380400  1
  N  N80  1  0.28039300  0.44121000  0.64589300  1
  N  N81  1  0.57050600  0.70802500  0.71051100  1
  N  N82  1  0.89149700  0.20097500  0.59157000  1
  N  N83  1  0.02320900  0.93766900  0.87626800  1
  N  N84  1  0.59461100  0.67353700  0.11013100  1
  N  N85  1  0.32579400  0.59212200  0.87090900  1
  N  N86  1  0.80824400  0.59353800  0.69389100  1
  N  N87  1  0.06313400  0.09278500  0.78054200  1
  N  N88  1  0.15920600  0.82348900  0.61199000  1
  N  N89  1  0.84568600  0.16672800  0.19293100  1
  N  N90  1  0.73687700  0.56889100  0.04268800  1
  N  N91  1  0.42949400  0.29197500  0.28948900  1
  F  F92  1  0.55245000  0.96549700  0.71683500  1
  F  F93  1  0.44755000  0.03450300  0.28316500  1
  F  F94  1  0.78428200  0.46576200  0.80189100  1
  F  F95  1  0.21571800  0.53423800  0.19810900  1
