# generated using pymatgen
data_Sr2B5ClO9
_symmetry_space_group_name_H-M   'P 1'
_cell_length_a   6.56679300
_cell_length_b   11.45429000
_cell_length_c   11.54026300
_cell_angle_alpha   90.00000000
_cell_angle_beta   90.00000000
_cell_angle_gamma   90.00000000
_symmetry_Int_Tables_number   1
_chemical_formula_structural   Sr2B5ClO9
_chemical_formula_sum   'Sr8 B20 Cl4 O36'
_cell_volume   868.03494138
_cell_formula_units_Z   4
loop_
 _symmetry_equiv_pos_site_id
 _symmetry_equiv_pos_as_xyz
  1  'x, y, z'
loop_
 _atom_site_type_symbol
 _atom_site_label
 _atom_site_symmetry_multiplicity
 _atom_site_fract_x
 _atom_site_fract_y
 _atom_site_fract_z
 _atom_site_occupancy
  Sr  Sr0  1  0.84163600  0.74150900  0.47346600  1
  Sr  Sr1  1  0.00600100  0.95594200  0.74754000  1
  Sr  Sr2  1  0.50600100  0.45594200  0.75246000  1
  Sr  Sr3  1  0.50600100  0.54405800  0.24754000  1
  Sr  Sr4  1  0.34163600  0.75849100  0.97346600  1
  Sr  Sr5  1  0.00600100  0.04405800  0.25246000  1
  Sr  Sr6  1  0.34163600  0.24150900  0.02653400  1
  Sr  Sr7  1  0.84163600  0.25849100  0.52653400  1
  B  B8  1  0.47422100  0.99346600  0.24940200  1
  B  B9  1  0.47422100  0.00653400  0.75059800  1
  B  B10  1  0.80850400  0.73485100  0.03580800  1
  B  B11  1  0.03009100  0.71513000  0.20664700  1
  B  B12  1  0.80850400  0.26514900  0.96419200  1
  B  B13  1  0.30850400  0.76514900  0.53580800  1
  B  B14  1  0.30850400  0.23485100  0.46419200  1
  B  B15  1  0.84817500  0.29429400  0.18804700  1
  B  B16  1  0.84817500  0.70570600  0.81195300  1
  B  B17  1  0.97422100  0.49346600  0.25059800  1
  B  B18  1  0.20033700  0.32156200  0.27361700  1
  B  B19  1  0.97422100  0.50653400  0.74940200  1
  B  B20  1  0.03009100  0.28487000  0.79335300  1
  B  B21  1  0.70033700  0.17843800  0.77361700  1
  B  B22  1  0.34817500  0.20570600  0.68804700  1
  B  B23  1  0.34817500  0.79429400  0.31195300  1
  B  B24  1  0.70033700  0.82156200  0.22638300  1
  B  B25  1  0.53009100  0.78487000  0.70664700  1
  B  B26  1  0.53009100  0.21513000  0.29335300  1
  B  B27  1  0.20033700  0.67843800  0.72638300  1
  Cl  Cl28  1  0.40365800  0.50000000  0.00000000  1
  Cl  Cl29  1  0.64880600  0.50000000  0.50000000  1
  Cl  Cl30  1  0.14880600  0.00000000  0.00000000  1
  Cl  Cl31  1  0.90365800  0.00000000  0.50000000  1
  O  O32  1  0.74828400  0.26604000  0.07725200  1
  O  O33  1  0.15362100  0.26612800  0.38764400  1
  O  O34  1  0.56870900  0.23392200  0.68481500  1
  O  O35  1  0.56870900  0.76607800  0.31518500  1
  O  O36  1  0.32023000  0.92175400  0.28771600  1
  O  O37  1  0.15362100  0.73387200  0.61235600  1
  O  O38  1  0.24828400  0.23396000  0.57725200  1
  O  O39  1  0.91690100  0.81432800  0.25569600  1
  O  O40  1  0.92938500  0.61024100  0.26309600  1
  O  O41  1  0.82023000  0.57824600  0.78771600  1
  O  O42  1  0.75017000  0.77800800  0.72126300  1
  O  O43  1  0.41690100  0.68567200  0.75569600  1
  O  O44  1  0.41690100  0.31432800  0.24430400  1
  O  O45  1  0.99866500  0.70820900  0.07683400  1
  O  O46  1  0.82023000  0.42175400  0.21228400  1
  O  O47  1  0.16048900  0.55025300  0.71862300  1
  O  O48  1  0.49866500  0.79179100  0.57683400  1
  O  O49  1  0.42938500  0.11024100  0.23690400  1
  O  O50  1  0.25017000  0.27800800  0.77873700  1
  O  O51  1  0.92938500  0.38975900  0.73690400  1
  O  O52  1  0.75017000  0.22199200  0.27873700  1
  O  O53  1  0.24828400  0.76604000  0.42274800  1
  O  O54  1  0.06870900  0.73392200  0.81518500  1
  O  O55  1  0.74828400  0.73396000  0.92274800  1
  O  O56  1  0.65362100  0.76612800  0.11235600  1
  O  O57  1  0.16048900  0.44974700  0.28137700  1
  O  O58  1  0.99866500  0.29179100  0.92316600  1
  O  O59  1  0.06870900  0.26607800  0.18481500  1
  O  O60  1  0.49866500  0.20820900  0.42316600  1
  O  O61  1  0.42938500  0.88975900  0.76309600  1
  O  O62  1  0.65362100  0.23387200  0.88764400  1
  O  O63  1  0.66048900  0.05025300  0.78137700  1
  O  O64  1  0.91690100  0.18567200  0.74430400  1
  O  O65  1  0.32023000  0.07824600  0.71228400  1
  O  O66  1  0.25017000  0.72199200  0.22126300  1
  O  O67  1  0.66048900  0.94974700  0.21862300  1
