# generated using pymatgen
data_RbCr2FeO8
_symmetry_space_group_name_H-M   'P 1'
_cell_length_a   5.54434800
_cell_length_b   8.97785100
_cell_length_c   14.97124400
_cell_angle_alpha   90.00000000
_cell_angle_beta   90.00000000
_cell_angle_gamma   90.00000000
_symmetry_Int_Tables_number   1
_chemical_formula_structural   RbCr2FeO8
_chemical_formula_sum   'Rb4 Cr8 Fe4 O32'
_cell_volume   745.21358539
_cell_formula_units_Z   4
loop_
 _symmetry_equiv_pos_site_id
 _symmetry_equiv_pos_as_xyz
  1  'x, y, z'
loop_
 _atom_site_type_symbol
 _atom_site_label
 _atom_site_symmetry_multiplicity
 _atom_site_fract_x
 _atom_site_fract_y
 _atom_site_fract_z
 _atom_site_occupancy
  Rb  Rb0  1  0.25000000  0.94938600  0.37954900  1
  Rb  Rb1  1  0.75000000  0.05061400  0.62045100  1
  Rb  Rb2  1  0.75000000  0.44938600  0.12045100  1
  Rb  Rb3  1  0.25000000  0.55061400  0.87954900  1
  Cr  Cr4  1  0.75000000  0.24426000  0.33612900  1
  Cr  Cr5  1  0.25000000  0.75574000  0.66387100  1
  Cr  Cr6  1  0.25000000  0.74426000  0.16387100  1
  Cr  Cr7  1  0.75000000  0.25574000  0.83612900  1
  Cr  Cr8  1  0.75000000  0.68160200  0.43668400  1
  Cr  Cr9  1  0.25000000  0.31839800  0.56331600  1
  Cr  Cr10  1  0.25000000  0.18160200  0.06331600  1
  Cr  Cr11  1  0.75000000  0.81839800  0.93668400  1
  Fe  Fe12  1  0.25000000  0.49313200  0.34356600  1
  Fe  Fe13  1  0.75000000  0.50686800  0.65643400  1
  Fe  Fe14  1  0.75000000  0.99313200  0.15643400  1
  Fe  Fe15  1  0.25000000  0.00686800  0.84356600  1
  O  O16  1  0.75000000  0.85879600  0.45974400  1
  O  O17  1  0.25000000  0.14120400  0.54025600  1
  O  O18  1  0.25000000  0.35879600  0.04025600  1
  O  O19  1  0.75000000  0.64120400  0.95974400  1
  O  O20  1  0.25000000  0.71243300  0.05798900  1
  O  O21  1  0.75000000  0.28756700  0.94201100  1
  O  O22  1  0.75000000  0.21243300  0.44201100  1
  O  O23  1  0.25000000  0.78756700  0.55798900  1
  O  O24  1  0.25000000  0.41893400  0.47008300  1
  O  O25  1  0.75000000  0.58106600  0.52991700  1
  O  O26  1  0.75000000  0.91893400  0.02991700  1
  O  O27  1  0.25000000  0.08106600  0.97008300  1
  O  O28  1  0.25000000  0.57794000  0.21750500  1
  O  O29  1  0.75000000  0.42206000  0.78249500  1
  O  O30  1  0.75000000  0.07794000  0.28249500  1
  O  O31  1  0.25000000  0.92206000  0.71750500  1
  O  O32  1  0.99637700  0.34291400  0.30760400  1
  O  O33  1  0.49637700  0.65708600  0.69239600  1
  O  O34  1  0.00362300  0.84291400  0.19239600  1
  O  O35  1  0.50362300  0.15708600  0.80760400  1
  O  O36  1  0.00362300  0.65708600  0.69239600  1
  O  O37  1  0.50362300  0.34291400  0.30760400  1
  O  O38  1  0.99637700  0.15708600  0.80760400  1
  O  O39  1  0.49637700  0.84291400  0.19239600  1
  O  O40  1  0.00234900  0.14386800  0.12464400  1
  O  O41  1  0.50234900  0.85613200  0.87535600  1
  O  O42  1  0.99765100  0.64386800  0.37535600  1
  O  O43  1  0.49765100  0.35613200  0.62464400  1
  O  O44  1  0.99765100  0.85613200  0.87535600  1
  O  O45  1  0.49765100  0.14386800  0.12464400  1
  O  O46  1  0.00234900  0.35613200  0.62464400  1
  O  O47  1  0.50234900  0.64386800  0.37535600  1
