# generated using pymatgen
data_K2Se2O5
_symmetry_space_group_name_H-M   'P 1'
_cell_length_a   9.98339800
_cell_length_b   10.87381500
_cell_length_c   25.74334200
_cell_angle_alpha   90.00000000
_cell_angle_beta   90.00000000
_cell_angle_gamma   90.00000000
_symmetry_Int_Tables_number   1
_chemical_formula_structural   K2Se2O5
_chemical_formula_sum   'K32 Se32 O80'
_cell_volume   2794.63601362
_cell_formula_units_Z   16
loop_
 _symmetry_equiv_pos_site_id
 _symmetry_equiv_pos_as_xyz
  1  'x, y, z'
loop_
 _atom_site_type_symbol
 _atom_site_label
 _atom_site_symmetry_multiplicity
 _atom_site_fract_x
 _atom_site_fract_y
 _atom_site_fract_z
 _atom_site_occupancy
  K  K0  1  0.52508800  0.49561100  0.87025600  1
  K  K1  1  0.00052800  0.79152100  0.99215500  1
  K  K2  1  0.47491200  0.50438900  0.12974400  1
  K  K3  1  0.10752900  0.49684800  0.12589900  1
  K  K4  1  0.45937700  0.75245800  0.74494000  1
  K  K5  1  0.54062300  0.24754200  0.25506000  1
  K  K6  1  0.50052800  0.70847900  0.99215500  1
  K  K7  1  0.49947200  0.79152100  0.49215500  1
  K  K8  1  0.99947200  0.70847900  0.49215500  1
  K  K9  1  0.50052800  0.20847900  0.50784500  1
  K  K10  1  0.97491200  0.49561100  0.37025600  1
  K  K11  1  0.97491200  0.99561100  0.12974400  1
  K  K12  1  0.95937700  0.74754200  0.74494000  1
  K  K13  1  0.89247100  0.50315200  0.87410100  1
  K  K14  1  0.95937700  0.24754200  0.75506000  1
  K  K15  1  0.45937700  0.25245800  0.75506000  1
  K  K16  1  0.60752900  0.50315200  0.37410100  1
  K  K17  1  0.10752900  0.99684800  0.37410100  1
  K  K18  1  0.02508800  0.50438900  0.62974400  1
  K  K19  1  0.00052800  0.29152100  0.50784500  1
  K  K20  1  0.04062300  0.25245800  0.25506000  1
  K  K21  1  0.54062300  0.74754200  0.24494000  1
  K  K22  1  0.39247100  0.99684800  0.87410100  1
  K  K23  1  0.47491200  0.00438900  0.37025600  1
  K  K24  1  0.04062300  0.75245800  0.24494000  1
  K  K25  1  0.60752900  0.00315200  0.12589900  1
  K  K26  1  0.99947200  0.20847900  0.00784500  1
  K  K27  1  0.52508800  0.99561100  0.62974400  1
  K  K28  1  0.89247100  0.00315200  0.62589900  1
  K  K29  1  0.39247100  0.49684800  0.62589900  1
  K  K30  1  0.02508800  0.00438900  0.87025600  1
  K  K31  1  0.49947200  0.29152100  0.00784500  1
  Se  Se32  1  0.28687200  0.49173700  0.48692800  1
  Se  Se33  1  0.71312800  0.50826300  0.51307200  1
  Se  Se34  1  0.32612300  0.29661200  0.38821600  1
  Se  Se35  1  0.30347600  0.20195400  0.13925500  1
  Se  Se36  1  0.21420400  0.00431900  0.73922300  1
  Se  Se37  1  0.71312800  0.00826300  0.98692800  1
  Se  Se38  1  0.80347600  0.29804600  0.13925500  1
  Se  Se39  1  0.71420400  0.49568100  0.73922300  1
  Se  Se40  1  0.78579600  0.49568100  0.23922300  1
  Se  Se41  1  0.78579600  0.99568100  0.26077700  1
  Se  Se42  1  0.21420400  0.50431900  0.76077700  1
  Se  Se43  1  0.17387700  0.79661200  0.61178400  1
  Se  Se44  1  0.82612300  0.20338800  0.38821600  1
  Se  Se45  1  0.28687200  0.99173700  0.01307200  1
  Se  Se46  1  0.78687200  0.50826300  0.01307200  1
  Se  Se47  1  0.28579600  0.50431900  0.26077700  1
  Se  Se48  1  0.82612300  0.70338800  0.11178400  1
  Se  Se49  1  0.21312800  0.99173700  0.51307200  1
  Se  Se50  1  0.21312800  0.49173700  0.98692800  1
  Se  Se51  1  0.17387700  0.29661200  0.88821600  1
  Se  Se52  1  0.30347600  0.70195400  0.36074500  1
  Se  Se53  1  0.78687200  0.00826300  0.48692800  1
  Se  Se54  1  0.80347600  0.79804600  0.36074500  1
  Se  Se55  1  0.19652400  0.70195400  0.86074500  1
  Se  Se56  1  0.67387700  0.70338800  0.61178400  1
  Se  Se57  1  0.69652400  0.29804600  0.63925500  1
  Se  Se58  1  0.69652400  0.79804600  0.86074500  1
  Se  Se59  1  0.28579600  0.00431900  0.23922300  1
  Se  Se60  1  0.32612300  0.79661200  0.11178400  1
  Se  Se61  1  0.19652400  0.20195400  0.63925500  1
  Se  Se62  1  0.67387700  0.20338800  0.88821600  1
  Se  Se63  1  0.71420400  0.99568100  0.76077700  1
  O  O64  1  0.52626500  0.72161800  0.64253000  1
  O  O65  1  0.11763400  0.59062800  0.81267900  1
  O  O66  1  0.26325900  0.32152700  0.17808300  1
  O  O67  1  0.55076500  0.76034700  0.88950000  1
  O  O68  1  0.19624100  0.66822200  0.57604900  1
  O  O69  1  0.80375900  0.33177800  0.42395100  1
  O  O70  1  0.13575600  0.99107600  0.04278300  1
  O  O71  1  0.94923500  0.76034700  0.38950000  1
  O  O72  1  0.60324900  0.59147000  0.56121800  1
  O  O73  1  0.30375900  0.16822200  0.42395100  1
  O  O74  1  0.28468900  0.10677800  0.28827300  1
  O  O75  1  0.21531100  0.60677800  0.71172700  1
  O  O76  1  0.61763400  0.90937200  0.81267900  1
  O  O77  1  0.87305400  0.99670700  0.78396600  1
  O  O78  1  0.44923500  0.23965300  0.11050000  1
  O  O79  1  0.78468900  0.89322200  0.21172700  1
  O  O80  1  0.69624100  0.83177800  0.57604900  1
  O  O81  1  0.36424400  0.49107600  0.95721700  1
  O  O82  1  0.39675100  0.40853000  0.43878200  1
  O  O83  1  0.63575600  0.50892400  0.04278300  1
  O  O84  1  0.39675100  0.90853000  0.06121800  1
  O  O85  1  0.76325900  0.17847300  0.17808300  1
  O  O86  1  0.02626500  0.27838200  0.85747000  1
  O  O87  1  0.36424400  0.99107600  0.54278300  1
  O  O88  1  0.26325900  0.82152700  0.32191700  1
  O  O89  1  0.76325900  0.67847300  0.32191700  1
  O  O90  1  0.77803500  0.11293200  0.53500300  1
  O  O91  1  0.89675100  0.09147000  0.43878200  1
  O  O92  1  0.89675100  0.59147000  0.06121800  1
  O  O93  1  0.72196500  0.61293200  0.46499700  1
  O  O94  1  0.23674100  0.32152700  0.67808300  1
  O  O95  1  0.63575600  0.00892400  0.45721700  1
  O  O96  1  0.22196500  0.88706800  0.46499700  1
  O  O97  1  0.62694600  0.49670700  0.21603400  1
  O  O98  1  0.88236600  0.90937200  0.31267900  1
  O  O99  1  0.05076500  0.23965300  0.61050000  1
  O  O100  1  0.12694600  0.50329300  0.28396600  1
  O  O101  1  0.86424400  0.00892400  0.95721700  1
  O  O102  1  0.73674100  0.67847300  0.82191700  1
  O  O103  1  0.80375900  0.83177800  0.07604900  1
  O  O104  1  0.62694600  0.99670700  0.28396600  1
  O  O105  1  0.28468900  0.60677800  0.21172700  1
  O  O106  1  0.97373500  0.72161800  0.14253000  1
  O  O107  1  0.69624100  0.33177800  0.92395100  1
  O  O108  1  0.23674100  0.82152700  0.82191700  1
  O  O109  1  0.38236600  0.59062800  0.31267900  1
  O  O110  1  0.47373500  0.27838200  0.35747000  1
  O  O111  1  0.88236600  0.40937200  0.18732100  1
  O  O112  1  0.21531100  0.10677800  0.78827300  1
  O  O113  1  0.78468900  0.39322200  0.28827300  1
  O  O114  1  0.97373500  0.22161800  0.35747000  1
  O  O115  1  0.27803500  0.38706800  0.53500300  1
  O  O116  1  0.52626500  0.22161800  0.85747000  1
  O  O117  1  0.73674100  0.17847300  0.67808300  1
  O  O118  1  0.86424400  0.50892400  0.54278300  1
  O  O119  1  0.10324900  0.90853000  0.56121800  1
  O  O120  1  0.87305400  0.49670700  0.71603400  1
  O  O121  1  0.02626500  0.77838200  0.64253000  1
  O  O122  1  0.44923500  0.73965300  0.38950000  1
  O  O123  1  0.30375900  0.66822200  0.07604900  1
  O  O124  1  0.37305400  0.50329300  0.78396600  1
  O  O125  1  0.19624100  0.16822200  0.92395100  1
  O  O126  1  0.37305400  0.00329300  0.71603400  1
  O  O127  1  0.38236600  0.09062800  0.18732100  1
  O  O128  1  0.11763400  0.09062800  0.68732100  1
  O  O129  1  0.94923500  0.26034700  0.11050000  1
  O  O130  1  0.27803500  0.88706800  0.96499700  1
  O  O131  1  0.22196500  0.38706800  0.03500300  1
  O  O132  1  0.12694600  0.00329300  0.21603400  1
  O  O133  1  0.55076500  0.26034700  0.61050000  1
  O  O134  1  0.05076500  0.73965300  0.88950000  1
  O  O135  1  0.77803500  0.61293200  0.96499700  1
  O  O136  1  0.72196500  0.11293200  0.03500300  1
  O  O137  1  0.10324900  0.40853000  0.93878200  1
  O  O138  1  0.71531100  0.89322200  0.71172700  1
  O  O139  1  0.60324900  0.09147000  0.93878200  1
  O  O140  1  0.71531100  0.39322200  0.78827300  1
  O  O141  1  0.13575600  0.49107600  0.45721700  1
  O  O142  1  0.61763400  0.40937200  0.68732100  1
  O  O143  1  0.47373500  0.77838200  0.14253000  1
