# generated using pymatgen
data_K4Sr(SiO3)3
_symmetry_space_group_name_H-M   'P 1'
_cell_length_a   7.25033736
_cell_length_b   7.25033736
_cell_length_c   11.13674900
_cell_angle_alpha   90.00000000
_cell_angle_beta   90.00000000
_cell_angle_gamma   112.51413449
_symmetry_Int_Tables_number   1
_chemical_formula_structural   K4Sr(SiO3)3
_chemical_formula_sum   'K8 Sr2 Si6 O18'
_cell_volume   540.81137092
_cell_formula_units_Z   2
loop_
 _symmetry_equiv_pos_site_id
 _symmetry_equiv_pos_as_xyz
  1  'x, y, z'
loop_
 _atom_site_type_symbol
 _atom_site_label
 _atom_site_symmetry_multiplicity
 _atom_site_fract_x
 _atom_site_fract_y
 _atom_site_fract_z
 _atom_site_occupancy
  K  K0  1  0.34217600  0.76420200  0.75000000  1
  K  K1  1  0.94475900  0.05524100  0.00000000  1
  K  K2  1  0.50012100  0.49987900  0.00000000  1
  K  K3  1  0.23579800  0.65782400  0.25000000  1
  K  K4  1  0.22010100  0.22764800  0.75000000  1
  K  K5  1  0.50012100  0.49987900  0.50000000  1
  K  K6  1  0.77235200  0.77989900  0.25000000  1
  K  K7  1  0.94475900  0.05524100  0.50000000  1
  Sr  Sr8  1  0.72579100  0.25422600  0.75000000  1
  Sr  Sr9  1  0.74577400  0.27420900  0.25000000  1
  Si  Si10  1  0.40853400  0.98077500  0.03090800  1
  Si  Si11  1  0.01922500  0.59146600  0.96909200  1
  Si  Si12  1  0.01922500  0.59146600  0.53090800  1
  Si  Si13  1  0.26100200  0.18861100  0.25000000  1
  Si  Si14  1  0.81138900  0.73899800  0.75000000  1
  Si  Si15  1  0.40853400  0.98077500  0.46909200  1
  O  O16  1  0.94582800  0.72893800  0.87127100  1
  O  O17  1  0.02701300  0.40044700  0.60206500  1
  O  O18  1  0.88618300  0.55228800  0.09022500  1
  O  O19  1  0.27106200  0.05417200  0.12872900  1
  O  O20  1  0.27106200  0.05417200  0.37127100  1
  O  O21  1  0.25885600  0.74114400  0.00000000  1
  O  O22  1  0.44771200  0.11381700  0.59022500  1
  O  O23  1  0.44771200  0.11381700  0.90977500  1
  O  O24  1  0.60014900  0.54801100  0.75000000  1
  O  O25  1  0.25885600  0.74114400  0.50000000  1
  O  O26  1  0.59955300  0.97298700  0.10206500  1
  O  O27  1  0.04357800  0.20058500  0.25000000  1
  O  O28  1  0.79941500  0.95642200  0.75000000  1
  O  O29  1  0.45198900  0.39985100  0.25000000  1
  O  O30  1  0.88618300  0.55228800  0.40977500  1
  O  O31  1  0.02701300  0.40044700  0.89793500  1
  O  O32  1  0.59955300  0.97298700  0.39793500  1
  O  O33  1  0.94582800  0.72893800  0.62872900  1
