# generated using pymatgen
data_LiLuF4
_symmetry_space_group_name_H-M   'P 1'
_cell_length_a   6.35379178
_cell_length_b   6.35379178
_cell_length_c   5.12048011
_cell_angle_alpha   67.41402786
_cell_angle_beta   67.41402786
_cell_angle_gamma   111.67178570
_symmetry_Int_Tables_number   1
_chemical_formula_structural   LiLuF4
_chemical_formula_sum   'Li2 Lu2 F8'
_cell_volume   140.15060692
_cell_formula_units_Z   2
loop_
 _symmetry_equiv_pos_site_id
 _symmetry_equiv_pos_as_xyz
  1  'x, y, z'
loop_
 _atom_site_type_symbol
 _atom_site_label
 _atom_site_symmetry_multiplicity
 _atom_site_fract_x
 _atom_site_fract_y
 _atom_site_fract_z
 _atom_site_occupancy
  Li  Li0  1  0.89004200  0.10995800  0.25000000  1
  Li  Li1  1  0.10995800  0.89004200  0.75000000  1
  Lu  Lu2  1  0.62742100  0.37257900  0.75000000  1
  Lu  Lu3  1  0.37257900  0.62742100  0.25000000  1
  F  F4  1  0.36580000  0.95448400  0.87447200  1
  F  F5  1  0.24301200  0.32581300  0.78120300  1
  F  F6  1  0.67418700  0.75698800  0.71879700  1
  F  F7  1  0.63420000  0.04551600  0.12552800  1
  F  F8  1  0.32581300  0.24301200  0.28120300  1
  F  F9  1  0.75698800  0.67418700  0.21879700  1
  F  F10  1  0.95448400  0.36580000  0.37447200  1
  F  F11  1  0.04551600  0.63420000  0.62552800  1
