# generated using pymatgen
data_Na5Er(MoO4)4
_symmetry_space_group_name_H-M   'P 1'
_cell_length_a   9.99204523
_cell_length_b   9.99204523
_cell_length_c   9.99204523
_cell_angle_alpha   109.47270950
_cell_angle_beta   109.47270950
_cell_angle_gamma   109.46824294
_symmetry_Int_Tables_number   1
_chemical_formula_structural   Na5Er(MoO4)4
_chemical_formula_sum   'Na10 Er2 Mo8 O32'
_cell_volume   767.96474235
_cell_formula_units_Z   2
loop_
 _symmetry_equiv_pos_site_id
 _symmetry_equiv_pos_as_xyz
  1  'x, y, z'
loop_
 _atom_site_type_symbol
 _atom_site_label
 _atom_site_symmetry_multiplicity
 _atom_site_fract_x
 _atom_site_fract_y
 _atom_site_fract_z
 _atom_site_occupancy
  Na  Na0  1  0.57699900  0.90142300  0.91556900  1
  Na  Na1  1  0.17300100  0.34857700  0.58443100  1
  Na  Na2  1  0.76414700  0.58857000  0.41556900  1
  Na  Na3  1  0.41143000  0.82699900  0.17557700  1
  Na  Na4  1  0.65142300  0.23585300  0.82442300  1
  Na  Na5  1  0.98585400  0.66143000  0.08443100  1
  Na  Na6  1  0.33857000  0.42300100  0.32442300  1
  Na  Na7  1  0.25000000  0.75000000  0.50000000  1
  Na  Na8  1  0.09857700  0.01414700  0.67557700  1
  Na  Na9  1  0.50000000  0.50000000  0.00000000  1
  Er  Er10  1  0.75000000  0.25000000  0.50000000  1
  Er  Er11  1  0.00000000  0.00000000  0.00000000  1
  Mo  Mo12  1  0.83110900  0.91977200  0.27414800  1
  Mo  Mo13  1  0.66977200  0.89562400  0.58866300  1
  Mo  Mo14  1  0.10437600  0.69303900  0.77414800  1
  Mo  Mo15  1  0.44303900  0.16889100  0.08866300  1
  Mo  Mo16  1  0.91889100  0.33022800  0.22585200  1
  Mo  Mo17  1  0.08022800  0.35437600  0.91133700  1
  Mo  Mo18  1  0.64562400  0.55696100  0.72585200  1
  Mo  Mo19  1  0.30696100  0.08110900  0.41133700  1
  O  O20  1  0.86259700  0.82315600  0.39269800  1
  O  O21  1  0.10065000  0.27173200  0.04866000  1
  O  O22  1  0.51058600  0.10589300  0.23966900  1
  O  O23  1  0.25195700  0.86896100  0.32163600  1
  O  O24  1  0.23941400  0.14410700  0.26033100  1
  O  O25  1  0.61896100  0.79732500  0.11700400  1
  O  O26  1  0.86622400  0.27091700  0.76033100  1
  O  O27  1  0.54732500  0.93032100  0.67836400  1
  O  O28  1  0.64935000  0.97826800  0.45134000  1
  O  O29  1  0.72908300  0.48941400  0.59530700  1
  O  O30  1  0.02173200  0.47307200  0.67108300  1
  O  O31  1  0.88740300  0.42684400  0.10730200  1
  O  O32  1  0.53010100  0.13740300  0.96055900  1
  O  O33  1  0.68032100  0.50195700  0.88299600  1
  O  O34  1  0.20267500  0.31967900  0.82163600  1
  O  O35  1  0.85589300  0.11622400  0.09530700  1
  O  O36  1  0.94801000  0.89935000  0.17108300  1
  O  O37  1  0.89410700  0.13377600  0.40469300  1
  O  O38  1  0.17684400  0.56954200  0.03944100  1
  O  O39  1  0.52692800  0.19801000  0.54866000  1
  O  O40  1  0.72826800  0.77692800  0.82891700  1
  O  O41  1  0.13103900  0.45267500  0.38299600  1
  O  O42  1  0.22307200  0.05199000  0.95134000  1
  O  O43  1  0.49804300  0.38103900  0.17836400  1
  O  O44  1  0.43045800  0.46989900  0.60730200  1
  O  O45  1  0.31954200  0.78010100  0.89269800  1
  O  O46  1  0.06967900  0.74804300  0.61700400  1
  O  O47  1  0.02091700  0.76058600  0.90469300  1
  O  O48  1  0.88377600  0.97908300  0.73966900  1
  O  O49  1  0.57315600  0.68045800  0.46055900  1
  O  O50  1  0.21989900  0.11259700  0.53944100  1
  O  O51  1  0.80199000  0.35065000  0.32891700  1
