# generated using pymatgen
data_CsLuP2O7
_symmetry_space_group_name_H-M   'P 1'
_cell_length_a   10.80255100
_cell_length_b   7.95798900
_cell_length_c   8.78242065
_cell_angle_alpha   75.52577023
_cell_angle_beta   90.00000000
_cell_angle_gamma   90.00000000
_symmetry_Int_Tables_number   1
_chemical_formula_structural   CsLuP2O7
_chemical_formula_sum   'Cs4 Lu4 P8 O28'
_cell_volume   731.03127268
_cell_formula_units_Z   4
loop_
 _symmetry_equiv_pos_site_id
 _symmetry_equiv_pos_as_xyz
  1  'x, y, z'
loop_
 _atom_site_type_symbol
 _atom_site_label
 _atom_site_symmetry_multiplicity
 _atom_site_fract_x
 _atom_site_fract_y
 _atom_site_fract_z
 _atom_site_occupancy
  Cs  Cs0  1  0.69441600  0.19965400  0.95012500  1
  Cs  Cs1  1  0.80558400  0.19965400  0.45012500  1
  Cs  Cs2  1  0.30558400  0.80034600  0.04987500  1
  Cs  Cs3  1  0.19441600  0.80034600  0.54987500  1
  Lu  Lu4  1  0.90040700  0.76221600  0.25403400  1
  Lu  Lu5  1  0.09959300  0.23778400  0.74596600  1
  Lu  Lu6  1  0.59959300  0.76221600  0.75403400  1
  Lu  Lu7  1  0.40040700  0.23778400  0.24596600  1
  P  P8  1  0.90417100  0.86913800  0.82428800  1
  P  P9  1  0.40417100  0.13086200  0.67571200  1
  P  P10  1  0.59582900  0.86913800  0.32428800  1
  P  P11  1  0.37098100  0.42722500  0.81774200  1
  P  P12  1  0.09582900  0.13086200  0.17571200  1
  P  P13  1  0.62901900  0.57277500  0.18225800  1
  P  P14  1  0.12901900  0.42722500  0.31774200  1
  P  P15  1  0.87098100  0.57277500  0.68225800  1
  O  O16  1  0.89689200  0.66678300  0.51148200  1
  O  O17  1  0.07007000  0.60757200  0.26803000  1
  O  O18  1  0.00269900  0.99860200  0.26905100  1
  O  O19  1  0.39689200  0.33321700  0.98851800  1
  O  O20  1  0.91512800  0.84486400  0.00065400  1
  O  O21  1  0.76647100  0.56419800  0.22630300  1
  O  O22  1  0.26647100  0.43580200  0.27369700  1
  O  O23  1  0.10310800  0.33321700  0.48851800  1
  O  O24  1  0.72834000  0.91304100  0.26324200  1
  O  O25  1  0.08487200  0.15513600  0.99934600  1
  O  O26  1  0.99730100  0.00139800  0.73094900  1
  O  O27  1  0.94220500  0.68341600  0.79021500  1
  O  O28  1  0.23352900  0.43580200  0.77369700  1
  O  O29  1  0.49730100  0.99860200  0.76905100  1
  O  O30  1  0.60310800  0.66678300  0.01148200  1
  O  O31  1  0.05779500  0.31658400  0.20978500  1
  O  O32  1  0.57007000  0.39242800  0.23197000  1
  O  O33  1  0.55779500  0.68341600  0.29021500  1
  O  O34  1  0.77166000  0.91304100  0.76324200  1
  O  O35  1  0.50269900  0.00139800  0.23094900  1
  O  O36  1  0.42993000  0.60757200  0.76803000  1
  O  O37  1  0.73352900  0.56419800  0.72630300  1
  O  O38  1  0.92993000  0.39242800  0.73197000  1
  O  O39  1  0.58487200  0.84486400  0.50065400  1
  O  O40  1  0.44220500  0.31658400  0.70978500  1
  O  O41  1  0.27166000  0.08695900  0.73675800  1
  O  O42  1  0.22834000  0.08695900  0.23675800  1
  O  O43  1  0.41512800  0.15513600  0.49934600  1
