# generated using pymatgen
data_Na2Mn2O3
_symmetry_space_group_name_H-M   'P 1'
_cell_length_a   6.48723823
_cell_length_b   6.48760924
_cell_length_c   9.46647901
_cell_angle_alpha   90.00390072
_cell_angle_beta   89.99967103
_cell_angle_gamma   90.03071709
_symmetry_Int_Tables_number   1
_chemical_formula_structural   Na2Mn2O3
_chemical_formula_sum   'Na8 Mn8 O12'
_cell_volume   398.41248838
_cell_formula_units_Z   4
loop_
 _symmetry_equiv_pos_site_id
 _symmetry_equiv_pos_as_xyz
  1  'x, y, z'
loop_
 _atom_site_type_symbol
 _atom_site_label
 _atom_site_symmetry_multiplicity
 _atom_site_fract_x
 _atom_site_fract_y
 _atom_site_fract_z
 _atom_site_occupancy
  Na  Na0  1  0.52054200  0.74169000  0.36269900  1
  Na  Na1  1  0.47939900  0.25840500  0.86263600  1
  Na  Na2  1  0.24160600  0.97929000  0.61260000  1
  Na  Na3  1  0.75835900  0.02072400  0.11263100  1
  Na  Na4  1  0.02055900  0.75846100  0.88735000  1
  Na  Na5  1  0.97939500  0.24158300  0.38736800  1
  Na  Na6  1  0.25833900  0.47933900  0.13739100  1
  Na  Na7  1  0.74152800  0.52060200  0.63741200  1
  Mn  Mn8  1  0.74687500  0.04111300  0.63558700  1
  Mn  Mn9  1  0.75318200  0.54105700  0.11442700  1
  Mn  Mn10  1  0.25341200  0.95877200  0.13549300  1
  Mn  Mn11  1  0.24679900  0.45866500  0.61434400  1
  Mn  Mn12  1  0.45871400  0.24700800  0.38555600  1
  Mn  Mn13  1  0.95888800  0.25341500  0.86448200  1
  Mn  Mn14  1  0.54109600  0.75334800  0.88565500  1
  Mn  Mn15  1  0.04109500  0.74670300  0.36429200  1
  O  O16  1  0.18997300  0.18987200  0.00005200  1
  O  O17  1  0.68996300  0.31016500  0.25002300  1
  O  O18  1  0.81012400  0.81003400  0.49997300  1
  O  O19  1  0.31011400  0.68971400  0.75002800  1
  O  O20  1  0.74462700  0.99987400  0.85535500  1
  O  O21  1  0.25542000  0.00024500  0.35526800  1
  O  O22  1  0.24455000  0.50024100  0.39466600  1
  O  O23  1  0.00017600  0.25534800  0.64475300  1
  O  O24  1  0.49981800  0.75535500  0.10536800  1
  O  O25  1  0.50025000  0.24449800  0.60527700  1
  O  O26  1  0.75537200  0.49985200  0.89471200  1
  O  O27  1  0.99982400  0.74462800  0.14460200  1
