# generated using pymatgen
data_CsCuO
_symmetry_space_group_name_H-M   'P 1'
_cell_length_a   6.00231554
_cell_length_b   6.00231554
_cell_length_c   5.04687000
_cell_angle_alpha   90.00000000
_cell_angle_beta   90.00000000
_cell_angle_gamma   118.96231606
_symmetry_Int_Tables_number   1
_chemical_formula_structural   CsCuO
_chemical_formula_sum   'Cs2 Cu2 O2'
_cell_volume   159.08793038
_cell_formula_units_Z   2
loop_
 _symmetry_equiv_pos_site_id
 _symmetry_equiv_pos_as_xyz
  1  'x, y, z'
loop_
 _atom_site_type_symbol
 _atom_site_label
 _atom_site_symmetry_multiplicity
 _atom_site_fract_x
 _atom_site_fract_y
 _atom_site_fract_z
 _atom_site_occupancy
  Cs  Cs0  1  0.82054000  0.17946000  0.75000000  1
  Cs  Cs1  1  0.17946000  0.82054000  0.25000000  1
  Cu  Cu2  1  0.50000000  0.50000000  0.00000000  1
  Cu  Cu3  1  0.50000000  0.50000000  0.50000000  1
  O  O4  1  0.37042400  0.62957600  0.75000000  1
  O  O5  1  0.62957600  0.37042400  0.25000000  1
