# generated using pymatgen
data_AuSCl7
_symmetry_space_group_name_H-M   'P 1'
_cell_length_a   10.43915900
_cell_length_b   9.08293000
_cell_length_c   12.21067243
_cell_angle_alpha   72.44663011
_cell_angle_beta   90.00000000
_cell_angle_gamma   90.00000000
_symmetry_Int_Tables_number   1
_chemical_formula_structural   AuSCl7
_chemical_formula_sum   'Au4 S4 Cl28'
_cell_volume   1103.88238942
_cell_formula_units_Z   4
loop_
 _symmetry_equiv_pos_site_id
 _symmetry_equiv_pos_as_xyz
  1  'x, y, z'
loop_
 _atom_site_type_symbol
 _atom_site_label
 _atom_site_symmetry_multiplicity
 _atom_site_fract_x
 _atom_site_fract_y
 _atom_site_fract_z
 _atom_site_occupancy
  Au  Au0  1  0.09360900  0.78546200  0.03138800  1
  Au  Au1  1  0.40639100  0.78546200  0.53138800  1
  Au  Au2  1  0.59360900  0.21453800  0.46861200  1
  Au  Au3  1  0.90639100  0.21453800  0.96861200  1
  S  S4  1  0.29292300  0.23776400  0.01348000  1
  S  S5  1  0.79292300  0.76223600  0.48652000  1
  S  S6  1  0.20707700  0.23776400  0.51348000  1
  S  S7  1  0.70707700  0.76223600  0.98652000  1
  Cl  Cl8  1  0.28635900  0.43138600  0.06484200  1
  Cl  Cl9  1  0.71364100  0.56861400  0.93515800  1
  Cl  Cl10  1  0.23095200  0.69466800  0.18559400  1
  Cl  Cl11  1  0.24659100  0.94778200  0.43006700  1
  Cl  Cl12  1  0.54034600  0.86701900  0.37111000  1
  Cl  Cl13  1  0.43376100  0.37460900  0.36387000  1
  Cl  Cl14  1  0.07569200  0.30014500  0.38485700  1
  Cl  Cl15  1  0.78635900  0.56861400  0.43515800  1
  Cl  Cl16  1  0.04034600  0.13298100  0.12889000  1
  Cl  Cl17  1  0.89513900  0.90136300  0.35456700  1
  Cl  Cl18  1  0.21364100  0.43138600  0.56484200  1
  Cl  Cl19  1  0.39513900  0.09863700  0.14543300  1
  Cl  Cl20  1  0.56623900  0.62539100  0.63613000  1
  Cl  Cl21  1  0.75340900  0.05221800  0.56993300  1
  Cl  Cl22  1  0.45965400  0.13298100  0.62889000  1
  Cl  Cl23  1  0.60486100  0.90136300  0.85456700  1
  Cl  Cl24  1  0.93376100  0.62539100  0.13613000  1
  Cl  Cl25  1  0.74659100  0.05221800  0.06993300  1
  Cl  Cl26  1  0.73095200  0.30533200  0.31440600  1
  Cl  Cl27  1  0.25340900  0.94778200  0.93006700  1
  Cl  Cl28  1  0.57569200  0.69985500  0.11514300  1
  Cl  Cl29  1  0.06623900  0.37460900  0.86387000  1
  Cl  Cl30  1  0.42430800  0.30014500  0.88485700  1
  Cl  Cl31  1  0.26904800  0.69466800  0.68559400  1
  Cl  Cl32  1  0.95965400  0.86701900  0.87111000  1
  Cl  Cl33  1  0.10486100  0.09863700  0.64543300  1
  Cl  Cl34  1  0.76904800  0.30533200  0.81440600  1
  Cl  Cl35  1  0.92430800  0.69985500  0.61514300  1
