# generated using pymatgen
data_LaTaN2O
_symmetry_space_group_name_H-M   'P 1'
_cell_length_a   5.67030219
_cell_length_b   5.67030219
_cell_length_c   5.73464904
_cell_angle_alpha   60.99891914
_cell_angle_beta   60.99891914
_cell_angle_gamma   90.74234074
_symmetry_Int_Tables_number   1
_chemical_formula_structural   LaTaN2O
_chemical_formula_sum   'La2 Ta2 N4 O2'
_cell_volume   133.42307959
_cell_formula_units_Z   2
loop_
 _symmetry_equiv_pos_site_id
 _symmetry_equiv_pos_as_xyz
  1  'x, y, z'
loop_
 _atom_site_type_symbol
 _atom_site_label
 _atom_site_symmetry_multiplicity
 _atom_site_fract_x
 _atom_site_fract_y
 _atom_site_fract_z
 _atom_site_occupancy
  La  La0  1  0.24956600  0.24956600  0.49309400  1
  La  La1  1  0.75043400  0.75043400  0.50690600  1
  Ta  Ta2  1  0.50000000  0.00000000  0.00000000  1
  Ta  Ta3  1  0.00000000  0.50000000  0.00000000  1
  N  N4  1  0.76880000  0.23120000  0.50000000  1
  N  N5  1  0.32554900  0.32554900  0.96852100  1
  N  N6  1  0.23120000  0.76880000  0.50000000  1
  N  N7  1  0.67445100  0.67445100  0.03147900  1
  O  O8  1  0.18910600  0.81089400  0.00000000  1
  O  O9  1  0.81089400  0.18910600  0.00000000  1
