# generated using pymatgen
data_FeSiP3O11
_symmetry_space_group_name_H-M   'P 1'
_cell_length_a   14.09918258
_cell_length_b   14.09918258
_cell_length_c   14.09918250
_cell_angle_alpha   34.90458669
_cell_angle_beta   34.90458669
_cell_angle_gamma   34.90458393
_symmetry_Int_Tables_number   1
_chemical_formula_structural   FeSiP3O11
_chemical_formula_sum   'Fe4 Si4 P12 O44'
_cell_volume   819.25235571
_cell_formula_units_Z   4
loop_
 _symmetry_equiv_pos_site_id
 _symmetry_equiv_pos_as_xyz
  1  'x, y, z'
loop_
 _atom_site_type_symbol
 _atom_site_label
 _atom_site_symmetry_multiplicity
 _atom_site_fract_x
 _atom_site_fract_y
 _atom_site_fract_z
 _atom_site_occupancy
  Fe  Fe0  1  0.15814100  0.15814100  0.15814100  1
  Fe  Fe1  1  0.34185900  0.34185900  0.34185900  1
  Fe  Fe2  1  0.84185900  0.84185900  0.84185900  1
  Fe  Fe3  1  0.65814100  0.65814100  0.65814100  1
  Si  Si4  1  0.03998800  0.03998800  0.03998800  1
  Si  Si5  1  0.46001200  0.46001200  0.46001200  1
  Si  Si6  1  0.96001200  0.96001200  0.96001200  1
  Si  Si7  1  0.53998800  0.53998800  0.53998800  1
  P  P8  1  0.78613500  0.49176800  0.08232000  1
  P  P9  1  0.49176800  0.08232000  0.78613500  1
  P  P10  1  0.08232000  0.78613500  0.49176800  1
  P  P11  1  0.00823200  0.71386500  0.41768000  1
  P  P12  1  0.71386500  0.41768000  0.00823200  1
  P  P13  1  0.41768000  0.00823200  0.71386500  1
  P  P14  1  0.21386500  0.50823200  0.91768000  1
  P  P15  1  0.50823200  0.91768000  0.21386500  1
  P  P16  1  0.91768000  0.21386500  0.50823200  1
  P  P17  1  0.99176800  0.28613500  0.58232000  1
  P  P18  1  0.28613500  0.58232000  0.99176800  1
  P  P19  1  0.58232000  0.99176800  0.28613500  1
  O  O20  1  0.21218300  0.09344000  0.85393100  1
  O  O21  1  0.09344000  0.85393100  0.21218300  1
  O  O22  1  0.85393100  0.21218300  0.09344000  1
  O  O23  1  0.40656000  0.28781700  0.64606900  1
  O  O24  1  0.28781700  0.64606900  0.40656000  1
  O  O25  1  0.64606900  0.40656000  0.28781700  1
  O  O26  1  0.78781700  0.90656000  0.14606900  1
  O  O27  1  0.90656000  0.14606900  0.78781700  1
  O  O28  1  0.14606900  0.78781700  0.90656000  1
  O  O29  1  0.59344000  0.71218300  0.35393100  1
  O  O30  1  0.71218300  0.35393100  0.59344000  1
  O  O31  1  0.35393100  0.59344000  0.71218300  1
  O  O32  1  0.98245000  0.34552300  0.05618400  1
  O  O33  1  0.34552300  0.05618400  0.98245000  1
  O  O34  1  0.05618400  0.98245000  0.34552300  1
  O  O35  1  0.15447700  0.51755000  0.44381600  1
  O  O36  1  0.51755000  0.44381600  0.15447700  1
  O  O37  1  0.44381600  0.15447700  0.51755000  1
  O  O38  1  0.01755000  0.65447700  0.94381600  1
  O  O39  1  0.65447700  0.94381600  0.01755000  1
  O  O40  1  0.94381600  0.01755000  0.65447700  1
  O  O41  1  0.84552300  0.48245000  0.55618400  1
  O  O42  1  0.48245000  0.55618400  0.84552300  1
  O  O43  1  0.55618400  0.84552300  0.48245000  1
  O  O44  1  0.27443500  0.32625000  0.96567400  1
  O  O45  1  0.32625000  0.96567400  0.27443500  1
  O  O46  1  0.96567400  0.27443500  0.32625000  1
  O  O47  1  0.17375000  0.22556500  0.53432600  1
  O  O48  1  0.22556500  0.53432600  0.17375000  1
  O  O49  1  0.53432600  0.17375000  0.22556500  1
  O  O50  1  0.72556500  0.67375000  0.03432600  1
  O  O51  1  0.67375000  0.03432600  0.72556500  1
  O  O52  1  0.03432600  0.72556500  0.67375000  1
  O  O53  1  0.82625000  0.77443500  0.46567400  1
  O  O54  1  0.77443500  0.46567400  0.82625000  1
  O  O55  1  0.46567400  0.82625000  0.77443500  1
  O  O56  1  0.53726700  0.96273300  0.75000000  1
  O  O57  1  0.96273300  0.75000000  0.53726700  1
  O  O58  1  0.75000000  0.53726700  0.96273300  1
  O  O59  1  0.46273300  0.03726700  0.25000000  1
  O  O60  1  0.03726700  0.25000000  0.46273300  1
  O  O61  1  0.25000000  0.46273300  0.03726700  1
  O  O62  1  0.00000000  0.00000000  0.00000000  1
  O  O63  1  0.50000000  0.50000000  0.50000000  1
