# generated using pymatgen
data_CaMgSi
_symmetry_space_group_name_H-M   'P 1'
_cell_length_a   4.42821200
_cell_length_b   7.47838300
_cell_length_c   8.32176300
_cell_angle_alpha   90.00000000
_cell_angle_beta   90.00000000
_cell_angle_gamma   90.00000000
_symmetry_Int_Tables_number   1
_chemical_formula_structural   CaMgSi
_chemical_formula_sum   'Ca4 Mg4 Si4'
_cell_volume   275.58238291
_cell_formula_units_Z   4
loop_
 _symmetry_equiv_pos_site_id
 _symmetry_equiv_pos_as_xyz
  1  'x, y, z'
loop_
 _atom_site_type_symbol
 _atom_site_label
 _atom_site_symmetry_multiplicity
 _atom_site_fract_x
 _atom_site_fract_y
 _atom_site_fract_z
 _atom_site_occupancy
  Ca  Ca0  1  0.25000000  0.01958100  0.17998400  1
  Ca  Ca1  1  0.75000000  0.98041900  0.82001600  1
  Ca  Ca2  1  0.25000000  0.51958100  0.32001600  1
  Ca  Ca3  1  0.75000000  0.48041900  0.67998400  1
  Mg  Mg4  1  0.75000000  0.85650000  0.43691000  1
  Mg  Mg5  1  0.25000000  0.64350000  0.93691000  1
  Mg  Mg6  1  0.75000000  0.35650000  0.06309000  1
  Mg  Mg7  1  0.25000000  0.14350000  0.56309000  1
  Si  Si8  1  0.25000000  0.26991600  0.88414900  1
  Si  Si9  1  0.75000000  0.23008400  0.38414900  1
  Si  Si10  1  0.25000000  0.76991600  0.61585100  1
  Si  Si11  1  0.75000000  0.73008400  0.11585100  1
