# generated using pymatgen
data_RbTaN2
_symmetry_space_group_name_H-M   'P 1'
_cell_length_a   6.10515300
_cell_length_b   12.23563700
_cell_length_c   17.22112800
_cell_angle_alpha   90.00000000
_cell_angle_beta   90.00000000
_cell_angle_gamma   90.00000000
_symmetry_Int_Tables_number   1
_chemical_formula_structural   RbTaN2
_chemical_formula_sum   'Rb16 Ta16 N32'
_cell_volume   1286.42576893
_cell_formula_units_Z   16
loop_
 _symmetry_equiv_pos_site_id
 _symmetry_equiv_pos_as_xyz
  1  'x, y, z'
loop_
 _atom_site_type_symbol
 _atom_site_label
 _atom_site_symmetry_multiplicity
 _atom_site_fract_x
 _atom_site_fract_y
 _atom_site_fract_z
 _atom_site_occupancy
  Rb  Rb0  1  0.21133300  0.74108400  0.81383200  1
  Rb  Rb1  1  0.21133300  0.75891600  0.31383200  1
  Rb  Rb2  1  0.24416800  0.50188800  0.43774800  1
  Rb  Rb3  1  0.28866700  0.24108400  0.81383200  1
  Rb  Rb4  1  0.78866700  0.25891600  0.18616800  1
  Rb  Rb5  1  0.75583200  0.49811200  0.56225200  1
  Rb  Rb6  1  0.25583200  0.49811200  0.93774800  1
  Rb  Rb7  1  0.74416800  0.99811200  0.56225200  1
  Rb  Rb8  1  0.74416800  0.50188800  0.06225200  1
  Rb  Rb9  1  0.25583200  0.00188800  0.43774800  1
  Rb  Rb10  1  0.75583200  0.00188800  0.06225200  1
  Rb  Rb11  1  0.71133300  0.75891600  0.18616800  1
  Rb  Rb12  1  0.28866700  0.25891600  0.31383200  1
  Rb  Rb13  1  0.71133300  0.74108400  0.68616800  1
  Rb  Rb14  1  0.24416800  0.99811200  0.93774800  1
  Rb  Rb15  1  0.78866700  0.24108400  0.68616800  1
  Ta  Ta16  1  0.27297400  0.26229500  0.06321300  1
  Ta  Ta17  1  0.22702600  0.73770500  0.56321300  1
  Ta  Ta18  1  0.75883300  0.00823300  0.31170400  1
  Ta  Ta19  1  0.27297400  0.23770500  0.56321300  1
  Ta  Ta20  1  0.25883300  0.49176700  0.68829600  1
  Ta  Ta21  1  0.72702600  0.73770500  0.93678700  1
  Ta  Ta22  1  0.74116700  0.99176700  0.81170400  1
  Ta  Ta23  1  0.25883300  0.00823300  0.18829600  1
  Ta  Ta24  1  0.22702600  0.76229500  0.06321300  1
  Ta  Ta25  1  0.77297400  0.23770500  0.93678700  1
  Ta  Ta26  1  0.24116700  0.50823300  0.18829600  1
  Ta  Ta27  1  0.24116700  0.99176700  0.68829600  1
  Ta  Ta28  1  0.74116700  0.50823300  0.31170400  1
  Ta  Ta29  1  0.75883300  0.49176700  0.81170400  1
  Ta  Ta30  1  0.77297400  0.26229500  0.43678700  1
  Ta  Ta31  1  0.72702600  0.76229500  0.43678700  1
  N  N32  1  0.46021900  0.51233200  0.77463400  1
  N  N33  1  0.79602300  0.15487700  0.35362200  1
  N  N34  1  0.44345200  0.78341500  0.48647000  1
  N  N35  1  0.53978100  0.48766800  0.22536600  1
  N  N36  1  0.96021900  0.98766800  0.22536600  1
  N  N37  1  0.96021900  0.51233200  0.72536600  1
  N  N38  1  0.05654800  0.28341500  0.48647000  1
  N  N39  1  0.94345200  0.78341500  0.01353000  1
  N  N40  1  0.94345200  0.71658500  0.51353000  1
  N  N41  1  0.70397700  0.84512300  0.85362200  1
  N  N42  1  0.20397700  0.84512300  0.64637800  1
  N  N43  1  0.44345200  0.71658500  0.98647000  1
  N  N44  1  0.32091100  0.90094900  0.10750400  1
  N  N45  1  0.03978100  0.48766800  0.27463400  1
  N  N46  1  0.29602300  0.15487700  0.14637800  1
  N  N47  1  0.32091100  0.59905100  0.60750400  1
  N  N48  1  0.82091100  0.90094900  0.39249600  1
  N  N49  1  0.46021900  0.98766800  0.27463400  1
  N  N50  1  0.67908900  0.40094900  0.39249600  1
  N  N51  1  0.03978100  0.01233200  0.77463400  1
  N  N52  1  0.53978100  0.01233200  0.72536600  1
  N  N53  1  0.79602300  0.34512300  0.85362200  1
  N  N54  1  0.67908900  0.09905100  0.89249600  1
  N  N55  1  0.29602300  0.34512300  0.64637800  1
  N  N56  1  0.17908900  0.09905100  0.60750400  1
  N  N57  1  0.55654800  0.21658500  0.51353000  1
  N  N58  1  0.17908900  0.40094900  0.10750400  1
  N  N59  1  0.05654800  0.21658500  0.98647000  1
  N  N60  1  0.70397700  0.65487700  0.35362200  1
  N  N61  1  0.82091100  0.59905100  0.89249600  1
  N  N62  1  0.20397700  0.65487700  0.14637800  1
  N  N63  1  0.55654800  0.28341500  0.01353000  1
