# generated using pymatgen
data_RbAl3(P3O10)2
_symmetry_space_group_name_H-M   'P 1'
_cell_length_a   8.24588640
_cell_length_b   8.24588640
_cell_length_c   12.08941300
_cell_angle_alpha   90.00000000
_cell_angle_beta   90.00000000
_cell_angle_gamma   105.10720819
_symmetry_Int_Tables_number   1
_chemical_formula_structural   RbAl3(P3O10)2
_chemical_formula_sum   'Rb2 Al6 P12 O40'
_cell_volume   793.60634303
_cell_formula_units_Z   2
loop_
 _symmetry_equiv_pos_site_id
 _symmetry_equiv_pos_as_xyz
  1  'x, y, z'
loop_
 _atom_site_type_symbol
 _atom_site_label
 _atom_site_symmetry_multiplicity
 _atom_site_fract_x
 _atom_site_fract_y
 _atom_site_fract_z
 _atom_site_occupancy
  Rb  Rb0  1  0.52200200  0.52200200  0.50000000  1
  Rb  Rb1  1  0.47799800  0.47799800  0.00000000  1
  Al  Al2  1  0.75357200  0.24642800  0.75000000  1
  Al  Al3  1  0.24642800  0.75357200  0.25000000  1
  Al  Al4  1  0.29217600  0.70782400  0.75000000  1
  Al  Al5  1  0.86795400  0.86795400  0.00000000  1
  Al  Al6  1  0.70782400  0.29217600  0.25000000  1
  Al  Al7  1  0.13204600  0.13204600  0.50000000  1
  P  P8  1  0.25736300  0.84705900  0.98852700  1
  P  P9  1  0.15294100  0.74263700  0.51147300  1
  P  P10  1  0.74263700  0.15294100  0.48852700  1
  P  P11  1  0.09388600  0.36622700  0.18253000  1
  P  P12  1  0.90611400  0.63377300  0.68253000  1
  P  P13  1  0.30480100  0.16831600  0.27709500  1
  P  P14  1  0.36622700  0.09388600  0.81747000  1
  P  P15  1  0.69519900  0.83168400  0.77709500  1
  P  P16  1  0.83168400  0.69519900  0.22290500  1
  P  P17  1  0.84705900  0.25736300  0.01147300  1
  P  P18  1  0.63377300  0.90611400  0.31747000  1
  P  P19  1  0.16831600  0.30480100  0.72290500  1
  O  O20  1  0.23613000  0.25469200  0.61173800  1
  O  O21  1  0.03547300  0.36372200  0.05504300  1
  O  O22  1  0.36372200  0.03547300  0.94495700  1
  O  O23  1  0.63627800  0.96452700  0.44495700  1
  O  O24  1  0.01899600  0.72749300  0.21576000  1
  O  O25  1  0.96452700  0.63627800  0.55504300  1
  O  O26  1  0.47475900  0.76930500  0.29773100  1
  O  O27  1  0.14403000  0.92587800  0.51645300  1
  O  O28  1  0.76387000  0.74530800  0.11173800  1
  O  O29  1  0.20950400  0.17675500  0.81576400  1
  O  O30  1  0.23069500  0.52524100  0.20226900  1
  O  O31  1  0.68093900  0.17423300  0.60334800  1
  O  O32  1  0.25469200  0.23613000  0.38826200  1
  O  O33  1  0.85597000  0.07412200  0.01645300  1
  O  O34  1  0.98100400  0.27250700  0.71576100  1
  O  O35  1  0.29810400  0.72223800  0.90748000  1
  O  O36  1  0.70189600  0.27776200  0.40748000  1
  O  O37  1  0.94441900  0.32742400  0.25766900  1
  O  O38  1  0.26853500  0.47571400  0.76020100  1
  O  O39  1  0.17675500  0.20950400  0.18423600  1
  O  O40  1  0.79049600  0.82324500  0.31576400  1
  O  O41  1  0.52524100  0.23069500  0.79773100  1
  O  O42  1  0.47571400  0.26853500  0.23979900  1
  O  O43  1  0.07412200  0.85597000  0.98354700  1
  O  O44  1  0.72749300  0.01899600  0.78423900  1
  O  O45  1  0.72223800  0.29810400  0.09252000  1
  O  O46  1  0.67257600  0.05558100  0.24233100  1
  O  O47  1  0.73146500  0.52428600  0.26020100  1
  O  O48  1  0.82576700  0.31906100  0.89665200  1
  O  O49  1  0.27250700  0.98100400  0.28424000  1
  O  O50  1  0.31906100  0.82576700  0.10334800  1
  O  O51  1  0.82324500  0.79049600  0.68423600  1
  O  O52  1  0.27776200  0.70189600  0.59252000  1
  O  O53  1  0.92587800  0.14403000  0.48354700  1
  O  O54  1  0.52428600  0.73146500  0.73979900  1
  O  O55  1  0.74530800  0.76387000  0.88826200  1
  O  O56  1  0.76930500  0.47475900  0.70226900  1
  O  O57  1  0.17423300  0.68093900  0.39665200  1
  O  O58  1  0.05558100  0.67257600  0.75766900  1
  O  O59  1  0.32742400  0.94441900  0.74233100  1
