# generated using pymatgen
data_Si2Ru
_symmetry_space_group_name_H-M   'P 1'
_cell_length_a   6.52010783
_cell_length_b   6.52010783
_cell_length_c   8.23268400
_cell_angle_alpha   90.00000000
_cell_angle_beta   90.00000000
_cell_angle_gamma   102.86205988
_symmetry_Int_Tables_number   1
_chemical_formula_structural   Si2Ru
_chemical_formula_sum   'Si16 Ru8'
_cell_volume   341.20469478
_cell_formula_units_Z   8
loop_
 _symmetry_equiv_pos_site_id
 _symmetry_equiv_pos_as_xyz
  1  'x, y, z'
loop_
 _atom_site_type_symbol
 _atom_site_label
 _atom_site_symmetry_multiplicity
 _atom_site_fract_x
 _atom_site_fract_y
 _atom_site_fract_z
 _atom_site_occupancy
  Si  Si0  1  0.35044400  0.09515900  0.55578800  1
  Si  Si1  1  0.85044400  0.59515900  0.94421200  1
  Si  Si2  1  0.90484100  0.64955600  0.44421200  1
  Si  Si3  1  0.92408900  0.17767700  0.27530500  1
  Si  Si4  1  0.67767700  0.42408900  0.22469500  1
  Si  Si5  1  0.42408900  0.67767700  0.22469500  1
  Si  Si6  1  0.09515900  0.35044400  0.55578800  1
  Si  Si7  1  0.07591100  0.82232300  0.72469500  1
  Si  Si8  1  0.17767700  0.92408900  0.27530500  1
  Si  Si9  1  0.82232300  0.07591100  0.72469500  1
  Si  Si10  1  0.14955600  0.40484100  0.05578800  1
  Si  Si11  1  0.32232300  0.57591100  0.77530500  1
  Si  Si12  1  0.57591100  0.32232300  0.77530500  1
  Si  Si13  1  0.40484100  0.14955600  0.05578800  1
  Si  Si14  1  0.59515900  0.85044400  0.94421200  1
  Si  Si15  1  0.64955600  0.90484100  0.44421200  1
  Ru  Ru16  1  0.71475200  0.28524800  0.50000000  1
  Ru  Ru17  1  0.78524800  0.21475200  0.00000000  1
  Ru  Ru18  1  0.31151400  0.31151400  0.31708200  1
  Ru  Ru19  1  0.28524800  0.71475200  0.50000000  1
  Ru  Ru20  1  0.81151400  0.81151400  0.18291800  1
  Ru  Ru21  1  0.68848600  0.68848600  0.68291800  1
  Ru  Ru22  1  0.21475200  0.78524800  0.00000000  1
  Ru  Ru23  1  0.18848600  0.18848600  0.81708200  1
