# generated using pymatgen
data_HoTaO4
_symmetry_space_group_name_H-M   'P 1'
_cell_length_a   5.50538900
_cell_length_b   5.13800000
_cell_length_c   5.32619301
_cell_angle_alpha   83.52423194
_cell_angle_beta   90.00000000
_cell_angle_gamma   90.00000000
_symmetry_Int_Tables_number   1
_chemical_formula_structural   HoTaO4
_chemical_formula_sum   'Ho2 Ta2 O8'
_cell_volume   149.69909671
_cell_formula_units_Z   2
loop_
 _symmetry_equiv_pos_site_id
 _symmetry_equiv_pos_as_xyz
  1  'x, y, z'
loop_
 _atom_site_type_symbol
 _atom_site_label
 _atom_site_symmetry_multiplicity
 _atom_site_fract_x
 _atom_site_fract_y
 _atom_site_fract_z
 _atom_site_occupancy
  Ho  Ho0  1  0.76768600  0.00000000  0.75000000  1
  Ho  Ho1  1  0.23231400  0.00000000  0.25000000  1
  Ta  Ta2  1  0.69378200  0.50000000  0.25000000  1
  Ta  Ta3  1  0.30621800  0.50000000  0.75000000  1
  O  O4  1  0.56509200  0.26801300  0.00391100  1
  O  O5  1  0.56509200  0.73198700  0.49608900  1
  O  O6  1  0.43490800  0.73198700  0.99608900  1
  O  O7  1  0.43490800  0.26801300  0.50391100  1
  O  O8  1  0.08495800  0.75118500  0.59921900  1
  O  O9  1  0.08495800  0.24881500  0.90078100  1
  O  O10  1  0.91504200  0.24881500  0.40078100  1
  O  O11  1  0.91504200  0.75118500  0.09921900  1
