# generated using pymatgen
data_Na7Al3O8
_symmetry_space_group_name_H-M   'P 1'
_cell_length_a   5.91862000
_cell_length_b   8.03631345
_cell_length_c   11.40940408
_cell_angle_alpha   69.45781818
_cell_angle_beta   89.77377830
_cell_angle_gamma   71.08815394
_symmetry_Int_Tables_number   1
_chemical_formula_structural   Na7Al3O8
_chemical_formula_sum   'Na14 Al6 O16'
_cell_volume   477.03148436
_cell_formula_units_Z   2
loop_
 _symmetry_equiv_pos_site_id
 _symmetry_equiv_pos_as_xyz
  1  'x, y, z'
loop_
 _atom_site_type_symbol
 _atom_site_label
 _atom_site_symmetry_multiplicity
 _atom_site_fract_x
 _atom_site_fract_y
 _atom_site_fract_z
 _atom_site_occupancy
  Na  Na0  1  0.15143100  0.09965200  0.66724400  1
  Na  Na1  1  0.27661700  0.48304500  0.44761700  1
  Na  Na2  1  0.55311600  0.69273800  0.23797700  1
  Na  Na3  1  0.37155900  0.91239900  0.44411600  1
  Na  Na4  1  0.62844100  0.08760100  0.55588400  1
  Na  Na5  1  0.52866600  0.70763600  0.72947000  1
  Na  Na6  1  0.72338300  0.51695500  0.55238300  1
  Na  Na7  1  0.84856900  0.90034800  0.33275600  1
  Na  Na8  1  0.74482100  0.49062800  0.05635200  1
  Na  Na9  1  0.34071500  0.90211700  0.94848300  1
  Na  Na10  1  0.25517900  0.50937200  0.94364800  1
  Na  Na11  1  0.47133400  0.29236400  0.27053000  1
  Na  Na12  1  0.44688400  0.30726200  0.76202300  1
  Na  Na13  1  0.65928500  0.09788300  0.05151700  1
  Al  Al14  1  0.16534600  0.09394200  0.15930300  1
  Al  Al15  1  0.83465400  0.90605800  0.84069700  1
  Al  Al16  1  0.04122900  0.67577200  0.64552100  1
  Al  Al17  1  0.95877100  0.32422800  0.35447900  1
  Al  Al18  1  0.93073400  0.29993900  0.86412500  1
  Al  Al19  1  0.06926600  0.70006100  0.13587500  1
  O  O20  1  0.84634200  0.76743100  0.00487800  1
  O  O21  1  0.36067100  0.59508600  0.10412600  1
  O  O22  1  0.97886300  0.55721700  0.27187400  1
  O  O23  1  0.04973200  0.78430000  0.76009300  1
  O  O24  1  0.31993700  0.63280200  0.58245600  1
  O  O25  1  0.93164800  0.09675000  0.83430000  1
  O  O26  1  0.77885300  0.79990700  0.53568600  1
  O  O27  1  0.95026800  0.21570000  0.23990700  1
  O  O28  1  0.63932900  0.40491400  0.89587400  1
  O  O29  1  0.02113700  0.44278300  0.72812600  1
  O  O30  1  0.06835200  0.90325000  0.16570000  1
  O  O31  1  0.22114700  0.20009300  0.46431400  1
  O  O32  1  0.53575400  0.99019100  0.76927600  1
  O  O33  1  0.15365800  0.23256900  0.99512200  1
  O  O34  1  0.46424600  0.00980900  0.23072400  1
  O  O35  1  0.68006300  0.36719800  0.41754400  1
