# generated using pymatgen
data_TiI4
_symmetry_space_group_name_H-M   'P 1'
_cell_length_a   8.25961624
_cell_length_b   8.25961624
_cell_length_c   7.00526340
_cell_angle_alpha   88.77567447
_cell_angle_beta   88.77567447
_cell_angle_gamma   62.15863822
_symmetry_Int_Tables_number   1
_chemical_formula_structural   TiI4
_chemical_formula_sum   'Ti2 I8'
_cell_volume   422.45569000
_cell_formula_units_Z   2
loop_
 _symmetry_equiv_pos_site_id
 _symmetry_equiv_pos_as_xyz
  1  'x, y, z'
loop_
 _atom_site_type_symbol
 _atom_site_label
 _atom_site_symmetry_multiplicity
 _atom_site_fract_x
 _atom_site_fract_y
 _atom_site_fract_z
 _atom_site_occupancy
  Ti  Ti0  1  0.65686200  0.34313800  0.75000000  1
  Ti  Ti1  1  0.34313800  0.65686200  0.25000000  1
  I  I2  1  0.28775200  0.49604500  0.93168000  1
  I  I3  1  0.50395500  0.71224800  0.56832000  1
  I  I4  1  0.71224800  0.50395500  0.06832000  1
  I  I5  1  0.49604500  0.28775200  0.43168000  1
  I  I6  1  0.97785200  0.26657200  0.60957100  1
  I  I7  1  0.73342800  0.02214800  0.89042900  1
  I  I8  1  0.02214800  0.73342800  0.39042900  1
  I  I9  1  0.26657200  0.97785200  0.10957100  1
