# generated using pymatgen
data_CsI4
_symmetry_space_group_name_H-M   'P 1'
_cell_length_a   9.08920300
_cell_length_b   10.71120600
_cell_length_c   11.72064705
_cell_angle_alpha   67.20052188
_cell_angle_beta   90.00000000
_cell_angle_gamma   90.00000000
_symmetry_Int_Tables_number   1
_chemical_formula_structural   CsI4
_chemical_formula_sum   'Cs4 I16'
_cell_volume   1051.92283239
_cell_formula_units_Z   4
loop_
 _symmetry_equiv_pos_site_id
 _symmetry_equiv_pos_as_xyz
  1  'x, y, z'
loop_
 _atom_site_type_symbol
 _atom_site_label
 _atom_site_symmetry_multiplicity
 _atom_site_fract_x
 _atom_site_fract_y
 _atom_site_fract_z
 _atom_site_occupancy
  Cs  Cs0  1  0.62406700  0.72730400  0.69542300  1
  Cs  Cs1  1  0.12406700  0.27269600  0.80457700  1
  Cs  Cs2  1  0.37593300  0.27269600  0.30457700  1
  Cs  Cs3  1  0.87593300  0.72730400  0.19542300  1
  I  I4  1  0.35619200  0.54684000  0.51232200  1
  I  I5  1  0.85619200  0.45316000  0.98767800  1
  I  I6  1  0.64380800  0.45316000  0.48767800  1
  I  I7  1  0.14380800  0.54684000  0.01232200  1
  I  I8  1  0.02979900  0.66997700  0.54944000  1
  I  I9  1  0.52979900  0.33002300  0.95056000  1
  I  I10  1  0.97020100  0.33002300  0.45056000  1
  I  I11  1  0.47020100  0.66997700  0.04944000  1
  I  I12  1  0.20633400  0.87555100  0.60913700  1
  I  I13  1  0.70633400  0.12444900  0.89086300  1
  I  I14  1  0.79366600  0.12444900  0.39086300  1
  I  I15  1  0.29366600  0.87555100  0.10913700  1
  I  I16  1  0.39519700  0.05960900  0.66918200  1
  I  I17  1  0.89519700  0.94039100  0.83081800  1
  I  I18  1  0.60480300  0.94039100  0.33081800  1
  I  I19  1  0.10480300  0.05960900  0.16918200  1
