# generated using pymatgen
data_Cs3Zr7BCl20
_symmetry_space_group_name_H-M   'P 1'
_cell_length_a   14.03284431
_cell_length_b   14.03284431
_cell_length_c   14.03284415
_cell_angle_alpha   55.83491785
_cell_angle_beta   55.83491785
_cell_angle_gamma   55.83491847
_symmetry_Int_Tables_number   1
_chemical_formula_structural   Cs3Zr7BCl20
_chemical_formula_sum   'Cs6 Zr14 B2 Cl40'
_cell_volume   1765.30376362
_cell_formula_units_Z   2
loop_
 _symmetry_equiv_pos_site_id
 _symmetry_equiv_pos_as_xyz
  1  'x, y, z'
loop_
 _atom_site_type_symbol
 _atom_site_label
 _atom_site_symmetry_multiplicity
 _atom_site_fract_x
 _atom_site_fract_y
 _atom_site_fract_z
 _atom_site_occupancy
  Cs  Cs0  1  0.00000000  0.50000000  0.50000000  1
  Cs  Cs1  1  0.50000000  0.00000000  0.50000000  1
  Cs  Cs2  1  0.00000000  0.50000000  0.00000000  1
  Cs  Cs3  1  0.50000000  0.50000000  0.00000000  1
  Cs  Cs4  1  0.00000000  0.00000000  0.50000000  1
  Cs  Cs5  1  0.50000000  0.00000000  0.00000000  1
  Zr  Zr6  1  0.45011300  0.32402600  0.61169400  1
  Zr  Zr7  1  0.67597400  0.38830600  0.54988700  1
  Zr  Zr8  1  0.38830600  0.54988700  0.67597400  1
  Zr  Zr9  1  0.82402600  0.95011300  0.11169400  1
  Zr  Zr10  1  0.25000000  0.25000000  0.25000000  1
  Zr  Zr11  1  0.32402600  0.61169400  0.45011300  1
  Zr  Zr12  1  0.88830600  0.17597400  0.04988700  1
  Zr  Zr13  1  0.17597400  0.04988700  0.88830600  1
  Zr  Zr14  1  0.04988700  0.88830600  0.17597400  1
  Zr  Zr15  1  0.54988700  0.67597400  0.38830600  1
  Zr  Zr16  1  0.11169400  0.82402600  0.95011300  1
  Zr  Zr17  1  0.61169400  0.45011300  0.32402600  1
  Zr  Zr18  1  0.95011300  0.11169400  0.82402600  1
  Zr  Zr19  1  0.75000000  0.75000000  0.75000000  1
  B  B20  1  0.00000000  0.00000000  0.00000000  1
  B  B21  1  0.50000000  0.50000000  0.50000000  1
  Cl  Cl22  1  0.31827700  0.85862900  0.82483000  1
  Cl  Cl23  1  0.17517000  0.68172300  0.14137100  1
  Cl  Cl24  1  0.57072500  0.43157100  0.74770300  1
  Cl  Cl25  1  0.81969200  0.81969200  0.81969200  1
  Cl  Cl26  1  0.25229700  0.42927500  0.56842900  1
  Cl  Cl27  1  0.74770300  0.57072500  0.43157100  1
  Cl  Cl28  1  0.42927500  0.56842900  0.25229700  1
  Cl  Cl29  1  0.81827700  0.32483000  0.35862900  1
  Cl  Cl30  1  0.07072500  0.24770300  0.93157100  1
  Cl  Cl31  1  0.61156600  0.88843400  0.25000000  1
  Cl  Cl32  1  0.43157100  0.74770300  0.57072500  1
  Cl  Cl33  1  0.43193300  0.25000000  0.06806700  1
  Cl  Cl34  1  0.06806700  0.43193300  0.25000000  1
  Cl  Cl35  1  0.18030800  0.18030800  0.18030800  1
  Cl  Cl36  1  0.68172300  0.14137100  0.17517000  1
  Cl  Cl37  1  0.25000000  0.61156600  0.88843400  1
  Cl  Cl38  1  0.75000000  0.93193300  0.56806700  1
  Cl  Cl39  1  0.14137100  0.17517000  0.68172300  1
  Cl  Cl40  1  0.67517000  0.64137100  0.18172300  1
  Cl  Cl41  1  0.18172300  0.67517000  0.64137100  1
  Cl  Cl42  1  0.75229700  0.06842900  0.92927500  1
  Cl  Cl43  1  0.56806700  0.75000000  0.93193300  1
  Cl  Cl44  1  0.25000000  0.06806700  0.43193300  1
  Cl  Cl45  1  0.64137100  0.18172300  0.67517000  1
  Cl  Cl46  1  0.93193300  0.56806700  0.75000000  1
  Cl  Cl47  1  0.92927500  0.75229700  0.06842900  1
  Cl  Cl48  1  0.24770300  0.93157100  0.07072500  1
  Cl  Cl49  1  0.35862900  0.81827700  0.32483000  1
  Cl  Cl50  1  0.31969200  0.31969200  0.31969200  1
  Cl  Cl51  1  0.88843400  0.25000000  0.61156600  1
  Cl  Cl52  1  0.68030800  0.68030800  0.68030800  1
  Cl  Cl53  1  0.56842900  0.25229700  0.42927500  1
  Cl  Cl54  1  0.38843400  0.11156600  0.75000000  1
  Cl  Cl55  1  0.93157100  0.07072500  0.24770300  1
  Cl  Cl56  1  0.06842900  0.92927500  0.75229700  1
  Cl  Cl57  1  0.75000000  0.38843400  0.11156600  1
  Cl  Cl58  1  0.11156600  0.75000000  0.38843400  1
  Cl  Cl59  1  0.82483000  0.31827700  0.85862900  1
  Cl  Cl60  1  0.32483000  0.35862900  0.81827700  1
  Cl  Cl61  1  0.85862900  0.82483000  0.31827700  1
