# generated using pymatgen
data_CsAu2F7
_symmetry_space_group_name_H-M   'P 1'
_cell_length_a   8.04181913
_cell_length_b   8.04181913
_cell_length_c   7.62318999
_cell_angle_alpha   66.56434294
_cell_angle_beta   66.56434294
_cell_angle_gamma   87.14982184
_symmetry_Int_Tables_number   1
_chemical_formula_structural   CsAu2F7
_chemical_formula_sum   'Cs2 Au4 F14'
_cell_volume   411.55684662
_cell_formula_units_Z   2
loop_
 _symmetry_equiv_pos_site_id
 _symmetry_equiv_pos_as_xyz
  1  'x, y, z'
loop_
 _atom_site_type_symbol
 _atom_site_label
 _atom_site_symmetry_multiplicity
 _atom_site_fract_x
 _atom_site_fract_y
 _atom_site_fract_z
 _atom_site_occupancy
  Cs  Cs0  1  0.30856600  0.69143400  0.25000000  1
  Cs  Cs1  1  0.69143400  0.30856600  0.75000000  1
  Au  Au2  1  0.08680800  0.28468100  0.14363300  1
  Au  Au3  1  0.71531900  0.91319200  0.35636700  1
  Au  Au4  1  0.91319200  0.71531900  0.85636700  1
  Au  Au5  1  0.28468100  0.08680800  0.64363300  1
  F  F6  1  0.90844700  0.81449900  0.44842900  1
  F  F7  1  0.66776900  0.59754900  0.96140100  1
  F  F8  1  0.81449800  0.90844700  0.94842900  1
  F  F9  1  0.52018200  0.01320900  0.26635300  1
  F  F10  1  0.18550100  0.09155300  0.05157100  1
  F  F11  1  0.47981800  0.98679100  0.73364700  1
  F  F12  1  0.82248100  0.17751900  0.25000000  1
  F  F13  1  0.98679100  0.47981800  0.23364700  1
  F  F14  1  0.01320900  0.52018200  0.76635300  1
  F  F15  1  0.33223100  0.40245100  0.03859900  1
  F  F16  1  0.09155300  0.18550200  0.55157100  1
  F  F17  1  0.40245100  0.33223100  0.53859900  1
  F  F18  1  0.17751900  0.82248100  0.75000000  1
  F  F19  1  0.59754900  0.66776900  0.46140100  1
