# generated using pymatgen
data_ErCoO3
_symmetry_space_group_name_H-M   'P 1'
_cell_length_a   5.12502200
_cell_length_b   5.48015200
_cell_length_c   7.36263700
_cell_angle_alpha   90.00000000
_cell_angle_beta   90.00000000
_cell_angle_gamma   90.00000000
_symmetry_Int_Tables_number   1
_chemical_formula_structural   ErCoO3
_chemical_formula_sum   'Er4 Co4 O12'
_cell_volume   206.78628330
_cell_formula_units_Z   4
loop_
 _symmetry_equiv_pos_site_id
 _symmetry_equiv_pos_as_xyz
  1  'x, y, z'
loop_
 _atom_site_type_symbol
 _atom_site_label
 _atom_site_symmetry_multiplicity
 _atom_site_fract_x
 _atom_site_fract_y
 _atom_site_fract_z
 _atom_site_occupancy
  Er  Er0  1  0.02179300  0.92374200  0.75000000  1
  Er  Er1  1  0.47820700  0.42374200  0.75000000  1
  Er  Er2  1  0.52179300  0.57625800  0.25000000  1
  Er  Er3  1  0.97820700  0.07625800  0.25000000  1
  Co  Co4  1  0.50000000  0.00000000  0.50000000  1
  Co  Co5  1  0.50000000  0.00000000  0.00000000  1
  Co  Co6  1  0.00000000  0.50000000  0.50000000  1
  Co  Co7  1  0.00000000  0.50000000  0.00000000  1
  O  O8  1  0.89384700  0.53162200  0.75000000  1
  O  O9  1  0.80999600  0.80307900  0.05247400  1
  O  O10  1  0.19000400  0.19692100  0.55247400  1
  O  O11  1  0.10615300  0.46837800  0.25000000  1
  O  O12  1  0.39384700  0.96837800  0.25000000  1
  O  O13  1  0.69000400  0.30307900  0.44752600  1
  O  O14  1  0.30999600  0.69692100  0.94752600  1
  O  O15  1  0.60615300  0.03162200  0.75000000  1
  O  O16  1  0.19000400  0.19692100  0.94752600  1
  O  O17  1  0.80999600  0.80307900  0.44752600  1
  O  O18  1  0.30999600  0.69692100  0.55247400  1
  O  O19  1  0.69000400  0.30307900  0.05247400  1
