# generated using pymatgen
data_Li2TeS3
_symmetry_space_group_name_H-M   'P 1'
_cell_length_a   11.57938400
_cell_length_b   5.41911900
_cell_length_c   7.89596083
_cell_angle_alpha   88.50803666
_cell_angle_beta   90.00000000
_cell_angle_gamma   90.00000000
_symmetry_Int_Tables_number   1
_chemical_formula_structural   Li2TeS3
_chemical_formula_sum   'Li8 Te4 S12'
_cell_volume   495.30404336
_cell_formula_units_Z   4
loop_
 _symmetry_equiv_pos_site_id
 _symmetry_equiv_pos_as_xyz
  1  'x, y, z'
loop_
 _atom_site_type_symbol
 _atom_site_label
 _atom_site_symmetry_multiplicity
 _atom_site_fract_x
 _atom_site_fract_y
 _atom_site_fract_z
 _atom_site_occupancy
  Li  Li0  1  0.72842500  0.26038300  0.64314000  1
  Li  Li1  1  0.77157500  0.26038300  0.14314000  1
  Li  Li2  1  0.27157500  0.73961700  0.35686000  1
  Li  Li3  1  0.22842500  0.73961700  0.85686000  1
  Li  Li4  1  0.58549100  0.76255200  0.86842100  1
  Li  Li5  1  0.91450900  0.76255200  0.36842100  1
  Li  Li6  1  0.41450900  0.23744800  0.13157900  1
  Li  Li7  1  0.08549100  0.23744800  0.63157900  1
  Te  Te8  1  0.91293900  0.72075200  0.81843300  1
  Te  Te9  1  0.08706100  0.27924800  0.18156700  1
  Te  Te10  1  0.41293900  0.27924800  0.68156700  1
  Te  Te11  1  0.58706100  0.72075200  0.31843300  1
  S  S12  1  0.40211400  0.72037400  0.63590300  1
  S  S13  1  0.09788600  0.72037400  0.13590300  1
  S  S14  1  0.42663900  0.74544000  0.13066500  1
  S  S15  1  0.57336100  0.25456000  0.86933500  1
  S  S16  1  0.74444500  0.77090800  0.12086200  1
  S  S17  1  0.25555500  0.22909200  0.87913800  1
  S  S18  1  0.59788600  0.27962600  0.36409700  1
  S  S19  1  0.90211400  0.27962600  0.86409700  1
  S  S20  1  0.07336100  0.74544000  0.63066500  1
  S  S21  1  0.92663900  0.25456000  0.36933500  1
  S  S22  1  0.75555500  0.77090800  0.62086200  1
  S  S23  1  0.24444500  0.22909200  0.37913800  1
