# generated using pymatgen
data_NaYCO3F2
_symmetry_space_group_name_H-M   'P 1'
_cell_length_a   6.37191400
_cell_length_b   7.08344300
_cell_length_c   9.30130100
_cell_angle_alpha   90.00000000
_cell_angle_beta   90.00000000
_cell_angle_gamma   90.00000000
_symmetry_Int_Tables_number   1
_chemical_formula_structural   NaYCO3F2
_chemical_formula_sum   'Na4 Y4 C4 O12 F8'
_cell_volume   419.81505422
_cell_formula_units_Z   4
loop_
 _symmetry_equiv_pos_site_id
 _symmetry_equiv_pos_as_xyz
  1  'x, y, z'
loop_
 _atom_site_type_symbol
 _atom_site_label
 _atom_site_symmetry_multiplicity
 _atom_site_fract_x
 _atom_site_fract_y
 _atom_site_fract_z
 _atom_site_occupancy
  Na  Na0  1  0.17129400  0.25000000  0.21780400  1
  Na  Na1  1  0.67129400  0.25000000  0.28219600  1
  Na  Na2  1  0.82870600  0.75000000  0.78219600  1
  Na  Na3  1  0.32870600  0.75000000  0.71780400  1
  Y  Y4  1  0.51253500  0.25000000  0.92222700  1
  Y  Y5  1  0.98746500  0.75000000  0.42222700  1
  Y  Y6  1  0.48746500  0.75000000  0.07777300  1
  Y  Y7  1  0.01253500  0.25000000  0.57777300  1
  C  C8  1  0.54007800  0.75000000  0.44026900  1
  C  C9  1  0.45992200  0.25000000  0.55973100  1
  C  C10  1  0.95992200  0.25000000  0.94026900  1
  C  C11  1  0.04007800  0.75000000  0.05973100  1
  O  O12  1  0.84110900  0.75000000  0.04387200  1
  O  O13  1  0.83579200  0.25000000  0.05075800  1
  O  O14  1  0.13060800  0.75000000  0.18640100  1
  O  O15  1  0.86939200  0.25000000  0.81359900  1
  O  O16  1  0.33579200  0.25000000  0.44924200  1
  O  O17  1  0.15889100  0.25000000  0.95612800  1
  O  O18  1  0.66420800  0.75000000  0.55075800  1
  O  O19  1  0.65889100  0.25000000  0.54387200  1
  O  O20  1  0.36939200  0.25000000  0.68640100  1
  O  O21  1  0.34110900  0.75000000  0.45612800  1
  O  O22  1  0.63060800  0.75000000  0.31359900  1
  O  O23  1  0.16420800  0.75000000  0.94924200  1
  F  F24  1  0.04205300  0.94036900  0.63004600  1
  F  F25  1  0.54205300  0.94036900  0.86995400  1
  F  F26  1  0.45794700  0.05963100  0.13004600  1
  F  F27  1  0.95794700  0.05963100  0.36995400  1
  F  F28  1  0.04205300  0.55963100  0.63004600  1
  F  F29  1  0.95794700  0.44036900  0.36995400  1
  F  F30  1  0.45794700  0.44036900  0.13004600  1
  F  F31  1  0.54205300  0.55963100  0.86995400  1
