# generated using pymatgen
data_K2Sm2As2Se9
_symmetry_space_group_name_H-M   'P 1'
_cell_length_a   8.54222300
_cell_length_b   17.65439900
_cell_length_c   22.94636600
_cell_angle_alpha   90.00000000
_cell_angle_beta   90.00000000
_cell_angle_gamma   90.00000000
_symmetry_Int_Tables_number   1
_chemical_formula_structural   K2Sm2As2Se9
_chemical_formula_sum   'K16 Sm16 As16 Se72'
_cell_volume   3460.49127709
_cell_formula_units_Z   8
loop_
 _symmetry_equiv_pos_site_id
 _symmetry_equiv_pos_as_xyz
  1  'x, y, z'
loop_
 _atom_site_type_symbol
 _atom_site_label
 _atom_site_symmetry_multiplicity
 _atom_site_fract_x
 _atom_site_fract_y
 _atom_site_fract_z
 _atom_site_occupancy
  K  K0  1  0.00000000  0.00000000  0.00000000  1
  K  K1  1  0.99932500  0.40906400  0.27549100  1
  K  K2  1  0.00067500  0.09093600  0.77549100  1
  K  K3  1  0.49932500  0.09093600  0.77549100  1
  K  K4  1  0.00000000  0.50000000  0.00000000  1
  K  K5  1  0.49932500  0.59093600  0.72450900  1
  K  K6  1  0.50000000  0.00000000  0.00000000  1
  K  K7  1  0.50000000  0.50000000  0.50000000  1
  K  K8  1  0.00000000  0.50000000  0.50000000  1
  K  K9  1  0.50000000  0.00000000  0.50000000  1
  K  K10  1  0.00000000  0.00000000  0.50000000  1
  K  K11  1  0.00067500  0.59093600  0.72450900  1
  K  K12  1  0.50067500  0.90906400  0.22450900  1
  K  K13  1  0.99932500  0.90906400  0.22450900  1
  K  K14  1  0.50000000  0.50000000  0.00000000  1
  K  K15  1  0.50067500  0.40906400  0.27549100  1
  Sm  Sm16  1  0.00094000  0.24772400  0.43175800  1
  Sm  Sm17  1  0.00288300  0.82752900  0.82510200  1
  Sm  Sm18  1  0.99906000  0.75227600  0.56824200  1
  Sm  Sm19  1  0.50094000  0.25227600  0.93175800  1
  Sm  Sm20  1  0.99711700  0.17247100  0.17489800  1
  Sm  Sm21  1  0.50094000  0.75227600  0.56824200  1
  Sm  Sm22  1  0.50288300  0.17247100  0.17489800  1
  Sm  Sm23  1  0.49906000  0.24772400  0.43175800  1
  Sm  Sm24  1  0.49711700  0.82752900  0.82510200  1
  Sm  Sm25  1  0.00288300  0.32752900  0.67489800  1
  Sm  Sm26  1  0.99906000  0.25227600  0.93175800  1
  Sm  Sm27  1  0.49711700  0.32752900  0.67489800  1
  Sm  Sm28  1  0.49906000  0.74772400  0.06824200  1
  Sm  Sm29  1  0.50288300  0.67247100  0.32510200  1
  Sm  Sm30  1  0.00094000  0.74772400  0.06824200  1
  Sm  Sm31  1  0.99711700  0.67247100  0.32510200  1
  As  As32  1  0.75000000  0.60727700  0.16696700  1
  As  As33  1  0.75000000  0.93267800  0.65330800  1
  As  As34  1  0.75000000  0.43267800  0.84669200  1
  As  As35  1  0.25000000  0.15997200  0.59824600  1
  As  As36  1  0.25000000  0.89272300  0.66696700  1
  As  As37  1  0.25000000  0.56732200  0.15330800  1
  As  As38  1  0.25000000  0.06732200  0.34669200  1
  As  As39  1  0.25000000  0.36899900  0.11581300  1
  As  As40  1  0.25000000  0.65997200  0.90175400  1
  As  As41  1  0.75000000  0.34002800  0.09824600  1
  As  As42  1  0.75000000  0.63100100  0.88418700  1
  As  As43  1  0.75000000  0.10727700  0.33303300  1
  As  As44  1  0.25000000  0.86899900  0.38418700  1
  As  As45  1  0.75000000  0.84002800  0.40175400  1
  As  As46  1  0.75000000  0.13100100  0.61581300  1
  As  As47  1  0.25000000  0.39272300  0.83303300  1
  Se  Se48  1  0.25000000  0.35541400  0.46801000  1
  Se  Se49  1  0.25000000  0.94364100  0.79229300  1
  Se  Se50  1  0.47983600  0.31699100  0.81042200  1
  Se  Se51  1  0.75000000  0.91134900  0.89300800  1
  Se  Se52  1  0.54329400  0.03183600  0.64010800  1
  Se  Se53  1  0.75000000  0.93214400  0.78785000  1
  Se  Se54  1  0.75000000  0.34685000  0.48370200  1
  Se  Se55  1  0.75000000  0.12887200  0.43994100  1
  Se  Se56  1  0.75000000  0.29084100  0.19804400  1
  Se  Se57  1  0.75000000  0.71050500  0.79606900  1
  Se  Se58  1  0.25000000  0.62717100  0.05549500  1
  Se  Se59  1  0.01560900  0.22872400  0.56578100  1
  Se  Se60  1  0.95670600  0.53183600  0.85989200  1
  Se  Se61  1  0.51560900  0.77127600  0.43421900  1
  Se  Se62  1  0.25000000  0.40588000  0.60582500  1
  Se  Se63  1  0.25000000  0.65315000  0.51629800  1
  Se  Se64  1  0.54329400  0.53183600  0.85989200  1
  Se  Se65  1  0.25000000  0.08865100  0.10699200  1
  Se  Se66  1  0.25000000  0.32902500  0.36499000  1
  Se  Se67  1  0.25000000  0.70915900  0.80195600  1
  Se  Se68  1  0.04329400  0.46816400  0.14010800  1
  Se  Se69  1  0.25000000  0.90588000  0.89417500  1
  Se  Se70  1  0.47983600  0.81699100  0.68957800  1
  Se  Se71  1  0.75000000  0.79084100  0.30195600  1
  Se  Se72  1  0.25000000  0.44364100  0.70770700  1
  Se  Se73  1  0.75000000  0.62887200  0.06005900  1
  Se  Se74  1  0.75000000  0.14458600  0.96801000  1
  Se  Se75  1  0.25000000  0.65831200  0.62129600  1
  Se  Se76  1  0.75000000  0.37282900  0.94450500  1
  Se  Se77  1  0.75000000  0.43214400  0.71215000  1
  Se  Se78  1  0.25000000  0.85541400  0.03199000  1
  Se  Se79  1  0.51560900  0.27127600  0.06578100  1
  Se  Se80  1  0.75000000  0.21050500  0.70393100  1
  Se  Se81  1  0.25000000  0.56785600  0.28785000  1
  Se  Se82  1  0.25000000  0.15831200  0.87870400  1
  Se  Se83  1  0.25000000  0.78949500  0.29606900  1
  Se  Se84  1  0.98439100  0.77127600  0.43421900  1
  Se  Se85  1  0.75000000  0.59412000  0.39417500  1
  Se  Se86  1  0.97983600  0.68300900  0.18957800  1
  Se  Se87  1  0.25000000  0.20915900  0.69804400  1
  Se  Se88  1  0.25000000  0.37112800  0.93994100  1
  Se  Se89  1  0.02016400  0.31699100  0.81042200  1
  Se  Se90  1  0.75000000  0.05635900  0.20770700  1
  Se  Se91  1  0.25000000  0.28949500  0.20393100  1
  Se  Se92  1  0.75000000  0.09412000  0.10582500  1
  Se  Se93  1  0.25000000  0.15315000  0.98370200  1
  Se  Se94  1  0.25000000  0.06785600  0.21215000  1
  Se  Se95  1  0.04329400  0.96816400  0.35989200  1
  Se  Se96  1  0.75000000  0.64458600  0.53199000  1
  Se  Se97  1  0.98439100  0.27127600  0.06578100  1
  Se  Se98  1  0.97983600  0.18300900  0.31042200  1
  Se  Se99  1  0.25000000  0.12717100  0.44450500  1
  Se  Se100  1  0.75000000  0.84685000  0.01629800  1
  Se  Se101  1  0.75000000  0.67097500  0.63501000  1
  Se  Se102  1  0.25000000  0.82902500  0.13501000  1
  Se  Se103  1  0.02016400  0.81699100  0.68957800  1
  Se  Se104  1  0.48439100  0.22872400  0.56578100  1
  Se  Se105  1  0.52016400  0.18300900  0.31042200  1
  Se  Se106  1  0.45670600  0.96816400  0.35989200  1
  Se  Se107  1  0.25000000  0.87112800  0.56005900  1
  Se  Se108  1  0.75000000  0.34168800  0.37870400  1
  Se  Se109  1  0.75000000  0.87282900  0.55549500  1
  Se  Se110  1  0.75000000  0.55635900  0.29229300  1
  Se  Se111  1  0.48439100  0.72872400  0.93421900  1
  Se  Se112  1  0.52016400  0.68300900  0.18957800  1
  Se  Se113  1  0.25000000  0.58865100  0.39300800  1
  Se  Se114  1  0.95670600  0.03183600  0.64010800  1
  Se  Se115  1  0.75000000  0.41134900  0.60699200  1
  Se  Se116  1  0.01560900  0.72872400  0.93421900  1
  Se  Se117  1  0.45670600  0.46816400  0.14010800  1
  Se  Se118  1  0.75000000  0.17097500  0.86499000  1
  Se  Se119  1  0.75000000  0.84168800  0.12129600  1
