# generated using pymatgen
data_Ba6Zn(InCl10)2
_symmetry_space_group_name_H-M   'P 1'
_cell_length_a   10.32866800
_cell_length_b   18.17542700
_cell_length_c   19.97289049
_cell_angle_alpha   68.91206155
_cell_angle_beta   90.00000000
_cell_angle_gamma   90.00000000
_symmetry_Int_Tables_number   1
_chemical_formula_structural   Ba6Zn(InCl10)2
_chemical_formula_sum   'Ba24 Zn4 In8 Cl80'
_cell_volume   3498.36518794
_cell_formula_units_Z   4
loop_
 _symmetry_equiv_pos_site_id
 _symmetry_equiv_pos_as_xyz
  1  'x, y, z'
loop_
 _atom_site_type_symbol
 _atom_site_label
 _atom_site_symmetry_multiplicity
 _atom_site_fract_x
 _atom_site_fract_y
 _atom_site_fract_z
 _atom_site_occupancy
  Ba  Ba0  1  0.79212400  0.73505600  0.95991400  1
  Ba  Ba1  1  0.73826800  0.99004500  0.52555900  1
  Ba  Ba2  1  0.74656400  0.93993700  0.26930800  1
  Ba  Ba3  1  0.25343600  0.06006300  0.73069200  1
  Ba  Ba4  1  0.20787600  0.26494400  0.04008600  1
  Ba  Ba5  1  0.70787600  0.23505600  0.95991400  1
  Ba  Ba6  1  0.75343600  0.43993700  0.26930800  1
  Ba  Ba7  1  0.23826800  0.50995500  0.47444100  1
  Ba  Ba8  1  0.49189600  0.24932100  0.49566200  1
  Ba  Ba9  1  0.00810400  0.74932100  0.49566200  1
  Ba  Ba10  1  0.48656100  0.82104100  0.73462100  1
  Ba  Ba11  1  0.26173200  0.00995500  0.47444100  1
  Ba  Ba12  1  0.24656400  0.56006300  0.73069200  1
  Ba  Ba13  1  0.98656100  0.67895900  0.26537900  1
  Ba  Ba14  1  0.99189600  0.25067900  0.50433800  1
  Ba  Ba15  1  0.74070800  0.08803700  0.73049100  1
  Ba  Ba16  1  0.29212400  0.76494400  0.04008600  1
  Ba  Ba17  1  0.76173200  0.49004500  0.52555900  1
  Ba  Ba18  1  0.24070800  0.41196300  0.26950900  1
  Ba  Ba19  1  0.50810400  0.75067900  0.50433800  1
  Ba  Ba20  1  0.01343900  0.32104100  0.73462100  1
  Ba  Ba21  1  0.51343900  0.17895900  0.26537900  1
  Ba  Ba22  1  0.75929200  0.58803700  0.73049100  1
  Ba  Ba23  1  0.25929200  0.91196300  0.26950900  1
  Zn  Zn24  1  0.02343600  0.57607600  0.10733900  1
  Zn  Zn25  1  0.52343600  0.92392400  0.89266100  1
  Zn  Zn26  1  0.47656400  0.07607600  0.10733900  1
  Zn  Zn27  1  0.97656400  0.42392400  0.89266100  1
  In  In28  1  0.99202200  0.84216400  0.68825600  1
  In  In29  1  0.48247300  0.58569700  0.91178000  1
  In  In30  1  0.01752700  0.08569700  0.91178000  1
  In  In31  1  0.51752700  0.41430300  0.08822000  1
  In  In32  1  0.49202200  0.65783600  0.31174400  1
  In  In33  1  0.98247300  0.91430300  0.08822000  1
  In  In34  1  0.50797800  0.34216400  0.68825600  1
  In  In35  1  0.00797800  0.15783600  0.31174400  1
  Cl  Cl36  1  0.48562900  0.68031300  0.67339500  1
  Cl  Cl37  1  0.50298400  0.50267900  0.83641000  1
  Cl  Cl38  1  0.66970000  0.12325200  0.13566600  1
  Cl  Cl39  1  0.49701600  0.49732100  0.16359000  1
  Cl  Cl40  1  0.31031000  0.66936400  0.83349200  1
  Cl  Cl41  1  0.68639000  0.88490600  0.83179000  1
  Cl  Cl42  1  0.31361000  0.11509400  0.16821000  1
  Cl  Cl43  1  0.73888600  0.30821400  0.66193100  1
  Cl  Cl44  1  0.16867900  0.82401400  0.16108300  1
  Cl  Cl45  1  0.76111400  0.80821400  0.66193100  1
  Cl  Cl46  1  0.01293100  0.21310400  0.18077400  1
  Cl  Cl47  1  0.44290800  0.21198400  0.67252000  1
  Cl  Cl48  1  0.51293100  0.28689600  0.81922600  1
  Cl  Cl49  1  0.50225500  0.32609100  0.01336100  1
  Cl  Cl50  1  0.83132100  0.17598600  0.83891700  1
  Cl  Cl51  1  0.71694500  0.59688400  0.31826700  1
  Cl  Cl52  1  0.50906400  0.05634500  0.84490300  1
  Cl  Cl53  1  0.74942500  0.36814900  0.44202700  1
  Cl  Cl54  1  0.00298400  0.99732100  0.16359000  1
  Cl  Cl55  1  0.47890200  0.89238100  0.56072600  1
  Cl  Cl56  1  0.28305500  0.40311600  0.68173300  1
  Cl  Cl57  1  0.23888600  0.19178600  0.33806900  1
  Cl  Cl58  1  0.09410000  0.01843000  0.33408400  1
  Cl  Cl59  1  0.40590000  0.51843000  0.33408400  1
  Cl  Cl60  1  0.23858000  0.34703900  0.43774900  1
  Cl  Cl61  1  0.25057500  0.63185100  0.55797300  1
  Cl  Cl62  1  0.55709200  0.78801600  0.32748000  1
  Cl  Cl63  1  0.33030000  0.87674800  0.86433400  1
  Cl  Cl64  1  0.66867900  0.67598600  0.83891700  1
  Cl  Cl65  1  0.99774500  0.82609100  0.01336100  1
  Cl  Cl66  1  0.68969000  0.33063600  0.16650800  1
  Cl  Cl67  1  0.21694500  0.90311600  0.68173300  1
  Cl  Cl68  1  0.48706900  0.71310400  0.18077400  1
  Cl  Cl69  1  0.17109500  0.99302700  0.00414800  1
  Cl  Cl70  1  0.76142000  0.65296100  0.56225100  1
  Cl  Cl71  1  0.56658600  0.85386400  0.00913200  1
  Cl  Cl72  1  0.78305500  0.09688400  0.31826700  1
  Cl  Cl73  1  0.01437100  0.18031300  0.67339500  1
  Cl  Cl74  1  0.43341400  0.14613600  0.99086800  1
  Cl  Cl75  1  0.18639000  0.61509400  0.16821000  1
  Cl  Cl76  1  0.82890500  0.00697300  0.99585200  1
  Cl  Cl77  1  0.00906400  0.44365500  0.15509700  1
  Cl  Cl78  1  0.73858000  0.15296100  0.56225100  1
  Cl  Cl79  1  0.98706900  0.78689600  0.81922600  1
  Cl  Cl80  1  0.05709200  0.71198400  0.67252000  1
  Cl  Cl81  1  0.98445400  0.10209200  0.45369500  1
  Cl  Cl82  1  0.26142000  0.84703900  0.43774900  1
  Cl  Cl83  1  0.00225500  0.17390900  0.98663900  1
  Cl  Cl84  1  0.48327700  0.99390100  0.32394400  1
  Cl  Cl85  1  0.83030000  0.62325200  0.13566600  1
  Cl  Cl86  1  0.49093600  0.94365500  0.15509700  1
  Cl  Cl87  1  0.94290800  0.28801600  0.32748000  1
  Cl  Cl88  1  0.33132100  0.32401400  0.16108300  1
  Cl  Cl89  1  0.51554600  0.60209200  0.45369500  1
  Cl  Cl90  1  0.02109800  0.39238100  0.56072600  1
  Cl  Cl91  1  0.99093600  0.55634500  0.84490300  1
  Cl  Cl92  1  0.01672300  0.49390100  0.32394400  1
  Cl  Cl93  1  0.49774500  0.67390900  0.98663900  1
  Cl  Cl94  1  0.59410000  0.48157000  0.66591600  1
  Cl  Cl95  1  0.81361000  0.38490600  0.83179000  1
  Cl  Cl96  1  0.75057500  0.86814900  0.44202700  1
  Cl  Cl97  1  0.93341400  0.35386400  0.00913200  1
  Cl  Cl98  1  0.26111400  0.69178600  0.33806900  1
  Cl  Cl99  1  0.51672300  0.00609900  0.67605600  1
  Cl  Cl100  1  0.32890500  0.49302700  0.00414800  1
  Cl  Cl101  1  0.67109500  0.50697300  0.99585200  1
  Cl  Cl102  1  0.16970000  0.37674800  0.86433400  1
  Cl  Cl103  1  0.18969000  0.16936400  0.83349200  1
  Cl  Cl104  1  0.01554600  0.89790800  0.54630500  1
  Cl  Cl105  1  0.90590000  0.98157000  0.66591600  1
  Cl  Cl106  1  0.81031000  0.83063600  0.16650800  1
  Cl  Cl107  1  0.52109800  0.10761900  0.43927400  1
  Cl  Cl108  1  0.98327700  0.50609900  0.67605600  1
  Cl  Cl109  1  0.48445400  0.39790800  0.54630500  1
  Cl  Cl110  1  0.24942500  0.13185100  0.55797300  1
  Cl  Cl111  1  0.98562900  0.81968700  0.32660500  1
  Cl  Cl112  1  0.99701600  0.00267900  0.83641000  1
  Cl  Cl113  1  0.97890200  0.60761900  0.43927400  1
  Cl  Cl114  1  0.51437100  0.31968700  0.32660500  1
  Cl  Cl115  1  0.06658600  0.64613600  0.99086800  1
