# generated using pymatgen
data_Ag15P4S16Cl3
_symmetry_space_group_name_H-M   'P 1'
_cell_length_a   13.04682166
_cell_length_b   13.04682166
_cell_length_c   13.04682166
_cell_angle_alpha   109.47122063
_cell_angle_beta   109.47122063
_cell_angle_gamma   109.47122063
_symmetry_Int_Tables_number   1
_chemical_formula_structural   Ag15P4S16Cl3
_chemical_formula_sum   'Ag30 P8 S32 Cl6'
_cell_volume   1709.59125467
_cell_formula_units_Z   2
loop_
 _symmetry_equiv_pos_site_id
 _symmetry_equiv_pos_as_xyz
  1  'x, y, z'
loop_
 _atom_site_type_symbol
 _atom_site_label
 _atom_site_symmetry_multiplicity
 _atom_site_fract_x
 _atom_site_fract_y
 _atom_site_fract_z
 _atom_site_occupancy
  Ag  Ag0  1  0.78165300  0.58797400  0.62701900  1
  Ag  Ag1  1  0.12500000  0.75000000  0.87500000  1
  Ag  Ag2  1  0.15463400  0.87298100  0.46095500  1
  Ag  Ag3  1  0.69368000  0.03904500  0.91202600  1
  Ag  Ag4  1  0.19368000  0.41202600  0.53904500  1
  Ag  Ag5  1  0.96095500  0.37298100  0.65463400  1
  Ag  Ag6  1  0.46095500  0.15463400  0.87298100  1
  Ag  Ag7  1  0.08797400  0.28165300  0.12701900  1
  Ag  Ag8  1  0.91202600  0.69368000  0.03904500  1
  Ag  Ag9  1  0.80632000  0.71834700  0.34536600  1
  Ag  Ag10  1  0.53904500  0.19368000  0.41202600  1
  Ag  Ag11  1  0.75000000  0.87500000  0.12500000  1
  Ag  Ag12  1  0.58797400  0.62701900  0.78165300  1
  Ag  Ag13  1  0.21834700  0.30632000  0.84536600  1
  Ag  Ag14  1  0.03904500  0.91202600  0.69368000  1
  Ag  Ag15  1  0.12701900  0.08797400  0.28165300  1
  Ag  Ag16  1  0.65463400  0.96095500  0.37298100  1
  Ag  Ag17  1  0.37298100  0.65463400  0.96095500  1
  Ag  Ag18  1  0.87500000  0.12500000  0.75000000  1
  Ag  Ag19  1  0.37500000  0.25000000  0.62500000  1
  Ag  Ag20  1  0.84536600  0.21834700  0.30632000  1
  Ag  Ag21  1  0.34536600  0.80632000  0.71834700  1
  Ag  Ag22  1  0.87298100  0.46095500  0.15463400  1
  Ag  Ag23  1  0.28165300  0.12701900  0.08797400  1
  Ag  Ag24  1  0.62701900  0.78165300  0.58797400  1
  Ag  Ag25  1  0.71834700  0.34536600  0.80632000  1
  Ag  Ag26  1  0.62500000  0.37500000  0.25000000  1
  Ag  Ag27  1  0.41202600  0.53904500  0.19368000  1
  Ag  Ag28  1  0.30632000  0.84536600  0.21834700  1
  Ag  Ag29  1  0.25000000  0.62500000  0.37500000  1
  P  P30  1  0.39973000  0.39973000  0.39973000  1
  P  P31  1  0.50000000  0.00000000  0.10027000  1
  P  P32  1  0.60027000  0.50000000  0.00000000  1
  P  P33  1  0.10027000  0.50000000  0.00000000  1
  P  P34  1  0.00000000  0.60027000  0.50000000  1
  P  P35  1  0.00000000  0.10027000  0.50000000  1
  P  P36  1  0.89973000  0.89973000  0.89973000  1
  P  P37  1  0.50000000  0.00000000  0.60027000  1
  S  S38  1  0.32209900  0.94757800  0.08170700  1
  S  S39  1  0.08170700  0.32209900  0.94757800  1
  S  S40  1  0.50000000  0.00000000  0.44303800  1
  S  S41  1  0.67790100  0.12547900  0.75960900  1
  S  S42  1  0.37452100  0.05242200  0.63412900  1
  S  S43  1  0.50000000  0.00000000  0.94303800  1
  S  S44  1  0.05696200  0.05696200  0.05696200  1
  S  S45  1  0.62547900  0.17790100  0.25960900  1
  S  S46  1  0.94303800  0.50000000  0.00000000  1
  S  S47  1  0.41829300  0.36587100  0.24039100  1
  S  S48  1  0.55242200  0.87452100  0.13412900  1
  S  S49  1  0.44757800  0.82209900  0.58170700  1
  S  S50  1  0.00000000  0.94303800  0.50000000  1
  S  S51  1  0.75960900  0.67790100  0.12547900  1
  S  S52  1  0.36587100  0.24039100  0.41829300  1
  S  S53  1  0.82209900  0.58170700  0.44757800  1
  S  S54  1  0.94757800  0.08170700  0.32209900  1
  S  S55  1  0.86587100  0.91829300  0.74039100  1
  S  S56  1  0.91829300  0.74039100  0.86587100  1
  S  S57  1  0.12547900  0.75960900  0.67790100  1
  S  S58  1  0.00000000  0.44303800  0.50000000  1
  S  S59  1  0.44303800  0.50000000  0.00000000  1
  S  S60  1  0.63412900  0.37452100  0.05242200  1
  S  S61  1  0.58170700  0.44757800  0.82209900  1
  S  S62  1  0.24039100  0.41829300  0.36587100  1
  S  S63  1  0.55696200  0.55696200  0.55696200  1
  S  S64  1  0.25960900  0.62547900  0.17790100  1
  S  S65  1  0.05242200  0.63412900  0.37452100  1
  S  S66  1  0.17790100  0.25960900  0.62547900  1
  S  S67  1  0.87452100  0.13412900  0.55242200  1
  S  S68  1  0.74039100  0.86587100  0.91829300  1
  S  S69  1  0.13412900  0.55242200  0.87452100  1
  Cl  Cl70  1  0.12500000  0.87500000  0.25000000  1
  Cl  Cl71  1  0.62500000  0.75000000  0.37500000  1
  Cl  Cl72  1  0.75000000  0.37500000  0.62500000  1
  Cl  Cl73  1  0.25000000  0.12500000  0.87500000  1
  Cl  Cl74  1  0.37500000  0.62500000  0.75000000  1
  Cl  Cl75  1  0.87500000  0.25000000  0.12500000  1
