# generated using pymatgen
data_CsCuF4
_symmetry_space_group_name_H-M   'P 1'
_cell_length_a   7.61762688
_cell_length_b   7.61762688
_cell_length_c   7.61762688
_cell_angle_alpha   131.03995975
_cell_angle_beta   131.03995975
_cell_angle_gamma   71.74959909
_symmetry_Int_Tables_number   1
_chemical_formula_structural   CsCuF4
_chemical_formula_sum   'Cs2 Cu2 F8'
_cell_volume   246.01048317
_cell_formula_units_Z   2
loop_
 _symmetry_equiv_pos_site_id
 _symmetry_equiv_pos_as_xyz
  1  'x, y, z'
loop_
 _atom_site_type_symbol
 _atom_site_label
 _atom_site_symmetry_multiplicity
 _atom_site_fract_x
 _atom_site_fract_y
 _atom_site_fract_z
 _atom_site_occupancy
  Cs  Cs0  1  0.75000000  0.75000000  0.00000000  1
  Cs  Cs1  1  0.25000000  0.25000000  0.00000000  1
  Cu  Cu2  1  0.00000000  0.50000000  0.50000000  1
  Cu  Cu3  1  0.50000000  0.00000000  0.50000000  1
  F  F4  1  0.24289500  0.74289500  0.78288100  1
  F  F5  1  0.74289500  0.96001300  0.50000000  1
  F  F6  1  0.46001300  0.24289500  0.50000000  1
  F  F7  1  0.25710500  0.03998700  0.50000000  1
  F  F8  1  0.53998700  0.75710500  0.50000000  1
  F  F9  1  0.03998700  0.53998700  0.78288100  1
  F  F10  1  0.75710500  0.25710500  0.21711900  1
  F  F11  1  0.96001300  0.46001300  0.21711900  1
