# generated using pymatgen
data_BaBiBO4
_symmetry_space_group_name_H-M   'P 1'
_cell_length_a   5.20234800
_cell_length_b   8.81672500
_cell_length_c   9.86375400
_cell_angle_alpha   90.00000000
_cell_angle_beta   90.00000000
_cell_angle_gamma   90.00000000
_symmetry_Int_Tables_number   1
_chemical_formula_structural   BaBiBO4
_chemical_formula_sum   'Ba4 Bi4 B4 O16'
_cell_volume   452.42742991
_cell_formula_units_Z   4
loop_
 _symmetry_equiv_pos_site_id
 _symmetry_equiv_pos_as_xyz
  1  'x, y, z'
loop_
 _atom_site_type_symbol
 _atom_site_label
 _atom_site_symmetry_multiplicity
 _atom_site_fract_x
 _atom_site_fract_y
 _atom_site_fract_z
 _atom_site_occupancy
  Ba  Ba0  1  0.25000000  0.00838000  0.81696200  1
  Ba  Ba1  1  0.75000000  0.49162000  0.31696200  1
  Ba  Ba2  1  0.75000000  0.99162000  0.18303800  1
  Ba  Ba3  1  0.25000000  0.50838000  0.68303800  1
  Bi  Bi4  1  0.75000000  0.30490900  0.93872400  1
  Bi  Bi5  1  0.25000000  0.69509100  0.06127600  1
  Bi  Bi6  1  0.25000000  0.19509100  0.43872400  1
  Bi  Bi7  1  0.75000000  0.80490900  0.56127600  1
  B  B8  1  0.75000000  0.19993300  0.55614500  1
  B  B9  1  0.25000000  0.80006700  0.44385500  1
  B  B10  1  0.25000000  0.30006700  0.05614500  1
  B  B11  1  0.75000000  0.69993300  0.94385500  1
  O  O12  1  0.98653000  0.70635800  0.87726000  1
  O  O13  1  0.25000000  0.81189700  0.58540800  1
  O  O14  1  0.01347000  0.79364200  0.37726000  1
  O  O15  1  0.51347000  0.70635800  0.87726000  1
  O  O16  1  0.48653000  0.79364200  0.37726000  1
  O  O17  1  0.75000000  0.57456100  0.58387300  1
  O  O18  1  0.75000000  0.68810300  0.08540800  1
  O  O19  1  0.75000000  0.18810300  0.41459200  1
  O  O20  1  0.01347000  0.29364200  0.12274000  1
  O  O21  1  0.51347000  0.20635800  0.62274000  1
  O  O22  1  0.75000000  0.07456100  0.91612700  1
  O  O23  1  0.25000000  0.92543900  0.08387300  1
  O  O24  1  0.98653000  0.20635800  0.62274000  1
  O  O25  1  0.25000000  0.42543900  0.41612700  1
  O  O26  1  0.48653000  0.29364200  0.12274000  1
  O  O27  1  0.25000000  0.31189700  0.91459200  1
