# generated using pymatgen
data_In4GeS4
_symmetry_space_group_name_H-M   'P 1'
_cell_length_a   12.43187300
_cell_length_b   12.43187300
_cell_length_c   12.43187300
_cell_angle_alpha   90.00000000
_cell_angle_beta   90.00000000
_cell_angle_gamma   90.00000000
_symmetry_Int_Tables_number   1
_chemical_formula_structural   In4GeS4
_chemical_formula_sum   'In32 Ge8 S32'
_cell_volume   1921.36420086
_cell_formula_units_Z   8
loop_
 _symmetry_equiv_pos_site_id
 _symmetry_equiv_pos_as_xyz
  1  'x, y, z'
loop_
 _atom_site_type_symbol
 _atom_site_label
 _atom_site_symmetry_multiplicity
 _atom_site_fract_x
 _atom_site_fract_y
 _atom_site_fract_z
 _atom_site_occupancy
  In  In0  1  0.27368300  0.46581900  0.56051700  1
  In  In1  1  0.72444800  0.77555200  0.22444800  1
  In  In2  1  0.96581900  0.56051700  0.22631700  1
  In  In3  1  0.43948300  0.77368300  0.03418100  1
  In  In4  1  0.27555200  0.27555200  0.27555200  1
  In  In5  1  0.03418100  0.06051700  0.27368300  1
  In  In6  1  0.96581900  0.93948300  0.72631700  1
  In  In7  1  0.22444800  0.72444800  0.77555200  1
  In  In8  1  0.56051700  0.27368300  0.46581900  1
  In  In9  1  0.22631700  0.53418100  0.06051700  1
  In  In10  1  0.56051700  0.22631700  0.96581900  1
  In  In11  1  0.72631700  0.96581900  0.93948300  1
  In  In12  1  0.53418100  0.06051700  0.22631700  1
  In  In13  1  0.22631700  0.96581900  0.56051700  1
  In  In14  1  0.06051700  0.22631700  0.53418100  1
  In  In15  1  0.46581900  0.56051700  0.27368300  1
  In  In16  1  0.27368300  0.03418100  0.06051700  1
  In  In17  1  0.93948300  0.72631700  0.96581900  1
  In  In18  1  0.46581900  0.93948300  0.77368300  1
  In  In19  1  0.93948300  0.77368300  0.46581900  1
  In  In20  1  0.72444800  0.72444800  0.72444800  1
  In  In21  1  0.77555200  0.22444800  0.72444800  1
  In  In22  1  0.77368300  0.03418100  0.43948300  1
  In  In23  1  0.77555200  0.27555200  0.22444800  1
  In  In24  1  0.27555200  0.22444800  0.77555200  1
  In  In25  1  0.53418100  0.43948300  0.72631700  1
  In  In26  1  0.03418100  0.43948300  0.77368300  1
  In  In27  1  0.43948300  0.72631700  0.53418100  1
  In  In28  1  0.22444800  0.77555200  0.27555200  1
  In  In29  1  0.72631700  0.53418100  0.43948300  1
  In  In30  1  0.77368300  0.46581900  0.93948300  1
  In  In31  1  0.06051700  0.27368300  0.03418100  1
  Ge  Ge32  1  0.60107400  0.60107400  0.60107400  1
  Ge  Ge33  1  0.39892600  0.39892600  0.39892600  1
  Ge  Ge34  1  0.89892600  0.10107400  0.60107400  1
  Ge  Ge35  1  0.10107400  0.60107400  0.89892600  1
  Ge  Ge36  1  0.89892600  0.39892600  0.10107400  1
  Ge  Ge37  1  0.60107400  0.89892600  0.10107400  1
  Ge  Ge38  1  0.39892600  0.10107400  0.89892600  1
  Ge  Ge39  1  0.10107400  0.89892600  0.39892600  1
  S  S40  1  0.82971300  0.42371200  0.74664700  1
  S  S41  1  0.24664700  0.82971300  0.07628800  1
  S  S42  1  0.24664700  0.67028700  0.57628800  1
  S  S43  1  0.92371200  0.75335300  0.17028700  1
  S  S44  1  0.92416800  0.57583200  0.42416800  1
  S  S45  1  0.57628800  0.25335300  0.17028700  1
  S  S46  1  0.07628800  0.24664700  0.82971300  1
  S  S47  1  0.07628800  0.25335300  0.32971300  1
  S  S48  1  0.32971300  0.07628800  0.25335300  1
  S  S49  1  0.57583200  0.07583200  0.42416800  1
  S  S50  1  0.75335300  0.32971300  0.42371200  1
  S  S51  1  0.67028700  0.57628800  0.24664700  1
  S  S52  1  0.82971300  0.07628800  0.24664700  1
  S  S53  1  0.42371200  0.75335300  0.32971300  1
  S  S54  1  0.75335300  0.17028700  0.92371200  1
  S  S55  1  0.07583200  0.42416800  0.57583200  1
  S  S56  1  0.32971300  0.42371200  0.75335300  1
  S  S57  1  0.74664700  0.82971300  0.42371200  1
  S  S58  1  0.25335300  0.32971300  0.07628800  1
  S  S59  1  0.42371200  0.74664700  0.82971300  1
  S  S60  1  0.42416800  0.57583200  0.07583200  1
  S  S61  1  0.92416800  0.92416800  0.92416800  1
  S  S62  1  0.17028700  0.57628800  0.25335300  1
  S  S63  1  0.67028700  0.92371200  0.74664700  1
  S  S64  1  0.17028700  0.92371200  0.75335300  1
  S  S65  1  0.92371200  0.74664700  0.67028700  1
  S  S66  1  0.57628800  0.24664700  0.67028700  1
  S  S67  1  0.25335300  0.17028700  0.57628800  1
  S  S68  1  0.74664700  0.67028700  0.92371200  1
  S  S69  1  0.42416800  0.92416800  0.57583200  1
  S  S70  1  0.07583200  0.07583200  0.07583200  1
  S  S71  1  0.57583200  0.42416800  0.92416800  1
