# generated using pymatgen
data_NaScB2O5
_symmetry_space_group_name_H-M   'P 1'
_cell_length_a   9.88385400
_cell_length_b   5.99960800
_cell_length_c   7.29569977
_cell_angle_alpha   71.45264512
_cell_angle_beta   90.00000000
_cell_angle_gamma   90.00000000
_symmetry_Int_Tables_number   1
_chemical_formula_structural   NaScB2O5
_chemical_formula_sum   'Na4 Sc4 B8 O20'
_cell_volume   410.15921087
_cell_formula_units_Z   4
loop_
 _symmetry_equiv_pos_site_id
 _symmetry_equiv_pos_as_xyz
  1  'x, y, z'
loop_
 _atom_site_type_symbol
 _atom_site_label
 _atom_site_symmetry_multiplicity
 _atom_site_fract_x
 _atom_site_fract_y
 _atom_site_fract_z
 _atom_site_occupancy
  Na  Na0  1  0.58133800  0.30087300  0.22065000  1
  Na  Na1  1  0.91866200  0.80087300  0.22065000  1
  Na  Na2  1  0.08133800  0.19912700  0.77935000  1
  Na  Na3  1  0.41866200  0.69912700  0.77935000  1
  Sc  Sc4  1  0.82783000  0.78321200  0.75401900  1
  Sc  Sc5  1  0.17217000  0.21678800  0.24598100  1
  Sc  Sc6  1  0.67217000  0.28321200  0.75401900  1
  Sc  Sc7  1  0.32783000  0.71678800  0.24598100  1
  B  B8  1  0.61975200  0.83031400  0.09024200  1
  B  B9  1  0.11975200  0.66968600  0.90975800  1
  B  B10  1  0.38024800  0.16968600  0.90975800  1
  B  B11  1  0.90484300  0.25416500  0.44549200  1
  B  B12  1  0.59515700  0.75416500  0.44549200  1
  B  B13  1  0.88024800  0.33031400  0.09024200  1
  B  B14  1  0.09515700  0.74583500  0.55450800  1
  B  B15  1  0.40484300  0.24583500  0.55450800  1
  O  O16  1  0.33080100  0.15711100  0.73041500  1
  O  O17  1  0.49905400  0.27873200  0.92057600  1
  O  O18  1  0.70466000  0.92534500  0.93432500  1
  O  O19  1  0.83080100  0.34288900  0.26958500  1
  O  O20  1  0.33101900  0.34060800  0.38670300  1
  O  O21  1  0.95862800  0.73309700  0.55278900  1
  O  O22  1  0.16898100  0.84060800  0.38670300  1
  O  O23  1  0.00094600  0.77873200  0.92057600  1
  O  O24  1  0.66919900  0.84288900  0.26958500  1
  O  O25  1  0.79534000  0.42534500  0.93432500  1
  O  O26  1  0.66898100  0.65939200  0.61329700  1
  O  O27  1  0.04137200  0.26690300  0.44721100  1
  O  O28  1  0.54137200  0.23309700  0.55278900  1
  O  O29  1  0.50094600  0.72126800  0.07942400  1
  O  O30  1  0.45862800  0.76690300  0.44721100  1
  O  O31  1  0.20466000  0.57465500  0.06567500  1
  O  O32  1  0.29534000  0.07465500  0.06567500  1
  O  O33  1  0.99905400  0.22126800  0.07942400  1
  O  O34  1  0.16919900  0.65711100  0.73041500  1
  O  O35  1  0.83101900  0.15939200  0.61329700  1
