# generated using pymatgen
data_SbTe(ClF2)3
_symmetry_space_group_name_H-M   'P 1'
_cell_length_a   6.53993300
_cell_length_b   8.66915000
_cell_length_c   17.50126300
_cell_angle_alpha   90.00000000
_cell_angle_beta   90.00000000
_cell_angle_gamma   90.00000000
_symmetry_Int_Tables_number   1
_chemical_formula_structural   SbTe(ClF2)3
_chemical_formula_sum   'Sb4 Te4 Cl12 F24'
_cell_volume   992.24565954
_cell_formula_units_Z   4
loop_
 _symmetry_equiv_pos_site_id
 _symmetry_equiv_pos_as_xyz
  1  'x, y, z'
loop_
 _atom_site_type_symbol
 _atom_site_label
 _atom_site_symmetry_multiplicity
 _atom_site_fract_x
 _atom_site_fract_y
 _atom_site_fract_z
 _atom_site_occupancy
  Sb  Sb0  1  0.84806900  0.25000000  0.57508500  1
  Sb  Sb1  1  0.34806900  0.75000000  0.92491500  1
  Sb  Sb2  1  0.15193100  0.75000000  0.42491500  1
  Sb  Sb3  1  0.65193100  0.25000000  0.07508500  1
  Te  Te4  1  0.12883900  0.25000000  0.89577000  1
  Te  Te5  1  0.62883900  0.75000000  0.60423000  1
  Te  Te6  1  0.87116100  0.75000000  0.10423000  1
  Te  Te7  1  0.37116100  0.25000000  0.39577000  1
  Cl  Cl8  1  0.59210200  0.44318400  0.35709500  1
  Cl  Cl9  1  0.40789800  0.94318400  0.64290500  1
  Cl  Cl10  1  0.59210200  0.05681600  0.35709500  1
  Cl  Cl11  1  0.09210200  0.94318400  0.14290500  1
  Cl  Cl12  1  0.66455500  0.75000000  0.21140400  1
  Cl  Cl13  1  0.90789800  0.44318400  0.85709500  1
  Cl  Cl14  1  0.83544500  0.75000000  0.71140400  1
  Cl  Cl15  1  0.90789800  0.05681600  0.85709500  1
  Cl  Cl16  1  0.09210200  0.55681600  0.14290500  1
  Cl  Cl17  1  0.40789800  0.55681600  0.64290500  1
  Cl  Cl18  1  0.33544500  0.25000000  0.78859600  1
  Cl  Cl19  1  0.16455500  0.25000000  0.28859600  1
  F  F20  1  0.57839400  0.25000000  0.52701600  1
  F  F21  1  0.72741100  0.25000000  0.67412900  1
  F  F22  1  0.27258900  0.75000000  0.32587100  1
  F  F23  1  0.96278100  0.25000000  0.47428700  1
  F  F24  1  0.53721900  0.25000000  0.97428700  1
  F  F25  1  0.77258900  0.25000000  0.17412900  1
  F  F26  1  0.61660300  0.75000000  0.88270900  1
  F  F27  1  0.33995800  0.52691500  0.92636500  1
  F  F28  1  0.22741100  0.75000000  0.82587100  1
  F  F29  1  0.16004200  0.52691500  0.42636500  1
  F  F30  1  0.38339700  0.25000000  0.11729100  1
  F  F31  1  0.03721900  0.75000000  0.52571300  1
  F  F32  1  0.88339700  0.75000000  0.38270900  1
  F  F33  1  0.07839400  0.75000000  0.97298400  1
  F  F34  1  0.83995800  0.47308500  0.57363500  1
  F  F35  1  0.46278100  0.75000000  0.02571300  1
  F  F36  1  0.83995800  0.02691500  0.57363500  1
  F  F37  1  0.66004200  0.02691500  0.07363500  1
  F  F38  1  0.92160600  0.25000000  0.02701600  1
  F  F39  1  0.33995800  0.97308500  0.92636500  1
  F  F40  1  0.66004200  0.47308500  0.07363500  1
  F  F41  1  0.16004200  0.97308500  0.42636500  1
  F  F42  1  0.11660300  0.25000000  0.61729100  1
  F  F43  1  0.42160600  0.75000000  0.47298400  1
