# generated using pymatgen
data_Nd4Te3N2
_symmetry_space_group_name_H-M   'P 1'
_cell_length_a   7.43035200
_cell_length_b   11.43199300
_cell_length_c   11.78029500
_cell_angle_alpha   90.00000000
_cell_angle_beta   90.00000000
_cell_angle_gamma   90.00000000
_symmetry_Int_Tables_number   1
_chemical_formula_structural   Nd4Te3N2
_chemical_formula_sum   'Nd16 Te12 N8'
_cell_volume   1000.66222197
_cell_formula_units_Z   4
loop_
 _symmetry_equiv_pos_site_id
 _symmetry_equiv_pos_as_xyz
  1  'x, y, z'
loop_
 _atom_site_type_symbol
 _atom_site_label
 _atom_site_symmetry_multiplicity
 _atom_site_fract_x
 _atom_site_fract_y
 _atom_site_fract_z
 _atom_site_occupancy
  Nd  Nd0  1  0.14517300  0.39037300  0.95061100  1
  Nd  Nd1  1  0.40952600  0.15878300  0.25000000  1
  Nd  Nd2  1  0.35482700  0.89037300  0.04938900  1
  Nd  Nd3  1  0.73051400  0.46847900  0.75000000  1
  Nd  Nd4  1  0.85482700  0.60962700  0.45061100  1
  Nd  Nd5  1  0.76948600  0.96847900  0.25000000  1
  Nd  Nd6  1  0.26948600  0.53152100  0.25000000  1
  Nd  Nd7  1  0.14517300  0.39037300  0.54938900  1
  Nd  Nd8  1  0.35482700  0.89037300  0.45061100  1
  Nd  Nd9  1  0.09047400  0.65878300  0.75000000  1
  Nd  Nd10  1  0.90952600  0.34121700  0.25000000  1
  Nd  Nd11  1  0.23051400  0.03152100  0.75000000  1
  Nd  Nd12  1  0.64517300  0.10962700  0.54938900  1
  Nd  Nd13  1  0.59047400  0.84121700  0.75000000  1
  Nd  Nd14  1  0.85482700  0.60962700  0.04938900  1
  Nd  Nd15  1  0.64517300  0.10962700  0.95061100  1
  Te  Te16  1  0.06550000  0.13567100  0.07922800  1
  Te  Te17  1  0.08293700  0.77459700  0.25000000  1
  Te  Te18  1  0.56550000  0.36432900  0.07922800  1
  Te  Te19  1  0.58293700  0.72540300  0.25000000  1
  Te  Te20  1  0.93450000  0.86432900  0.92077200  1
  Te  Te21  1  0.43450000  0.63567100  0.92077200  1
  Te  Te22  1  0.91706300  0.22540300  0.75000000  1
  Te  Te23  1  0.93450000  0.86432900  0.57922800  1
  Te  Te24  1  0.06550000  0.13567100  0.42077200  1
  Te  Te25  1  0.43450000  0.63567100  0.57922800  1
  Te  Te26  1  0.56550000  0.36432900  0.42077200  1
  Te  Te27  1  0.41706300  0.27459700  0.75000000  1
  N  N28  1  0.44714500  0.96762100  0.62192000  1
  N  N29  1  0.55285500  0.03237900  0.12192000  1
  N  N30  1  0.94714500  0.53237900  0.62192000  1
  N  N31  1  0.05285500  0.46762100  0.37808000  1
  N  N32  1  0.94714500  0.53237900  0.87808000  1
  N  N33  1  0.05285500  0.46762100  0.12192000  1
  N  N34  1  0.55285500  0.03237900  0.37808000  1
  N  N35  1  0.44714500  0.96762100  0.87808000  1
