# generated using pymatgen
data_NaLa4I7N2
_symmetry_space_group_name_H-M   'P 1'
_cell_length_a   11.33630600
_cell_length_b   12.15869900
_cell_length_c   14.46636500
_cell_angle_alpha   90.00000000
_cell_angle_beta   90.00000000
_cell_angle_gamma   90.00000000
_symmetry_Int_Tables_number   1
_chemical_formula_structural   NaLa4I7N2
_chemical_formula_sum   'Na4 La16 I28 N8'
_cell_volume   1993.96754895
_cell_formula_units_Z   4
loop_
 _symmetry_equiv_pos_site_id
 _symmetry_equiv_pos_as_xyz
  1  'x, y, z'
loop_
 _atom_site_type_symbol
 _atom_site_label
 _atom_site_symmetry_multiplicity
 _atom_site_fract_x
 _atom_site_fract_y
 _atom_site_fract_z
 _atom_site_occupancy
  Na  Na0  1  0.54776800  0.75203800  0.59233100  1
  Na  Na1  1  0.95223200  0.75203800  0.09233100  1
  Na  Na2  1  0.04776800  0.25203800  0.90766900  1
  Na  Na3  1  0.45223200  0.25203800  0.40766900  1
  La  La4  1  0.08623400  0.81703300  0.60265500  1
  La  La5  1  0.62354800  0.07547900  0.08385900  1
  La  La6  1  0.10688900  0.05322600  0.41208000  1
  La  La7  1  0.39311100  0.05322600  0.91208000  1
  La  La8  1  0.62163200  0.81064600  0.91358500  1
  La  La9  1  0.37836800  0.31064600  0.08641500  1
  La  La10  1  0.12354800  0.57547900  0.41614100  1
  La  La11  1  0.91376600  0.31703300  0.39734500  1
  La  La12  1  0.60688900  0.55322600  0.08792000  1
  La  La13  1  0.41376600  0.81703300  0.10265500  1
  La  La14  1  0.12163200  0.31064600  0.58641500  1
  La  La15  1  0.89311100  0.55322600  0.58792000  1
  La  La16  1  0.58623400  0.31703300  0.89734500  1
  La  La17  1  0.37645200  0.57547900  0.91614100  1
  La  La18  1  0.87836800  0.81064600  0.41358500  1
  La  La19  1  0.87645200  0.07547900  0.58385900  1
  I  I20  1  0.57417000  0.53651100  0.75213400  1
  I  I21  1  0.68917900  0.28739400  0.52782800  1
  I  I22  1  0.65189400  0.95654300  0.48155400  1
  I  I23  1  0.92583000  0.53651100  0.25213400  1
  I  I24  1  0.82032500  0.61046900  0.94947400  1
  I  I25  1  0.40209300  0.82569800  0.76503700  1
  I  I26  1  0.62809900  0.08398800  0.77547300  1
  I  I27  1  0.07417000  0.03651100  0.74786600  1
  I  I28  1  0.81444000  0.79654200  0.70021200  1
  I  I29  1  0.84810600  0.95654300  0.98155400  1
  I  I30  1  0.15189400  0.45654300  0.01844600  1
  I  I31  1  0.59790700  0.32569800  0.23496300  1
  I  I32  1  0.09790700  0.82569800  0.26503700  1
  I  I33  1  0.68556000  0.79654200  0.20021200  1
  I  I34  1  0.17967500  0.11046900  0.05052600  1
  I  I35  1  0.31082100  0.78739400  0.47217200  1
  I  I36  1  0.31444000  0.29654200  0.79978800  1
  I  I37  1  0.90209300  0.32569800  0.73496300  1
  I  I38  1  0.18917900  0.78739400  0.97217200  1
  I  I39  1  0.81082100  0.28739400  0.02782800  1
  I  I40  1  0.42583000  0.03651100  0.24786600  1
  I  I41  1  0.37190100  0.58398800  0.22452700  1
  I  I42  1  0.32032500  0.11046900  0.55052600  1
  I  I43  1  0.87190100  0.08398800  0.27547300  1
  I  I44  1  0.12809900  0.58398800  0.72452700  1
  I  I45  1  0.67967500  0.61046900  0.44947400  1
  I  I46  1  0.18556000  0.29654200  0.29978800  1
  I  I47  1  0.34810600  0.45654300  0.51844600  1
  N  N48  1  0.99545500  0.68857300  0.50324800  1
  N  N49  1  0.01233500  0.43950200  0.49693100  1
  N  N50  1  0.98766500  0.93950200  0.50306900  1
  N  N51  1  0.51233500  0.93950200  0.00306900  1
  N  N52  1  0.48766500  0.43950200  0.99693100  1
  N  N53  1  0.00454500  0.18857300  0.49675200  1
  N  N54  1  0.50454500  0.68857300  0.00324800  1
  N  N55  1  0.49545500  0.18857300  0.99675200  1
