# generated using pymatgen
data_Ba5Ru2Cl2O9
_symmetry_space_group_name_H-M   'P 1'
_cell_length_a   5.92206771
_cell_length_b   5.92206771
_cell_length_c   25.21492500
_cell_angle_alpha   90.00000000
_cell_angle_beta   90.00000000
_cell_angle_gamma   119.99999680
_symmetry_Int_Tables_number   1
_chemical_formula_structural   Ba5Ru2Cl2O9
_chemical_formula_sum   'Ba10 Ru4 Cl4 O18'
_cell_volume   765.83474188
_cell_formula_units_Z   2
loop_
 _symmetry_equiv_pos_site_id
 _symmetry_equiv_pos_as_xyz
  1  'x, y, z'
loop_
 _atom_site_type_symbol
 _atom_site_label
 _atom_site_symmetry_multiplicity
 _atom_site_fract_x
 _atom_site_fract_y
 _atom_site_fract_z
 _atom_site_occupancy
  Ba  Ba0  1  0.66666700  0.33333300  0.82894300  1
  Ba  Ba1  1  0.33333300  0.66666700  0.17105700  1
  Ba  Ba2  1  0.33333300  0.66666700  0.58177900  1
  Ba  Ba3  1  0.33333300  0.66666700  0.32894300  1
  Ba  Ba4  1  0.33333300  0.66666700  0.91822100  1
  Ba  Ba5  1  0.66666700  0.33333300  0.08177900  1
  Ba  Ba6  1  0.66666700  0.33333300  0.41822100  1
  Ba  Ba7  1  0.66666700  0.33333300  0.67105700  1
  Ba  Ba8  1  0.66666700  0.33333300  0.25000000  1
  Ba  Ba9  1  0.33333300  0.66666700  0.75000000  1
  Ru  Ru10  1  0.00000000  0.00000000  0.80665700  1
  Ru  Ru11  1  0.00000000  0.00000000  0.30665700  1
  Ru  Ru12  1  0.00000000  0.00000000  0.19334300  1
  Ru  Ru13  1  0.00000000  0.00000000  0.69334300  1
  Cl  Cl14  1  0.66666700  0.33333300  0.54600200  1
  Cl  Cl15  1  0.33333300  0.66666700  0.45399800  1
  Cl  Cl16  1  0.33333300  0.66666700  0.04600200  1
  Cl  Cl17  1  0.66666700  0.33333300  0.95399800  1
  O  O18  1  0.15097200  0.30194300  0.25000000  1
  O  O19  1  0.16001800  0.83998200  0.84473800  1
  O  O20  1  0.83998200  0.16001800  0.15526200  1
  O  O21  1  0.83998200  0.67996300  0.15526200  1
  O  O22  1  0.16001800  0.32003700  0.84473800  1
  O  O23  1  0.83998200  0.67996300  0.34473800  1
  O  O24  1  0.69805700  0.84902800  0.25000000  1
  O  O25  1  0.84902800  0.15097200  0.75000000  1
  O  O26  1  0.67996300  0.83998200  0.65526200  1
  O  O27  1  0.32003700  0.16001800  0.34473800  1
  O  O28  1  0.84902800  0.69805700  0.75000000  1
  O  O29  1  0.83998200  0.16001800  0.34473800  1
  O  O30  1  0.67996300  0.83998200  0.84473800  1
  O  O31  1  0.16001800  0.32003700  0.65526200  1
  O  O32  1  0.16001800  0.83998200  0.65526200  1
  O  O33  1  0.30194300  0.15097200  0.75000000  1
  O  O34  1  0.15097200  0.84902800  0.25000000  1
  O  O35  1  0.32003700  0.16001800  0.15526200  1
