# generated using pymatgen
data_Cs2NiH12(SO7)2
_symmetry_space_group_name_H-M   'P 1'
_cell_length_a   12.86981800
_cell_length_b   6.43421100
_cell_length_c   9.29136466
_cell_angle_alpha   73.70395597
_cell_angle_beta   90.00000000
_cell_angle_gamma   90.00000000
_symmetry_Int_Tables_number   1
_chemical_formula_structural   Cs2NiH12(SO7)2
_chemical_formula_sum   'Cs4 Ni2 H24 S4 O28'
_cell_volume   738.48064406
_cell_formula_units_Z   2
loop_
 _symmetry_equiv_pos_site_id
 _symmetry_equiv_pos_as_xyz
  1  'x, y, z'
loop_
 _atom_site_type_symbol
 _atom_site_label
 _atom_site_symmetry_multiplicity
 _atom_site_fract_x
 _atom_site_fract_y
 _atom_site_fract_z
 _atom_site_occupancy
  Cs  Cs0  1  0.35582500  0.64864000  0.12737700  1
  Cs  Cs1  1  0.85582500  0.35136000  0.37262300  1
  Cs  Cs2  1  0.64417500  0.35136000  0.87262300  1
  Cs  Cs3  1  0.14417500  0.64864000  0.62737700  1
  Ni  Ni4  1  0.00000000  0.00000000  0.00000000  1
  Ni  Ni5  1  0.50000000  0.00000000  0.50000000  1
  H  H6  1  0.09839000  0.68583600  0.20692100  1
  H  H7  1  0.59839000  0.31416400  0.29307900  1
  H  H8  1  0.90161000  0.31416400  0.79307900  1
  H  H9  1  0.40161000  0.68583600  0.70692100  1
  H  H10  1  0.12999400  0.91630800  0.23411400  1
  H  H11  1  0.62999400  0.08369200  0.26588600  1
  H  H12  1  0.87000600  0.08369200  0.76588600  1
  H  H13  1  0.37000600  0.91630800  0.73411400  1
  H  H14  1  0.09531200  0.07338900  0.72443500  1
  H  H15  1  0.59531200  0.92661100  0.77556500  1
  H  H16  1  0.90468800  0.92661100  0.27556500  1
  H  H17  1  0.40468800  0.07338900  0.22443500  1
  H  H18  1  0.18147800  0.01182900  0.85053800  1
  H  H19  1  0.68147800  0.98817100  0.64946200  1
  H  H20  1  0.81852200  0.98817100  0.14946200  1
  H  H21  1  0.31852200  0.01182900  0.35053800  1
  H  H22  1  0.94079500  0.67069200  0.90222500  1
  H  H23  1  0.44079500  0.32930800  0.59777500  1
  H  H24  1  0.05920500  0.32930800  0.09777500  1
  H  H25  1  0.55920500  0.67069200  0.40222500  1
  H  H26  1  0.86206000  0.69273400  0.02602500  1
  H  H27  1  0.36206000  0.30726600  0.47397500  1
  H  H28  1  0.13794000  0.30726600  0.97397500  1
  H  H29  1  0.63794000  0.69273400  0.52602500  1
  S  S30  1  0.14825300  0.25904000  0.39475500  1
  S  S31  1  0.64825300  0.74096000  0.10524500  1
  S  S32  1  0.85174700  0.74096000  0.60524500  1
  S  S33  1  0.35174700  0.25904000  0.89475500  1
  O  O34  1  0.24035400  0.38667900  0.41817200  1
  O  O35  1  0.74035400  0.61332100  0.08182800  1
  O  O36  1  0.75964600  0.61332100  0.58182800  1
  O  O37  1  0.25964600  0.38667900  0.91817200  1
  O  O38  1  0.08215900  0.20258200  0.53190400  1
  O  O39  1  0.58215900  0.79741800  0.96809600  1
  O  O40  1  0.91784100  0.79741800  0.46809600  1
  O  O41  1  0.41784100  0.20258200  0.03190400  1
  O  O42  1  0.08556000  0.39646500  0.26691100  1
  O  O43  1  0.58556000  0.60353500  0.23308900  1
  O  O44  1  0.91444000  0.60353500  0.73308900  1
  O  O45  1  0.41444000  0.39646500  0.76691100  1
  O  O46  1  0.18396900  0.05770700  0.35799400  1
  O  O47  1  0.68396900  0.94229300  0.14200600  1
  O  O48  1  0.81603100  0.94229300  0.64200600  1
  O  O49  1  0.31603100  0.05770700  0.85799400  1
  O  O50  1  0.11225100  0.84151900  0.15732400  1
  O  O51  1  0.61225100  0.15848100  0.34267600  1
  O  O52  1  0.88774900  0.15848100  0.84267600  1
  O  O53  1  0.38774900  0.84151900  0.65732400  1
  O  O54  1  0.10750200  0.98496600  0.82943200  1
  O  O55  1  0.60750200  0.01503400  0.67056800  1
  O  O56  1  0.89249800  0.01503400  0.17056800  1
  O  O57  1  0.39249800  0.98496600  0.32943200  1
  O  O58  1  0.93714500  0.70900600  0.99844300  1
  O  O59  1  0.43714500  0.29099400  0.50155700  1
  O  O60  1  0.06285500  0.29099400  0.00155700  1
  O  O61  1  0.56285500  0.70900600  0.49844300  1
