# generated using pymatgen
data_Ba3BiN
_symmetry_space_group_name_H-M   'P 1'
_cell_length_a   7.78049670
_cell_length_b   7.78049670
_cell_length_c   6.80394400
_cell_angle_alpha   90.00000000
_cell_angle_beta   90.00000000
_cell_angle_gamma   120.00000596
_symmetry_Int_Tables_number   1
_chemical_formula_structural   Ba3BiN
_chemical_formula_sum   'Ba6 Bi2 N2'
_cell_volume   356.70235937
_cell_formula_units_Z   2
loop_
 _symmetry_equiv_pos_site_id
 _symmetry_equiv_pos_as_xyz
  1  'x, y, z'
loop_
 _atom_site_type_symbol
 _atom_site_label
 _atom_site_symmetry_multiplicity
 _atom_site_fract_x
 _atom_site_fract_y
 _atom_site_fract_z
 _atom_site_occupancy
  Ba  Ba0  1  0.15728500  0.84271500  0.25000000  1
  Ba  Ba1  1  0.84271500  0.68542900  0.75000000  1
  Ba  Ba2  1  0.31457100  0.15728500  0.75000000  1
  Ba  Ba3  1  0.84271500  0.15728500  0.75000000  1
  Ba  Ba4  1  0.68542900  0.84271500  0.25000000  1
  Ba  Ba5  1  0.15728500  0.31457100  0.25000000  1
  Bi  Bi6  1  0.33333300  0.66666700  0.75000000  1
  Bi  Bi7  1  0.66666700  0.33333300  0.25000000  1
  N  N8  1  0.00000000  0.00000000  0.00000000  1
  N  N9  1  0.00000000  0.00000000  0.50000000  1
