# generated using pymatgen
data_NiBiAsO5
_symmetry_space_group_name_H-M   'P 1'
_cell_length_a   5.32623608
_cell_length_b   7.70793291
_cell_length_c   11.35463755
_cell_angle_alpha   93.65823031
_cell_angle_beta   96.66793061
_cell_angle_gamma   70.52281697
_symmetry_Int_Tables_number   1
_chemical_formula_structural   NiBiAsO5
_chemical_formula_sum   'Ni4 Bi4 As4 O20'
_cell_volume   436.35082549
_cell_formula_units_Z   4
loop_
 _symmetry_equiv_pos_site_id
 _symmetry_equiv_pos_as_xyz
  1  'x, y, z'
loop_
 _atom_site_type_symbol
 _atom_site_label
 _atom_site_symmetry_multiplicity
 _atom_site_fract_x
 _atom_site_fract_y
 _atom_site_fract_z
 _atom_site_occupancy
  Ni  Ni0  1  0.78105200  0.05113500  0.68611900  1
  Ni  Ni1  1  0.21869400  0.94869000  0.31381100  1
  Ni  Ni2  1  0.28112500  0.55124900  0.18600000  1
  Ni  Ni3  1  0.71904900  0.44872300  0.81405400  1
  Bi  Bi4  1  0.80141900  0.59997400  0.36470800  1
  Bi  Bi5  1  0.30148800  0.10000800  0.86469200  1
  Bi  Bi6  1  0.19859800  0.40003500  0.63530100  1
  Bi  Bi7  1  0.69846500  0.90003400  0.13530300  1
  As  As8  1  0.13095500  0.71160200  0.89857700  1
  As  As9  1  0.63089300  0.21157600  0.39857700  1
  As  As10  1  0.86907500  0.28841900  0.10143700  1
  As  As11  1  0.36910600  0.78841400  0.60141500  1
  O  O12  1  0.49859400  0.27186700  0.77494200  1
  O  O13  1  0.99853500  0.77181900  0.27489700  1
  O  O14  1  0.50142400  0.72813700  0.22506200  1
  O  O15  1  0.00143100  0.22816200  0.72509600  1
  O  O16  1  0.95629400  0.31122600  0.96255700  1
  O  O17  1  0.45627500  0.81127400  0.46252500  1
  O  O18  1  0.04374400  0.68880200  0.03746100  1
  O  O19  1  0.54373600  0.18875800  0.53747600  1
  O  O20  1  0.00697800  0.57383700  0.79904900  1
  O  O21  1  0.50691900  0.07382100  0.29901800  1
  O  O22  1  0.99303800  0.42619800  0.20095700  1
  O  O23  1  0.49304300  0.92617800  0.70098300  1
  O  O24  1  0.52258700  0.55985600  0.64313400  1
  O  O25  1  0.02252200  0.05983500  0.14310300  1
  O  O26  1  0.47745100  0.44016300  0.35687500  1
  O  O27  1  0.97748100  0.94017900  0.85688700  1
  O  O28  1  0.53190700  0.33364000  0.09608200  1
  O  O29  1  0.03194300  0.83365700  0.59610500  1
  O  O30  1  0.46811900  0.66639500  0.90392100  1
  O  O31  1  0.96806200  0.16633700  0.40387500  1
