# generated using pymatgen
data_Ba5Ru2Br2O9
_symmetry_space_group_name_H-M   'P 1'
_cell_length_a   5.93661577
_cell_length_b   5.93661577
_cell_length_c   25.92824800
_cell_angle_alpha   90.00000000
_cell_angle_beta   90.00000000
_cell_angle_gamma   119.99999741
_symmetry_Int_Tables_number   1
_chemical_formula_structural   Ba5Ru2Br2O9
_chemical_formula_sum   'Ba10 Ru4 Br4 O18'
_cell_volume   791.37385374
_cell_formula_units_Z   2
loop_
 _symmetry_equiv_pos_site_id
 _symmetry_equiv_pos_as_xyz
  1  'x, y, z'
loop_
 _atom_site_type_symbol
 _atom_site_label
 _atom_site_symmetry_multiplicity
 _atom_site_fract_x
 _atom_site_fract_y
 _atom_site_fract_z
 _atom_site_occupancy
  Ba  Ba0  1  0.33333300  0.66666700  0.91370600  1
  Ba  Ba1  1  0.66666700  0.33333300  0.41370600  1
  Ba  Ba2  1  0.66666700  0.33333300  0.08629400  1
  Ba  Ba3  1  0.33333300  0.66666700  0.17350700  1
  Ba  Ba4  1  0.66666700  0.33333300  0.67350700  1
  Ba  Ba5  1  0.33333300  0.66666700  0.32649300  1
  Ba  Ba6  1  0.66666700  0.33333300  0.82649300  1
  Ba  Ba7  1  0.66666700  0.33333300  0.25000000  1
  Ba  Ba8  1  0.33333300  0.66666700  0.58629400  1
  Ba  Ba9  1  0.33333300  0.66666700  0.75000000  1
  Ru  Ru10  1  0.00000000  0.00000000  0.80511900  1
  Ru  Ru11  1  0.00000000  0.00000000  0.30511900  1
  Ru  Ru12  1  0.00000000  0.00000000  0.69488100  1
  Ru  Ru13  1  0.00000000  0.00000000  0.19488100  1
  Br  Br14  1  0.33333300  0.66666700  0.45401900  1
  Br  Br15  1  0.33333300  0.66666700  0.04598100  1
  Br  Br16  1  0.66666700  0.33333300  0.54598100  1
  Br  Br17  1  0.66666700  0.33333300  0.95401900  1
  O  O18  1  0.15984600  0.84015400  0.65794600  1
  O  O19  1  0.68030900  0.84015400  0.84205400  1
  O  O20  1  0.15984600  0.31969100  0.65794600  1
  O  O21  1  0.84905900  0.15094100  0.75000000  1
  O  O22  1  0.30188200  0.15094100  0.75000000  1
  O  O23  1  0.15094100  0.30188200  0.25000000  1
  O  O24  1  0.15094100  0.84905900  0.25000000  1
  O  O25  1  0.69811800  0.84905900  0.25000000  1
  O  O26  1  0.84015400  0.15984600  0.34205400  1
  O  O27  1  0.31969100  0.15984600  0.15794600  1
  O  O28  1  0.84905900  0.69811800  0.75000000  1
  O  O29  1  0.84015400  0.68030900  0.15794600  1
  O  O30  1  0.31969100  0.15984600  0.34205400  1
  O  O31  1  0.84015400  0.15984600  0.15794600  1
  O  O32  1  0.15984600  0.31969100  0.84205400  1
  O  O33  1  0.84015400  0.68030900  0.34205400  1
  O  O34  1  0.68030900  0.84015400  0.65794600  1
  O  O35  1  0.15984600  0.84015400  0.84205400  1
