# generated using pymatgen
data_CsMo(PO4)2
_symmetry_space_group_name_H-M   'P 1'
_cell_length_a   5.26306700
_cell_length_b   12.03878700
_cell_length_c   13.28708307
_cell_angle_alpha   90.00000000
_cell_angle_beta   111.96173877
_cell_angle_gamma   90.00000000
_symmetry_Int_Tables_number   1
_chemical_formula_structural   CsMo(PO4)2
_chemical_formula_sum   'Cs4 Mo4 P8 O32'
_cell_volume   780.78992571
_cell_formula_units_Z   4
loop_
 _symmetry_equiv_pos_site_id
 _symmetry_equiv_pos_as_xyz
  1  'x, y, z'
loop_
 _atom_site_type_symbol
 _atom_site_label
 _atom_site_symmetry_multiplicity
 _atom_site_fract_x
 _atom_site_fract_y
 _atom_site_fract_z
 _atom_site_occupancy
  Cs  Cs0  1  0.28281100  0.16029700  0.55159500  1
  Cs  Cs1  1  0.28281100  0.33970300  0.05159500  1
  Cs  Cs2  1  0.71718900  0.83970300  0.44840500  1
  Cs  Cs3  1  0.71718900  0.66029700  0.94840500  1
  Mo  Mo4  1  0.95021200  0.45258100  0.68797900  1
  Mo  Mo5  1  0.95021200  0.04741900  0.18797900  1
  Mo  Mo6  1  0.04978800  0.54741900  0.31202100  1
  Mo  Mo7  1  0.04978800  0.95258100  0.81202100  1
  P  P8  1  0.54678800  0.33246800  0.80945300  1
  P  P9  1  0.54678800  0.16753200  0.30945300  1
  P  P10  1  0.45321200  0.66753200  0.19054700  1
  P  P11  1  0.45321200  0.83246800  0.69054700  1
  P  P12  1  0.63971500  0.10285300  0.91683600  1
  P  P13  1  0.63971500  0.39714700  0.41683600  1
  P  P14  1  0.36028500  0.89714700  0.08316400  1
  P  P15  1  0.36028500  0.60285300  0.58316400  1
  O  O16  1  0.05956300  0.53438100  0.80178400  1
  O  O17  1  0.05956300  0.96561900  0.30178400  1
  O  O18  1  0.94043700  0.46561900  0.19821600  1
  O  O19  1  0.94043700  0.03438100  0.69821600  1
  O  O20  1  0.22958400  0.32652600  0.75038200  1
  O  O21  1  0.22958400  0.17347400  0.25038200  1
  O  O22  1  0.77041600  0.67347400  0.24961800  1
  O  O23  1  0.77041600  0.82652600  0.74961800  1
  O  O24  1  0.67535400  0.35765000  0.72499100  1
  O  O25  1  0.67535400  0.14235000  0.22499100  1
  O  O26  1  0.32464600  0.64235000  0.27500900  1
  O  O27  1  0.32464600  0.85765000  0.77500900  1
  O  O28  1  0.20822400  0.51208000  0.61792500  1
  O  O29  1  0.20822400  0.98792000  0.11792500  1
  O  O30  1  0.79177600  0.48792000  0.38207500  1
  O  O31  1  0.79177600  0.01208000  0.88207500  1
  O  O32  1  0.65622600  0.56934800  0.60245600  1
  O  O33  1  0.65622600  0.93065200  0.10245600  1
  O  O34  1  0.34377400  0.43065200  0.39754400  1
  O  O35  1  0.34377400  0.06934800  0.89754400  1
  O  O36  1  0.78666700  0.35678500  0.53322600  1
  O  O37  1  0.78666700  0.14321500  0.03322600  1
  O  O38  1  0.21333300  0.64321500  0.46677400  1
  O  O39  1  0.21333300  0.85678500  0.96677400  1
  O  O40  1  0.64864000  0.40001400  0.91148500  1
  O  O41  1  0.64864000  0.09998600  0.41148500  1
  O  O42  1  0.35136000  0.59998600  0.08851500  1
  O  O43  1  0.35136000  0.90001400  0.58851500  1
  O  O44  1  0.62875300  0.20227600  0.83456200  1
  O  O45  1  0.62875300  0.29772400  0.33456200  1
  O  O46  1  0.37124700  0.79772400  0.16543800  1
  O  O47  1  0.37124700  0.70227600  0.66543800  1
