# generated using pymatgen
data_Nb(PS4)2
_symmetry_space_group_name_H-M   'P 1'
_cell_length_a   11.78180590
_cell_length_b   11.78180590
_cell_length_c   10.82198200
_cell_angle_alpha   90.00000000
_cell_angle_beta   90.00000000
_cell_angle_gamma   118.96429793
_symmetry_Int_Tables_number   1
_chemical_formula_structural   Nb(PS4)2
_chemical_formula_sum   'Nb4 P8 S32'
_cell_volume   1314.31567908
_cell_formula_units_Z   4
loop_
 _symmetry_equiv_pos_site_id
 _symmetry_equiv_pos_as_xyz
  1  'x, y, z'
loop_
 _atom_site_type_symbol
 _atom_site_label
 _atom_site_symmetry_multiplicity
 _atom_site_fract_x
 _atom_site_fract_y
 _atom_site_fract_z
 _atom_site_occupancy
  Nb  Nb0  1  0.42833200  0.57166800  0.50000000  1
  Nb  Nb1  1  0.57166800  0.42833200  0.50000000  1
  Nb  Nb2  1  0.92833200  0.07166800  0.00000000  1
  Nb  Nb3  1  0.07166800  0.92833200  0.00000000  1
  P  P4  1  0.49576500  0.87446100  0.51357800  1
  P  P5  1  0.99576500  0.37446100  0.98642200  1
  P  P6  1  0.12553900  0.50423500  0.48642200  1
  P  P7  1  0.62553900  0.00423500  0.01357800  1
  P  P8  1  0.87446100  0.49576500  0.51357800  1
  P  P9  1  0.37446100  0.99576500  0.98642200  1
  P  P10  1  0.00423500  0.62553900  0.01357800  1
  P  P11  1  0.50423500  0.12553900  0.48642200  1
  S  S12  1  0.06350300  0.62959700  0.57321400  1
  S  S13  1  0.79831800  0.56956800  0.39245400  1
  S  S14  1  0.20168200  0.43043200  0.60754600  1
  S  S15  1  0.25557500  0.59004700  0.35202800  1
  S  S16  1  0.40995300  0.74442500  0.64797200  1
  S  S17  1  0.09004700  0.75557500  0.14797200  1
  S  S18  1  0.24442500  0.90995300  0.85202800  1
  S  S19  1  0.51408700  0.51408700  0.30965700  1
  S  S20  1  0.62959700  0.06350300  0.57321400  1
  S  S21  1  0.70168200  0.93043200  0.89245400  1
  S  S22  1  0.36103000  0.36103000  0.38891000  1
  S  S23  1  0.37040300  0.93649700  0.42678600  1
  S  S24  1  0.56350300  0.12959700  0.92678600  1
  S  S25  1  0.48591300  0.48591300  0.69034300  1
  S  S26  1  0.93043200  0.70168200  0.89245400  1
  S  S27  1  0.43043200  0.20168200  0.60754600  1
  S  S28  1  0.13897000  0.13897000  0.88891000  1
  S  S29  1  0.75557500  0.09004700  0.14797200  1
  S  S30  1  0.01408700  0.01408700  0.19034300  1
  S  S31  1  0.63897000  0.63897000  0.61109000  1
  S  S32  1  0.93649700  0.37040300  0.42678600  1
  S  S33  1  0.29831800  0.06956800  0.10754600  1
  S  S34  1  0.56956800  0.79831800  0.39245400  1
  S  S35  1  0.98591300  0.98591300  0.80965700  1
  S  S36  1  0.06956800  0.29831800  0.10754600  1
  S  S37  1  0.43649700  0.87040300  0.07321400  1
  S  S38  1  0.86103000  0.86103000  0.11109000  1
  S  S39  1  0.59004700  0.25557500  0.35202800  1
  S  S40  1  0.90995300  0.24442500  0.85202800  1
  S  S41  1  0.74442500  0.40995300  0.64797200  1
  S  S42  1  0.12959700  0.56350300  0.92678600  1
  S  S43  1  0.87040300  0.43649700  0.07321400  1
