# generated using pymatgen
data_U2MnN3
_symmetry_space_group_name_H-M   'P 1'
_cell_length_a   3.31151790
_cell_length_b   3.75140897
_cell_length_c   6.55246746
_cell_angle_alpha   106.62935580
_cell_angle_beta   104.64124698
_cell_angle_gamma   89.99981545
_symmetry_Int_Tables_number   1
_chemical_formula_structural   U2MnN3
_chemical_formula_sum   'U2 Mn1 N3'
_cell_volume   75.23311295
_cell_formula_units_Z   1
loop_
 _symmetry_equiv_pos_site_id
 _symmetry_equiv_pos_as_xyz
  1  'x, y, z'
loop_
 _atom_site_type_symbol
 _atom_site_label
 _atom_site_symmetry_multiplicity
 _atom_site_fract_x
 _atom_site_fract_y
 _atom_site_fract_z
 _atom_site_occupancy
  U  U0  1  0.35595300  0.35592300  0.71190600  1
  U  U1  1  0.64404700  0.64407700  0.28809400  1
  Mn  Mn2  1  0.00000000  0.00000000  0.00000000  1
  N  N3  1  0.16802000  0.16801600  0.33604100  1
  N  N4  1  0.83197900  0.83198400  0.66395900  1
  N  N5  1  0.00000000  0.50000000  0.00000000  1
