# generated using pymatgen
data_Ho(SiNi5)2
_symmetry_space_group_name_H-M   'P 1'
_cell_length_a   8.15331600
_cell_length_b   8.15331600
_cell_length_c   4.66919100
_cell_angle_alpha   90.00000000
_cell_angle_beta   90.00000000
_cell_angle_gamma   90.00000000
_symmetry_Int_Tables_number   1
_chemical_formula_structural   Ho(SiNi5)2
_chemical_formula_sum   'Ho2 Si4 Ni20'
_cell_volume   310.39176405
_cell_formula_units_Z   2
loop_
 _symmetry_equiv_pos_site_id
 _symmetry_equiv_pos_as_xyz
  1  'x, y, z'
loop_
 _atom_site_type_symbol
 _atom_site_label
 _atom_site_symmetry_multiplicity
 _atom_site_fract_x
 _atom_site_fract_y
 _atom_site_fract_z
 _atom_site_occupancy
  Ho  Ho0  1  0.00000000  0.50000000  0.22227300  1
  Ho  Ho1  1  0.50000000  0.00000000  0.77772700  1
  Si  Si2  1  0.75000000  0.75000000  0.50000000  1
  Si  Si3  1  0.25000000  0.75000000  0.50000000  1
  Si  Si4  1  0.75000000  0.25000000  0.50000000  1
  Si  Si5  1  0.25000000  0.25000000  0.50000000  1
  Ni  Ni6  1  0.75000000  0.25000000  0.00000000  1
  Ni  Ni7  1  0.75000000  0.75000000  0.00000000  1
  Ni  Ni8  1  0.25000000  0.25000000  0.00000000  1
  Ni  Ni9  1  0.25000000  0.75000000  0.00000000  1
  Ni  Ni10  1  0.35275900  0.50000000  0.23878100  1
  Ni  Ni11  1  0.00000000  0.14724100  0.23878100  1
  Ni  Ni12  1  0.00000000  0.85275900  0.23878100  1
  Ni  Ni13  1  0.64724100  0.50000000  0.23878100  1
  Ni  Ni14  1  0.14724100  0.00000000  0.76121900  1
  Ni  Ni15  1  0.85275900  0.00000000  0.76121900  1
  Ni  Ni16  1  0.50000000  0.35275900  0.76121900  1
  Ni  Ni17  1  0.50000000  0.64724100  0.76121900  1
  Ni  Ni18  1  0.77718000  0.50000000  0.72909400  1
  Ni  Ni19  1  0.00000000  0.72282000  0.72909400  1
  Ni  Ni20  1  0.00000000  0.27718000  0.72909400  1
  Ni  Ni21  1  0.22282000  0.50000000  0.72909400  1
  Ni  Ni22  1  0.72282000  0.00000000  0.27090600  1
  Ni  Ni23  1  0.27718000  0.00000000  0.27090600  1
  Ni  Ni24  1  0.50000000  0.77718000  0.27090600  1
  Ni  Ni25  1  0.50000000  0.22282000  0.27090600  1
