# generated using pymatgen
data_K2Cu3S3O13
_symmetry_space_group_name_H-M   'P 1'
_cell_length_a   10.78844200
_cell_length_b   10.78844200
_cell_length_c   14.48270378
_cell_angle_alpha   71.37806549
_cell_angle_beta   71.37806549
_cell_angle_gamma   53.41140279
_symmetry_Int_Tables_number   1
_chemical_formula_structural   K2Cu3S3O13
_chemical_formula_sum   'K8 Cu12 S12 O52'
_cell_volume   1264.04632634
_cell_formula_units_Z   4
loop_
 _symmetry_equiv_pos_site_id
 _symmetry_equiv_pos_as_xyz
  1  'x, y, z'
loop_
 _atom_site_type_symbol
 _atom_site_label
 _atom_site_symmetry_multiplicity
 _atom_site_fract_x
 _atom_site_fract_y
 _atom_site_fract_z
 _atom_site_occupancy
  K  K0  1  0.93399200  0.45575400  0.87443400  1
  K  K1  1  0.91970800  0.42784100  0.43987900  1
  K  K2  1  0.45575400  0.93399200  0.37443400  1
  K  K3  1  0.57215900  0.08029200  0.06012100  1
  K  K4  1  0.06600800  0.54424600  0.12556600  1
  K  K5  1  0.42784100  0.91970800  0.93987900  1
  K  K6  1  0.08029200  0.57215900  0.56012100  1
  K  K7  1  0.54424600  0.06600800  0.62556600  1
  Cu  Cu8  1  0.67634700  0.16756600  0.29381000  1
  Cu  Cu9  1  0.96057100  0.01250000  0.85704900  1
  Cu  Cu10  1  0.53906400  0.49951700  0.84078800  1
  Cu  Cu11  1  0.01250000  0.96057100  0.35704900  1
  Cu  Cu12  1  0.32365300  0.83243400  0.70619000  1
  Cu  Cu13  1  0.49951700  0.53906400  0.34078800  1
  Cu  Cu14  1  0.16756600  0.67634700  0.79381000  1
  Cu  Cu15  1  0.50048300  0.46093600  0.65921200  1
  Cu  Cu16  1  0.83243400  0.32365300  0.20619000  1
  Cu  Cu17  1  0.98750000  0.03942900  0.64295100  1
  Cu  Cu18  1  0.03942900  0.98750000  0.14295100  1
  Cu  Cu19  1  0.46093600  0.50048300  0.15921200  1
  S  S20  1  0.11550900  0.18112800  0.71441200  1
  S  S21  1  0.18112800  0.11550900  0.21441200  1
  S  S22  1  0.75691600  0.25841300  0.00788200  1
  S  S23  1  0.62369600  0.66992800  0.13594200  1
  S  S24  1  0.25841300  0.75691600  0.50788200  1
  S  S25  1  0.33007200  0.37630400  0.36405800  1
  S  S26  1  0.74158700  0.24308400  0.49211800  1
  S  S27  1  0.81887200  0.88449100  0.78558800  1
  S  S28  1  0.24308400  0.74158700  0.99211800  1
  S  S29  1  0.37630400  0.33007200  0.86405800  1
  S  S30  1  0.66992800  0.62369600  0.63594200  1
  S  S31  1  0.88449100  0.81887200  0.28558800  1
  O  O32  1  0.30968100  0.44797200  0.25841500  1
  O  O33  1  0.19963700  0.03192900  0.14111300  1
  O  O34  1  0.81447400  0.11293300  0.97224300  1
  O  O35  1  0.19332900  0.37440000  0.42319400  1
  O  O36  1  0.72225100  0.37358500  0.40882100  1
  O  O37  1  0.80667100  0.62560000  0.57680600  1
  O  O38  1  0.52923900  0.79091500  0.63164000  1
  O  O39  1  0.44797200  0.30968100  0.75841500  1
  O  O40  1  0.27774900  0.62641500  0.59117900  1
  O  O41  1  0.70056100  0.39835400  0.92685200  1
  O  O42  1  0.39835400  0.70056100  0.42685200  1
  O  O43  1  0.84648700  0.96284000  0.68153100  1
  O  O44  1  0.11458800  0.75851600  0.96109800  1
  O  O45  1  0.28254700  0.04105300  0.70024400  1
  O  O46  1  0.96284000  0.84648700  0.18153100  1
  O  O47  1  0.60164600  0.29943900  0.57314800  1
  O  O48  1  0.11293300  0.81447400  0.47224300  1
  O  O49  1  0.46661200  0.35549500  0.90848900  1
  O  O50  1  0.55202800  0.69031900  0.24158500  1
  O  O51  1  0.15351300  0.03716000  0.31846900  1
  O  O52  1  0.88218100  0.68005700  0.29853800  1
  O  O53  1  0.11781900  0.31994300  0.70146200  1
  O  O54  1  0.10650800  0.89349200  0.75000000  1
  O  O55  1  0.04105300  0.28254700  0.20024400  1
  O  O56  1  0.37440000  0.19332900  0.92319400  1
  O  O57  1  0.29943900  0.60164600  0.07314800  1
  O  O58  1  0.53338800  0.64450500  0.09151100  1
  O  O59  1  0.24148400  0.88541200  0.53890200  1
  O  O60  1  0.18552600  0.88706700  0.02775700  1
  O  O61  1  0.88541200  0.24148400  0.03890200  1
  O  O62  1  0.61300400  0.38699600  0.25000000  1
  O  O63  1  0.35549500  0.46661200  0.40848900  1
  O  O64  1  0.71745300  0.95894700  0.29975600  1
  O  O65  1  0.96807100  0.80036300  0.35888700  1
  O  O66  1  0.69031900  0.55202800  0.74158500  1
  O  O67  1  0.68005700  0.88218100  0.79853800  1
  O  O68  1  0.89349200  0.10650800  0.25000000  1
  O  O69  1  0.95894700  0.71745300  0.79975600  1
  O  O70  1  0.37358500  0.72225100  0.90882100  1
  O  O71  1  0.31994300  0.11781900  0.20146200  1
  O  O72  1  0.20908500  0.47076100  0.86836000  1
  O  O73  1  0.64450500  0.53338800  0.59151100  1
  O  O74  1  0.47076100  0.20908500  0.36836000  1
  O  O75  1  0.38699600  0.61300400  0.75000000  1
  O  O76  1  0.88706700  0.18552600  0.52775700  1
  O  O77  1  0.75851600  0.11458800  0.46109800  1
  O  O78  1  0.03192900  0.19963700  0.64111300  1
  O  O79  1  0.62641500  0.27774900  0.09117900  1
  O  O80  1  0.62560000  0.80667100  0.07680600  1
  O  O81  1  0.79091500  0.52923900  0.13164000  1
  O  O82  1  0.80036300  0.96807100  0.85888700  1
  O  O83  1  0.03716000  0.15351300  0.81846900  1
