# generated using pymatgen
data_Pr3SiSe2N3
_symmetry_space_group_name_H-M   'P 1'
_cell_length_a   11.59070481
_cell_length_b   11.59070481
_cell_length_c   11.59070425
_cell_angle_alpha   111.30250853
_cell_angle_beta   111.30250853
_cell_angle_gamma   111.30250772
_symmetry_Int_Tables_number   1
_chemical_formula_structural   Pr3SiSe2N3
_chemical_formula_sum   'Pr18 Si6 Se12 N18'
_cell_volume   1110.01882174
_cell_formula_units_Z   6
loop_
 _symmetry_equiv_pos_site_id
 _symmetry_equiv_pos_as_xyz
  1  'x, y, z'
loop_
 _atom_site_type_symbol
 _atom_site_label
 _atom_site_symmetry_multiplicity
 _atom_site_fract_x
 _atom_site_fract_y
 _atom_site_fract_z
 _atom_site_occupancy
  Pr  Pr0  1  0.12957400  0.96843700  0.24921400  1
  Pr  Pr1  1  0.34292900  0.71445100  0.39769000  1
  Pr  Pr2  1  0.87042600  0.03156300  0.75078600  1
  Pr  Pr3  1  0.28554900  0.60231000  0.65707100  1
  Pr  Pr4  1  0.83089500  0.55686500  0.04183400  1
  Pr  Pr5  1  0.65707100  0.28554900  0.60231000  1
  Pr  Pr6  1  0.96843700  0.24921400  0.12957400  1
  Pr  Pr7  1  0.03156300  0.75078600  0.87042600  1
  Pr  Pr8  1  0.44313500  0.95816600  0.16910500  1
  Pr  Pr9  1  0.39769000  0.34292900  0.71445100  1
  Pr  Pr10  1  0.55686500  0.04183400  0.83089500  1
  Pr  Pr11  1  0.24921400  0.12957400  0.96843700  1
  Pr  Pr12  1  0.04183400  0.83089500  0.55686500  1
  Pr  Pr13  1  0.60231000  0.65707100  0.28554900  1
  Pr  Pr14  1  0.16910500  0.44313500  0.95816600  1
  Pr  Pr15  1  0.75078600  0.87042600  0.03156300  1
  Pr  Pr16  1  0.95816600  0.16910500  0.44313500  1
  Pr  Pr17  1  0.71445100  0.39769000  0.34292900  1
  Si  Si18  1  0.28953900  0.39073200  0.21121800  1
  Si  Si19  1  0.60926800  0.78878200  0.71046100  1
  Si  Si20  1  0.39073200  0.21121800  0.28953900  1
  Si  Si21  1  0.78878200  0.71046100  0.60926800  1
  Si  Si22  1  0.21121800  0.28953900  0.39073200  1
  Si  Si23  1  0.71046100  0.60926800  0.78878200  1
  Se  Se24  1  0.29273800  0.87727000  0.83467000  1
  Se  Se25  1  0.83467000  0.29273800  0.87727000  1
  Se  Se26  1  0.97427500  0.44075400  0.64696700  1
  Se  Se27  1  0.64696700  0.97427500  0.44075400  1
  Se  Se28  1  0.55924600  0.35303300  0.02572500  1
  Se  Se29  1  0.35303300  0.02572500  0.55924600  1
  Se  Se30  1  0.12273000  0.16533000  0.70726200  1
  Se  Se31  1  0.16533000  0.70726200  0.12273000  1
  Se  Se32  1  0.70726200  0.12273000  0.16533000  1
  Se  Se33  1  0.44075400  0.64696700  0.97427500  1
  Se  Se34  1  0.02572500  0.55924600  0.35303300  1
  Se  Se35  1  0.87727000  0.83467000  0.29273800  1
  N  N36  1  0.44881200  0.78909500  0.64669500  1
  N  N37  1  0.74947100  0.97776700  0.87822200  1
  N  N38  1  0.23835500  0.41556800  0.33801700  1
  N  N39  1  0.25052900  0.02223300  0.12177800  1
  N  N40  1  0.12177800  0.25052900  0.02223300  1
  N  N41  1  0.76164500  0.58443200  0.66198300  1
  N  N42  1  0.02223300  0.12177800  0.25052900  1
  N  N43  1  0.97776700  0.87822200  0.74947100  1
  N  N44  1  0.41556800  0.33801700  0.23835500  1
  N  N45  1  0.87822200  0.74947100  0.97776700  1
  N  N46  1  0.58443200  0.66198300  0.76164500  1
  N  N47  1  0.21090500  0.35330500  0.55118800  1
  N  N48  1  0.78909500  0.64669500  0.44881200  1
  N  N49  1  0.66198300  0.76164500  0.58443200  1
  N  N50  1  0.55118800  0.21090500  0.35330500  1
  N  N51  1  0.33801700  0.23835500  0.41556800  1
  N  N52  1  0.35330500  0.55118800  0.21090500  1
  N  N53  1  0.64669500  0.44881200  0.78909500  1
