# generated using pymatgen
data_Er14(InPd)3
_symmetry_space_group_name_H-M   'P 1'
_cell_length_a   9.63643300
_cell_length_b   9.63643300
_cell_length_c   23.39381900
_cell_angle_alpha   90.00000000
_cell_angle_beta   90.00000000
_cell_angle_gamma   90.00000000
_symmetry_Int_Tables_number   1
_chemical_formula_structural   Er14(InPd)3
_chemical_formula_sum   'Er56 In12 Pd12'
_cell_volume   2172.36970569
_cell_formula_units_Z   4
loop_
 _symmetry_equiv_pos_site_id
 _symmetry_equiv_pos_as_xyz
  1  'x, y, z'
loop_
 _atom_site_type_symbol
 _atom_site_label
 _atom_site_symmetry_multiplicity
 _atom_site_fract_x
 _atom_site_fract_y
 _atom_site_fract_z
 _atom_site_occupancy
  Er  Er0  1  0.50000000  0.19310000  0.21620500  1
  Er  Er1  1  0.50000000  0.31205000  0.73318100  1
  Er  Er2  1  0.50000000  0.68795000  0.73318100  1
  Er  Er3  1  0.68606500  0.19194700  0.35425700  1
  Er  Er4  1  0.80805300  0.68606500  0.64574300  1
  Er  Er5  1  0.18423900  0.18423900  0.00000000  1
  Er  Er6  1  0.69194700  0.18606500  0.85425700  1
  Er  Er7  1  0.18606500  0.69194700  0.14574300  1
  Er  Er8  1  0.00000000  0.18795000  0.76681900  1
  Er  Er9  1  0.80690000  0.50000000  0.78379500  1
  Er  Er10  1  0.00000000  0.00000000  0.89564900  1
  Er  Er11  1  0.31393500  0.80805300  0.35425700  1
  Er  Er12  1  0.00000000  0.30690000  0.28379500  1
  Er  Er13  1  0.68423900  0.68423900  0.50000000  1
  Er  Er14  1  0.00000000  0.69310000  0.28379500  1
  Er  Er15  1  0.31576100  0.68423900  0.50000000  1
  Er  Er16  1  0.19310000  0.50000000  0.78379500  1
  Er  Er17  1  0.69310000  0.00000000  0.71620500  1
  Er  Er18  1  0.28762100  0.50000000  0.94245600  1
  Er  Er19  1  0.00000000  0.50000000  0.53689000  1
  Er  Er20  1  0.18795000  0.00000000  0.23318100  1
  Er  Er21  1  0.19194700  0.31393500  0.64574300  1
  Er  Er22  1  0.68423900  0.31576100  0.50000000  1
  Er  Er23  1  0.31205000  0.50000000  0.26681900  1
  Er  Er24  1  0.78762100  0.00000000  0.55754400  1
  Er  Er25  1  0.50000000  0.50000000  0.39564900  1
  Er  Er26  1  0.21237900  0.00000000  0.55754400  1
  Er  Er27  1  0.50000000  0.50000000  0.60435100  1
  Er  Er28  1  0.31393500  0.19194700  0.35425700  1
  Er  Er29  1  0.68606500  0.80805300  0.35425700  1
  Er  Er30  1  0.81393500  0.69194700  0.14574300  1
  Er  Er31  1  0.81576100  0.81576100  0.00000000  1
  Er  Er32  1  0.00000000  0.81205000  0.76681900  1
  Er  Er33  1  0.50000000  0.00000000  0.46311000  1
  Er  Er34  1  0.68795000  0.50000000  0.26681900  1
  Er  Er35  1  0.00000000  0.78762100  0.44245600  1
  Er  Er36  1  0.30805300  0.81393500  0.85425700  1
  Er  Er37  1  0.30690000  0.00000000  0.71620500  1
  Er  Er38  1  0.18423900  0.81576100  0.00000000  1
  Er  Er39  1  0.00000000  0.00000000  0.10435100  1
  Er  Er40  1  0.81205000  0.00000000  0.23318100  1
  Er  Er41  1  0.69194700  0.81393500  0.85425700  1
  Er  Er42  1  0.50000000  0.80690000  0.21620500  1
  Er  Er43  1  0.71237900  0.50000000  0.94245600  1
  Er  Er44  1  0.80805300  0.31393500  0.64574300  1
  Er  Er45  1  0.50000000  0.00000000  0.96311000  1
  Er  Er46  1  0.81576100  0.18423900  0.00000000  1
  Er  Er47  1  0.50000000  0.28762100  0.05754400  1
  Er  Er48  1  0.50000000  0.71237900  0.05754400  1
  Er  Er49  1  0.30805300  0.18606500  0.85425700  1
  Er  Er50  1  0.31576100  0.31576100  0.50000000  1
  Er  Er51  1  0.81393500  0.30805300  0.14574300  1
  Er  Er52  1  0.19194700  0.68606500  0.64574300  1
  Er  Er53  1  0.00000000  0.21237900  0.44245600  1
  Er  Er54  1  0.00000000  0.50000000  0.03689000  1
  Er  Er55  1  0.18606500  0.30805300  0.14574300  1
  In  In56  1  0.50000000  0.83859000  0.60512100  1
  In  In57  1  0.00000000  0.00000000  0.34176300  1
  In  In58  1  0.00000000  0.66141000  0.89487900  1
  In  In59  1  0.83859000  0.50000000  0.39487900  1
  In  In60  1  0.50000000  0.50000000  0.84176300  1
  In  In61  1  0.66141000  0.00000000  0.10512100  1
  In  In62  1  0.50000000  0.50000000  0.15823700  1
  In  In63  1  0.16141000  0.50000000  0.39487900  1
  In  In64  1  0.50000000  0.16141000  0.60512100  1
  In  In65  1  0.00000000  0.33859000  0.89487900  1
  In  In66  1  0.00000000  0.00000000  0.65823700  1
  In  In67  1  0.33859000  0.00000000  0.10512100  1
  Pd  Pd68  1  0.50000000  0.00000000  0.30373900  1
  Pd  Pd69  1  0.50000000  0.00000000  0.80373900  1
  Pd  Pd70  1  0.50000000  0.28703100  0.93934900  1
  Pd  Pd71  1  0.71296900  0.50000000  0.06065100  1
  Pd  Pd72  1  0.00000000  0.78703100  0.56065100  1
  Pd  Pd73  1  0.21296900  0.00000000  0.43934900  1
  Pd  Pd74  1  0.78703100  0.00000000  0.43934900  1
  Pd  Pd75  1  0.50000000  0.71296900  0.93934900  1
  Pd  Pd76  1  0.00000000  0.50000000  0.19626100  1
  Pd  Pd77  1  0.00000000  0.21296900  0.56065100  1
  Pd  Pd78  1  0.28703100  0.50000000  0.06065100  1
  Pd  Pd79  1  0.00000000  0.50000000  0.69626100  1
