# generated using pymatgen
data_CsUNbO6
_symmetry_space_group_name_H-M   'P 1'
_cell_length_a   8.81426000
_cell_length_b   7.73677500
_cell_length_c   10.77440140
_cell_angle_alpha   75.96542934
_cell_angle_beta   90.00000000
_cell_angle_gamma   90.00000000
_symmetry_Int_Tables_number   1
_chemical_formula_structural   CsUNbO6
_chemical_formula_sum   'Cs4 U4 Nb4 O24'
_cell_volume   712.81638737
_cell_formula_units_Z   4
loop_
 _symmetry_equiv_pos_site_id
 _symmetry_equiv_pos_as_xyz
  1  'x, y, z'
loop_
 _atom_site_type_symbol
 _atom_site_label
 _atom_site_symmetry_multiplicity
 _atom_site_fract_x
 _atom_site_fract_y
 _atom_site_fract_z
 _atom_site_occupancy
  Cs  Cs0  1  0.77124300  0.46273900  0.85863600  1
  Cs  Cs1  1  0.27124300  0.53726100  0.64136400  1
  Cs  Cs2  1  0.22875700  0.53726100  0.14136400  1
  Cs  Cs3  1  0.72875700  0.46273900  0.35863600  1
  U  U4  1  0.01695100  0.98743900  0.32170500  1
  U  U5  1  0.51695100  0.01256100  0.17829500  1
  U  U6  1  0.98304900  0.01256100  0.67829500  1
  U  U7  1  0.48304900  0.98743900  0.82170500  1
  Nb  Nb8  1  0.84922200  0.88794500  0.05574800  1
  Nb  Nb9  1  0.34922200  0.11205500  0.44425200  1
  Nb  Nb10  1  0.15077800  0.11205500  0.94425200  1
  Nb  Nb11  1  0.65077800  0.88794500  0.55574800  1
  O  O12  1  0.97876100  0.22682900  0.26905900  1
  O  O13  1  0.47876100  0.77317100  0.23094100  1
  O  O14  1  0.02123900  0.77317100  0.73094100  1
  O  O15  1  0.52123900  0.22682900  0.76905900  1
  O  O16  1  0.94149500  0.25166700  0.62745600  1
  O  O17  1  0.44149500  0.74833300  0.87254400  1
  O  O18  1  0.05850500  0.74833300  0.37254400  1
  O  O19  1  0.55850500  0.25166700  0.12745600  1
  O  O20  1  0.94131700  0.03287200  0.88861100  1
  O  O21  1  0.44131700  0.96712800  0.61138900  1
  O  O22  1  0.05868300  0.96712800  0.11138900  1
  O  O23  1  0.55868300  0.03287200  0.38861100  1
  O  O24  1  0.85414800  0.96578200  0.49489900  1
  O  O25  1  0.35414800  0.03421800  0.00510100  1
  O  O26  1  0.14585200  0.03421800  0.50510100  1
  O  O27  1  0.64585200  0.96578200  0.99489900  1
  O  O28  1  0.86510600  0.65364300  0.07114700  1
  O  O29  1  0.36510600  0.34635700  0.42885300  1
  O  O30  1  0.13489400  0.34635700  0.92885300  1
  O  O31  1  0.63489400  0.65364300  0.57114700  1
  O  O32  1  0.78763300  0.92848200  0.22151100  1
  O  O33  1  0.28763300  0.07151800  0.27848900  1
  O  O34  1  0.21236700  0.07151800  0.77848900  1
  O  O35  1  0.71236700  0.92848200  0.72151100  1
