# generated using pymatgen
data_Na2CN2
_symmetry_space_group_name_H-M   'P 1'
_cell_length_a   3.55912665
_cell_length_b   3.55912665
_cell_length_c   5.58420079
_cell_angle_alpha   75.90888338
_cell_angle_beta   75.90888338
_cell_angle_gamma   89.49861417
_symmetry_Int_Tables_number   1
_chemical_formula_structural   Na2CN2
_chemical_formula_sum   'Na2 C1 N2'
_cell_volume   66.44821360
_cell_formula_units_Z   1
loop_
 _symmetry_equiv_pos_site_id
 _symmetry_equiv_pos_as_xyz
  1  'x, y, z'
loop_
 _atom_site_type_symbol
 _atom_site_label
 _atom_site_symmetry_multiplicity
 _atom_site_fract_x
 _atom_site_fract_y
 _atom_site_fract_z
 _atom_site_occupancy
  Na  Na0  1  0.32540700  0.32540700  0.30942700  1
  Na  Na1  1  0.67459300  0.67459300  0.69057300  1
  C  C2  1  0.00000000  0.00000000  0.00000000  1
  N  N3  1  0.15532300  0.15532300  0.77257000  1
  N  N4  1  0.84467700  0.84467700  0.22743000  1
