# generated using pymatgen
data_Rb3In(PO4)2
_symmetry_space_group_name_H-M   'P 1'
_cell_length_a   11.81031500
_cell_length_b   10.12234200
_cell_length_c   19.05726276
_cell_angle_alpha   58.30566550
_cell_angle_beta   90.00000000
_cell_angle_gamma   90.00000000
_symmetry_Int_Tables_number   1
_chemical_formula_structural   Rb3In(PO4)2
_chemical_formula_sum   'Rb24 In8 P16 O64'
_cell_volume   1938.48605646
_cell_formula_units_Z   8
loop_
 _symmetry_equiv_pos_site_id
 _symmetry_equiv_pos_as_xyz
  1  'x, y, z'
loop_
 _atom_site_type_symbol
 _atom_site_label
 _atom_site_symmetry_multiplicity
 _atom_site_fract_x
 _atom_site_fract_y
 _atom_site_fract_z
 _atom_site_occupancy
  Rb  Rb0  1  0.87860200  0.19527000  0.50852300  1
  Rb  Rb1  1  0.13648400  0.42849600  0.75717800  1
  Rb  Rb2  1  0.62139800  0.19527000  0.00852300  1
  Rb  Rb3  1  0.91555200  0.71545000  0.67164300  1
  Rb  Rb4  1  0.12139800  0.80473000  0.49147700  1
  Rb  Rb5  1  0.40017600  0.04357800  0.74577000  1
  Rb  Rb6  1  0.60559100  0.76249800  0.49968500  1
  Rb  Rb7  1  0.63648400  0.57150400  0.74282200  1
  Rb  Rb8  1  0.87848100  0.68079500  0.41742200  1
  Rb  Rb9  1  0.41555200  0.28455000  0.82835700  1
  Rb  Rb10  1  0.58444800  0.71545000  0.17164300  1
  Rb  Rb11  1  0.09982400  0.04357800  0.24577000  1
  Rb  Rb12  1  0.10559100  0.23750200  0.00031500  1
  Rb  Rb13  1  0.90017600  0.95642200  0.75423000  1
  Rb  Rb14  1  0.12151900  0.31920500  0.58257800  1
  Rb  Rb15  1  0.37848100  0.31920500  0.08257800  1
  Rb  Rb16  1  0.86351600  0.57150400  0.24282200  1
  Rb  Rb17  1  0.08444800  0.28455000  0.32835700  1
  Rb  Rb18  1  0.62151900  0.68079500  0.91742200  1
  Rb  Rb19  1  0.39440900  0.23750200  0.50031500  1
  Rb  Rb20  1  0.37860200  0.80473000  0.99147700  1
  Rb  Rb21  1  0.89440900  0.76249800  0.99968500  1
  Rb  Rb22  1  0.59982400  0.95642200  0.25423000  1
  Rb  Rb23  1  0.36351600  0.42849600  0.25717800  1
  In  In24  1  0.36856400  0.79093200  0.63152800  1
  In  In25  1  0.63143600  0.20906800  0.36847200  1
  In  In26  1  0.65251500  0.31255800  0.61412400  1
  In  In27  1  0.15251500  0.68744200  0.88587600  1
  In  In28  1  0.34748500  0.68744200  0.38587600  1
  In  In29  1  0.13143600  0.79093200  0.13152800  1
  In  In30  1  0.86856400  0.20906800  0.86847200  1
  In  In31  1  0.84748500  0.31255800  0.11412400  1
  P  P32  1  0.63815000  0.42002300  0.14521600  1
  P  P33  1  0.87865400  0.52038300  0.89854200  1
  P  P34  1  0.86185000  0.42002300  0.64521600  1
  P  P35  1  0.13815000  0.57997700  0.35478400  1
  P  P36  1  0.12134600  0.47961700  0.10145800  1
  P  P37  1  0.36579500  0.00901400  0.40569500  1
  P  P38  1  0.34157600  0.89302700  0.16279800  1
  P  P39  1  0.63420500  0.99098600  0.59430500  1
  P  P40  1  0.36185000  0.57997700  0.85478400  1
  P  P41  1  0.37865400  0.47961700  0.60145800  1
  P  P42  1  0.15842400  0.89302700  0.66279800  1
  P  P43  1  0.65842400  0.10697300  0.83720200  1
  P  P44  1  0.62134600  0.52038300  0.39854200  1
  P  P45  1  0.13420500  0.00901400  0.90569500  1
  P  P46  1  0.84157600  0.10697300  0.33720200  1
  P  P47  1  0.86579500  0.99098600  0.09430500  1
  O  O48  1  0.08883300  0.88107200  0.89034400  1
  O  O49  1  0.06573700  0.00442100  0.60613800  1
  O  O50  1  0.45515300  0.46894000  0.91163900  1
  O  O51  1  0.92747200  0.39722500  0.88028200  1
  O  O52  1  0.17956800  0.75579200  0.64702100  1
  O  O53  1  0.95515300  0.53106000  0.58836100  1
  O  O54  1  0.60530200  0.36806800  0.23553600  1
  O  O55  1  0.80011500  0.63531300  0.82880200  1
  O  O56  1  0.04096600  0.13802000  0.87378400  1
  O  O57  1  0.34430900  0.72262500  0.86565700  1
  O  O58  1  0.65199200  0.05979400  0.50017600  1
  O  O59  1  0.58883300  0.11892800  0.60965600  1
  O  O60  1  0.15569100  0.72262500  0.36565700  1
  O  O61  1  0.98125600  0.60736400  0.90702400  1
  O  O62  1  0.15199200  0.94020600  0.99982400  1
  O  O63  1  0.56573700  0.99557900  0.89386200  1
  O  O64  1  0.72183300  0.02683000  0.35455300  1
  O  O65  1  0.88063800  0.17710600  0.24630200  1
  O  O66  1  0.69988500  0.63531300  0.32880200  1
  O  O67  1  0.30011500  0.36468700  0.67119800  1
  O  O68  1  0.39469800  0.63193200  0.76446400  1
  O  O69  1  0.11936200  0.82289400  0.75369800  1
  O  O70  1  0.89469800  0.36806800  0.73553600  1
  O  O71  1  0.22183300  0.97317000  0.14544700  1
  O  O72  1  0.07252800  0.60277500  0.11971800  1
  O  O73  1  0.74172200  0.50179000  0.62319400  1
  O  O74  1  0.93426300  0.99557900  0.39386200  1
  O  O75  1  0.04484700  0.46894000  0.41163900  1
  O  O76  1  0.10530200  0.63193200  0.26446400  1
  O  O77  1  0.43426300  0.00442100  0.10613800  1
  O  O78  1  0.27816700  0.97317000  0.64544700  1
  O  O79  1  0.54096600  0.86198000  0.62621600  1
  O  O80  1  0.45903400  0.13802000  0.37378400  1
  O  O81  1  0.19988500  0.36468700  0.17119800  1
  O  O82  1  0.80937600  0.44020700  0.98134600  1
  O  O83  1  0.24172200  0.49821000  0.87680600  1
  O  O84  1  0.34800800  0.94020600  0.49982400  1
  O  O85  1  0.95903400  0.86198000  0.12621600  1
  O  O86  1  0.41116700  0.88107200  0.39034400  1
  O  O87  1  0.30937600  0.55979300  0.51865400  1
  O  O88  1  0.74567700  0.92059000  0.63942300  1
  O  O89  1  0.77816700  0.02683000  0.85455300  1
  O  O90  1  0.91116700  0.11892800  0.10965600  1
  O  O91  1  0.32043200  0.75579200  0.14702100  1
  O  O92  1  0.84430900  0.27737500  0.63434300  1
  O  O93  1  0.75432300  0.92059000  0.13942300  1
  O  O94  1  0.25827800  0.49821000  0.37680600  1
  O  O95  1  0.82043200  0.24420800  0.35297900  1
  O  O96  1  0.67956800  0.24420800  0.85297900  1
  O  O97  1  0.19062400  0.55979300  0.01865400  1
  O  O98  1  0.24567700  0.07941000  0.86057700  1
  O  O99  1  0.48125600  0.39263600  0.59297600  1
  O  O100  1  0.57252800  0.39722500  0.38028200  1
  O  O101  1  0.61936200  0.17710600  0.74630200  1
  O  O102  1  0.69062400  0.44020700  0.48134600  1
  O  O103  1  0.01874400  0.39263600  0.09297600  1
  O  O104  1  0.38063800  0.82289400  0.25369800  1
  O  O105  1  0.84800800  0.05979400  0.00017600  1
  O  O106  1  0.25432300  0.07941000  0.36057700  1
  O  O107  1  0.65569100  0.27737500  0.13434300  1
  O  O108  1  0.54484700  0.53106000  0.08836100  1
  O  O109  1  0.42747200  0.60277500  0.61971800  1
  O  O110  1  0.75827800  0.50179000  0.12319400  1
  O  O111  1  0.51874400  0.60736400  0.40702400  1
