# generated using pymatgen
data_K4Sr2SnAs4
_symmetry_space_group_name_H-M   'P 1'
_cell_length_a   18.29854987
_cell_length_b   18.29854987
_cell_length_c   7.76537700
_cell_angle_alpha   90.00000000
_cell_angle_beta   90.00000000
_cell_angle_gamma   119.99999952
_symmetry_Int_Tables_number   1
_chemical_formula_structural   K4Sr2SnAs4
_chemical_formula_sum   'K24 Sr12 Sn6 As24'
_cell_volume   2251.78295140
_cell_formula_units_Z   6
loop_
 _symmetry_equiv_pos_site_id
 _symmetry_equiv_pos_as_xyz
  1  'x, y, z'
loop_
 _atom_site_type_symbol
 _atom_site_label
 _atom_site_symmetry_multiplicity
 _atom_site_fract_x
 _atom_site_fract_y
 _atom_site_fract_z
 _atom_site_occupancy
  K  K0  1  0.65923800  0.47697700  0.31069600  1
  K  K1  1  0.34076200  0.52302300  0.81069600  1
  K  K2  1  0.13349700  0.13349700  0.79108200  1
  K  K3  1  0.34076200  0.81773900  0.31069600  1
  K  K4  1  0.47697700  0.81773900  0.81069600  1
  K  K5  1  0.86650300  0.00000000  0.79108200  1
  K  K6  1  0.18226100  0.65923800  0.81069600  1
  K  K7  1  0.47697700  0.65923800  0.31069600  1
  K  K8  1  0.00000000  0.13349700  0.29108200  1
  K  K9  1  0.13349700  0.00000000  0.29108200  1
  K  K10  1  0.46783900  0.46783900  0.11956800  1
  K  K11  1  0.18226100  0.52302300  0.31069600  1
  K  K12  1  0.86650300  0.86650300  0.29108200  1
  K  K13  1  0.53216100  0.00000000  0.11956800  1
  K  K14  1  0.53216100  0.53216100  0.61956800  1
  K  K15  1  0.46783900  0.00000000  0.61956800  1
  K  K16  1  0.00000000  0.53216100  0.11956800  1
  K  K17  1  0.65923800  0.18226100  0.81069600  1
  K  K18  1  0.52302300  0.18226100  0.31069600  1
  K  K19  1  0.00000000  0.86650300  0.79108200  1
  K  K20  1  0.81773900  0.47697700  0.81069600  1
  K  K21  1  0.00000000  0.46783900  0.61956800  1
  K  K22  1  0.81773900  0.34076200  0.31069600  1
  K  K23  1  0.52302300  0.34076200  0.81069600  1
  Sr  Sr24  1  0.81027800  0.67024400  0.61952200  1
  Sr  Sr25  1  0.14003400  0.81027800  0.11952200  1
  Sr  Sr26  1  0.14003400  0.32975600  0.61952200  1
  Sr  Sr27  1  0.85996600  0.67024400  0.11952200  1
  Sr  Sr28  1  0.67024400  0.85996600  0.11952200  1
  Sr  Sr29  1  0.32975600  0.18972200  0.11952200  1
  Sr  Sr30  1  0.18972200  0.85996600  0.61952200  1
  Sr  Sr31  1  0.81027800  0.14003400  0.11952200  1
  Sr  Sr32  1  0.32975600  0.14003400  0.61952200  1
  Sr  Sr33  1  0.18972200  0.32975600  0.11952200  1
  Sr  Sr34  1  0.85996600  0.18972200  0.61952200  1
  Sr  Sr35  1  0.67024400  0.81027800  0.61952200  1
  Sn  Sn36  1  0.66879000  0.66879000  0.00178400  1
  Sn  Sn37  1  0.00000000  0.33121000  0.00178400  1
  Sn  Sn38  1  0.00000000  0.66879000  0.50178400  1
  Sn  Sn39  1  0.33121000  0.33121000  0.50178400  1
  Sn  Sn40  1  0.66879000  0.00000000  0.50178400  1
  Sn  Sn41  1  0.33121000  0.00000000  0.00178400  1
  As  As42  1  0.19393100  0.19393100  0.38061200  1
  As  As43  1  0.31696700  0.00000000  0.34677000  1
  As  As44  1  0.14394800  0.46201600  0.89499800  1
  As  As45  1  0.80606900  0.00000000  0.38061200  1
  As  As46  1  0.31806900  0.85605200  0.89499800  1
  As  As47  1  0.53798400  0.68193100  0.89499800  1
  As  As48  1  0.68303300  0.68303300  0.34677000  1
  As  As49  1  0.80606900  0.80606900  0.88061200  1
  As  As50  1  0.00000000  0.68303300  0.84677000  1
  As  As51  1  0.46201600  0.14394800  0.89499800  1
  As  As52  1  0.85605200  0.31806900  0.89499800  1
  As  As53  1  0.31806900  0.46201600  0.39499800  1
  As  As54  1  0.68193100  0.14394800  0.39499800  1
  As  As55  1  0.85605200  0.53798400  0.39499800  1
  As  As56  1  0.19393100  0.00000000  0.88061200  1
  As  As57  1  0.00000000  0.80606900  0.38061200  1
  As  As58  1  0.68303300  0.00000000  0.84677000  1
  As  As59  1  0.00000000  0.19393100  0.88061200  1
  As  As60  1  0.14394800  0.68193100  0.39499800  1
  As  As61  1  0.46201600  0.31806900  0.39499800  1
  As  As62  1  0.00000000  0.31696700  0.34677000  1
  As  As63  1  0.68193100  0.53798400  0.89499800  1
  As  As64  1  0.31696700  0.31696700  0.84677000  1
  As  As65  1  0.53798400  0.85605200  0.39499800  1
