# generated using pymatgen
data_RbPr6(CI6)2
_symmetry_space_group_name_H-M   'P 1'
_cell_length_a   9.77312000
_cell_length_b   9.80062893
_cell_length_c   10.26375012
_cell_angle_alpha   70.82858519
_cell_angle_beta   71.91440133
_cell_angle_gamma   72.58088341
_symmetry_Int_Tables_number   1
_chemical_formula_structural   RbPr6(CI6)2
_chemical_formula_sum   'Rb1 Pr6 C2 I12'
_cell_volume   861.09148007
_cell_formula_units_Z   1
loop_
 _symmetry_equiv_pos_site_id
 _symmetry_equiv_pos_as_xyz
  1  'x, y, z'
loop_
 _atom_site_type_symbol
 _atom_site_label
 _atom_site_symmetry_multiplicity
 _atom_site_fract_x
 _atom_site_fract_y
 _atom_site_fract_z
 _atom_site_occupancy
  Rb  Rb0  1  0.50000000  0.00000000  0.00000000  1
  Pr  Pr1  1  0.96921500  0.22840200  0.58963700  1
  Pr  Pr2  1  0.03078500  0.77159800  0.41036300  1
  Pr  Pr3  1  0.10847300  0.47637500  0.19290300  1
  Pr  Pr4  1  0.73033800  0.59015700  0.47608500  1
  Pr  Pr5  1  0.26966200  0.40984300  0.52391500  1
  Pr  Pr6  1  0.89152700  0.52362500  0.80709700  1
  C  C7  1  0.02408200  0.49436500  0.42947800  1
  C  C8  1  0.97591800  0.50563500  0.57052200  1
  I  I9  1  0.36626400  0.71906700  0.42975700  1
  I  I10  1  0.63373600  0.28093300  0.57024300  1
  I  I11  1  0.22284100  0.41220900  0.85659700  1
  I  I12  1  0.77715900  0.58779100  0.14340300  1
  I  I13  1  0.15969600  0.80202400  0.07770700  1
  I  I14  1  0.71692700  0.92877000  0.35424400  1
  I  I15  1  0.43607600  0.35124300  0.21983300  1
  I  I16  1  0.92993700  0.86338900  0.70907400  1
  I  I17  1  0.84030400  0.19797600  0.92229300  1
  I  I18  1  0.07006300  0.13661100  0.29092600  1
  I  I19  1  0.56392400  0.64875700  0.78016700  1
  I  I20  1  0.28307300  0.07123000  0.64575600  1
