# generated using pymatgen
data_PrZr2F11
_symmetry_space_group_name_H-M   'P 1'
_cell_length_a   8.51402683
_cell_length_b   8.51402683
_cell_length_c   8.51402683
_cell_angle_alpha   124.70845956
_cell_angle_beta   106.37375944
_cell_angle_gamma   98.55142445
_symmetry_Int_Tables_number   1
_chemical_formula_structural   PrZr2F11
_chemical_formula_sum   'Pr2 Zr4 F22'
_cell_volume   447.80662135
_cell_formula_units_Z   2
loop_
 _symmetry_equiv_pos_site_id
 _symmetry_equiv_pos_as_xyz
  1  'x, y, z'
loop_
 _atom_site_type_symbol
 _atom_site_label
 _atom_site_symmetry_multiplicity
 _atom_site_fract_x
 _atom_site_fract_y
 _atom_site_fract_z
 _atom_site_occupancy
  Pr  Pr0  1  0.25000000  0.25000000  0.00000000  1
  Pr  Pr1  1  0.75000000  0.75000000  0.00000000  1
  Zr  Zr2  1  0.81935100  0.63357600  0.45292800  1
  Zr  Zr3  1  0.18064900  0.36642400  0.54707200  1
  Zr  Zr4  1  0.31935100  0.86642400  0.18577500  1
  Zr  Zr5  1  0.68064900  0.13357600  0.81422500  1
  F  F6  1  0.32143000  0.03480600  0.08265700  1
  F  F7  1  0.71963800  0.87038500  0.59002300  1
  F  F8  1  0.95214900  0.23877300  0.91734300  1
  F  F9  1  0.94622800  0.10571000  0.31190300  1
  F  F10  1  0.21963800  0.62961500  0.84925400  1
  F  F11  1  0.79380700  0.63432500  0.68809700  1
  F  F12  1  0.54785100  0.46519400  0.28662400  1
  F  F13  1  0.44622800  0.13432500  0.84051800  1
  F  F14  1  0.78036200  0.37038500  0.15074600  1
  F  F15  1  0.29380700  0.60571000  0.15948200  1
  F  F16  1  0.45214900  0.53480600  0.71337600  1
  F  F17  1  0.70619300  0.39429000  0.84051800  1
  F  F18  1  0.55377200  0.86567500  0.15948200  1
  F  F19  1  0.04785100  0.76122700  0.08265700  1
  F  F20  1  0.00000000  0.50000000  0.50000000  1
  F  F21  1  0.82143000  0.73877300  0.28662400  1
  F  F22  1  0.20619300  0.36567500  0.31190300  1
  F  F23  1  0.67857000  0.96519400  0.91734300  1
  F  F24  1  0.17857000  0.26122700  0.71337600  1
  F  F25  1  0.28036200  0.12961500  0.40997700  1
  F  F26  1  0.05377200  0.89429000  0.68809700  1
  F  F27  1  0.50000000  0.00000000  0.50000000  1
