# generated using pymatgen
data_ErGeBiO5
_symmetry_space_group_name_H-M   'P 1'
_cell_length_a   5.37334000
_cell_length_b   11.08048700
_cell_length_c   15.42219900
_cell_angle_alpha   90.00000000
_cell_angle_beta   90.00000000
_cell_angle_gamma   90.00000000
_symmetry_Int_Tables_number   1
_chemical_formula_structural   ErGeBiO5
_chemical_formula_sum   'Er8 Ge8 Bi8 O40'
_cell_volume   918.22576109
_cell_formula_units_Z   8
loop_
 _symmetry_equiv_pos_site_id
 _symmetry_equiv_pos_as_xyz
  1  'x, y, z'
loop_
 _atom_site_type_symbol
 _atom_site_label
 _atom_site_symmetry_multiplicity
 _atom_site_fract_x
 _atom_site_fract_y
 _atom_site_fract_z
 _atom_site_occupancy
  Er  Er0  1  0.01021700  0.85885900  0.55326100  1
  Er  Er1  1  0.51021700  0.14114100  0.94673900  1
  Er  Er2  1  0.48978300  0.35885900  0.44673900  1
  Er  Er3  1  0.48978300  0.85885900  0.05326100  1
  Er  Er4  1  0.98978300  0.14114100  0.44673900  1
  Er  Er5  1  0.51021700  0.64114100  0.55326100  1
  Er  Er6  1  0.01021700  0.35885900  0.94673900  1
  Er  Er7  1  0.98978300  0.64114100  0.05326100  1
  Ge  Ge8  1  0.00640400  0.40301900  0.59541700  1
  Ge  Ge9  1  0.99359600  0.59698100  0.40458300  1
  Ge  Ge10  1  0.50640400  0.59698100  0.90458300  1
  Ge  Ge11  1  0.49359600  0.90301900  0.40458300  1
  Ge  Ge12  1  0.99359600  0.09698100  0.09541700  1
  Ge  Ge13  1  0.00640400  0.90301900  0.90458300  1
  Ge  Ge14  1  0.49359600  0.40301900  0.09541700  1
  Ge  Ge15  1  0.50640400  0.09698100  0.59541700  1
  Bi  Bi16  1  0.54309500  0.64670800  0.23716800  1
  Bi  Bi17  1  0.04309500  0.35329200  0.26283200  1
  Bi  Bi18  1  0.54309500  0.14670800  0.26283200  1
  Bi  Bi19  1  0.45690500  0.85329200  0.73716800  1
  Bi  Bi20  1  0.95690500  0.14670800  0.76283200  1
  Bi  Bi21  1  0.45690500  0.35329200  0.76283200  1
  Bi  Bi22  1  0.95690500  0.64670800  0.73716800  1
  Bi  Bi23  1  0.04309500  0.85329200  0.23716800  1
  O  O24  1  0.19508700  0.97572600  0.12612800  1
  O  O25  1  0.24983800  0.23501400  0.84995500  1
  O  O26  1  0.69508700  0.52427400  0.12612800  1
  O  O27  1  0.75016200  0.76498600  0.15004500  1
  O  O28  1  0.19844600  0.95873800  0.43890000  1
  O  O29  1  0.93460800  0.67008100  0.30246500  1
  O  O30  1  0.80155400  0.04126200  0.56110000  1
  O  O31  1  0.93460800  0.17008100  0.19753500  1
  O  O32  1  0.19844600  0.45873800  0.06110000  1
  O  O33  1  0.75016200  0.26498600  0.34995500  1
  O  O34  1  0.80155400  0.54126200  0.93890000  1
  O  O35  1  0.06539200  0.82991900  0.80246500  1
  O  O36  1  0.25016200  0.23501400  0.34995500  1
  O  O37  1  0.85649900  0.30860800  0.51989600  1
  O  O38  1  0.85649900  0.80860800  0.98010400  1
  O  O39  1  0.43460800  0.32991900  0.19753500  1
  O  O40  1  0.80491300  0.02427400  0.87387200  1
  O  O41  1  0.74983800  0.76498600  0.65004500  1
  O  O42  1  0.69844600  0.04126200  0.06110000  1
  O  O43  1  0.64350100  0.80860800  0.48010400  1
  O  O44  1  0.74983800  0.26498600  0.84995500  1
  O  O45  1  0.69508700  0.02427400  0.37387200  1
  O  O46  1  0.35649900  0.19139200  0.51989600  1
  O  O47  1  0.24983800  0.73501400  0.65004500  1
  O  O48  1  0.06539200  0.32991900  0.69753500  1
  O  O49  1  0.30155400  0.95873800  0.93890000  1
  O  O50  1  0.64350100  0.30860800  0.01989600  1
  O  O51  1  0.14350100  0.19139200  0.01989600  1
  O  O52  1  0.56539200  0.67008100  0.80246500  1
  O  O53  1  0.30491300  0.47572600  0.87387200  1
  O  O54  1  0.69844600  0.54126200  0.43890000  1
  O  O55  1  0.30491300  0.97572600  0.62612800  1
  O  O56  1  0.30155400  0.45873800  0.56110000  1
  O  O57  1  0.19508700  0.47572600  0.37387200  1
  O  O58  1  0.56539200  0.17008100  0.69753500  1
  O  O59  1  0.80491300  0.52427400  0.62612800  1
  O  O60  1  0.35649900  0.69139200  0.98010400  1
  O  O61  1  0.14350100  0.69139200  0.48010400  1
  O  O62  1  0.43460800  0.82991900  0.30246500  1
  O  O63  1  0.25016200  0.73501400  0.15004500  1
