# generated using pymatgen
data_Rb2AgAu3I8
_symmetry_space_group_name_H-M   'P 1'
_cell_length_a   7.87483354
_cell_length_b   7.87483354
_cell_length_c   21.96264451
_cell_angle_alpha   79.93305985
_cell_angle_beta   79.93305985
_cell_angle_gamma   58.27272054
_symmetry_Int_Tables_number   1
_chemical_formula_structural   Rb2AgAu3I8
_chemical_formula_sum   'Rb4 Ag2 Au6 I16'
_cell_volume   1135.00405146
_cell_formula_units_Z   2
loop_
 _symmetry_equiv_pos_site_id
 _symmetry_equiv_pos_as_xyz
  1  'x, y, z'
loop_
 _atom_site_type_symbol
 _atom_site_label
 _atom_site_symmetry_multiplicity
 _atom_site_fract_x
 _atom_site_fract_y
 _atom_site_fract_z
 _atom_site_occupancy
  Rb  Rb0  1  0.32666600  0.26562100  0.59575600  1
  Rb  Rb1  1  0.26562100  0.32666600  0.09575600  1
  Rb  Rb2  1  0.67333400  0.73437900  0.40424400  1
  Rb  Rb3  1  0.73437900  0.67333400  0.90424400  1
  Ag  Ag4  1  0.98286600  0.01713400  0.25000000  1
  Ag  Ag5  1  0.01713400  0.98286600  0.75000000  1
  Au  Au6  1  0.40202800  0.40420000  0.80083500  1
  Au  Au7  1  0.59797200  0.59580000  0.19916500  1
  Au  Au8  1  0.00000000  0.00000000  0.00000000  1
  Au  Au9  1  0.59580000  0.59797200  0.69916500  1
  Au  Au10  1  0.40420000  0.40202800  0.30083500  1
  Au  Au11  1  0.00000000  0.00000000  0.50000000  1
  I  I12  1  0.59468300  0.06508900  0.24949200  1
  I  I13  1  0.15764600  0.22175800  0.43965700  1
  I  I14  1  0.06508900  0.59468300  0.74949200  1
  I  I15  1  0.19077800  0.73546100  0.35359000  1
  I  I16  1  0.77824200  0.84235400  0.06034300  1
  I  I17  1  0.80922200  0.26453900  0.64641000  1
  I  I18  1  0.32728800  0.77207400  0.56284700  1
  I  I19  1  0.22175800  0.15764600  0.93965700  1
  I  I20  1  0.93491100  0.40531700  0.25050800  1
  I  I21  1  0.77207400  0.32728800  0.06284700  1
  I  I22  1  0.84235400  0.77824200  0.56034300  1
  I  I23  1  0.67271200  0.22792600  0.43715300  1
  I  I24  1  0.26453900  0.80922200  0.14641000  1
  I  I25  1  0.22792600  0.67271200  0.93715300  1
  I  I26  1  0.40531700  0.93491100  0.75050800  1
  I  I27  1  0.73546100  0.19077800  0.85359000  1
