# generated using pymatgen
data_KNaCu3S3O13
_symmetry_space_group_name_H-M   'P 1'
_cell_length_a   9.53704400
_cell_length_b   10.50598907
_cell_length_c   14.61258419
_cell_angle_alpha   111.48226146
_cell_angle_beta   90.00000000
_cell_angle_gamma   116.99328434
_symmetry_Int_Tables_number   1
_chemical_formula_structural   KNaCu3S3O13
_chemical_formula_sum   'K4 Na4 Cu12 S12 O52'
_cell_volume   1189.34736818
_cell_formula_units_Z   4
loop_
 _symmetry_equiv_pos_site_id
 _symmetry_equiv_pos_as_xyz
  1  'x, y, z'
loop_
 _atom_site_type_symbol
 _atom_site_label
 _atom_site_symmetry_multiplicity
 _atom_site_fract_x
 _atom_site_fract_y
 _atom_site_fract_z
 _atom_site_occupancy
  K  K0  1  0.93446900  0.38479000  0.12847900  1
  K  K1  1  0.54968000  0.61521000  0.37152100  1
  K  K2  1  0.06553100  0.61521000  0.87152100  1
  K  K3  1  0.45032000  0.38479000  0.62847900  1
  Na  Na4  1  0.09194200  0.65034300  0.45371100  1
  Na  Na5  1  0.55840100  0.65034300  0.95371100  1
  Na  Na6  1  0.90805800  0.34965700  0.54628900  1
  Na  Na7  1  0.44159900  0.34965700  0.04628900  1
  Cu  Cu8  1  0.67280800  0.83500100  0.70553800  1
  Cu  Cu9  1  0.98696800  0.03218700  0.35957000  1
  Cu  Cu10  1  0.95478100  0.96781300  0.14043000  1
  Cu  Cu11  1  0.16219300  0.83500100  0.20553800  1
  Cu  Cu12  1  0.04521900  0.03218700  0.85957000  1
  Cu  Cu13  1  0.53687700  0.03263000  0.15749000  1
  Cu  Cu14  1  0.49575200  0.03263000  0.65749000  1
  Cu  Cu15  1  0.32719200  0.16499900  0.29446200  1
  Cu  Cu16  1  0.83780700  0.16499900  0.79446200  1
  Cu  Cu17  1  0.46312300  0.96737000  0.84251000  1
  Cu  Cu18  1  0.50424800  0.96737000  0.34251000  1
  Cu  Cu19  1  0.01303200  0.96781300  0.64043000  1
  S  S20  1  0.74587800  0.99516200  0.98508500  1
  S  S21  1  0.88811700  0.69154600  0.70625800  1
  S  S22  1  0.62611100  0.31110600  0.86821400  1
  S  S23  1  0.11188300  0.30845400  0.29374200  1
  S  S24  1  0.37388900  0.68889400  0.13178600  1
  S  S25  1  0.80342900  0.69154600  0.20625800  1
  S  S26  1  0.19657100  0.30845400  0.79374200  1
  S  S27  1  0.68499500  0.31110600  0.36821400  1
  S  S28  1  0.24928400  0.99516200  0.48508500  1
  S  S29  1  0.31500500  0.68889400  0.63178600  1
  S  S30  1  0.25412200  0.00483700  0.01491500  1
  S  S31  1  0.75071600  0.00483700  0.51491500  1
  O  O32  1  0.28138400  0.33666900  0.31230100  1
  O  O33  1  0.78266500  0.76181300  0.13835100  1
  O  O34  1  0.31099000  0.91470400  0.93308000  1
  O  O35  1  0.45920400  0.80348200  0.08503800  1
  O  O36  1  0.76645600  0.88792200  0.54141900  1
  O  O37  1  0.17068500  0.54235700  0.57088700  1
  O  O38  1  0.19723900  0.09463100  0.97966600  1
  O  O39  1  0.23354400  0.11207800  0.45858100  1
  O  O40  1  0.65572200  0.19651800  0.41496200  1
  O  O41  1  0.70236600  0.24596400  0.26186700  1
  O  O42  1  0.34427800  0.80348200  0.58503800  1
  O  O43  1  0.73737300  0.12551700  0.60198300  1
  O  O44  1  0.20356700  0.66000700  0.12952900  1
  O  O45  1  0.29763400  0.75403600  0.73813300  1
  O  O46  1  0.10231600  0.00000000  0.25000000  1
  O  O47  1  0.33964300  0.45790300  0.81262700  1
  O  O48  1  0.66035700  0.54209700  0.18737300  1
  O  O49  1  0.54356000  0.33999300  0.37047100  1
  O  O50  1  0.21733500  0.23818700  0.86164900  1
  O  O51  1  0.89768400  0.00000000  0.75000000  1
  O  O52  1  0.03445600  0.19782900  0.18551100  1
  O  O53  1  0.97914800  0.76181300  0.63835100  1
  O  O54  1  0.79643300  0.33999300  0.87047100  1
  O  O55  1  0.83662700  0.80217100  0.31448900  1
  O  O56  1  0.87853400  0.11207800  0.95858100  1
  O  O57  1  0.26262700  0.87448300  0.39801700  1
  O  O58  1  0.02085200  0.23818700  0.36164900  1
  O  O59  1  0.54359800  0.24596400  0.76186700  1
  O  O60  1  0.16337300  0.19782900  0.68551100  1
  O  O61  1  0.54079600  0.19651800  0.91496200  1
  O  O62  1  0.45640200  0.75403600  0.23813300  1
  O  O63  1  0.10260900  0.90536900  0.52033400  1
  O  O64  1  0.71861600  0.66333100  0.68769900  1
  O  O65  1  0.82931400  0.45764300  0.42911300  1
  O  O66  1  0.61185700  0.87448300  0.89801700  1
  O  O67  1  0.39628600  0.08529600  0.56692000  1
  O  O68  1  0.80276100  0.90536900  0.02033400  1
  O  O69  1  0.60371400  0.91470400  0.43308000  1
  O  O70  1  0.38814300  0.12551700  0.10198300  1
  O  O71  1  0.68901000  0.08529600  0.06692000  1
  O  O72  1  0.11826000  0.45790300  0.31262700  1
  O  O73  1  0.88174000  0.54209700  0.68737300  1
  O  O74  1  0.37167100  0.54235700  0.07088700  1
  O  O75  1  0.89739100  0.09463100  0.47966600  1
  O  O76  1  0.62832900  0.45764300  0.92911300  1
  O  O77  1  0.94471500  0.66333100  0.18769900  1
  O  O78  1  0.61217200  0.00000000  0.75000000  1
  O  O79  1  0.12146600  0.88792200  0.04141900  1
  O  O80  1  0.38782800  0.00000000  0.25000000  1
  O  O81  1  0.45644000  0.66000700  0.62952900  1
  O  O82  1  0.05528500  0.33666900  0.81230100  1
  O  O83  1  0.96554400  0.80217100  0.81448900  1
