# generated using pymatgen
data_KSbF4
_symmetry_space_group_name_H-M   'P 1'
_cell_length_a   4.64598000
_cell_length_b   11.82006500
_cell_length_c   16.69220400
_cell_angle_alpha   90.00000000
_cell_angle_beta   90.00000000
_cell_angle_gamma   90.00000000
_symmetry_Int_Tables_number   1
_chemical_formula_structural   KSbF4
_chemical_formula_sum   'K8 Sb8 F32'
_cell_volume   916.66549587
_cell_formula_units_Z   8
loop_
 _symmetry_equiv_pos_site_id
 _symmetry_equiv_pos_as_xyz
  1  'x, y, z'
loop_
 _atom_site_type_symbol
 _atom_site_label
 _atom_site_symmetry_multiplicity
 _atom_site_fract_x
 _atom_site_fract_y
 _atom_site_fract_z
 _atom_site_occupancy
  K  K0  1  0.56596000  0.00000000  0.61594700  1
  K  K1  1  0.56596000  0.00000000  0.38405300  1
  K  K2  1  0.43404000  0.50000000  0.88405300  1
  K  K3  1  0.43404000  0.50000000  0.11594700  1
  K  K4  1  0.00000000  0.25000000  0.75000000  1
  K  K5  1  0.00000000  0.75000000  0.25000000  1
  K  K6  1  0.00000000  0.75000000  0.75000000  1
  K  K7  1  0.00000000  0.25000000  0.25000000  1
  Sb  Sb8  1  0.42979900  0.00000000  0.84301700  1
  Sb  Sb9  1  0.42979900  0.00000000  0.15698300  1
  Sb  Sb10  1  0.57020100  0.50000000  0.65698300  1
  Sb  Sb11  1  0.57020100  0.50000000  0.34301700  1
  Sb  Sb12  1  0.98701000  0.25249500  0.00000000  1
  Sb  Sb13  1  0.98701000  0.74750500  0.00000000  1
  Sb  Sb14  1  0.01299000  0.75249500  0.50000000  1
  Sb  Sb15  1  0.01299000  0.24750500  0.50000000  1
  F  F16  1  0.37314800  0.32564900  0.00000000  1
  F  F17  1  0.37314800  0.67435100  0.00000000  1
  F  F18  1  0.62685200  0.82564900  0.50000000  1
  F  F19  1  0.62685200  0.17435100  0.50000000  1
  F  F20  1  0.04671000  0.00000000  0.79147900  1
  F  F21  1  0.04671000  0.00000000  0.20852100  1
  F  F22  1  0.95329000  0.50000000  0.70852100  1
  F  F23  1  0.95329000  0.50000000  0.29147900  1
  F  F24  1  0.79333500  0.35131000  0.59651700  1
  F  F25  1  0.79333500  0.64869000  0.40348300  1
  F  F26  1  0.20666500  0.85131000  0.90348300  1
  F  F27  1  0.20666500  0.14869000  0.09651700  1
  F  F28  1  0.20666500  0.14869000  0.90348300  1
  F  F29  1  0.20666500  0.85131000  0.09651700  1
  F  F30  1  0.79333500  0.64869000  0.59651700  1
  F  F31  1  0.79333500  0.35131000  0.40348300  1
  F  F32  1  0.48641000  0.38209000  0.25646500  1
  F  F33  1  0.48641000  0.61791000  0.74353500  1
  F  F34  1  0.51359000  0.88209000  0.24353500  1
  F  F35  1  0.51359000  0.11791000  0.75646500  1
  F  F36  1  0.51359000  0.11791000  0.24353500  1
  F  F37  1  0.51359000  0.88209000  0.75646500  1
  F  F38  1  0.48641000  0.61791000  0.25646500  1
  F  F39  1  0.48641000  0.38209000  0.74353500  1
  F  F40  1  0.07707300  0.13260200  0.40948400  1
  F  F41  1  0.07707300  0.86739800  0.59051600  1
  F  F42  1  0.92292700  0.63260200  0.09051600  1
  F  F43  1  0.92292700  0.36739800  0.90948400  1
  F  F44  1  0.92292700  0.36739800  0.09051600  1
  F  F45  1  0.92292700  0.63260200  0.90948400  1
  F  F46  1  0.07707300  0.86739800  0.40948400  1
  F  F47  1  0.07707300  0.13260200  0.59051600  1
