# generated using pymatgen
data_Cs3MnCl5
_symmetry_space_group_name_H-M   'P 1'
_cell_length_a   10.02835937
_cell_length_b   10.02835937
_cell_length_c   10.02835937
_cell_angle_alpha   123.91861492
_cell_angle_beta   123.91861492
_cell_angle_gamma   83.33699216
_symmetry_Int_Tables_number   1
_chemical_formula_structural   Cs3MnCl5
_chemical_formula_sum   'Cs6 Mn2 Cl10'
_cell_volume   665.96327555
_cell_formula_units_Z   2
loop_
 _symmetry_equiv_pos_site_id
 _symmetry_equiv_pos_as_xyz
  1  'x, y, z'
loop_
 _atom_site_type_symbol
 _atom_site_label
 _atom_site_symmetry_multiplicity
 _atom_site_fract_x
 _atom_site_fract_y
 _atom_site_fract_z
 _atom_site_occupancy
  Cs  Cs0  1  0.83481800  0.66518200  0.50000000  1
  Cs  Cs1  1  0.66518200  0.16518200  0.83036400  1
  Cs  Cs2  1  0.16518200  0.33481800  0.50000000  1
  Cs  Cs3  1  0.25000000  0.25000000  0.00000000  1
  Cs  Cs4  1  0.33481800  0.83481800  0.16963600  1
  Cs  Cs5  1  0.75000000  0.75000000  0.00000000  1
  Mn  Mn6  1  0.25000000  0.75000000  0.50000000  1
  Mn  Mn7  1  0.75000000  0.25000000  0.50000000  1
  Cl  Cl8  1  0.50000000  0.50000000  0.00000000  1
  Cl  Cl9  1  0.79698500  0.01521300  0.50000000  1
  Cl  Cl10  1  0.29698500  0.79698500  0.78177200  1
  Cl  Cl11  1  0.70301500  0.20301500  0.21822800  1
  Cl  Cl12  1  0.98478700  0.48478700  0.78177200  1
  Cl  Cl13  1  0.51521300  0.29698500  0.50000000  1
  Cl  Cl14  1  0.48478700  0.70301500  0.50000000  1
  Cl  Cl15  1  0.20301500  0.98478700  0.50000000  1
  Cl  Cl16  1  0.01521300  0.51521300  0.21822800  1
  Cl  Cl17  1  0.00000000  0.00000000  0.00000000  1
