# generated using pymatgen
data_ThB4
_symmetry_space_group_name_H-M   'P 1'
_cell_length_a   7.25561400
_cell_length_b   7.25561400
_cell_length_c   4.11952500
_cell_angle_alpha   90.00000000
_cell_angle_beta   90.00000000
_cell_angle_gamma   90.00000000
_symmetry_Int_Tables_number   1
_chemical_formula_structural   ThB4
_chemical_formula_sum   'Th4 B16'
_cell_volume   216.86800434
_cell_formula_units_Z   4
loop_
 _symmetry_equiv_pos_site_id
 _symmetry_equiv_pos_as_xyz
  1  'x, y, z'
loop_
 _atom_site_type_symbol
 _atom_site_label
 _atom_site_symmetry_multiplicity
 _atom_site_fract_x
 _atom_site_fract_y
 _atom_site_fract_z
 _atom_site_occupancy
  Th  Th0  1  0.81401200  0.31401200  0.00000000  1
  Th  Th1  1  0.31401200  0.18598800  0.00000000  1
  Th  Th2  1  0.68598800  0.81401200  0.00000000  1
  Th  Th3  1  0.18598800  0.68598800  0.00000000  1
  B  B4  1  0.00000000  0.00000000  0.20114500  1
  B  B5  1  0.50000000  0.50000000  0.79885500  1
  B  B6  1  0.00000000  0.00000000  0.79885500  1
  B  B7  1  0.50000000  0.50000000  0.20114500  1
  B  B8  1  0.58955700  0.08955700  0.50000000  1
  B  B9  1  0.08955700  0.41044300  0.50000000  1
  B  B10  1  0.91044300  0.58955700  0.50000000  1
  B  B11  1  0.41044300  0.91044300  0.50000000  1
  B  B12  1  0.03889900  0.17514900  0.50000000  1
  B  B13  1  0.17514900  0.96110100  0.50000000  1
  B  B14  1  0.82485100  0.03889900  0.50000000  1
  B  B15  1  0.96110100  0.82485100  0.50000000  1
  B  B16  1  0.46110100  0.67514900  0.50000000  1
  B  B17  1  0.53889900  0.32485100  0.50000000  1
  B  B18  1  0.67514900  0.53889900  0.50000000  1
  B  B19  1  0.32485100  0.46110100  0.50000000  1
