# generated using pymatgen
data_Yb11GaSb9
_symmetry_space_group_name_H-M   'P 1'
_cell_length_a   11.98589659
_cell_length_b   11.98589659
_cell_length_c   11.98589659
_cell_angle_alpha   120.94365059
_cell_angle_beta   117.73513006
_cell_angle_gamma   91.17008171
_symmetry_Int_Tables_number   1
_chemical_formula_structural   Yb11GaSb9
_chemical_formula_sum   'Yb22 Ga2 Sb18'
_cell_volume   1228.28222190
_cell_formula_units_Z   2
loop_
 _symmetry_equiv_pos_site_id
 _symmetry_equiv_pos_as_xyz
  1  'x, y, z'
loop_
 _atom_site_type_symbol
 _atom_site_label
 _atom_site_symmetry_multiplicity
 _atom_site_fract_x
 _atom_site_fract_y
 _atom_site_fract_z
 _atom_site_occupancy
  Yb  Yb0  1  0.81077400  0.18641000  0.25526100  1
  Yb  Yb1  1  0.67710200  0.67710200  0.00000000  1
  Yb  Yb2  1  0.11273200  0.75209000  0.18265600  1
  Yb  Yb3  1  0.93114900  0.55551300  0.74473900  1
  Yb  Yb4  1  0.32736500  0.65938900  0.98937400  1
  Yb  Yb5  1  0.61273200  0.43007600  0.36064200  1
  Yb  Yb6  1  0.82736500  0.83799100  0.66797600  1
  Yb  Yb7  1  0.67001500  0.33799100  0.01062600  1
  Yb  Yb8  1  0.17710200  0.17710200  0.00000000  1
  Yb  Yb9  1  0.93593800  0.72837200  0.34616400  1
  Yb  Yb10  1  0.43114900  0.68641000  0.37563600  1
  Yb  Yb11  1  0.57494400  0.31177100  0.63021900  1
  Yb  Yb12  1  0.56943400  0.93007600  0.81734400  1
  Yb  Yb13  1  0.68155100  0.94472500  0.36978100  1
  Yb  Yb14  1  0.88220700  0.22837200  0.79243400  1
  Yb  Yb15  1  0.17001500  0.15938900  0.33202400  1
  Yb  Yb16  1  0.18155100  0.81177100  0.73682600  1
  Yb  Yb17  1  0.31077400  0.05551300  0.62436400  1
  Yb  Yb18  1  0.38220700  0.58977400  0.65383600  1
  Yb  Yb19  1  0.06943400  0.25209000  0.63935800  1
  Yb  Yb20  1  0.43593800  0.08977400  0.20756600  1
  Yb  Yb21  1  0.07494400  0.44472500  0.26317400  1
  Ga  Ga22  1  0.39221400  0.39221400  0.00000000  1
  Ga  Ga23  1  0.89221400  0.89221400  0.00000000  1
  Sb  Sb24  1  0.11761400  0.87438000  0.98490300  1
  Sb  Sb25  1  0.44856000  0.16166700  0.99060700  1
  Sb  Sb26  1  0.61761400  0.63271100  0.24323400  1
  Sb  Sb27  1  0.60765300  0.03282100  0.64607200  1
  Sb  Sb28  1  0.75161200  0.25161200  0.50000000  1
  Sb  Sb29  1  0.38674900  0.96158200  0.35392800  1
  Sb  Sb30  1  0.67106000  0.66166700  0.71310700  1
  Sb  Sb31  1  0.25161200  0.75161200  0.50000000  1
  Sb  Sb32  1  0.17106000  0.45795300  0.00939300  1
  Sb  Sb33  1  0.88674900  0.53282100  0.42516700  1
  Sb  Sb34  1  0.88947600  0.13271100  0.01509700  1
  Sb  Sb35  1  0.94856000  0.95795300  0.28689300  1
  Sb  Sb36  1  0.10765300  0.46158200  0.57483300  1
  Sb  Sb37  1  0.86056700  0.50305100  0.99885700  1
  Sb  Sb38  1  0.36056700  0.36170900  0.35751500  1
  Sb  Sb39  1  0.00419400  0.00305100  0.64248500  1
  Sb  Sb40  1  0.38947600  0.37438000  0.75676600  1
  Sb  Sb41  1  0.50419400  0.86170900  0.00114300  1
