# generated using pymatgen
data_TcSO6F
_symmetry_space_group_name_H-M   'P 1'
_cell_length_a   8.34948700
_cell_length_b   7.31762700
_cell_length_c   9.25496756
_cell_angle_alpha   82.72729177
_cell_angle_beta   90.00000000
_cell_angle_gamma   90.00000000
_symmetry_Int_Tables_number   1
_chemical_formula_structural   TcSO6F
_chemical_formula_sum   'Tc4 S4 O24 F4'
_cell_volume   560.91476144
_cell_formula_units_Z   4
loop_
 _symmetry_equiv_pos_site_id
 _symmetry_equiv_pos_as_xyz
  1  'x, y, z'
loop_
 _atom_site_type_symbol
 _atom_site_label
 _atom_site_symmetry_multiplicity
 _atom_site_fract_x
 _atom_site_fract_y
 _atom_site_fract_z
 _atom_site_occupancy
  Tc  Tc0  1  0.65317200  0.25407200  0.15418600  1
  Tc  Tc1  1  0.84682800  0.25407200  0.65418600  1
  Tc  Tc2  1  0.34682800  0.74592800  0.84581400  1
  Tc  Tc3  1  0.15317200  0.74592800  0.34581400  1
  S  S4  1  0.22485700  0.08530100  0.57364800  1
  S  S5  1  0.77514300  0.91469900  0.42635200  1
  S  S6  1  0.27514300  0.08530100  0.07364800  1
  S  S7  1  0.72485700  0.91469900  0.92635200  1
  O  O8  1  0.90443100  0.41272100  0.76353700  1
  O  O9  1  0.15182700  0.96634900  0.14729500  1
  O  O10  1  0.88944600  0.35193600  0.48110400  1
  O  O11  1  0.83492500  0.97119800  0.56166500  1
  O  O12  1  0.84817300  0.03365100  0.85270500  1
  O  O13  1  0.16507500  0.02880200  0.43833500  1
  O  O14  1  0.09556900  0.58727900  0.23646300  1
  O  O15  1  0.38944600  0.64806400  0.01889600  1
  O  O16  1  0.11055400  0.64806400  0.51889600  1
  O  O17  1  0.61055400  0.35193600  0.98110400  1
  O  O18  1  0.33492500  0.02880200  0.93833500  1
  O  O19  1  0.35702700  0.74860300  0.33728700  1
  O  O20  1  0.64297300  0.25139700  0.66271300  1
  O  O21  1  0.10231200  0.14009900  0.67198100  1
  O  O22  1  0.85702700  0.25139700  0.16271300  1
  O  O23  1  0.89768800  0.85990100  0.32801900  1
  O  O24  1  0.59556900  0.41272100  0.26353700  1
  O  O25  1  0.66507500  0.97119800  0.06166500  1
  O  O26  1  0.65182700  0.03365100  0.35270500  1
  O  O27  1  0.39768800  0.14009900  0.17198100  1
  O  O28  1  0.40443100  0.58727900  0.73646300  1
  O  O29  1  0.14297300  0.74860300  0.83728700  1
  O  O30  1  0.34817300  0.96634900  0.64729500  1
  O  O31  1  0.60231200  0.85990100  0.82801900  1
  F  F32  1  0.81805900  0.73168400  0.97950500  1
  F  F33  1  0.31805900  0.26831600  0.52049500  1
  F  F34  1  0.68194100  0.73168400  0.47950500  1
  F  F35  1  0.18194100  0.26831600  0.02049500  1
