# generated using pymatgen
data_SbAsPCl13
_symmetry_space_group_name_H-M   'P 1'
_cell_length_a   9.84059143
_cell_length_b   9.84059143
_cell_length_c   12.17955600
_cell_angle_alpha   90.00000000
_cell_angle_beta   90.00000000
_cell_angle_gamma   115.28545524
_symmetry_Int_Tables_number   1
_chemical_formula_structural   SbAsPCl13
_chemical_formula_sum   'Sb2 As2 P2 Cl26'
_cell_volume   1066.43414353
_cell_formula_units_Z   2
loop_
 _symmetry_equiv_pos_site_id
 _symmetry_equiv_pos_as_xyz
  1  'x, y, z'
loop_
 _atom_site_type_symbol
 _atom_site_label
 _atom_site_symmetry_multiplicity
 _atom_site_fract_x
 _atom_site_fract_y
 _atom_site_fract_z
 _atom_site_occupancy
  Sb  Sb0  1  0.79335600  0.20664400  0.99797200  1
  Sb  Sb1  1  0.20664400  0.79335600  0.49797200  1
  As  As2  1  0.45083200  0.54916800  0.34712300  1
  As  As3  1  0.54916800  0.45083200  0.84712300  1
  P  P4  1  0.14024500  0.85975500  0.03625500  1
  P  P5  1  0.85975500  0.14024500  0.53625500  1
  Cl  Cl6  1  0.30992500  0.01402900  0.61250600  1
  Cl  Cl7  1  0.86409900  0.13590100  0.37550200  1
  Cl  Cl8  1  0.62444600  0.69531700  0.86990100  1
  Cl  Cl9  1  0.13590100  0.86409900  0.87550200  1
  Cl  Cl10  1  0.93500200  0.76190600  0.09301000  1
  Cl  Cl11  1  0.69531700  0.62444600  0.36990100  1
  Cl  Cl12  1  0.74729000  0.25271000  0.58298100  1
  Cl  Cl13  1  0.23809400  0.06499800  0.09301000  1
  Cl  Cl14  1  0.69007500  0.98597100  0.11250600  1
  Cl  Cl15  1  0.25271000  0.74729000  0.08298100  1
  Cl  Cl16  1  0.06499800  0.23809400  0.59301000  1
  Cl  Cl17  1  0.10184000  0.57255400  0.38115200  1
  Cl  Cl18  1  0.98597100  0.69007500  0.61250600  1
  Cl  Cl19  1  0.01402900  0.30992500  0.11250600  1
  Cl  Cl20  1  0.08802300  0.91197700  0.38335900  1
  Cl  Cl21  1  0.89816000  0.42744600  0.88115200  1
  Cl  Cl22  1  0.57255400  0.10184000  0.88115200  1
  Cl  Cl23  1  0.42744600  0.89816000  0.38115200  1
  Cl  Cl24  1  0.30468300  0.37555400  0.86990100  1
  Cl  Cl25  1  0.37555400  0.30468300  0.36990100  1
  Cl  Cl26  1  0.91197700  0.08802300  0.88335900  1
  Cl  Cl27  1  0.55315400  0.44684600  0.66418800  1
  Cl  Cl28  1  0.32654600  0.67345400  0.60878000  1
  Cl  Cl29  1  0.67345400  0.32654600  0.10878000  1
  Cl  Cl30  1  0.76190600  0.93500200  0.59301000  1
  Cl  Cl31  1  0.44684600  0.55315400  0.16418800  1
