# generated using pymatgen
data_V3B4
_symmetry_space_group_name_H-M   'P 1'
_cell_length_a   6.94804642
_cell_length_b   6.94804642
_cell_length_c   6.94804642
_cell_angle_alpha   155.22419822
_cell_angle_beta   154.70187756
_cell_angle_gamma   35.70318357
_symmetry_Int_Tables_number   1
_chemical_formula_structural   V3B4
_chemical_formula_sum   'V3 B4'
_cell_volume   59.99383519
_cell_formula_units_Z   1
loop_
 _symmetry_equiv_pos_site_id
 _symmetry_equiv_pos_as_xyz
  1  'x, y, z'
loop_
 _atom_site_type_symbol
 _atom_site_label
 _atom_site_symmetry_multiplicity
 _atom_site_fract_x
 _atom_site_fract_y
 _atom_site_fract_z
 _atom_site_occupancy
  V  V0  1  0.00000000  0.50000000  0.50000000  1
  V  V1  1  0.18746700  0.18746700  0.00000000  1
  V  V2  1  0.81253300  0.81253300  0.00000000  1
  B  B3  1  0.63642100  0.63642100  0.00000000  1
  B  B4  1  0.36357900  0.36357900  0.00000000  1
  B  B5  1  0.56554500  0.06554500  0.50000000  1
  B  B6  1  0.43445500  0.93445500  0.50000000  1
