# generated using pymatgen
data_La3Si2S8Br
_symmetry_space_group_name_H-M   'P 1'
_cell_length_a   8.90111319
_cell_length_b   8.90111319
_cell_length_c   11.04724530
_cell_angle_alpha   83.44763330
_cell_angle_beta   83.44763330
_cell_angle_gamma   52.59602478
_symmetry_Int_Tables_number   1
_chemical_formula_structural   La3Si2S8Br
_chemical_formula_sum   'La6 Si4 S16 Br2'
_cell_volume   689.63598840
_cell_formula_units_Z   2
loop_
 _symmetry_equiv_pos_site_id
 _symmetry_equiv_pos_as_xyz
  1  'x, y, z'
loop_
 _atom_site_type_symbol
 _atom_site_label
 _atom_site_symmetry_multiplicity
 _atom_site_fract_x
 _atom_site_fract_y
 _atom_site_fract_z
 _atom_site_occupancy
  La  La0  1  0.07442900  0.31398200  0.81677000  1
  La  La1  1  0.39276100  0.60723900  0.75000000  1
  La  La2  1  0.31398200  0.07442900  0.31677000  1
  La  La3  1  0.60723900  0.39276100  0.25000000  1
  La  La4  1  0.92557100  0.68601800  0.18323000  1
  La  La5  1  0.68601800  0.92557100  0.68323000  1
  Si  Si6  1  0.62627700  0.69379000  0.96979600  1
  Si  Si7  1  0.30621000  0.37372300  0.53020400  1
  Si  Si8  1  0.69379000  0.62627700  0.46979600  1
  Si  Si9  1  0.37372300  0.30621000  0.03020400  1
  S  S10  1  0.74384100  0.55439600  0.65864000  1
  S  S11  1  0.14562700  0.28961500  0.08494400  1
  S  S12  1  0.89132900  0.40097100  0.35519700  1
  S  S13  1  0.27950000  0.58672600  0.04806700  1
  S  S14  1  0.28961500  0.14562700  0.58494400  1
  S  S15  1  0.44560400  0.25615900  0.84136000  1
  S  S16  1  0.72050000  0.41327400  0.95193300  1
  S  S17  1  0.41327400  0.72050000  0.45193300  1
  S  S18  1  0.40097100  0.89132900  0.85519700  1
  S  S19  1  0.85437300  0.71038500  0.91505600  1
  S  S20  1  0.71038500  0.85437300  0.41505600  1
  S  S21  1  0.55439600  0.74384100  0.15864000  1
  S  S22  1  0.58672600  0.27950000  0.54806700  1
  S  S23  1  0.25615900  0.44560400  0.34136000  1
  S  S24  1  0.59902900  0.10867100  0.14480300  1
  S  S25  1  0.10867100  0.59902900  0.64480300  1
  Br  Br26  1  0.00520500  0.99479500  0.25000000  1
  Br  Br27  1  0.99479500  0.00520500  0.75000000  1
