# generated using pymatgen
data_Mn2BiO5
_symmetry_space_group_name_H-M   'P 1'
_cell_length_a   5.87967900
_cell_length_b   7.65514600
_cell_length_c   8.64293900
_cell_angle_alpha   90.00021085
_cell_angle_beta   90.00002300
_cell_angle_gamma   90.00003446
_symmetry_Int_Tables_number   1
_chemical_formula_structural   Mn2BiO5
_chemical_formula_sum   'Mn8 Bi4 O20'
_cell_volume   389.01696598
_cell_formula_units_Z   4
loop_
 _symmetry_equiv_pos_site_id
 _symmetry_equiv_pos_as_xyz
  1  'x, y, z'
loop_
 _atom_site_type_symbol
 _atom_site_label
 _atom_site_symmetry_multiplicity
 _atom_site_fract_x
 _atom_site_fract_y
 _atom_site_fract_z
 _atom_site_occupancy
  Mn  Mn0  1  0.25821500  0.50000000  0.49999900  1
  Mn  Mn1  1  0.74179500  0.00000000  0.00000000  1
  Mn  Mn2  1  0.74178500  0.50000000  0.50000100  1
  Mn  Mn3  1  0.25820600  0.00000000  0.00000000  1
  Mn  Mn4  1  0.49999900  0.59436700  0.15115700  1
  Mn  Mn5  1  0.49999900  0.40563100  0.84884400  1
  Mn  Mn6  1  0.50000000  0.09437000  0.34884600  1
  Mn  Mn7  1  0.50000000  0.90563100  0.65115400  1
  Bi  Bi8  1  0.99999900  0.84541500  0.33529400  1
  Bi  Bi9  1  0.00000000  0.15458500  0.66470600  1
  Bi  Bi10  1  0.99999900  0.34541900  0.16470800  1
  Bi  Bi11  1  0.00000000  0.65458200  0.83529200  1
  O  O12  1  0.00000000  0.84517700  0.05718000  1
  O  O13  1  0.00000100  0.15482300  0.94282100  1
  O  O14  1  0.00000000  0.34517800  0.44282100  1
  O  O15  1  0.00000100  0.65482200  0.55718000  1
  O  O16  1  0.50000200  0.85544700  0.07433400  1
  O  O17  1  0.50000100  0.14455200  0.92566700  1
  O  O18  1  0.50000100  0.35544700  0.42566500  1
  O  O19  1  0.50000000  0.64455300  0.57433500  1
  O  O20  1  0.25033200  0.61370700  0.29911700  1
  O  O21  1  0.25033300  0.38629300  0.70088200  1
  O  O22  1  0.74967000  0.11371100  0.20088500  1
  O  O23  1  0.74966900  0.88628900  0.79911500  1
  O  O24  1  0.74966700  0.38629300  0.70088300  1
  O  O25  1  0.74966600  0.61370700  0.29911700  1
  O  O26  1  0.25033100  0.88628900  0.79911500  1
  O  O27  1  0.25033100  0.11371100  0.20088500  1
  O  O28  1  0.28447400  0.49999900  0.00000000  1
  O  O29  1  0.71552400  0.00000000  0.50000000  1
  O  O30  1  0.71552400  0.49999900  0.00000000  1
  O  O31  1  0.28447700  0.00000100  0.50000000  1
