# generated using pymatgen
data_KFeP2O7
_symmetry_space_group_name_H-M   'P 1'
_cell_length_a   10.15359100
_cell_length_b   7.48921700
_cell_length_c   8.32816477
_cell_angle_alpha   73.32662989
_cell_angle_beta   90.00000000
_cell_angle_gamma   90.00000000
_symmetry_Int_Tables_number   1
_chemical_formula_structural   KFeP2O7
_chemical_formula_sum   'K4 Fe4 P8 O28'
_cell_volume   606.66777744
_cell_formula_units_Z   4
loop_
 _symmetry_equiv_pos_site_id
 _symmetry_equiv_pos_as_xyz
  1  'x, y, z'
loop_
 _atom_site_type_symbol
 _atom_site_label
 _atom_site_symmetry_multiplicity
 _atom_site_fract_x
 _atom_site_fract_y
 _atom_site_fract_z
 _atom_site_occupancy
  K  K0  1  0.67917100  0.17797300  0.94623800  1
  K  K1  1  0.17917100  0.82202700  0.55376200  1
  K  K2  1  0.32082900  0.82202700  0.05376200  1
  K  K3  1  0.82082900  0.17797300  0.44623800  1
  Fe  Fe4  1  0.40072300  0.23629500  0.23895500  1
  Fe  Fe5  1  0.90072300  0.76370500  0.26104500  1
  Fe  Fe6  1  0.59927700  0.76370500  0.76104500  1
  Fe  Fe7  1  0.09927700  0.23629500  0.73895500  1
  P  P8  1  0.36369500  0.43958900  0.80840400  1
  P  P9  1  0.86369500  0.56041100  0.69159600  1
  P  P10  1  0.63630500  0.56041100  0.19159600  1
  P  P11  1  0.13630500  0.43958900  0.30840400  1
  P  P12  1  0.09654300  0.13284600  0.16925200  1
  P  P13  1  0.59654300  0.86715400  0.33074800  1
  P  P14  1  0.90345700  0.86715400  0.83074800  1
  P  P15  1  0.40345700  0.13284600  0.66925200  1
  O  O16  1  0.44076600  0.33819600  0.68588600  1
  O  O17  1  0.94076600  0.66180400  0.81411400  1
  O  O18  1  0.55923400  0.66180400  0.31411400  1
  O  O19  1  0.05923400  0.33819600  0.18588600  1
  O  O20  1  0.26552700  0.08112800  0.74472700  1
  O  O21  1  0.76552700  0.91887200  0.75527300  1
  O  O22  1  0.73447300  0.91887200  0.25527300  1
  O  O23  1  0.23447300  0.08112800  0.24472700  1
  O  O24  1  0.42085000  0.63663300  0.76653800  1
  O  O25  1  0.92085000  0.36336700  0.73346200  1
  O  O26  1  0.57915000  0.36336700  0.23346200  1
  O  O27  1  0.07915000  0.63663300  0.26653800  1
  O  O28  1  0.40998600  0.14528700  0.48548300  1
  O  O29  1  0.90998600  0.85471300  0.01451700  1
  O  O30  1  0.59001400  0.85471300  0.51451700  1
  O  O31  1  0.09001400  0.14528700  0.98548300  1
  O  O32  1  0.39406800  0.32048000  0.98613400  1
  O  O33  1  0.89406800  0.67952000  0.51386600  1
  O  O34  1  0.60593200  0.67952000  0.01386600  1
  O  O35  1  0.10593200  0.32048000  0.48613400  1
  O  O36  1  0.50509200  0.99959100  0.77731600  1
  O  O37  1  0.00509200  0.00040900  0.72268400  1
  O  O38  1  0.49490800  0.00040900  0.22268400  1
  O  O39  1  0.99490800  0.99959100  0.27731600  1
  O  O40  1  0.21756000  0.45070700  0.75726600  1
  O  O41  1  0.71756000  0.54929300  0.74273400  1
  O  O42  1  0.78244000  0.54929300  0.24273400  1
  O  O43  1  0.28244000  0.45070700  0.25726600  1
