# generated using pymatgen
data_Sn2P2O7
_symmetry_space_group_name_H-M   'P 1'
_cell_length_a   5.39058400
_cell_length_b   11.76963613
_cell_length_c   11.88075898
_cell_angle_alpha   102.18048118
_cell_angle_beta   99.13600268
_cell_angle_gamma   98.73572687
_symmetry_Int_Tables_number   1
_chemical_formula_structural   Sn2P2O7
_chemical_formula_sum   'Sn8 P8 O28'
_cell_volume   713.91467300
_cell_formula_units_Z   4
loop_
 _symmetry_equiv_pos_site_id
 _symmetry_equiv_pos_as_xyz
  1  'x, y, z'
loop_
 _atom_site_type_symbol
 _atom_site_label
 _atom_site_symmetry_multiplicity
 _atom_site_fract_x
 _atom_site_fract_y
 _atom_site_fract_z
 _atom_site_occupancy
  Sn  Sn0  1  0.26879300  0.49940600  0.14275400  1
  Sn  Sn1  1  0.83102900  0.15102600  0.02350400  1
  Sn  Sn2  1  0.73120700  0.50059400  0.85724600  1
  Sn  Sn3  1  0.16897100  0.84897400  0.97649600  1
  Sn  Sn4  1  0.22829600  0.36384400  0.46796200  1
  Sn  Sn5  1  0.68529100  0.94441500  0.36847600  1
  Sn  Sn6  1  0.31470900  0.05558500  0.63152400  1
  Sn  Sn7  1  0.77170400  0.63615600  0.53203800  1
  P  P8  1  0.82454100  0.27952900  0.64925400  1
  P  P9  1  0.79538700  0.73060200  0.14523600  1
  P  P10  1  0.31281700  0.67321000  0.74399400  1
  P  P11  1  0.68718300  0.32679000  0.25600600  1
  P  P12  1  0.71297200  0.88386200  0.74570700  1
  P  P13  1  0.28702800  0.11613800  0.25429300  1
  P  P14  1  0.17545900  0.72047100  0.35074600  1
  P  P15  1  0.20461300  0.26939800  0.85476400  1
  O  O16  1  0.58777500  0.18410200  0.58661100  1
  O  O17  1  0.43906300  0.81151500  0.75740400  1
  O  O18  1  0.33921600  0.17134800  0.80181400  1
  O  O19  1  0.88723500  0.91667500  0.86863500  1
  O  O20  1  0.41222500  0.81589800  0.41338900  1
  O  O21  1  0.82632200  0.80869400  0.65370600  1
  O  O22  1  0.17367800  0.19130600  0.34629400  1
  O  O23  1  0.35303500  0.00405700  0.28705200  1
  O  O24  1  0.14782600  0.25633300  0.97518100  1
  O  O25  1  0.04527100  0.27026500  0.58317100  1
  O  O26  1  0.95472900  0.72973500  0.41682900  1
  O  O27  1  0.34384200  0.39433300  0.86130000  1
  O  O28  1  0.75841500  0.40338800  0.67852100  1
  O  O29  1  0.84344900  0.37475300  0.38127300  1
  O  O30  1  0.66078400  0.82865200  0.19818600  1
  O  O31  1  0.64696500  0.99594300  0.71294800  1
  O  O32  1  0.53399200  0.60726000  0.76172100  1
  O  O33  1  0.65615800  0.60566700  0.13870000  1
  O  O34  1  0.14887900  0.68076000  0.83933500  1
  O  O35  1  0.85112100  0.31924000  0.16066500  1
  O  O36  1  0.24158500  0.59661200  0.32147900  1
  O  O37  1  0.91906400  0.24934900  0.77506700  1
  O  O38  1  0.56093700  0.18848500  0.24259600  1
  O  O39  1  0.08093600  0.75065100  0.22493300  1
  O  O40  1  0.11276500  0.08332500  0.13136500  1
  O  O41  1  0.15655100  0.62524700  0.61872600  1
  O  O42  1  0.46600800  0.39274000  0.23827900  1
  O  O43  1  0.85217400  0.74366700  0.02481900  1
