# generated using pymatgen
data_BaMo2(PO4)4
_symmetry_space_group_name_H-M   'P 1'
_cell_length_a   8.04205700
_cell_length_b   8.13905000
_cell_length_c   12.51701836
_cell_angle_alpha   51.17636945
_cell_angle_beta   90.00000000
_cell_angle_gamma   90.00000000
_symmetry_Int_Tables_number   1
_chemical_formula_structural   BaMo2(PO4)4
_chemical_formula_sum   'Ba2 Mo4 P8 O32'
_cell_volume   638.29804089
_cell_formula_units_Z   2
loop_
 _symmetry_equiv_pos_site_id
 _symmetry_equiv_pos_as_xyz
  1  'x, y, z'
loop_
 _atom_site_type_symbol
 _atom_site_label
 _atom_site_symmetry_multiplicity
 _atom_site_fract_x
 _atom_site_fract_y
 _atom_site_fract_z
 _atom_site_occupancy
  Ba  Ba0  1  0.50000000  0.00000000  0.50000000  1
  Ba  Ba1  1  0.00000000  0.00000000  0.00000000  1
  Mo  Mo2  1  0.77594500  0.61830700  0.83706200  1
  Mo  Mo3  1  0.22405500  0.38169300  0.16293800  1
  Mo  Mo4  1  0.72405500  0.61830700  0.33706200  1
  Mo  Mo5  1  0.27594500  0.38169300  0.66293800  1
  P  P6  1  0.89686100  0.03464600  0.29055200  1
  P  P7  1  0.39686100  0.96535400  0.20944800  1
  P  P8  1  0.60313900  0.03464600  0.79055200  1
  P  P9  1  0.09225700  0.34531300  0.43379700  1
  P  P10  1  0.59225700  0.65468700  0.06620300  1
  P  P11  1  0.10313900  0.96535400  0.70944800  1
  P  P12  1  0.90774300  0.65468700  0.56620300  1
  P  P13  1  0.40774300  0.34531300  0.93379700  1
  O  O14  1  0.24941200  0.89057500  0.67733900  1
  O  O15  1  0.00112100  0.13925300  0.56376300  1
  O  O16  1  0.19538600  0.28070400  0.36103900  1
  O  O17  1  0.49887900  0.13925300  0.06376300  1
  O  O18  1  0.12325800  0.61870500  0.08073600  1
  O  O19  1  0.75058800  0.10942500  0.32266100  1
  O  O20  1  0.69538600  0.71929600  0.13896100  1
  O  O21  1  0.74941200  0.10942500  0.82266100  1
  O  O22  1  0.97332200  0.79725800  0.80805800  1
  O  O23  1  0.37674200  0.61870500  0.58073600  1
  O  O24  1  0.62325800  0.38129500  0.41926400  1
  O  O25  1  0.87674200  0.38129500  0.91926400  1
  O  O26  1  0.85694300  0.91113900  0.23662500  1
  O  O27  1  0.80461400  0.71929600  0.63896100  1
  O  O28  1  0.71268900  0.57662000  0.01171700  1
  O  O29  1  0.47332200  0.20274200  0.69194200  1
  O  O30  1  0.14305700  0.08886100  0.76337500  1
  O  O31  1  0.64305700  0.91113900  0.73662500  1
  O  O32  1  0.95687600  0.50259800  0.33905800  1
  O  O33  1  0.25058800  0.89057500  0.17733900  1
  O  O34  1  0.02667800  0.20274200  0.19194200  1
  O  O35  1  0.04312400  0.49740200  0.66094200  1
  O  O36  1  0.78731100  0.57662000  0.51171700  1
  O  O37  1  0.21268900  0.42338000  0.48828300  1
  O  O38  1  0.50112100  0.86074700  0.93623700  1
  O  O39  1  0.99887900  0.86074700  0.43623700  1
  O  O40  1  0.35694300  0.08886100  0.26337500  1
  O  O41  1  0.54312400  0.50259800  0.83905800  1
  O  O42  1  0.52667800  0.79725800  0.30805800  1
  O  O43  1  0.30461400  0.28070400  0.86103900  1
  O  O44  1  0.45687600  0.49740200  0.16094200  1
  O  O45  1  0.28731100  0.42338000  0.98828300  1
