# generated using pymatgen
data_Bi6P4PbO20
_symmetry_space_group_name_H-M   'P 1'
_cell_length_a   7.05320300
_cell_length_b   7.73982669
_cell_length_c   9.29843789
_cell_angle_alpha   107.11819734
_cell_angle_beta   93.19233011
_cell_angle_gamma   111.95732258
_symmetry_Int_Tables_number   1
_chemical_formula_structural   Bi6P4PbO20
_chemical_formula_sum   'Bi6 P4 Pb1 O20'
_cell_volume   441.99411991
_cell_formula_units_Z   1
loop_
 _symmetry_equiv_pos_site_id
 _symmetry_equiv_pos_as_xyz
  1  'x, y, z'
loop_
 _atom_site_type_symbol
 _atom_site_label
 _atom_site_symmetry_multiplicity
 _atom_site_fract_x
 _atom_site_fract_y
 _atom_site_fract_z
 _atom_site_occupancy
  Bi  Bi0  1  0.19360900  0.69565900  0.67460800  1
  Bi  Bi1  1  0.80639100  0.30434100  0.32539200  1
  Bi  Bi2  1  0.56098300  0.20728900  0.91182900  1
  Bi  Bi3  1  0.43901700  0.79271100  0.08817100  1
  Bi  Bi4  1  0.66848200  0.87386600  0.49024900  1
  Bi  Bi5  1  0.33151800  0.12613400  0.50975100  1
  P  P6  1  0.95305700  0.73007000  0.24395900  1
  P  P7  1  0.04694300  0.26993000  0.75604100  1
  P  P8  1  0.34958900  0.40078700  0.25847200  1
  P  P9  1  0.65041100  0.59921300  0.74152800  1
  Pb  Pb10  1  0.00000000  0.00000000  0.00000000  1
  O  O11  1  0.12336500  0.82576700  0.15771500  1
  O  O12  1  0.87663500  0.17423300  0.84228500  1
  O  O13  1  0.13447800  0.26755100  0.28323600  1
  O  O14  1  0.86552200  0.73244900  0.71676400  1
  O  O15  1  0.78602200  0.81749000  0.24126200  1
  O  O16  1  0.21397800  0.18251000  0.75873800  1
  O  O17  1  0.67640700  0.09393200  0.09736400  1
  O  O18  1  0.32359300  0.90606800  0.90263600  1
  O  O19  1  0.37789900  0.62099300  0.31289100  1
  O  O20  1  0.62210100  0.37900700  0.68710900  1
  O  O21  1  0.35656300  0.32952100  0.08540500  1
  O  O22  1  0.64343700  0.67047900  0.91459500  1
  O  O23  1  0.55420300  0.02793500  0.36290000  1
  O  O24  1  0.44579700  0.97206500  0.63710000  1
  O  O25  1  0.52202700  0.38006800  0.35588700  1
  O  O26  1  0.47797300  0.61993200  0.64411300  1
  O  O27  1  0.04830600  0.79021300  0.41649600  1
  O  O28  1  0.95169400  0.20978700  0.58350400  1
  O  O29  1  0.85562500  0.50039500  0.16891000  1
  O  O30  1  0.14437500  0.49960500  0.83109000  1
