# generated using pymatgen
data_Sc(PO3)3
_symmetry_space_group_name_H-M   'P 1'
_cell_length_a   12.61994042
_cell_length_b   12.61994042
_cell_length_c   12.61994042
_cell_angle_alpha   109.47122063
_cell_angle_beta   109.47122063
_cell_angle_gamma   109.47122063
_symmetry_Int_Tables_number   1
_chemical_formula_structural   Sc(PO3)3
_chemical_formula_sum   'Sc8 P24 O72'
_cell_volume   1547.21270574
_cell_formula_units_Z   8
loop_
 _symmetry_equiv_pos_site_id
 _symmetry_equiv_pos_as_xyz
  1  'x, y, z'
loop_
 _atom_site_type_symbol
 _atom_site_label
 _atom_site_symmetry_multiplicity
 _atom_site_fract_x
 _atom_site_fract_y
 _atom_site_fract_z
 _atom_site_occupancy
  Sc  Sc0  1  0.70782400  0.70782400  0.70782400  1
  Sc  Sc1  1  0.50000000  0.00000000  0.29217600  1
  Sc  Sc2  1  0.00000000  0.29217600  0.50000000  1
  Sc  Sc3  1  0.29217600  0.50000000  0.00000000  1
  Sc  Sc4  1  0.00000000  0.79217600  0.50000000  1
  Sc  Sc5  1  0.79217600  0.50000000  0.00000000  1
  Sc  Sc6  1  0.50000000  0.00000000  0.79217600  1
  Sc  Sc7  1  0.20782400  0.20782400  0.20782400  1
  P  P8  1  0.66944800  0.87829400  0.95783200  1
  P  P9  1  0.78838400  0.20884600  0.83055200  1
  P  P10  1  0.29115400  0.07953800  0.62170600  1
  P  P11  1  0.42046200  0.71161600  0.54216800  1
  P  P12  1  0.71161600  0.54216800  0.42046200  1
  P  P13  1  0.54216800  0.42046200  0.71161600  1
  P  P14  1  0.37829400  0.16944800  0.45783200  1
  P  P15  1  0.28838400  0.33055200  0.70884600  1
  P  P16  1  0.12170600  0.57953800  0.79115400  1
  P  P17  1  0.92046200  0.04216800  0.21161600  1
  P  P18  1  0.04216800  0.21161600  0.92046200  1
  P  P19  1  0.45783200  0.37829400  0.16944800  1
  P  P20  1  0.33055200  0.70884600  0.28838400  1
  P  P21  1  0.79115400  0.12170600  0.57953800  1
  P  P22  1  0.16944800  0.45783200  0.37829400  1
  P  P23  1  0.70884600  0.28838400  0.33055200  1
  P  P24  1  0.57953800  0.79115400  0.12170600  1
  P  P25  1  0.83055200  0.78838400  0.20884600  1
  P  P26  1  0.07953800  0.62170600  0.29115400  1
  P  P27  1  0.62170600  0.29115400  0.07953800  1
  P  P28  1  0.87829400  0.95783200  0.66944800  1
  P  P29  1  0.95783200  0.66944800  0.87829400  1
  P  P30  1  0.20884600  0.83055200  0.78838400  1
  P  P31  1  0.21161600  0.92046200  0.04216800  1
  O  O32  1  0.58396600  0.92092300  0.89233400  1
  O  O33  1  0.80836800  0.33695700  0.91603400  1
  O  O34  1  0.16304300  0.97141100  0.57907700  1
  O  O35  1  0.52858900  0.69163200  0.60766600  1
  O  O36  1  0.69163200  0.60766600  0.52858900  1
  O  O37  1  0.60766600  0.52858900  0.69163200  1
  O  O38  1  0.42092300  0.08396600  0.39233400  1
  O  O39  1  0.30836800  0.41603400  0.83695700  1
  O  O40  1  0.07907700  0.47141100  0.66304300  1
  O  O41  1  0.02858900  0.10766600  0.19163200  1
  O  O42  1  0.10766600  0.19163200  0.02858900  1
  O  O43  1  0.39233400  0.42092300  0.08396600  1
  O  O44  1  0.41603400  0.83695700  0.30836800  1
  O  O45  1  0.66304300  0.07907700  0.47141100  1
  O  O46  1  0.08396600  0.39233400  0.42092300  1
  O  O47  1  0.83695700  0.30836800  0.41603400  1
  O  O48  1  0.47141100  0.66304300  0.07907700  1
  O  O49  1  0.91603400  0.80836800  0.33695700  1
  O  O50  1  0.97141100  0.57907700  0.16304300  1
  O  O51  1  0.57907700  0.16304300  0.97141100  1
  O  O52  1  0.92092300  0.89233400  0.58396600  1
  O  O53  1  0.89233400  0.58396600  0.92092300  1
  O  O54  1  0.33695700  0.91603400  0.80836800  1
  O  O55  1  0.19163200  0.02858900  0.10766600  1
  O  O56  1  0.72138300  0.80988400  0.88621700  1
  O  O57  1  0.19011600  0.57633300  0.91149900  1
  O  O58  1  0.66483400  0.08850100  0.77861700  1
  O  O59  1  0.42366700  0.83516600  0.61378300  1
  O  O60  1  0.83516600  0.61378300  0.42366700  1
  O  O61  1  0.61378300  0.42366700  0.83516600  1
  O  O62  1  0.30988400  0.22138300  0.38621700  1
  O  O63  1  0.16483400  0.27861700  0.58850100  1
  O  O64  1  0.09520900  0.78498200  0.00346500  1
  O  O65  1  0.18977300  0.90825600  0.90479100  1
  O  O66  1  0.99653500  0.59174400  0.78151600  1
  O  O67  1  0.78151600  0.99653500  0.59174400  1
  O  O68  1  0.71848400  0.31022700  0.21501800  1
  O  O69  1  0.21501800  0.71848400  0.31022700  1
  O  O70  1  0.90825600  0.90479100  0.18977300  1
  O  O71  1  0.71501800  0.81022700  0.21848400  1
  O  O72  1  0.68977300  0.40479100  0.40825600  1
  O  O73  1  0.09174400  0.49653500  0.28151600  1
  O  O74  1  0.81022700  0.21848400  0.71501800  1
  O  O75  1  0.40825600  0.68977300  0.40479100  1
  O  O76  1  0.49653500  0.28151600  0.09174400  1
  O  O77  1  0.00346500  0.09520900  0.78498200  1
  O  O78  1  0.78498200  0.00346500  0.09520900  1
  O  O79  1  0.21848400  0.71501800  0.81022700  1
  O  O80  1  0.40479100  0.40825600  0.68977300  1
  O  O81  1  0.28151600  0.09174400  0.49653500  1
  O  O82  1  0.50346500  0.28498200  0.59520900  1
  O  O83  1  0.59520900  0.50346500  0.28498200  1
  O  O84  1  0.28498200  0.59520900  0.50346500  1
  O  O85  1  0.31022700  0.21501800  0.71848400  1
  O  O86  1  0.90479100  0.18977300  0.90825600  1
  O  O87  1  0.59174400  0.78151600  0.99653500  1
  O  O88  1  0.33516600  0.92366700  0.11378300  1
  O  O89  1  0.08850100  0.77861700  0.66483400  1
  O  O90  1  0.88621700  0.72138300  0.80988400  1
  O  O91  1  0.80988400  0.88621700  0.72138300  1
  O  O92  1  0.69011600  0.41149900  0.07633300  1
  O  O93  1  0.07633300  0.69011600  0.41149900  1
  O  O94  1  0.77861700  0.66483400  0.08850100  1
  O  O95  1  0.57633300  0.91149900  0.19011600  1
  O  O96  1  0.58850100  0.16483400  0.27861700  1
  O  O97  1  0.22138300  0.38621700  0.30988400  1
  O  O98  1  0.91149900  0.19011600  0.57633300  1
  O  O99  1  0.27861700  0.58850100  0.16483400  1
  O  O100  1  0.38621700  0.30988400  0.22138300  1
  O  O101  1  0.11378300  0.33516600  0.92366700  1
  O  O102  1  0.92366700  0.11378300  0.33516600  1
  O  O103  1  0.41149900  0.07633300  0.69011600  1
