# generated using pymatgen
data_KHfH2OF5
_symmetry_space_group_name_H-M   'P 1'
_cell_length_a   12.33447200
_cell_length_b   7.63751100
_cell_length_c   11.16068529
_cell_angle_alpha   81.19674682
_cell_angle_beta   90.00000000
_cell_angle_gamma   90.00000000
_symmetry_Int_Tables_number   1
_chemical_formula_structural   KHfH2OF5
_chemical_formula_sum   'K8 Hf8 H16 O8 F40'
_cell_volume   1039.00294545
_cell_formula_units_Z   8
loop_
 _symmetry_equiv_pos_site_id
 _symmetry_equiv_pos_as_xyz
  1  'x, y, z'
loop_
 _atom_site_type_symbol
 _atom_site_label
 _atom_site_symmetry_multiplicity
 _atom_site_fract_x
 _atom_site_fract_y
 _atom_site_fract_z
 _atom_site_occupancy
  K  K0  1  0.47634200  0.29626000  0.88039300  1
  K  K1  1  0.97634200  0.70374000  0.61960700  1
  K  K2  1  0.52365800  0.70374000  0.11960700  1
  K  K3  1  0.02365800  0.29626000  0.38039300  1
  K  K4  1  0.53842800  0.79761700  0.64827300  1
  K  K5  1  0.03842800  0.20238300  0.85172700  1
  K  K6  1  0.46157200  0.20238300  0.35172700  1
  K  K7  1  0.96157200  0.79761700  0.14827300  1
  Hf  Hf8  1  0.73765800  0.97670800  0.87686900  1
  Hf  Hf9  1  0.23765800  0.02329200  0.62313100  1
  Hf  Hf10  1  0.26234200  0.02329200  0.12313100  1
  Hf  Hf11  1  0.76234200  0.97670800  0.37686900  1
  Hf  Hf12  1  0.74568500  0.52908500  0.89269800  1
  Hf  Hf13  1  0.24568500  0.47091500  0.60730200  1
  Hf  Hf14  1  0.25431500  0.47091500  0.10730200  1
  Hf  Hf15  1  0.75431500  0.52908500  0.39269800  1
  H  H16  1  0.83632800  0.24865800  0.69960400  1
  H  H17  1  0.33632800  0.75134200  0.80039600  1
  H  H18  1  0.16367200  0.75134200  0.30039600  1
  H  H19  1  0.66367200  0.24865800  0.19960400  1
  H  H20  1  0.84727000  0.06867100  0.64579500  1
  H  H21  1  0.34727000  0.93132900  0.85420500  1
  H  H22  1  0.15273000  0.93132900  0.35420500  1
  H  H23  1  0.65273000  0.06867100  0.14579500  1
  H  H24  1  0.85526700  0.25126300  0.05077300  1
  H  H25  1  0.35526700  0.74873700  0.44922700  1
  H  H26  1  0.14473300  0.74873700  0.94922700  1
  H  H27  1  0.64473300  0.25126300  0.55077300  1
  H  H28  1  0.85129100  0.41672700  0.12539200  1
  H  H29  1  0.35129100  0.58327300  0.37460800  1
  H  H30  1  0.14870900  0.58327300  0.87460800  1
  H  H31  1  0.64870900  0.41672700  0.62539200  1
  O  O32  1  0.84384400  0.12033200  0.72283400  1
  O  O33  1  0.34384400  0.87966800  0.77716600  1
  O  O34  1  0.15615600  0.87966800  0.27716600  1
  O  O35  1  0.65615600  0.12033200  0.22283400  1
  O  O36  1  0.85384500  0.38117300  0.04309900  1
  O  O37  1  0.35384500  0.61882700  0.45690100  1
  O  O38  1  0.14615500  0.61882700  0.95690100  1
  O  O39  1  0.64615500  0.38117300  0.54309900  1
  F  F40  1  0.87985400  0.47496300  0.80210900  1
  F  F41  1  0.37985400  0.52503700  0.69789100  1
  F  F42  1  0.12014600  0.52503700  0.19789100  1
  F  F43  1  0.62014600  0.47496300  0.30210900  1
  F  F44  1  0.72748800  0.25283400  0.88551300  1
  F  F45  1  0.22748800  0.74716600  0.61448700  1
  F  F46  1  0.27251200  0.74716600  0.11448700  1
  F  F47  1  0.77251200  0.25283400  0.38551300  1
  F  F48  1  0.29863200  0.20990400  0.72557100  1
  F  F49  1  0.79863200  0.79009600  0.77442900  1
  F  F50  1  0.70136800  0.79009600  0.27442900  1
  F  F51  1  0.20136800  0.20990400  0.22557100  1
  F  F52  1  0.64878100  0.51105600  0.74756500  1
  F  F53  1  0.14878100  0.48894400  0.75243500  1
  F  F54  1  0.35121900  0.48894400  0.25243500  1
  F  F55  1  0.85121900  0.51105600  0.24756500  1
  F  F56  1  0.79975300  0.71657100  0.99578100  1
  F  F57  1  0.29975300  0.28342900  0.50421900  1
  F  F58  1  0.20024700  0.28342900  0.00421900  1
  F  F59  1  0.70024700  0.71657100  0.49578100  1
  F  F60  1  0.35752800  0.01306800  0.97653900  1
  F  F61  1  0.85752800  0.98693200  0.52346100  1
  F  F62  1  0.64247200  0.98693200  0.02346100  1
  F  F63  1  0.14247200  0.01306800  0.47653900  1
  F  F64  1  0.62003400  0.06223400  0.75843600  1
  F  F65  1  0.12003400  0.93776600  0.74156400  1
  F  F66  1  0.37996600  0.93776600  0.24156400  1
  F  F67  1  0.87996600  0.06223400  0.25843600  1
  F  F68  1  0.87096500  0.03379100  0.97160800  1
  F  F69  1  0.37096500  0.96620900  0.52839200  1
  F  F70  1  0.12903500  0.96620900  0.02839200  1
  F  F71  1  0.62903500  0.03379100  0.47160800  1
  F  F72  1  0.12926800  0.25054900  0.61571500  1
  F  F73  1  0.62926800  0.74945100  0.88428500  1
  F  F74  1  0.87073200  0.74945100  0.38428500  1
  F  F75  1  0.37073200  0.25054900  0.11571500  1
  F  F76  1  0.63383500  0.44620800  0.02088100  1
  F  F77  1  0.13383500  0.55379200  0.47911900  1
  F  F78  1  0.36616500  0.55379200  0.97911900  1
  F  F79  1  0.86616500  0.44620800  0.52088100  1
