# generated using pymatgen
data_OsF5
_symmetry_space_group_name_H-M   'P 1'
_cell_length_a   10.30245100
_cell_length_b   5.69757500
_cell_length_c   12.87873412
_cell_angle_alpha   79.78494832
_cell_angle_beta   90.00000000
_cell_angle_gamma   90.00000000
_symmetry_Int_Tables_number   1
_chemical_formula_structural   OsF5
_chemical_formula_sum   'Os8 F40'
_cell_volume   743.98583169
_cell_formula_units_Z   8
loop_
 _symmetry_equiv_pos_site_id
 _symmetry_equiv_pos_as_xyz
  1  'x, y, z'
loop_
 _atom_site_type_symbol
 _atom_site_label
 _atom_site_symmetry_multiplicity
 _atom_site_fract_x
 _atom_site_fract_y
 _atom_site_fract_z
 _atom_site_occupancy
  Os  Os0  1  0.74781300  0.00850600  0.99924500  1
  Os  Os1  1  0.24781300  0.99149400  0.50075500  1
  Os  Os2  1  0.25218700  0.99149400  0.00075500  1
  Os  Os3  1  0.75218700  0.00850600  0.49924500  1
  Os  Os4  1  0.99467900  0.70181100  0.19929900  1
  Os  Os5  1  0.49467900  0.29818900  0.30070100  1
  Os  Os6  1  0.00532100  0.29818900  0.80070100  1
  Os  Os7  1  0.50532100  0.70181100  0.69929900  1
  F  F8  1  0.90996800  0.81484700  0.05456600  1
  F  F9  1  0.40996800  0.18515300  0.44543400  1
  F  F10  1  0.09003200  0.18515300  0.94543400  1
  F  F11  1  0.59003200  0.81484700  0.55456600  1
  F  F12  1  0.66912900  0.91180600  0.12966600  1
  F  F13  1  0.16912900  0.08819400  0.37033400  1
  F  F14  1  0.33087100  0.08819400  0.87033400  1
  F  F15  1  0.83087100  0.91180600  0.62966600  1
  F  F16  1  0.08073300  0.61089700  0.32672200  1
  F  F17  1  0.58073300  0.38910300  0.17327800  1
  F  F18  1  0.91926700  0.38910300  0.67327800  1
  F  F19  1  0.41926700  0.61089700  0.82672200  1
  F  F20  1  0.84491400  0.53270200  0.24412100  1
  F  F21  1  0.34491400  0.46729800  0.25587900  1
  F  F22  1  0.15508600  0.46729800  0.75587900  1
  F  F23  1  0.65508600  0.53270200  0.74412100  1
  F  F24  1  0.60630100  0.18715700  0.94175500  1
  F  F25  1  0.10630100  0.81284300  0.55824500  1
  F  F26  1  0.39369900  0.81284300  0.05824500  1
  F  F27  1  0.89369900  0.18715700  0.44175500  1
  F  F28  1  0.84530000  0.09949000  0.85849300  1
  F  F29  1  0.34530000  0.90051000  0.64150700  1
  F  F30  1  0.15470000  0.90051000  0.14150700  1
  F  F31  1  0.65470000  0.09949000  0.35849300  1
  F  F32  1  0.82567800  0.27486700  0.04303300  1
  F  F33  1  0.32567800  0.72513300  0.45696700  1
  F  F34  1  0.17432200  0.72513300  0.95696700  1
  F  F35  1  0.67432200  0.27486700  0.54303300  1
  F  F36  1  0.06544100  0.44308500  0.14510100  1
  F  F37  1  0.56544100  0.55691500  0.35489900  1
  F  F38  1  0.93455900  0.55691500  0.85489900  1
  F  F39  1  0.43455900  0.44308500  0.64510100  1
  F  F40  1  0.92860800  0.98084100  0.24040000  1
  F  F41  1  0.42860800  0.01915900  0.25960000  1
  F  F42  1  0.07139200  0.01915900  0.75960000  1
  F  F43  1  0.57139200  0.98084100  0.74040000  1
  F  F44  1  0.68765400  0.73523000  0.95030400  1
  F  F45  1  0.18765400  0.26477000  0.54969600  1
  F  F46  1  0.31234600  0.26477000  0.04969600  1
  F  F47  1  0.81234600  0.73523000  0.45030400  1
