# generated using pymatgen
data_V2Cu2O7
_symmetry_space_group_name_H-M   'P 1'
_cell_length_a   5.67603821
_cell_length_b   5.67603821
_cell_length_c   10.25811878
_cell_angle_alpha   76.34597947
_cell_angle_beta   76.34597947
_cell_angle_gamma   90.73966331
_symmetry_Int_Tables_number   1
_chemical_formula_structural   V2Cu2O7
_chemical_formula_sum   'V4 Cu4 O14'
_cell_volume   311.24852732
_cell_formula_units_Z   2
loop_
 _symmetry_equiv_pos_site_id
 _symmetry_equiv_pos_as_xyz
  1  'x, y, z'
loop_
 _atom_site_type_symbol
 _atom_site_label
 _atom_site_symmetry_multiplicity
 _atom_site_fract_x
 _atom_site_fract_y
 _atom_site_fract_z
 _atom_site_occupancy
  V  V0  1  0.44303400  0.99836300  0.71348600  1
  V  V1  1  0.00163700  0.55696600  0.78651400  1
  V  V2  1  0.55696600  0.00163700  0.28651400  1
  V  V3  1  0.99836300  0.44303400  0.21348600  1
  Cu  Cu4  1  0.23254600  0.37609000  0.48741400  1
  Cu  Cu5  1  0.62391000  0.76745400  0.01258600  1
  Cu  Cu6  1  0.76745400  0.62391000  0.51258600  1
  Cu  Cu7  1  0.37609000  0.23254600  0.98741400  1
  O  O8  1  0.86180500  0.13819500  0.25000000  1
  O  O9  1  0.13819500  0.86180500  0.75000000  1
  O  O10  1  0.36237400  0.17871300  0.36455800  1
  O  O11  1  0.82128700  0.63762600  0.13544200  1
  O  O12  1  0.63762600  0.82128700  0.63544200  1
  O  O13  1  0.17871300  0.36237400  0.86455800  1
  O  O14  1  0.45729900  0.28148600  0.60250600  1
  O  O15  1  0.71851400  0.54270100  0.89749400  1
  O  O16  1  0.54270100  0.71851400  0.39749400  1
  O  O17  1  0.28148600  0.45729900  0.10250600  1
  O  O18  1  0.48775100  0.99004500  0.12661500  1
  O  O19  1  0.00995500  0.51224900  0.37338500  1
  O  O20  1  0.51224900  0.00995500  0.87338500  1
  O  O21  1  0.99004500  0.48775100  0.62661500  1
