# generated using pymatgen
data_Nd3Si2S8I
_symmetry_space_group_name_H-M   'P 1'
_cell_length_a   8.92661730
_cell_length_b   8.92661730
_cell_length_c   10.88263261
_cell_angle_alpha   82.68647564
_cell_angle_beta   82.68647564
_cell_angle_gamma   52.30606805
_symmetry_Int_Tables_number   1
_chemical_formula_structural   Nd3Si2S8I
_chemical_formula_sum   'Nd6 Si4 S16 I2'
_cell_volume   679.25161505
_cell_formula_units_Z   2
loop_
 _symmetry_equiv_pos_site_id
 _symmetry_equiv_pos_as_xyz
  1  'x, y, z'
loop_
 _atom_site_type_symbol
 _atom_site_label
 _atom_site_symmetry_multiplicity
 _atom_site_fract_x
 _atom_site_fract_y
 _atom_site_fract_z
 _atom_site_occupancy
  Nd  Nd0  1  0.40045200  0.59954800  0.75000000  1
  Nd  Nd1  1  0.67736400  0.92389000  0.68144700  1
  Nd  Nd2  1  0.92389000  0.67736400  0.18144700  1
  Nd  Nd3  1  0.07611000  0.32263600  0.81855300  1
  Nd  Nd4  1  0.32263600  0.07611000  0.31855300  1
  Nd  Nd5  1  0.59954800  0.40045200  0.25000000  1
  Si  Si6  1  0.69667800  0.62242200  0.47109100  1
  Si  Si7  1  0.37757800  0.30332200  0.02890900  1
  Si  Si8  1  0.62242200  0.69667800  0.97109100  1
  Si  Si9  1  0.30332200  0.37757800  0.52890900  1
  S  S10  1  0.55059100  0.74793100  0.16282700  1
  S  S11  1  0.71267400  0.85077600  0.41401500  1
  S  S12  1  0.74793100  0.55059100  0.66282700  1
  S  S13  1  0.89045000  0.39909600  0.35251500  1
  S  S14  1  0.25206900  0.44940900  0.33717300  1
  S  S15  1  0.41334200  0.72328100  0.45808200  1
  S  S16  1  0.10955000  0.60090400  0.64748500  1
  S  S17  1  0.85077600  0.71267500  0.91401500  1
  S  S18  1  0.44940900  0.25206900  0.83717300  1
  S  S19  1  0.14922400  0.28732600  0.08598500  1
  S  S20  1  0.58665800  0.27671900  0.54191800  1
  S  S21  1  0.72328100  0.41334200  0.95808200  1
  S  S22  1  0.60090400  0.10955000  0.14748500  1
  S  S23  1  0.39909600  0.89045000  0.85251500  1
  S  S24  1  0.28732600  0.14922400  0.58598500  1
  S  S25  1  0.27671900  0.58665800  0.04191800  1
  I  I26  1  0.98636600  0.01363400  0.75000000  1
  I  I27  1  0.01363400  0.98636600  0.25000000  1
