# generated using pymatgen
data_YNbO4
_symmetry_space_group_name_H-M   'P 1'
_cell_length_a   6.63018552
_cell_length_b   6.63018552
_cell_length_c   5.16017204
_cell_angle_alpha   68.76801410
_cell_angle_beta   68.76801410
_cell_angle_gamma   114.42586305
_symmetry_Int_Tables_number   1
_chemical_formula_structural   YNbO4
_chemical_formula_sum   'Y2 Nb2 O8'
_cell_volume   153.55477162
_cell_formula_units_Z   2
loop_
 _symmetry_equiv_pos_site_id
 _symmetry_equiv_pos_as_xyz
  1  'x, y, z'
loop_
 _atom_site_type_symbol
 _atom_site_label
 _atom_site_symmetry_multiplicity
 _atom_site_fract_x
 _atom_site_fract_y
 _atom_site_fract_z
 _atom_site_occupancy
  Y  Y0  1  0.62802500  0.37197500  0.75000000  1
  Y  Y1  1  0.37197500  0.62802500  0.25000000  1
  Nb  Nb2  1  0.10877100  0.89122900  0.75000000  1
  Nb  Nb3  1  0.89122900  0.10877100  0.25000000  1
  O  O4  1  0.21718800  0.28256700  0.79860200  1
  O  O5  1  0.71743300  0.78281200  0.70139800  1
  O  O6  1  0.78281200  0.71743300  0.20139800  1
  O  O7  1  0.28256700  0.21718800  0.29860200  1
  O  O8  1  0.94996400  0.37057700  0.34036200  1
  O  O9  1  0.62942300  0.05003600  0.15963800  1
  O  O10  1  0.05003600  0.62942300  0.65963800  1
  O  O11  1  0.37057700  0.94996400  0.84036200  1
