# generated using pymatgen
data_Ca5Au4
_symmetry_space_group_name_H-M   'P 1'
_cell_length_a   8.13152600
_cell_length_b   7.80527700
_cell_length_c   8.09910991
_cell_angle_alpha   70.75504869
_cell_angle_beta   90.00000000
_cell_angle_gamma   90.00000000
_symmetry_Int_Tables_number   1
_chemical_formula_structural   Ca5Au4
_chemical_formula_sum   'Ca10 Au8'
_cell_volume   485.31529306
_cell_formula_units_Z   2
loop_
 _symmetry_equiv_pos_site_id
 _symmetry_equiv_pos_as_xyz
  1  'x, y, z'
loop_
 _atom_site_type_symbol
 _atom_site_label
 _atom_site_symmetry_multiplicity
 _atom_site_fract_x
 _atom_site_fract_y
 _atom_site_fract_z
 _atom_site_occupancy
  Ca  Ca0  1  0.32118600  0.06894900  0.30778700  1
  Ca  Ca1  1  0.17881400  0.56894900  0.30778700  1
  Ca  Ca2  1  0.82118600  0.43105100  0.69221300  1
  Ca  Ca3  1  0.33034700  0.25240800  0.74419800  1
  Ca  Ca4  1  0.00000000  0.00000000  0.00000000  1
  Ca  Ca5  1  0.67881400  0.93105100  0.69221300  1
  Ca  Ca6  1  0.83034700  0.24759200  0.25580200  1
  Ca  Ca7  1  0.16965300  0.75240800  0.74419800  1
  Ca  Ca8  1  0.66965300  0.74759200  0.25580200  1
  Ca  Ca9  1  0.50000000  0.50000000  0.00000000  1
  Au  Au10  1  0.86803100  0.62996000  0.98766600  1
  Au  Au11  1  0.96710600  0.85554000  0.41746900  1
  Au  Au12  1  0.13196900  0.37004000  0.01233400  1
  Au  Au13  1  0.53289400  0.35554000  0.41746900  1
  Au  Au14  1  0.36803100  0.87004000  0.01233400  1
  Au  Au15  1  0.46710600  0.64446000  0.58253100  1
  Au  Au16  1  0.03289400  0.14446000  0.58253100  1
  Au  Au17  1  0.63196900  0.12996000  0.98766600  1
