# generated using pymatgen
data_Ga8Cu3Mo2
_symmetry_space_group_name_H-M   'P 1'
_cell_length_a   10.40503022
_cell_length_b   10.40503022
_cell_length_c   10.40503022
_cell_angle_alpha   109.47122063
_cell_angle_beta   109.47122063
_cell_angle_gamma   109.47122063
_symmetry_Int_Tables_number   1
_chemical_formula_structural   Ga8Cu3Mo2
_chemical_formula_sum   'Ga32 Cu12 Mo8'
_cell_volume   867.17779203
_cell_formula_units_Z   4
loop_
 _symmetry_equiv_pos_site_id
 _symmetry_equiv_pos_as_xyz
  1  'x, y, z'
loop_
 _atom_site_type_symbol
 _atom_site_label
 _atom_site_symmetry_multiplicity
 _atom_site_fract_x
 _atom_site_fract_y
 _atom_site_fract_z
 _atom_site_occupancy
  Ga  Ga0  1  0.99242100  0.49237300  0.25762400  1
  Ga  Ga1  1  0.00000000  0.71305000  0.50000000  1
  Ga  Ga2  1  0.76520400  0.49995200  0.50757900  1
  Ga  Ga3  1  0.73479600  0.24237600  0.73474800  1
  Ga  Ga4  1  0.50000000  0.00000000  0.71305000  1
  Ga  Ga5  1  0.00004800  0.76525200  0.00762700  1
  Ga  Ga6  1  0.50762700  0.26525200  0.50004800  1
  Ga  Ga7  1  0.76525200  0.00762700  0.00004800  1
  Ga  Ga8  1  0.28695000  0.28695000  0.28695000  1
  Ga  Ga9  1  0.49995200  0.50757900  0.76520400  1
  Ga  Ga10  1  0.71305000  0.50000000  0.00000000  1
  Ga  Ga11  1  0.21305000  0.50000000  0.00000000  1
  Ga  Ga12  1  0.26525200  0.50004800  0.50762700  1
  Ga  Ga13  1  0.50757900  0.76520400  0.49995200  1
  Ga  Ga14  1  0.50000000  0.00000000  0.21305000  1
  Ga  Ga15  1  0.99237300  0.49242100  0.75762400  1
  Ga  Ga16  1  0.78695000  0.78695000  0.78695000  1
  Ga  Ga17  1  0.00000000  0.21305000  0.50000000  1
  Ga  Ga18  1  0.49242100  0.75762400  0.99237300  1
  Ga  Ga19  1  0.00762700  0.00004800  0.76525200  1
  Ga  Ga20  1  0.75762400  0.99237300  0.49242100  1
  Ga  Ga21  1  0.50004800  0.50762700  0.26525200  1
  Ga  Ga22  1  0.74237600  0.23479600  0.23474800  1
  Ga  Ga23  1  0.24237600  0.73474800  0.73479600  1
  Ga  Ga24  1  0.23474800  0.74237600  0.23479600  1
  Ga  Ga25  1  0.99995200  0.26520400  0.00757900  1
  Ga  Ga26  1  0.00757900  0.99995200  0.26520400  1
  Ga  Ga27  1  0.73474800  0.73479600  0.24237600  1
  Ga  Ga28  1  0.26520400  0.00757900  0.99995200  1
  Ga  Ga29  1  0.23479600  0.23474800  0.74237600  1
  Ga  Ga30  1  0.25762400  0.99242100  0.49237300  1
  Ga  Ga31  1  0.49237300  0.25762400  0.99242100  1
  Cu  Cu32  1  0.75000000  0.23564500  0.48564500  1
  Cu  Cu33  1  0.23564500  0.48564500  0.75000000  1
  Cu  Cu34  1  0.76435500  0.75000000  0.51435500  1
  Cu  Cu35  1  0.48564500  0.75000000  0.23564500  1
  Cu  Cu36  1  0.25000000  0.98564500  0.73564500  1
  Cu  Cu37  1  0.98564500  0.73564500  0.25000000  1
  Cu  Cu38  1  0.73564500  0.25000000  0.98564500  1
  Cu  Cu39  1  0.75000000  0.51435500  0.76435500  1
  Cu  Cu40  1  0.25000000  0.26435500  0.01435500  1
  Cu  Cu41  1  0.26435500  0.01435500  0.25000000  1
  Cu  Cu42  1  0.51435500  0.76435500  0.75000000  1
  Cu  Cu43  1  0.01435500  0.25000000  0.26435500  1
  Mo  Mo44  1  0.50000000  0.00000000  0.96075200  1
  Mo  Mo45  1  0.46075200  0.50000000  0.00000000  1
  Mo  Mo46  1  0.96075200  0.50000000  0.00000000  1
  Mo  Mo47  1  0.53924800  0.53924800  0.53924800  1
  Mo  Mo48  1  0.00000000  0.46075200  0.50000000  1
  Mo  Mo49  1  0.00000000  0.96075200  0.50000000  1
  Mo  Mo50  1  0.50000000  0.00000000  0.46075200  1
  Mo  Mo51  1  0.03924800  0.03924800  0.03924800  1
