# generated using pymatgen
data_Tb2Ti3Si4
_symmetry_space_group_name_H-M   'P 1'
_cell_length_a   7.06980500
_cell_length_b   7.06980500
_cell_length_c   12.99919500
_cell_angle_alpha   90.00000000
_cell_angle_beta   90.00000000
_cell_angle_gamma   90.00000000
_symmetry_Int_Tables_number   1
_chemical_formula_structural   Tb2Ti3Si4
_chemical_formula_sum   'Tb8 Ti12 Si16'
_cell_volume   649.72761997
_cell_formula_units_Z   4
loop_
 _symmetry_equiv_pos_site_id
 _symmetry_equiv_pos_as_xyz
  1  'x, y, z'
loop_
 _atom_site_type_symbol
 _atom_site_label
 _atom_site_symmetry_multiplicity
 _atom_site_fract_x
 _atom_site_fract_y
 _atom_site_fract_z
 _atom_site_occupancy
  Tb  Tb0  1  0.33987800  0.00250900  0.46655600  1
  Tb  Tb1  1  0.49749100  0.83987800  0.71655600  1
  Tb  Tb2  1  0.50250900  0.16012200  0.21655600  1
  Tb  Tb3  1  0.83987800  0.49749100  0.28344400  1
  Tb  Tb4  1  0.16012200  0.50250900  0.78344400  1
  Tb  Tb5  1  0.66012200  0.99749100  0.96655600  1
  Tb  Tb6  1  0.00250900  0.33987800  0.53344400  1
  Tb  Tb7  1  0.99749100  0.66012200  0.03344400  1
  Ti  Ti8  1  0.32737900  0.32737900  0.00000000  1
  Ti  Ti9  1  0.17262100  0.82737900  0.25000000  1
  Ti  Ti10  1  0.82737900  0.17262100  0.75000000  1
  Ti  Ti11  1  0.67262100  0.67262100  0.50000000  1
  Ti  Ti12  1  0.15293400  0.00876600  0.87652000  1
  Ti  Ti13  1  0.49123400  0.65293400  0.12652000  1
  Ti  Ti14  1  0.50876600  0.34706600  0.62652000  1
  Ti  Ti15  1  0.65293400  0.49123400  0.87348000  1
  Ti  Ti16  1  0.34706600  0.50876600  0.37348000  1
  Ti  Ti17  1  0.84706600  0.99123400  0.37652000  1
  Ti  Ti18  1  0.00876600  0.15293400  0.12348000  1
  Ti  Ti19  1  0.99123400  0.84706600  0.62348000  1
  Si  Si20  1  0.20250000  0.12927800  0.68506200  1
  Si  Si21  1  0.37072200  0.70250000  0.93506200  1
  Si  Si22  1  0.62927800  0.29750000  0.43506200  1
  Si  Si23  1  0.70250000  0.37072200  0.06493800  1
  Si  Si24  1  0.29750000  0.62927800  0.56493800  1
  Si  Si25  1  0.79750000  0.87072200  0.18506200  1
  Si  Si26  1  0.12927800  0.20250000  0.31493800  1
  Si  Si27  1  0.87072200  0.79750000  0.81493800  1
  Si  Si28  1  0.29052200  0.95350100  0.06490400  1
  Si  Si29  1  0.54649900  0.79052200  0.31490400  1
  Si  Si30  1  0.45350100  0.20947800  0.81490400  1
  Si  Si31  1  0.79052200  0.54649900  0.68509600  1
  Si  Si32  1  0.20947800  0.45350100  0.18509600  1
  Si  Si33  1  0.70947800  0.04649900  0.56490400  1
  Si  Si34  1  0.95350100  0.29052200  0.93509600  1
  Si  Si35  1  0.04649900  0.70947800  0.43509600  1
