# generated using pymatgen
data_CsLaZnTe3
_symmetry_space_group_name_H-M   'P 1'
_cell_length_a   8.88004605
_cell_length_b   8.88004605
_cell_length_c   12.26588100
_cell_angle_alpha   90.00000000
_cell_angle_beta   90.00000000
_cell_angle_gamma   149.98271285
_symmetry_Int_Tables_number   1
_chemical_formula_structural   CsLaZnTe3
_chemical_formula_sum   'Cs2 La2 Zn2 Te6'
_cell_volume   483.86706958
_cell_formula_units_Z   2
loop_
 _symmetry_equiv_pos_site_id
 _symmetry_equiv_pos_as_xyz
  1  'x, y, z'
loop_
 _atom_site_type_symbol
 _atom_site_label
 _atom_site_symmetry_multiplicity
 _atom_site_fract_x
 _atom_site_fract_y
 _atom_site_fract_z
 _atom_site_occupancy
  Cs  Cs0  1  0.25677900  0.74322100  0.75000000  1
  Cs  Cs1  1  0.74322100  0.25677900  0.25000000  1
  La  La2  1  0.00000000  0.00000000  0.00000000  1
  La  La3  1  0.00000000  0.00000000  0.50000000  1
  Zn  Zn4  1  0.45986200  0.54013800  0.25000000  1
  Zn  Zn5  1  0.54013800  0.45986200  0.75000000  1
  Te  Te6  1  0.05669100  0.94330900  0.25000000  1
  Te  Te7  1  0.62370200  0.37629800  0.56690900  1
  Te  Te8  1  0.62370200  0.37629800  0.93309100  1
  Te  Te9  1  0.94330900  0.05669100  0.75000000  1
  Te  Te10  1  0.37629800  0.62370200  0.06690900  1
  Te  Te11  1  0.37629800  0.62370200  0.43309100  1
