# generated using pymatgen
data_KY(PSe3)2
_symmetry_space_group_name_H-M   'P 1'
_cell_length_a   6.84903500
_cell_length_b   7.55025400
_cell_length_c   21.87113800
_cell_angle_alpha   90.00000000
_cell_angle_beta   90.00000000
_cell_angle_gamma   90.00000000
_symmetry_Int_Tables_number   1
_chemical_formula_structural   KY(PSe3)2
_chemical_formula_sum   'K4 Y4 P8 Se24'
_cell_volume   1130.99928010
_cell_formula_units_Z   4
loop_
 _symmetry_equiv_pos_site_id
 _symmetry_equiv_pos_as_xyz
  1  'x, y, z'
loop_
 _atom_site_type_symbol
 _atom_site_label
 _atom_site_symmetry_multiplicity
 _atom_site_fract_x
 _atom_site_fract_y
 _atom_site_fract_z
 _atom_site_occupancy
  K  K0  1  0.12367900  0.51948000  0.49595800  1
  K  K1  1  0.37632100  0.48052000  0.99595800  1
  K  K2  1  0.62367900  0.98052000  0.50404200  1
  K  K3  1  0.87632100  0.01948000  0.00404200  1
  Y  Y4  1  0.71735300  0.81947000  0.74873800  1
  Y  Y5  1  0.21735300  0.68053000  0.25126200  1
  Y  Y6  1  0.78264700  0.18053000  0.24873800  1
  Y  Y7  1  0.28264700  0.31947000  0.75126200  1
  P  P8  1  0.82368500  0.44810200  0.11024300  1
  P  P9  1  0.30783900  0.17144300  0.33447600  1
  P  P10  1  0.80783900  0.32855700  0.66552400  1
  P  P11  1  0.17631500  0.94810200  0.38975700  1
  P  P12  1  0.19216100  0.82855700  0.83447600  1
  P  P13  1  0.69216100  0.67144300  0.16552400  1
  P  P14  1  0.67631500  0.55189800  0.61024300  1
  P  P15  1  0.32368500  0.05189800  0.88975700  1
  Se  Se16  1  0.62959700  0.54862000  0.25713300  1
  Se  Se17  1  0.88064700  0.53961000  0.01798300  1
  Se  Se18  1  0.91186100  0.73662100  0.87119500  1
  Se  Se19  1  0.12959700  0.95138000  0.74286700  1
  Se  Se20  1  0.11935300  0.03961000  0.48201700  1
  Se  Se21  1  0.08813900  0.23662100  0.62880500  1
  Se  Se22  1  0.56745600  0.12763300  0.66876100  1
  Se  Se23  1  0.88851700  0.76585500  0.61983900  1
  Se  Se24  1  0.07464900  0.36756800  0.17041000  1
  Se  Se25  1  0.57464900  0.13243200  0.82959000  1
  Se  Se26  1  0.61935300  0.46039000  0.51798300  1
  Se  Se27  1  0.38851700  0.73414500  0.38016100  1
  Se  Se28  1  0.42535100  0.63243200  0.67041000  1
  Se  Se29  1  0.43254400  0.62763300  0.83123900  1
  Se  Se30  1  0.37040300  0.04862000  0.24286700  1
  Se  Se31  1  0.87040300  0.45138000  0.75713300  1
  Se  Se32  1  0.11148300  0.26585500  0.88016100  1
  Se  Se33  1  0.92535100  0.86756800  0.32959000  1
  Se  Se34  1  0.93254400  0.87236700  0.16876100  1
  Se  Se35  1  0.61148300  0.23414500  0.11983900  1
  Se  Se36  1  0.58813900  0.26337900  0.37119500  1
  Se  Se37  1  0.41186100  0.76337900  0.12880500  1
  Se  Se38  1  0.38064700  0.96039000  0.98201700  1
  Se  Se39  1  0.06745600  0.37236700  0.33123900  1
