# generated using pymatgen
data_Er2Te5O13
_symmetry_space_group_name_H-M   'P 1'
_cell_length_a   6.98281400
_cell_length_b   8.74079087
_cell_length_c   10.71130377
_cell_angle_alpha   89.21418885
_cell_angle_beta   87.17215500
_cell_angle_gamma   74.78582183
_symmetry_Int_Tables_number   1
_chemical_formula_structural   Er2Te5O13
_chemical_formula_sum   'Er4 Te10 O26'
_cell_volume   630.08588919
_cell_formula_units_Z   2
loop_
 _symmetry_equiv_pos_site_id
 _symmetry_equiv_pos_as_xyz
  1  'x, y, z'
loop_
 _atom_site_type_symbol
 _atom_site_label
 _atom_site_symmetry_multiplicity
 _atom_site_fract_x
 _atom_site_fract_y
 _atom_site_fract_z
 _atom_site_occupancy
  Er  Er0  1  0.55247200  0.52806300  0.17935800  1
  Er  Er1  1  0.99829300  0.73862100  0.23962100  1
  Er  Er2  1  0.44752800  0.47193700  0.82064200  1
  Er  Er3  1  0.00170700  0.26137900  0.76037900  1
  Te  Te4  1  0.15701400  0.80339200  0.64033900  1
  Te  Te5  1  0.27335700  0.39373200  0.48682400  1
  Te  Te6  1  0.71042700  0.12378700  0.02355000  1
  Te  Te7  1  0.56323900  0.09784800  0.69837700  1
  Te  Te8  1  0.87743100  0.64968100  0.89142300  1
  Te  Te9  1  0.72664300  0.60626800  0.51317600  1
  Te  Te10  1  0.43676100  0.90215200  0.30162300  1
  Te  Te11  1  0.28957300  0.87621300  0.97645000  1
  Te  Te12  1  0.84298600  0.19660800  0.35966100  1
  Te  Te13  1  0.12256900  0.35031900  0.10857700  1
  O  O14  1  0.66139600  0.48718400  0.38148300  1
  O  O15  1  0.04442100  0.34928800  0.56645100  1
  O  O16  1  0.65294600  0.01594500  0.87520800  1
  O  O17  1  0.05663100  0.81916800  0.03951800  1
  O  O18  1  0.87428000  0.51014100  0.10659100  1
  O  O19  1  0.31315200  0.73503500  0.28560400  1
  O  O20  1  0.46372900  0.19303500  0.51846700  1
  O  O21  1  0.06671600  0.26482600  0.27800600  1
  O  O22  1  0.32791900  0.22599600  0.77671300  1
  O  O23  1  0.33860400  0.51281600  0.61851700  1
  O  O24  1  0.93328400  0.73517400  0.72199400  1
  O  O25  1  0.12572000  0.48985900  0.89340900  1
  O  O26  1  0.66857400  0.25982300  0.22653000  1
  O  O27  1  0.67208100  0.77400400  0.22328700  1
  O  O28  1  0.76481600  0.50336300  0.81191300  1
  O  O29  1  0.46620200  0.66950100  0.99999700  1
  O  O30  1  0.53627100  0.80696500  0.48153300  1
  O  O31  1  0.94336900  0.18083200  0.96048200  1
  O  O32  1  0.34705400  0.98405500  0.12479200  1
  O  O33  1  0.23518400  0.49663700  0.18808700  1
  O  O34  1  0.93472700  0.98211400  0.31144300  1
  O  O35  1  0.06527300  0.01788600  0.68855700  1
  O  O36  1  0.68684800  0.26496500  0.71439600  1
  O  O37  1  0.53379800  0.33049900  0.00000300  1
  O  O38  1  0.33142600  0.74017700  0.77347000  1
  O  O39  1  0.95557900  0.65071200  0.43354900  1
