# generated using pymatgen
data_SmAgPb
_symmetry_space_group_name_H-M   'P 1'
_cell_length_a   4.86838158
_cell_length_b   4.86838158
_cell_length_c   7.62548600
_cell_angle_alpha   90.00000000
_cell_angle_beta   90.00000000
_cell_angle_gamma   119.99999426
_symmetry_Int_Tables_number   1
_chemical_formula_structural   SmAgPb
_chemical_formula_sum   'Sm2 Ag2 Pb2'
_cell_volume   156.51912293
_cell_formula_units_Z   2
loop_
 _symmetry_equiv_pos_site_id
 _symmetry_equiv_pos_as_xyz
  1  'x, y, z'
loop_
 _atom_site_type_symbol
 _atom_site_label
 _atom_site_symmetry_multiplicity
 _atom_site_fract_x
 _atom_site_fract_y
 _atom_site_fract_z
 _atom_site_occupancy
  Sm  Sm0  1  0.00000000  0.00000000  0.00149900  1
  Sm  Sm1  1  0.00000000  0.00000000  0.50149900  1
  Ag  Ag2  1  0.33333300  0.66666700  0.80941100  1
  Ag  Ag3  1  0.66666700  0.33333300  0.30941100  1
  Pb  Pb4  1  0.66666700  0.33333300  0.72209000  1
  Pb  Pb5  1  0.33333300  0.66666700  0.22209000  1
