# generated using pymatgen
data_K2SbPO6
_symmetry_space_group_name_H-M   'P 1'
_cell_length_a   5.98601000
_cell_length_b   9.57660000
_cell_length_c   11.25444100
_cell_angle_alpha   90.00000000
_cell_angle_beta   90.00000000
_cell_angle_gamma   90.00000000
_symmetry_Int_Tables_number   1
_chemical_formula_structural   K2SbPO6
_chemical_formula_sum   'K8 Sb4 P4 O24'
_cell_volume   645.16784596
_cell_formula_units_Z   4
loop_
 _symmetry_equiv_pos_site_id
 _symmetry_equiv_pos_as_xyz
  1  'x, y, z'
loop_
 _atom_site_type_symbol
 _atom_site_label
 _atom_site_symmetry_multiplicity
 _atom_site_fract_x
 _atom_site_fract_y
 _atom_site_fract_z
 _atom_site_occupancy
  K  K0  1  0.25000000  0.61774400  0.16026600  1
  K  K1  1  0.25000000  0.67040200  0.80751200  1
  K  K2  1  0.25000000  0.17040200  0.69248800  1
  K  K3  1  0.25000000  0.11774400  0.33973400  1
  K  K4  1  0.75000000  0.32959800  0.19248800  1
  K  K5  1  0.75000000  0.82959800  0.30751200  1
  K  K6  1  0.75000000  0.88225600  0.66026600  1
  K  K7  1  0.75000000  0.38225600  0.83973400  1
  Sb  Sb8  1  0.00000000  0.50000000  0.50000000  1
  Sb  Sb9  1  0.50000000  0.00000000  0.00000000  1
  Sb  Sb10  1  0.50000000  0.50000000  0.50000000  1
  Sb  Sb11  1  0.00000000  0.00000000  0.00000000  1
  P  P12  1  0.75000000  0.69666800  0.99098400  1
  P  P13  1  0.25000000  0.80333200  0.49098400  1
  P  P14  1  0.75000000  0.19666800  0.50901600  1
  P  P15  1  0.25000000  0.30333200  0.00901600  1
  O  O16  1  0.46489600  0.71097900  0.52731800  1
  O  O17  1  0.75000000  0.03429700  0.11704900  1
  O  O18  1  0.25000000  0.96570300  0.88295100  1
  O  O19  1  0.75000000  0.16969300  0.64208300  1
  O  O20  1  0.75000000  0.57015000  0.07215100  1
  O  O21  1  0.96489600  0.78902100  0.02731800  1
  O  O22  1  0.25000000  0.33030700  0.14208300  1
  O  O23  1  0.25000000  0.42985000  0.92784900  1
  O  O24  1  0.75000000  0.66969300  0.85791700  1
  O  O25  1  0.25000000  0.83030700  0.35791700  1
  O  O26  1  0.75000000  0.49968800  0.61756900  1
  O  O27  1  0.75000000  0.07015000  0.42784900  1
  O  O28  1  0.96489600  0.28902100  0.47268200  1
  O  O29  1  0.75000000  0.99968800  0.88243100  1
  O  O30  1  0.25000000  0.00031200  0.11756900  1
  O  O31  1  0.46489600  0.21097900  0.97268200  1
  O  O32  1  0.25000000  0.46570300  0.61704900  1
  O  O33  1  0.25000000  0.50031200  0.38243100  1
  O  O34  1  0.03510400  0.71097900  0.52731800  1
  O  O35  1  0.25000000  0.92985000  0.57215100  1
  O  O36  1  0.53510400  0.28902100  0.47268200  1
  O  O37  1  0.03510400  0.21097900  0.97268200  1
  O  O38  1  0.53510400  0.78902100  0.02731800  1
  O  O39  1  0.75000000  0.53429700  0.38295100  1
