# generated using pymatgen
data_Rb2SiP4O13
_symmetry_space_group_name_H-M   'P 1'
_cell_length_a   4.92769500
_cell_length_b   7.87928354
_cell_length_c   15.46257621
_cell_angle_alpha   83.85597446
_cell_angle_beta   83.66929615
_cell_angle_gamma   81.82898072
_symmetry_Int_Tables_number   1
_chemical_formula_structural   Rb2SiP4O13
_chemical_formula_sum   'Rb4 Si2 P8 O26'
_cell_volume   588.09033720
_cell_formula_units_Z   2
loop_
 _symmetry_equiv_pos_site_id
 _symmetry_equiv_pos_as_xyz
  1  'x, y, z'
loop_
 _atom_site_type_symbol
 _atom_site_label
 _atom_site_symmetry_multiplicity
 _atom_site_fract_x
 _atom_site_fract_y
 _atom_site_fract_z
 _atom_site_occupancy
  Rb  Rb0  1  0.72542000  0.69652500  0.97220300  1
  Rb  Rb1  1  0.27458000  0.30347500  0.02779700  1
  Rb  Rb2  1  0.32189100  0.25731100  0.51068400  1
  Rb  Rb3  1  0.67810900  0.74268900  0.48931600  1
  Si  Si4  1  0.45522000  0.05690400  0.75840000  1
  Si  Si5  1  0.54478000  0.94309700  0.24160000  1
  P  P6  1  0.68275000  0.31907700  0.21075600  1
  P  P7  1  0.31725000  0.68092300  0.78924400  1
  P  P8  1  0.10664500  0.79422000  0.15005900  1
  P  P9  1  0.32800600  0.59764800  0.30554500  1
  P  P10  1  0.97998800  0.08930600  0.33655800  1
  P  P11  1  0.02001200  0.91069400  0.66344200  1
  P  P12  1  0.89335500  0.20578000  0.84994100  1
  P  P13  1  0.67199400  0.40235200  0.69445500  1
  O  O14  1  0.80557500  0.27656300  0.93568100  1
  O  O15  1  0.28969600  0.01779700  0.32754200  1
  O  O16  1  0.51243000  0.59061600  0.71156000  1
  O  O17  1  0.48757000  0.40938400  0.28844000  1
  O  O18  1  0.45946100  0.27476900  0.71075200  1
  O  O19  1  0.79872600  0.87087800  0.15688800  1
  O  O20  1  0.54937000  0.16174200  0.19448700  1
  O  O21  1  0.19442500  0.72343700  0.06431900  1
  O  O22  1  0.28370700  0.92875400  0.17270700  1
  O  O23  1  0.71629300  0.07124600  0.82729300  1
  O  O24  1  0.73817400  0.43749700  0.13200500  1
  O  O25  1  0.45063000  0.83825800  0.80551300  1
  O  O26  1  0.20127400  0.12912200  0.84311200  1
  O  O27  1  0.71030400  0.98220300  0.67245800  1
  O  O28  1  0.18260400  0.58087300  0.39460900  1
  O  O29  1  0.11575100  0.84688300  0.57664700  1
  O  O30  1  0.86986100  0.36210600  0.77100600  1
  O  O31  1  0.04613700  0.75149000  0.74180500  1
  O  O32  1  0.81739600  0.41912700  0.60539100  1
  O  O33  1  0.54053900  0.72523100  0.28924800  1
  O  O34  1  0.26182600  0.56250300  0.86799500  1
  O  O35  1  0.95386300  0.24851000  0.25819500  1
  O  O36  1  0.88424900  0.15311700  0.42335300  1
  O  O37  1  0.80610500  0.95602700  0.31084400  1
  O  O38  1  0.19389500  0.04397300  0.68915600  1
  O  O39  1  0.13013900  0.63789400  0.22899400  1
