# generated using pymatgen
data_HoMoClO4
_symmetry_space_group_name_H-M   'P 1'
_cell_length_a   6.30248350
_cell_length_b   6.30248350
_cell_length_c   6.91213226
_cell_angle_alpha   75.92845675
_cell_angle_beta   75.92845675
_cell_angle_gamma   70.74591716
_symmetry_Int_Tables_number   1
_chemical_formula_structural   HoMoClO4
_chemical_formula_sum   'Ho2 Mo2 Cl2 O8'
_cell_volume   247.41069323
_cell_formula_units_Z   2
loop_
 _symmetry_equiv_pos_site_id
 _symmetry_equiv_pos_as_xyz
  1  'x, y, z'
loop_
 _atom_site_type_symbol
 _atom_site_label
 _atom_site_symmetry_multiplicity
 _atom_site_fract_x
 _atom_site_fract_y
 _atom_site_fract_z
 _atom_site_occupancy
  Ho  Ho0  1  0.77825400  0.77825400  0.11267500  1
  Ho  Ho1  1  0.22174600  0.22174600  0.88732500  1
  Mo  Mo2  1  0.36223600  0.36223600  0.26912500  1
  Mo  Mo3  1  0.63776400  0.63776400  0.73087500  1
  Cl  Cl4  1  0.98970700  0.98970700  0.76766500  1
  Cl  Cl5  1  0.01029300  0.01029300  0.23233500  1
  O  O6  1  0.45639000  0.45639000  0.79864200  1
  O  O7  1  0.29352500  0.29352500  0.53641400  1
  O  O8  1  0.49141900  0.10852000  0.15341300  1
  O  O9  1  0.10852000  0.49141900  0.15341300  1
  O  O10  1  0.70647500  0.70647500  0.46358600  1
  O  O11  1  0.50858100  0.89148000  0.84658700  1
  O  O12  1  0.89148000  0.50858100  0.84658700  1
  O  O13  1  0.54361000  0.54361000  0.20135800  1
