# generated using pymatgen
data_NaBeSi3HO8
_symmetry_space_group_name_H-M   'P 1'
_cell_length_a   7.44132800
_cell_length_b   12.84561900
_cell_length_c   13.78132300
_cell_angle_alpha   90.00000000
_cell_angle_beta   90.00000000
_cell_angle_gamma   90.00000000
_symmetry_Int_Tables_number   1
_chemical_formula_structural   NaBeSi3HO8
_chemical_formula_sum   'Na8 Be8 Si24 H8 O64'
_cell_volume   1317.33550217
_cell_formula_units_Z   8
loop_
 _symmetry_equiv_pos_site_id
 _symmetry_equiv_pos_as_xyz
  1  'x, y, z'
loop_
 _atom_site_type_symbol
 _atom_site_label
 _atom_site_symmetry_multiplicity
 _atom_site_fract_x
 _atom_site_fract_y
 _atom_site_fract_z
 _atom_site_occupancy
  Na  Na0  1  0.50135100  0.10174500  0.07082100  1
  Na  Na1  1  0.50135100  0.10174500  0.42917900  1
  Na  Na2  1  0.00135100  0.39825500  0.57082100  1
  Na  Na3  1  0.99864900  0.60174500  0.42917900  1
  Na  Na4  1  0.49864900  0.89825500  0.92917900  1
  Na  Na5  1  0.99864900  0.60174500  0.07082100  1
  Na  Na6  1  0.49864900  0.89825500  0.57082100  1
  Na  Na7  1  0.00135100  0.39825500  0.92917900  1
  Be  Be8  1  0.65607400  0.50537400  0.49966000  1
  Be  Be9  1  0.65607400  0.50537400  0.00034000  1
  Be  Be10  1  0.15607400  0.99462600  0.99966000  1
  Be  Be11  1  0.84392600  0.00537400  0.00034000  1
  Be  Be12  1  0.34392600  0.49462600  0.50034000  1
  Be  Be13  1  0.34392600  0.49462600  0.99966000  1
  Be  Be14  1  0.84392600  0.00537400  0.49966000  1
  Be  Be15  1  0.15607400  0.99462600  0.50034000  1
  Si  Si16  1  0.98397200  0.84085700  0.86193800  1
  Si  Si17  1  0.48397200  0.65914300  0.13806200  1
  Si  Si18  1  0.19394300  0.83207600  0.36215400  1
  Si  Si19  1  0.30605700  0.33207600  0.13784600  1
  Si  Si20  1  0.80605700  0.16792400  0.86215400  1
  Si  Si21  1  0.26916500  0.65657300  0.86337400  1
  Si  Si22  1  0.73083500  0.34342700  0.13662600  1
  Si  Si23  1  0.73083500  0.34342700  0.36337400  1
  Si  Si24  1  0.26916500  0.65657300  0.63662600  1
  Si  Si25  1  0.01602800  0.15914300  0.36193800  1
  Si  Si26  1  0.80605700  0.16792400  0.63784600  1
  Si  Si27  1  0.98397200  0.84085700  0.63806200  1
  Si  Si28  1  0.69394300  0.66792400  0.86215400  1
  Si  Si29  1  0.76916500  0.84342700  0.36337400  1
  Si  Si30  1  0.23083500  0.15657300  0.63662600  1
  Si  Si31  1  0.51602800  0.34085700  0.63806200  1
  Si  Si32  1  0.01602800  0.15914300  0.13806200  1
  Si  Si33  1  0.51602800  0.34085700  0.86193800  1
  Si  Si34  1  0.30605700  0.33207600  0.36215400  1
  Si  Si35  1  0.19394300  0.83207600  0.13784600  1
  Si  Si36  1  0.48397200  0.65914300  0.36193800  1
  Si  Si37  1  0.76916500  0.84342700  0.13662600  1
  Si  Si38  1  0.23083500  0.15657300  0.86337400  1
  Si  Si39  1  0.69394300  0.66792400  0.63784600  1
  H  H40  1  0.11682700  0.50881400  0.25000000  1
  H  H41  1  0.88317300  0.49118600  0.75000000  1
  H  H42  1  0.38317300  0.00881400  0.25000000  1
  H  H43  1  0.58858800  0.00159200  0.25000000  1
  H  H44  1  0.91141200  0.50159200  0.25000000  1
  H  H45  1  0.08858800  0.49840800  0.75000000  1
  H  H46  1  0.61682700  0.99118600  0.75000000  1
  H  H47  1  0.41141200  0.99840800  0.75000000  1
  O  O48  1  0.77170300  0.58471000  0.56216100  1
  O  O49  1  0.28929100  0.71711300  0.37659700  1
  O  O50  1  0.76559200  0.38123000  0.25000000  1
  O  O51  1  0.27170300  0.91529000  0.06216100  1
  O  O52  1  0.23440800  0.61877000  0.75000000  1
  O  O53  1  0.49948800  0.61850900  0.25000000  1
  O  O54  1  0.47882400  0.69611900  0.87480700  1
  O  O55  1  0.76841700  0.12730600  0.75000000  1
  O  O56  1  0.00051200  0.11850900  0.25000000  1
  O  O57  1  0.73158300  0.62730600  0.75000000  1
  O  O58  1  0.71070900  0.28288700  0.87659700  1
  O  O59  1  0.34948700  0.26175000  0.88447300  1
  O  O60  1  0.97882400  0.80388100  0.37480700  1
  O  O61  1  0.50659900  0.43897400  0.93445700  1
  O  O62  1  0.84948700  0.23825000  0.38447300  1
  O  O63  1  0.28808500  0.06497500  0.56363100  1
  O  O64  1  0.00659900  0.06102600  0.06554300  1
  O  O65  1  0.97882400  0.80388100  0.12519300  1
  O  O66  1  0.72829700  0.08471000  0.56216100  1
  O  O67  1  0.99948800  0.88149100  0.75000000  1
  O  O68  1  0.02117600  0.19611900  0.62519300  1
  O  O69  1  0.02117600  0.19611900  0.87480700  1
  O  O70  1  0.22829700  0.41529000  0.43783900  1
  O  O71  1  0.72829700  0.08471000  0.93783900  1
  O  O72  1  0.28808500  0.06497500  0.93636900  1
  O  O73  1  0.50659900  0.43897400  0.56554300  1
  O  O74  1  0.49054900  0.05336500  0.25000000  1
  O  O75  1  0.34948700  0.26175000  0.61552700  1
  O  O76  1  0.78808500  0.43502500  0.43636900  1
  O  O77  1  0.71070900  0.28288700  0.62340300  1
  O  O78  1  0.99054900  0.44663500  0.75000000  1
  O  O79  1  0.47882400  0.69611900  0.62519300  1
  O  O80  1  0.52117600  0.30388100  0.12519300  1
  O  O81  1  0.22829700  0.41529000  0.06216100  1
  O  O82  1  0.23158300  0.87269400  0.25000000  1
  O  O83  1  0.77170300  0.58471000  0.93783900  1
  O  O84  1  0.99340100  0.93897400  0.56554300  1
  O  O85  1  0.78808500  0.43502500  0.06363100  1
  O  O86  1  0.15051300  0.76175000  0.61552700  1
  O  O87  1  0.21070900  0.21711300  0.37659700  1
  O  O88  1  0.73440800  0.88123000  0.25000000  1
  O  O89  1  0.49340100  0.56102600  0.06554300  1
  O  O90  1  0.78929100  0.78288700  0.87659700  1
  O  O91  1  0.65051300  0.73825000  0.11552700  1
  O  O92  1  0.50945100  0.94663500  0.75000000  1
  O  O93  1  0.21191500  0.56497500  0.56363100  1
  O  O94  1  0.27170300  0.91529000  0.43783900  1
  O  O95  1  0.26841700  0.37269400  0.25000000  1
  O  O96  1  0.21191500  0.56497500  0.93636900  1
  O  O97  1  0.00659900  0.06102600  0.43445700  1
  O  O98  1  0.78929100  0.78288700  0.62340300  1
  O  O99  1  0.71191500  0.93502500  0.06363100  1
  O  O100  1  0.28929100  0.71711300  0.12340300  1
  O  O101  1  0.52117600  0.30388100  0.37480700  1
  O  O102  1  0.00945100  0.55336500  0.25000000  1
  O  O103  1  0.49340100  0.56102600  0.43445700  1
  O  O104  1  0.65051300  0.73825000  0.38447300  1
  O  O105  1  0.21070900  0.21711300  0.12340300  1
  O  O106  1  0.50051200  0.38149100  0.75000000  1
  O  O107  1  0.71191500  0.93502500  0.43636900  1
  O  O108  1  0.15051300  0.76175000  0.88447300  1
  O  O109  1  0.99340100  0.93897400  0.93445700  1
  O  O110  1  0.84948700  0.23825000  0.11552700  1
  O  O111  1  0.26559200  0.11877000  0.75000000  1
