# generated using pymatgen
data_P3Pb5ClO12
_symmetry_space_group_name_H-M   'P 1'
_cell_length_a   10.23430824
_cell_length_b   10.23430824
_cell_length_c   7.35724600
_cell_angle_alpha   90.00000000
_cell_angle_beta   90.00000000
_cell_angle_gamma   120.00000158
_symmetry_Int_Tables_number   1
_chemical_formula_structural   P3Pb5ClO12
_chemical_formula_sum   'P6 Pb10 Cl2 O24'
_cell_volume   667.36417397
_cell_formula_units_Z   2
loop_
 _symmetry_equiv_pos_site_id
 _symmetry_equiv_pos_as_xyz
  1  'x, y, z'
loop_
 _atom_site_type_symbol
 _atom_site_label
 _atom_site_symmetry_multiplicity
 _atom_site_fract_x
 _atom_site_fract_y
 _atom_site_fract_z
 _atom_site_occupancy
  P  P0  1  0.41307100  0.37819500  0.25000000  1
  P  P1  1  0.03487500  0.41307100  0.75000000  1
  P  P2  1  0.37819500  0.96512500  0.75000000  1
  P  P3  1  0.62180500  0.03487500  0.25000000  1
  P  P4  1  0.96512500  0.58692900  0.25000000  1
  P  P5  1  0.58692900  0.62180500  0.75000000  1
  Pb  Pb6  1  0.33333300  0.66666700  0.00608000  1
  Pb  Pb7  1  0.66666700  0.33333300  0.50608000  1
  Pb  Pb8  1  0.66666700  0.33333300  0.99392000  1
  Pb  Pb9  1  0.33333300  0.66666700  0.49392000  1
  Pb  Pb10  1  0.26185200  0.01962300  0.25000000  1
  Pb  Pb11  1  0.24222900  0.26185200  0.75000000  1
  Pb  Pb12  1  0.01962300  0.75777100  0.75000000  1
  Pb  Pb13  1  0.98037700  0.24222900  0.25000000  1
  Pb  Pb14  1  0.75777100  0.73814800  0.25000000  1
  Pb  Pb15  1  0.73814800  0.98037700  0.75000000  1
  Cl  Cl16  1  0.00000000  0.00000000  0.00000000  1
  Cl  Cl17  1  0.00000000  0.00000000  0.50000000  1
  O  O18  1  0.35133900  0.48833900  0.25000000  1
  O  O19  1  0.86299900  0.35133900  0.75000000  1
  O  O20  1  0.48833900  0.13700100  0.75000000  1
  O  O21  1  0.51166100  0.86299900  0.25000000  1
  O  O22  1  0.13700100  0.64866100  0.25000000  1
  O  O23  1  0.64866100  0.51166100  0.75000000  1
  O  O24  1  0.59160900  0.46828600  0.25000000  1
  O  O25  1  0.12332300  0.59160900  0.75000000  1
  O  O26  1  0.46828600  0.87667700  0.75000000  1
  O  O27  1  0.53171400  0.12332300  0.25000000  1
  O  O28  1  0.87667700  0.40839100  0.25000000  1
  O  O29  1  0.40839100  0.53171400  0.75000000  1
  O  O30  1  0.36259500  0.27308200  0.07933900  1
  O  O31  1  0.08951200  0.36259500  0.57933900  1
  O  O32  1  0.27308200  0.91048800  0.57933900  1
  O  O33  1  0.72691800  0.08951200  0.07933900  1
  O  O34  1  0.91048800  0.63740500  0.07933900  1
  O  O35  1  0.63740500  0.72691800  0.57933900  1
  O  O36  1  0.63740500  0.72691800  0.92066100  1
  O  O37  1  0.91048800  0.63740500  0.42066100  1
  O  O38  1  0.72691800  0.08951200  0.42066100  1
  O  O39  1  0.27308200  0.91048800  0.92066100  1
  O  O40  1  0.08951200  0.36259500  0.92066100  1
  O  O41  1  0.36259500  0.27308200  0.42066100  1
