# generated using pymatgen
data_K2CaP2O7
_symmetry_space_group_name_H-M   'P 1'
_cell_length_a   5.74548200
_cell_length_b   9.93211600
_cell_length_c   14.43303263
_cell_angle_alpha   62.37291702
_cell_angle_beta   90.00000000
_cell_angle_gamma   90.00000000
_symmetry_Int_Tables_number   1
_chemical_formula_structural   K2CaP2O7
_chemical_formula_sum   'K8 Ca4 P8 O28'
_cell_volume   729.71279674
_cell_formula_units_Z   4
loop_
 _symmetry_equiv_pos_site_id
 _symmetry_equiv_pos_as_xyz
  1  'x, y, z'
loop_
 _atom_site_type_symbol
 _atom_site_label
 _atom_site_symmetry_multiplicity
 _atom_site_fract_x
 _atom_site_fract_y
 _atom_site_fract_z
 _atom_site_occupancy
  K  K0  1  0.73108300  0.46565200  0.17788200  1
  K  K1  1  0.23800100  0.98700400  0.14005600  1
  K  K2  1  0.76891700  0.46565200  0.67788200  1
  K  K3  1  0.26891700  0.53434800  0.82211800  1
  K  K4  1  0.26199900  0.98700400  0.64005600  1
  K  K5  1  0.76199900  0.01299600  0.85994400  1
  K  K6  1  0.73800100  0.01299600  0.35994400  1
  K  K7  1  0.23108300  0.53434800  0.32211800  1
  Ca  Ca8  1  0.23842300  0.73288300  0.51831800  1
  Ca  Ca9  1  0.26157700  0.73288300  0.01831800  1
  Ca  Ca10  1  0.76157700  0.26711700  0.48168200  1
  Ca  Ca11  1  0.73842300  0.26711700  0.98168200  1
  P  P12  1  0.75516100  0.82816300  0.64144800  1
  P  P13  1  0.25516100  0.17183700  0.85855200  1
  P  P14  1  0.78007700  0.67868200  0.87413600  1
  P  P15  1  0.71992300  0.67868200  0.37413600  1
  P  P16  1  0.28007700  0.32131800  0.62586400  1
  P  P17  1  0.21992300  0.32131800  0.12586400  1
  P  P18  1  0.74483900  0.82816300  0.14144800  1
  P  P19  1  0.24483900  0.17183700  0.35855200  1
  O  O20  1  0.60301200  0.69690100  0.94633200  1
  O  O21  1  0.70400800  0.81738500  0.75768300  1
  O  O22  1  0.26194200  0.47040800  0.63240600  1
  O  O23  1  0.10301200  0.30309900  0.55366800  1
  O  O24  1  0.79599200  0.81738500  0.25768300  1
  O  O25  1  0.97092400  0.28101900  0.10927900  1
  O  O26  1  0.20400800  0.18261500  0.74231700  1
  O  O27  1  0.23676200  0.00007400  0.42963100  1
  O  O28  1  0.73805800  0.52959200  0.36759400  1
  O  O29  1  0.45507900  0.24930900  0.37877500  1
  O  O30  1  0.73676200  0.99992600  0.07036900  1
  O  O31  1  0.02907600  0.71898100  0.89072100  1
  O  O32  1  0.89698800  0.69690100  0.44633200  1
  O  O33  1  0.54492100  0.75069100  0.62122500  1
  O  O34  1  0.01243800  0.25138200  0.35243800  1
  O  O35  1  0.48756200  0.25138200  0.85243800  1
  O  O36  1  0.04492100  0.24930900  0.87877500  1
  O  O37  1  0.98756200  0.74861800  0.64756200  1
  O  O38  1  0.29599200  0.18261500  0.24231700  1
  O  O39  1  0.51243800  0.74861800  0.14756200  1
  O  O40  1  0.52907600  0.28101900  0.60927900  1
  O  O41  1  0.39698800  0.30309900  0.05366800  1
  O  O42  1  0.47092400  0.71898100  0.39072100  1
  O  O43  1  0.76194200  0.52959200  0.86759400  1
  O  O44  1  0.26323800  0.00007400  0.92963100  1
  O  O45  1  0.76323800  0.99992600  0.57036900  1
  O  O46  1  0.23805800  0.47040800  0.13240600  1
  O  O47  1  0.95507900  0.75069100  0.12122500  1
