# generated using pymatgen
data_RhF5
_symmetry_space_group_name_H-M   'P 1'
_cell_length_a   10.14192600
_cell_length_b   5.69259000
_cell_length_c   12.64043526
_cell_angle_alpha   78.90034392
_cell_angle_beta   90.00000000
_cell_angle_gamma   90.00000000
_symmetry_Int_Tables_number   1
_chemical_formula_structural   RhF5
_chemical_formula_sum   'Rh8 F40'
_cell_volume   716.12928731
_cell_formula_units_Z   8
loop_
 _symmetry_equiv_pos_site_id
 _symmetry_equiv_pos_as_xyz
  1  'x, y, z'
loop_
 _atom_site_type_symbol
 _atom_site_label
 _atom_site_symmetry_multiplicity
 _atom_site_fract_x
 _atom_site_fract_y
 _atom_site_fract_z
 _atom_site_occupancy
  Rh  Rh0  1  0.24916300  0.99522500  0.49616800  1
  Rh  Rh1  1  0.74916300  0.00477500  0.00383200  1
  Rh  Rh2  1  0.75083700  0.00477500  0.50383200  1
  Rh  Rh3  1  0.25083700  0.99522500  0.99616800  1
  Rh  Rh4  1  0.49876800  0.69976700  0.69946500  1
  Rh  Rh5  1  0.99876800  0.30023300  0.80053500  1
  Rh  Rh6  1  0.50123200  0.30023300  0.30053500  1
  Rh  Rh7  1  0.00123200  0.69976700  0.19946500  1
  F  F8  1  0.16976000  0.09278000  0.36162500  1
  F  F9  1  0.66976000  0.90722000  0.13837500  1
  F  F10  1  0.83024000  0.90722000  0.63837500  1
  F  F11  1  0.33024000  0.09278000  0.86162500  1
  F  F12  1  0.10067700  0.81474900  0.54652700  1
  F  F13  1  0.60067700  0.18525100  0.95347300  1
  F  F14  1  0.89932300  0.18525100  0.45347300  1
  F  F15  1  0.39932300  0.81474900  0.04652700  1
  F  F16  1  0.33008500  0.73501600  0.45335300  1
  F  F17  1  0.83008500  0.26498400  0.04664700  1
  F  F18  1  0.66991500  0.26498400  0.54664700  1
  F  F19  1  0.16991500  0.73501600  0.95335300  1
  F  F20  1  0.18633200  0.26057900  0.54622000  1
  F  F21  1  0.68633200  0.73942100  0.95378000  1
  F  F22  1  0.81366800  0.73942100  0.45378000  1
  F  F23  1  0.31366800  0.26057900  0.04622000  1
  F  F24  1  0.33453400  0.88989700  0.64412300  1
  F  F25  1  0.83453400  0.11010300  0.85587700  1
  F  F26  1  0.66546600  0.11010300  0.35587700  1
  F  F27  1  0.16546600  0.88989700  0.14412300  1
  F  F28  1  0.41332800  0.19167100  0.44697200  1
  F  F29  1  0.91332800  0.80832900  0.05302800  1
  F  F30  1  0.58667200  0.80832900  0.55302800  1
  F  F31  1  0.08667200  0.19167100  0.94697200  1
  F  F32  1  0.64835100  0.52509200  0.75225100  1
  F  F33  1  0.14835100  0.47490800  0.74774900  1
  F  F34  1  0.35164900  0.47490800  0.24774900  1
  F  F35  1  0.85164900  0.52509200  0.25225100  1
  F  F36  1  0.43047600  0.44335300  0.64519200  1
  F  F37  1  0.93047600  0.55664700  0.85480800  1
  F  F38  1  0.56952400  0.55664700  0.35480800  1
  F  F39  1  0.06952400  0.44335300  0.14519200  1
  F  F40  1  0.41331800  0.60330400  0.83157500  1
  F  F41  1  0.91331800  0.39669600  0.66842500  1
  F  F42  1  0.58668200  0.39669600  0.16842500  1
  F  F43  1  0.08668200  0.60330400  0.33157500  1
  F  F44  1  0.56332100  0.97645900  0.73904500  1
  F  F45  1  0.06332100  0.02354100  0.76095500  1
  F  F46  1  0.43667900  0.02354100  0.26095500  1
  F  F47  1  0.93667900  0.97645900  0.23904500  1
