# generated using pymatgen
data_Ca9B2(CCl2)4
_symmetry_space_group_name_H-M   'P 1'
_cell_length_a   8.94074991
_cell_length_b   8.94074991
_cell_length_c   12.16499400
_cell_angle_alpha   90.00000000
_cell_angle_beta   90.00000000
_cell_angle_gamma   98.39302766
_symmetry_Int_Tables_number   1
_chemical_formula_structural   Ca9B2(CCl2)4
_chemical_formula_sum   'Ca18 B4 C8 Cl16'
_cell_volume   962.01857354
_cell_formula_units_Z   2
loop_
 _symmetry_equiv_pos_site_id
 _symmetry_equiv_pos_as_xyz
  1  'x, y, z'
loop_
 _atom_site_type_symbol
 _atom_site_label
 _atom_site_symmetry_multiplicity
 _atom_site_fract_x
 _atom_site_fract_y
 _atom_site_fract_z
 _atom_site_occupancy
  Ca  Ca0  1  0.87930900  0.12069100  0.75000000  1
  Ca  Ca1  1  0.19277200  0.43277600  0.75000000  1
  Ca  Ca2  1  0.66708500  0.97089200  0.44953800  1
  Ca  Ca3  1  0.43277600  0.19277200  0.25000000  1
  Ca  Ca4  1  0.34052400  0.65947600  0.40803500  1
  Ca  Ca5  1  0.33291500  0.02910800  0.55046200  1
  Ca  Ca6  1  0.02910800  0.33291500  0.05046200  1
  Ca  Ca7  1  0.34052400  0.65947600  0.09196500  1
  Ca  Ca8  1  0.80722800  0.56722400  0.25000000  1
  Ca  Ca9  1  0.65947600  0.34052400  0.90803500  1
  Ca  Ca10  1  0.65947600  0.34052400  0.59196500  1
  Ca  Ca11  1  0.12069100  0.87930900  0.25000000  1
  Ca  Ca12  1  0.33291500  0.02910800  0.94953800  1
  Ca  Ca13  1  0.97089200  0.66708500  0.94953800  1
  Ca  Ca14  1  0.02910800  0.33291500  0.44953800  1
  Ca  Ca15  1  0.97089200  0.66708500  0.55046200  1
  Ca  Ca16  1  0.56722400  0.80722800  0.75000000  1
  Ca  Ca17  1  0.66708500  0.97089200  0.05046200  1
  B  B18  1  0.91505600  0.41762800  0.75000000  1
  B  B19  1  0.08494400  0.58237200  0.25000000  1
  B  B20  1  0.41762800  0.91505600  0.25000000  1
  B  B21  1  0.58237200  0.08494400  0.75000000  1
  C  C22  1  0.06315700  0.59727900  0.36795500  1
  C  C23  1  0.93684300  0.40272100  0.63204500  1
  C  C24  1  0.06315700  0.59727900  0.13204500  1
  C  C25  1  0.59727900  0.06315700  0.63204500  1
  C  C26  1  0.40272100  0.93684300  0.13204500  1
  C  C27  1  0.93684300  0.40272100  0.86795500  1
  C  C28  1  0.40272100  0.93684300  0.36795500  1
  C  C29  1  0.59727900  0.06315700  0.86795500  1
  Cl  Cl30  1  0.87617400  0.80173100  0.75000000  1
  Cl  Cl31  1  0.48750800  0.51249200  0.25000000  1
  Cl  Cl32  1  0.80173100  0.87617400  0.25000000  1
  Cl  Cl33  1  0.27612000  0.72388000  0.87918800  1
  Cl  Cl34  1  0.72388000  0.27612000  0.37918800  1
  Cl  Cl35  1  0.19826900  0.12382600  0.75000000  1
  Cl  Cl36  1  0.33958900  0.33958900  0.50000000  1
  Cl  Cl37  1  0.66041100  0.66041100  0.00000000  1
  Cl  Cl38  1  0.33958900  0.33958900  0.00000000  1
  Cl  Cl39  1  0.27612000  0.72388000  0.62081200  1
  Cl  Cl40  1  0.00000000  0.00000000  0.50000000  1
  Cl  Cl41  1  0.66041100  0.66041100  0.50000000  1
  Cl  Cl42  1  0.72388000  0.27612000  0.12081200  1
  Cl  Cl43  1  0.12382600  0.19826900  0.25000000  1
  Cl  Cl44  1  0.51249200  0.48750800  0.75000000  1
  Cl  Cl45  1  0.00000000  0.00000000  0.00000000  1
