# generated using pymatgen
data_Na3NbOF6
_symmetry_space_group_name_H-M   'P 1'
_cell_length_a   5.74480200
_cell_length_b   5.85500100
_cell_length_c   17.19606000
_cell_angle_alpha   90.00000000
_cell_angle_beta   90.00000000
_cell_angle_gamma   90.00000000
_symmetry_Int_Tables_number   1
_chemical_formula_structural   Na3NbOF6
_chemical_formula_sum   'Na12 Nb4 O4 F24'
_cell_volume   578.40360389
_cell_formula_units_Z   4
loop_
 _symmetry_equiv_pos_site_id
 _symmetry_equiv_pos_as_xyz
  1  'x, y, z'
loop_
 _atom_site_type_symbol
 _atom_site_label
 _atom_site_symmetry_multiplicity
 _atom_site_fract_x
 _atom_site_fract_y
 _atom_site_fract_z
 _atom_site_occupancy
  Na  Na0  1  0.76284600  0.48526700  0.62479200  1
  Na  Na1  1  0.76384400  0.96790300  0.24282500  1
  Na  Na2  1  0.78209400  0.99184700  0.50427100  1
  Na  Na3  1  0.73715400  0.51473300  0.12479200  1
  Na  Na4  1  0.71790600  0.00815300  0.00427100  1
  Na  Na5  1  0.23715400  0.98526700  0.87520800  1
  Na  Na6  1  0.28209400  0.50815300  0.49572900  1
  Na  Na7  1  0.23615600  0.46790300  0.25717500  1
  Na  Na8  1  0.73615600  0.03209700  0.74282500  1
  Na  Na9  1  0.21790600  0.49184700  0.99572900  1
  Na  Na10  1  0.26284600  0.01473300  0.37520800  1
  Na  Na11  1  0.26384400  0.53209700  0.75717500  1
  Nb  Nb12  1  0.74713400  0.49027200  0.37514900  1
  Nb  Nb13  1  0.75286600  0.50972800  0.87514900  1
  Nb  Nb14  1  0.25286600  0.99027200  0.12485100  1
  Nb  Nb15  1  0.24713400  0.00972800  0.62485100  1
  O  O16  1  0.98639000  0.83900500  0.11175200  1
  O  O17  1  0.48639000  0.66099500  0.88824800  1
  O  O18  1  0.01361000  0.33900500  0.38824800  1
  O  O19  1  0.51361000  0.16099500  0.61175200  1
  F  F20  1  0.58085700  0.16137400  0.13414500  1
  F  F21  1  0.65558000  0.42250600  0.76169700  1
  F  F22  1  0.91935200  0.72947700  0.80035100  1
  F  F23  1  0.87418000  0.81974900  0.37659500  1
  F  F24  1  0.27097400  0.10379400  0.01096300  1
  F  F25  1  0.08085700  0.33862600  0.86585500  1
  F  F26  1  0.34442000  0.92250600  0.73830300  1
  F  F27  1  0.08064800  0.22947700  0.69964900  1
  F  F28  1  0.15558000  0.07749400  0.23830300  1
  F  F29  1  0.91914300  0.83862600  0.63414500  1
  F  F30  1  0.72902600  0.60379400  0.48903700  1
  F  F31  1  0.94616700  0.74529500  0.93957900  1
  F  F32  1  0.84442000  0.57749400  0.26169700  1
  F  F33  1  0.41914300  0.66137400  0.36585500  1
  F  F34  1  0.77097400  0.39620600  0.98903700  1
  F  F35  1  0.05383300  0.24529500  0.56042100  1
  F  F36  1  0.58064800  0.27052300  0.30035100  1
  F  F37  1  0.44616700  0.75470500  0.06042100  1
  F  F38  1  0.12582000  0.31974900  0.12340500  1
  F  F39  1  0.55383300  0.25470500  0.43957900  1
  F  F40  1  0.37418000  0.68025100  0.62340500  1
  F  F41  1  0.41935200  0.77052300  0.19964900  1
  F  F42  1  0.62582000  0.18025100  0.87659500  1
  F  F43  1  0.22902600  0.89620600  0.51096300  1
