# generated using pymatgen
data_SmH18(IO3)3
_symmetry_space_group_name_H-M   'P 1'
_cell_length_a   8.07613300
_cell_length_b   8.97714300
_cell_length_c   11.59979400
_cell_angle_alpha   90.00000000
_cell_angle_beta   90.00000000
_cell_angle_gamma   90.00000000
_symmetry_Int_Tables_number   1
_chemical_formula_structural   SmH18(IO3)3
_chemical_formula_sum   'Sm2 H36 I6 O18'
_cell_volume   840.99203448
_cell_formula_units_Z   2
loop_
 _symmetry_equiv_pos_site_id
 _symmetry_equiv_pos_as_xyz
  1  'x, y, z'
loop_
 _atom_site_type_symbol
 _atom_site_label
 _atom_site_symmetry_multiplicity
 _atom_site_fract_x
 _atom_site_fract_y
 _atom_site_fract_z
 _atom_site_occupancy
  Sm  Sm0  1  0.50000000  0.33588100  0.00000000  1
  Sm  Sm1  1  0.00000000  0.66411900  0.50000000  1
  H  H2  1  0.21477700  0.51934100  0.10029400  1
  H  H3  1  0.71477700  0.48065900  0.39970600  1
  H  H4  1  0.78522300  0.51934100  0.89970600  1
  H  H5  1  0.28522300  0.48065900  0.60029400  1
  H  H6  1  0.28522300  0.48065900  0.39970600  1
  H  H7  1  0.78522300  0.51934100  0.10029400  1
  H  H8  1  0.71477700  0.48065900  0.60029400  1
  H  H9  1  0.21477700  0.51934100  0.89970600  1
  H  H10  1  0.20983800  0.36939400  0.17023500  1
  H  H11  1  0.70983800  0.63060600  0.32976500  1
  H  H12  1  0.79016200  0.36939400  0.82976500  1
  H  H13  1  0.29016200  0.63060600  0.67023500  1
  H  H14  1  0.29016200  0.63060600  0.32976500  1
  H  H15  1  0.79016200  0.36939400  0.17023500  1
  H  H16  1  0.70983800  0.63060600  0.67023500  1
  H  H17  1  0.20983800  0.36939400  0.82976500  1
  H  H18  1  0.50000000  0.68118000  0.93153600  1
  H  H19  1  0.00000000  0.31882000  0.56846400  1
  H  H20  1  0.50000000  0.68118000  0.06846400  1
  H  H21  1  0.00000000  0.31882000  0.43153600  1
  H  H22  1  0.77959100  0.11637300  0.93236000  1
  H  H23  1  0.27959100  0.88362700  0.56764000  1
  H  H24  1  0.22040900  0.11637300  0.06764000  1
  H  H25  1  0.72040900  0.88362700  0.43236000  1
  H  H26  1  0.72040900  0.88362700  0.56764000  1
  H  H27  1  0.22040900  0.11637300  0.93236000  1
  H  H28  1  0.27959100  0.88362700  0.43236000  1
  H  H29  1  0.77959100  0.11637300  0.06764000  1
  H  H30  1  0.50000000  0.09503800  0.20103100  1
  H  H31  1  0.00000000  0.90496200  0.29896900  1
  H  H32  1  0.50000000  0.09503800  0.79896900  1
  H  H33  1  0.00000000  0.90496200  0.70103100  1
  H  H34  1  0.50000000  0.24809800  0.26642700  1
  H  H35  1  0.00000000  0.75190200  0.23357300  1
  H  H36  1  0.50000000  0.24809800  0.73357300  1
  H  H37  1  0.00000000  0.75190200  0.76642700  1
  I  I38  1  0.00000000  0.17147000  0.23725600  1
  I  I39  1  0.50000000  0.82853000  0.26274400  1
  I  I40  1  0.00000000  0.17147000  0.76274400  1
  I  I41  1  0.50000000  0.82853000  0.73725600  1
  I  I42  1  0.50000000  0.30681700  0.50000000  1
  I  I43  1  0.00000000  0.69318300  0.00000000  1
  O  O44  1  0.28555100  0.43774700  0.12922200  1
  O  O45  1  0.78555100  0.56225300  0.37077800  1
  O  O46  1  0.71444900  0.43774700  0.87077800  1
  O  O47  1  0.21444900  0.56225300  0.62922200  1
  O  O48  1  0.21444900  0.56225300  0.37077800  1
  O  O49  1  0.71444900  0.43774700  0.12922200  1
  O  O50  1  0.78555100  0.56225300  0.62922200  1
  O  O51  1  0.28555100  0.43774700  0.87077800  1
  O  O52  1  0.50000000  0.61607600  0.00000000  1
  O  O53  1  0.00000000  0.38392400  0.50000000  1
  O  O54  1  0.70720100  0.12915900  0.00000000  1
  O  O55  1  0.20720100  0.87084100  0.50000000  1
  O  O56  1  0.29279900  0.12915900  0.00000000  1
  O  O57  1  0.79279900  0.87084100  0.50000000  1
  O  O58  1  0.50000000  0.20419200  0.18887400  1
  O  O59  1  0.00000000  0.79580800  0.31112600  1
  O  O60  1  0.50000000  0.20419200  0.81112600  1
  O  O61  1  0.00000000  0.79580800  0.68887400  1
