# generated using pymatgen
data_FeF2
_symmetry_space_group_name_H-M   'P 1'
_cell_length_a   3.33273700
_cell_length_b   4.79496200
_cell_length_c   4.79494100
_cell_angle_alpha   89.99911576
_cell_angle_beta   89.99966079
_cell_angle_gamma   90.00033921
_symmetry_Int_Tables_number   1
_chemical_formula_structural   FeF2
_chemical_formula_sum   'Fe2 F4'
_cell_volume   76.62482232
_cell_formula_units_Z   2
loop_
 _symmetry_equiv_pos_site_id
 _symmetry_equiv_pos_as_xyz
  1  'x, y, z'
loop_
 _atom_site_type_symbol
 _atom_site_label
 _atom_site_symmetry_multiplicity
 _atom_site_fract_x
 _atom_site_fract_y
 _atom_site_fract_z
 _atom_site_occupancy
  Fe  Fe0  1  0.00000000  0.00000000  0.00000000  1
  Fe  Fe1  1  0.50000000  0.50000000  0.50000000  1
  F  F2  1  0.00000000  0.69901500  0.69901500  1
  F  F3  1  0.49999300  0.80099000  0.19901000  1
  F  F4  1  0.00000000  0.30098500  0.30098500  1
  F  F5  1  0.50000700  0.19901000  0.80099000  1
