# generated using pymatgen
data_Ga10GePb3O20
_symmetry_space_group_name_H-M   'P 1'
_cell_length_a   9.89376525
_cell_length_b   9.89376525
_cell_length_c   5.18017454
_cell_angle_alpha   74.96346383
_cell_angle_beta   74.96346383
_cell_angle_gamma   73.67354279
_symmetry_Int_Tables_number   1
_chemical_formula_structural   Ga10GePb3O20
_chemical_formula_sum   'Ga10 Ge1 Pb3 O20'
_cell_volume   460.34697851
_cell_formula_units_Z   1
loop_
 _symmetry_equiv_pos_site_id
 _symmetry_equiv_pos_as_xyz
  1  'x, y, z'
loop_
 _atom_site_type_symbol
 _atom_site_label
 _atom_site_symmetry_multiplicity
 _atom_site_fract_x
 _atom_site_fract_y
 _atom_site_fract_z
 _atom_site_occupancy
  Ga  Ga0  1  0.63397900  0.36602100  0.50000000  1
  Ga  Ga1  1  0.36602100  0.63397900  0.50000000  1
  Ga  Ga2  1  0.27984200  0.00740300  0.37196700  1
  Ga  Ga3  1  0.99259700  0.72015800  0.62803300  1
  Ga  Ga4  1  0.72015800  0.99259700  0.62803300  1
  Ga  Ga5  1  0.00740300  0.27984200  0.37196700  1
  Ga  Ga6  1  0.57803700  0.15051000  0.10758000  1
  Ga  Ga7  1  0.84949000  0.42196300  0.89242000  1
  Ga  Ga8  1  0.42196300  0.84949000  0.89242000  1
  Ga  Ga9  1  0.15051000  0.57803700  0.10758000  1
  Ge  Ge10  1  0.50000000  0.50000000  0.00000000  1
  Pb  Pb11  1  0.00000000  0.00000000  0.00000000  1
  Pb  Pb12  1  0.72239300  0.72239300  0.21840800  1
  Pb  Pb13  1  0.27760700  0.27760700  0.78159200  1
  O  O14  1  0.56643100  0.56643100  0.25154400  1
  O  O15  1  0.43356900  0.43356900  0.74845600  1
  O  O16  1  0.09718200  0.09718200  0.30446500  1
  O  O17  1  0.90281800  0.90281800  0.69553500  1
  O  O18  1  0.39615700  0.12405700  0.13202600  1
  O  O19  1  0.87594300  0.60384300  0.86797400  1
  O  O20  1  0.60384300  0.87594300  0.86797400  1
  O  O21  1  0.12405700  0.39615700  0.13202600  1
  O  O22  1  0.33876700  0.82807900  0.26810000  1
  O  O23  1  0.17192100  0.66123300  0.73190000  1
  O  O24  1  0.66123300  0.17192100  0.73190000  1
  O  O25  1  0.82807900  0.33876700  0.26810000  1
  O  O26  1  0.99180000  0.28192800  0.73466200  1
  O  O27  1  0.71807200  0.00820000  0.26533800  1
  O  O28  1  0.00820000  0.71807200  0.26533800  1
  O  O29  1  0.28192800  0.99180000  0.73466200  1
  O  O30  1  0.68382900  0.45470200  0.75760900  1
  O  O31  1  0.54529800  0.31617100  0.24239100  1
  O  O32  1  0.31617100  0.54529800  0.24239100  1
  O  O33  1  0.45470200  0.68382900  0.75760900  1
