# generated using pymatgen
data_Cs2MgH12(SO7)2
_symmetry_space_group_name_H-M   'P 1'
_cell_length_a   12.97004300
_cell_length_b   6.42130400
_cell_length_c   9.39430503
_cell_angle_alpha   73.33633860
_cell_angle_beta   90.00000000
_cell_angle_gamma   90.00000000
_symmetry_Int_Tables_number   1
_chemical_formula_structural   Cs2MgH12(SO7)2
_chemical_formula_sum   'Cs4 Mg2 H24 S4 O28'
_cell_volume   749.54356135
_cell_formula_units_Z   2
loop_
 _symmetry_equiv_pos_site_id
 _symmetry_equiv_pos_as_xyz
  1  'x, y, z'
loop_
 _atom_site_type_symbol
 _atom_site_label
 _atom_site_symmetry_multiplicity
 _atom_site_fract_x
 _atom_site_fract_y
 _atom_site_fract_z
 _atom_site_occupancy
  Cs  Cs0  1  0.35686100  0.64823800  0.12706600  1
  Cs  Cs1  1  0.85686100  0.35176200  0.37293400  1
  Cs  Cs2  1  0.64313900  0.35176200  0.87293400  1
  Cs  Cs3  1  0.14313900  0.64823800  0.62706600  1
  Mg  Mg4  1  0.00000000  0.00000000  0.00000000  1
  Mg  Mg5  1  0.50000000  0.00000000  0.50000000  1
  H  H6  1  0.09996200  0.68233000  0.21289400  1
  H  H7  1  0.59996200  0.31767000  0.28710600  1
  H  H8  1  0.90003800  0.31767000  0.78710600  1
  H  H9  1  0.40003800  0.68233000  0.71289400  1
  H  H10  1  0.13090200  0.91574400  0.23511900  1
  H  H11  1  0.63090200  0.08425600  0.26488100  1
  H  H12  1  0.86909800  0.08425600  0.76488100  1
  H  H13  1  0.36909800  0.91574400  0.73511900  1
  H  H14  1  0.09721900  0.07223100  0.72494900  1
  H  H15  1  0.59721900  0.92776900  0.77505100  1
  H  H16  1  0.90278100  0.92776900  0.27505100  1
  H  H17  1  0.40278100  0.07223100  0.22494900  1
  H  H18  1  0.18335800  0.01635800  0.84863300  1
  H  H19  1  0.68335800  0.98364200  0.65136700  1
  H  H20  1  0.81664200  0.98364200  0.15136700  1
  H  H21  1  0.31664200  0.01635800  0.34863300  1
  H  H22  1  0.93905700  0.66252500  0.90069300  1
  H  H23  1  0.43905700  0.33747500  0.59930700  1
  H  H24  1  0.06094300  0.33747500  0.09930700  1
  H  H25  1  0.56094300  0.66252500  0.40069300  1
  H  H26  1  0.86120400  0.68600900  0.02268600  1
  H  H27  1  0.36120400  0.31399100  0.47731400  1
  H  H28  1  0.13879600  0.31399100  0.97731400  1
  H  H29  1  0.63879600  0.68600900  0.52268600  1
  S  S30  1  0.14851900  0.25878300  0.39558500  1
  S  S31  1  0.64851900  0.74121700  0.10441500  1
  S  S32  1  0.85148100  0.74121700  0.60441500  1
  S  S33  1  0.35148100  0.25878300  0.89558500  1
  O  O34  1  0.23912800  0.38937200  0.41787300  1
  O  O35  1  0.73912800  0.61062800  0.08212700  1
  O  O36  1  0.76087200  0.61062800  0.58212700  1
  O  O37  1  0.26087200  0.38937200  0.91787300  1
  O  O38  1  0.08412200  0.19720400  0.53252400  1
  O  O39  1  0.58412200  0.80279600  0.96747600  1
  O  O40  1  0.91587800  0.80279600  0.46747600  1
  O  O41  1  0.41587800  0.19720400  0.03252400  1
  O  O42  1  0.08481500  0.39721000  0.27038900  1
  O  O43  1  0.58481500  0.60279000  0.22961100  1
  O  O44  1  0.91518500  0.60279000  0.72961100  1
  O  O45  1  0.41518500  0.39721000  0.77038900  1
  O  O46  1  0.18479500  0.05933400  0.35737300  1
  O  O47  1  0.68479500  0.94066600  0.14262700  1
  O  O48  1  0.81520500  0.94066600  0.64262700  1
  O  O49  1  0.31520500  0.05933400  0.85737300  1
  O  O50  1  0.10861200  0.84002000  0.16202700  1
  O  O51  1  0.60861200  0.15998000  0.33797300  1
  O  O52  1  0.89138800  0.15998000  0.83797300  1
  O  O53  1  0.39138800  0.84002000  0.66202700  1
  O  O54  1  0.10897100  0.99305600  0.83105600  1
  O  O55  1  0.60897100  0.00694400  0.66894400  1
  O  O56  1  0.89102900  0.00694400  0.16894400  1
  O  O57  1  0.39102900  0.99305600  0.33105600  1
  O  O58  1  0.93492500  0.70832800  0.99265700  1
  O  O59  1  0.43492500  0.29167200  0.50734300  1
  O  O60  1  0.06507500  0.29167200  0.00734300  1
  O  O61  1  0.56507500  0.70832800  0.49265700  1
