# generated using pymatgen
data_Y2Fe14B
_symmetry_space_group_name_H-M   'P 1'
_cell_length_a   8.73603800
_cell_length_b   8.73603800
_cell_length_c   11.91957800
_cell_angle_alpha   90.00000000
_cell_angle_beta   90.00000000
_cell_angle_gamma   90.00000000
_symmetry_Int_Tables_number   1
_chemical_formula_structural   Y2Fe14B
_chemical_formula_sum   'Y8 Fe56 B4'
_cell_volume   909.68264411
_cell_formula_units_Z   4
loop_
 _symmetry_equiv_pos_site_id
 _symmetry_equiv_pos_as_xyz
  1  'x, y, z'
loop_
 _atom_site_type_symbol
 _atom_site_label
 _atom_site_symmetry_multiplicity
 _atom_site_fract_x
 _atom_site_fract_y
 _atom_site_fract_z
 _atom_site_occupancy
  Y  Y0  1  0.73318700  0.26681300  0.00000000  1
  Y  Y1  1  0.23318700  0.23318700  0.50000000  1
  Y  Y2  1  0.76681300  0.76681300  0.50000000  1
  Y  Y3  1  0.26681300  0.73318700  0.00000000  1
  Y  Y4  1  0.85668200  0.85668200  0.00000000  1
  Y  Y5  1  0.64331800  0.35668200  0.50000000  1
  Y  Y6  1  0.35668200  0.64331800  0.50000000  1
  Y  Y7  1  0.14331800  0.14331800  0.00000000  1
  Fe  Fe8  1  0.14096600  0.46317700  0.32511900  1
  Fe  Fe9  1  0.85903400  0.53682300  0.32511900  1
  Fe  Fe10  1  0.46317700  0.14096600  0.67488100  1
  Fe  Fe11  1  0.96317700  0.35903400  0.82511900  1
  Fe  Fe12  1  0.03682300  0.64096600  0.82511900  1
  Fe  Fe13  1  0.35903400  0.96317700  0.17488100  1
  Fe  Fe14  1  0.64096600  0.03682300  0.17488100  1
  Fe  Fe15  1  0.53682300  0.85903400  0.67488100  1
  Fe  Fe16  1  0.85903400  0.53682300  0.67488100  1
  Fe  Fe17  1  0.14096600  0.46317700  0.67488100  1
  Fe  Fe18  1  0.53682300  0.85903400  0.32511900  1
  Fe  Fe19  1  0.03682300  0.64096600  0.17488100  1
  Fe  Fe20  1  0.96317700  0.35903400  0.17488100  1
  Fe  Fe21  1  0.64096600  0.03682300  0.82511900  1
  Fe  Fe22  1  0.35903400  0.96317700  0.82511900  1
  Fe  Fe23  1  0.46317700  0.14096600  0.32511900  1
  Fe  Fe24  1  0.06616200  0.72458900  0.37365600  1
  Fe  Fe25  1  0.93383800  0.27541100  0.37365600  1
  Fe  Fe26  1  0.72458900  0.06616200  0.62634400  1
  Fe  Fe27  1  0.22458900  0.43383800  0.87365600  1
  Fe  Fe28  1  0.77541100  0.56616200  0.87365600  1
  Fe  Fe29  1  0.43383800  0.22458900  0.12634400  1
  Fe  Fe30  1  0.56616200  0.77541100  0.12634400  1
  Fe  Fe31  1  0.27541100  0.93383800  0.62634400  1
  Fe  Fe32  1  0.93383800  0.27541100  0.62634400  1
  Fe  Fe33  1  0.06616200  0.72458900  0.62634400  1
  Fe  Fe34  1  0.27541100  0.93383800  0.37365600  1
  Fe  Fe35  1  0.77541100  0.56616200  0.12634400  1
  Fe  Fe36  1  0.22458900  0.43383800  0.12634400  1
  Fe  Fe37  1  0.56616200  0.77541100  0.87365600  1
  Fe  Fe38  1  0.43383800  0.22458900  0.87365600  1
  Fe  Fe39  1  0.72458900  0.06616200  0.37365600  1
  Fe  Fe40  1  0.59738500  0.59738500  0.70097000  1
  Fe  Fe41  1  0.40261500  0.40261500  0.70097000  1
  Fe  Fe42  1  0.59738500  0.59738500  0.29903000  1
  Fe  Fe43  1  0.09738500  0.90261500  0.20097000  1
  Fe  Fe44  1  0.90261500  0.09738500  0.20097000  1
  Fe  Fe45  1  0.90261500  0.09738500  0.79903000  1
  Fe  Fe46  1  0.09738500  0.90261500  0.79903000  1
  Fe  Fe47  1  0.40261500  0.40261500  0.29903000  1
  Fe  Fe48  1  0.81705700  0.81705700  0.74588000  1
  Fe  Fe49  1  0.18294300  0.18294300  0.74588000  1
  Fe  Fe50  1  0.81705700  0.81705700  0.25412000  1
  Fe  Fe51  1  0.31705700  0.68294300  0.24588000  1
  Fe  Fe52  1  0.68294300  0.31705700  0.24588000  1
  Fe  Fe53  1  0.68294300  0.31705700  0.75412000  1
  Fe  Fe54  1  0.31705700  0.68294300  0.75412000  1
  Fe  Fe55  1  0.18294300  0.18294300  0.25412000  1
  Fe  Fe56  1  0.00000000  0.00000000  0.61575200  1
  Fe  Fe57  1  0.50000000  0.50000000  0.11575200  1
  Fe  Fe58  1  0.50000000  0.50000000  0.88424800  1
  Fe  Fe59  1  0.00000000  0.00000000  0.38424800  1
  Fe  Fe60  1  0.50000000  0.00000000  0.00000000  1
  Fe  Fe61  1  0.50000000  0.00000000  0.50000000  1
  Fe  Fe62  1  0.00000000  0.50000000  0.50000000  1
  Fe  Fe63  1  0.00000000  0.50000000  0.00000000  1
  B  B64  1  0.62456700  0.62456700  0.00000000  1
  B  B65  1  0.87543300  0.12456700  0.50000000  1
  B  B66  1  0.12456700  0.87543300  0.50000000  1
  B  B67  1  0.37543300  0.37543300  0.00000000  1
