# generated using pymatgen
data_Rb4H6C2O9
_symmetry_space_group_name_H-M   'P 1'
_cell_length_a   9.42426508
_cell_length_b   9.42426508
_cell_length_c   7.59276494
_cell_angle_alpha   70.32494513
_cell_angle_beta   70.32494513
_cell_angle_gamma   95.82495871
_symmetry_Int_Tables_number   1
_chemical_formula_structural   Rb4H6C2O9
_chemical_formula_sum   'Rb8 H12 C4 O18'
_cell_volume   580.10146174
_cell_formula_units_Z   2
loop_
 _symmetry_equiv_pos_site_id
 _symmetry_equiv_pos_as_xyz
  1  'x, y, z'
loop_
 _atom_site_type_symbol
 _atom_site_label
 _atom_site_symmetry_multiplicity
 _atom_site_fract_x
 _atom_site_fract_y
 _atom_site_fract_z
 _atom_site_occupancy
  Rb  Rb0  1  0.99401000  0.71724200  0.04143300  1
  Rb  Rb1  1  0.28275800  0.00599000  0.45856700  1
  Rb  Rb2  1  0.00599000  0.28275800  0.95856700  1
  Rb  Rb3  1  0.71724200  0.99401000  0.54143300  1
  Rb  Rb4  1  0.31150000  0.68850000  0.25000000  1
  Rb  Rb5  1  0.68850000  0.31150000  0.75000000  1
  Rb  Rb6  1  0.61839800  0.38160200  0.25000000  1
  Rb  Rb7  1  0.38160200  0.61839800  0.75000000  1
  H  H8  1  0.22449600  0.35859000  0.53614300  1
  H  H9  1  0.64141000  0.77550400  0.96385700  1
  H  H10  1  0.77550400  0.64141000  0.46385700  1
  H  H11  1  0.35859000  0.22449600  0.03614300  1
  H  H12  1  0.35269400  0.29746600  0.62161900  1
  H  H13  1  0.70253400  0.64730600  0.87838100  1
  H  H14  1  0.64730600  0.70253400  0.37838100  1
  H  H15  1  0.29746600  0.35269400  0.12161900  1
  H  H16  1  0.00793900  0.12568600  0.65533600  1
  H  H17  1  0.87431400  0.99206100  0.84466400  1
  H  H18  1  0.99206100  0.87431400  0.34466400  1
  H  H19  1  0.12568600  0.00793900  0.15533600  1
  C  C20  1  0.03016900  0.36059900  0.34394400  1
  C  C21  1  0.63940100  0.96983100  0.15605600  1
  C  C22  1  0.96983100  0.63940100  0.65605600  1
  C  C23  1  0.36059900  0.03016900  0.84394400  1
  O  O24  1  0.89190000  0.32562600  0.35049600  1
  O  O25  1  0.67437400  0.10810000  0.14950400  1
  O  O26  1  0.10810000  0.67437400  0.64950400  1
  O  O27  1  0.32562600  0.89190000  0.85049600  1
  O  O28  1  0.14707300  0.44243600  0.16931500  1
  O  O29  1  0.55756400  0.85292700  0.33068500  1
  O  O30  1  0.85292700  0.55756400  0.83068500  1
  O  O31  1  0.44243600  0.14707300  0.66931500  1
  O  O32  1  0.05527800  0.31525700  0.51213100  1
  O  O33  1  0.68474300  0.94472200  0.98786900  1
  O  O34  1  0.94472200  0.68474300  0.48786900  1
  O  O35  1  0.31525700  0.05527800  0.01213100  1
  O  O36  1  0.31301900  0.39124700  0.57115800  1
  O  O37  1  0.60875300  0.68698100  0.92884200  1
  O  O38  1  0.68698100  0.60875300  0.42884200  1
  O  O39  1  0.39124700  0.31301900  0.07115800  1
  O  O40  1  0.98551100  0.01448900  0.75000000  1
  O  O41  1  0.01448900  0.98551100  0.25000000  1
