# generated using pymatgen
data_YGe2Ir
_symmetry_space_group_name_H-M   'P 1'
_cell_length_a   9.47194210
_cell_length_b   9.47194210
_cell_length_c   9.47194210
_cell_angle_alpha   153.79236162
_cell_angle_beta   123.85412827
_cell_angle_gamma   62.98138778
_symmetry_Int_Tables_number   1
_chemical_formula_structural   YGe2Ir
_chemical_formula_sum   'Y4 Ge8 Ir4'
_cell_volume   309.25459155
_cell_formula_units_Z   4
loop_
 _symmetry_equiv_pos_site_id
 _symmetry_equiv_pos_as_xyz
  1  'x, y, z'
loop_
 _atom_site_type_symbol
 _atom_site_label
 _atom_site_symmetry_multiplicity
 _atom_site_fract_x
 _atom_site_fract_y
 _atom_site_fract_z
 _atom_site_occupancy
  Y  Y0  1  0.29455800  0.79455800  0.50000000  1
  Y  Y1  1  0.26126200  0.00000000  0.26126200  1
  Y  Y2  1  0.73873800  0.00000000  0.73873800  1
  Y  Y3  1  0.70544200  0.20544200  0.50000000  1
  Ge  Ge4  1  0.57702300  0.57702300  0.00000000  1
  Ge  Ge5  1  0.95245100  0.79956000  0.15289100  1
  Ge  Ge6  1  0.64666900  0.79956000  0.84710900  1
  Ge  Ge7  1  0.04754900  0.20044000  0.84710900  1
  Ge  Ge8  1  0.92180500  0.42180500  0.50000000  1
  Ge  Ge9  1  0.42297700  0.42297700  0.00000000  1
  Ge  Ge10  1  0.07819500  0.57819500  0.50000000  1
  Ge  Ge11  1  0.35333100  0.20044000  0.15289100  1
  Ir  Ir12  1  0.89617000  0.64561600  0.25055400  1
  Ir  Ir13  1  0.10383000  0.35438400  0.74944600  1
  Ir  Ir14  1  0.60493700  0.35438400  0.25055400  1
  Ir  Ir15  1  0.39506300  0.64561600  0.74944600  1
