# generated using pymatgen
data_K8NbAs5Pb
_symmetry_space_group_name_H-M   'P 1'
_cell_length_a   16.73683998
_cell_length_b   16.73683998
_cell_length_c   13.62018214
_cell_angle_alpha   85.13573790
_cell_angle_beta   85.13573790
_cell_angle_gamma   32.90499451
_symmetry_Int_Tables_number   1
_chemical_formula_structural   K8NbAs5Pb
_chemical_formula_sum   'K32 Nb4 As20 Pb4'
_cell_volume   2064.54098896
_cell_formula_units_Z   4
loop_
 _symmetry_equiv_pos_site_id
 _symmetry_equiv_pos_as_xyz
  1  'x, y, z'
loop_
 _atom_site_type_symbol
 _atom_site_label
 _atom_site_symmetry_multiplicity
 _atom_site_fract_x
 _atom_site_fract_y
 _atom_site_fract_z
 _atom_site_occupancy
  K  K0  1  0.63813200  0.71486900  0.28252100  1
  K  K1  1  0.98601200  0.93357900  0.61862900  1
  K  K2  1  0.39284700  0.73433900  0.28964400  1
  K  K3  1  0.19151900  0.27639100  0.94528000  1
  K  K4  1  0.59902100  0.36171300  0.39276700  1
  K  K5  1  0.80848100  0.72360900  0.05472000  1
  K  K6  1  0.36186800  0.28513100  0.71747900  1
  K  K7  1  0.82091300  0.47808700  0.04151500  1
  K  K8  1  0.28513100  0.36186800  0.21747900  1
  K  K9  1  0.15582800  0.07343400  0.10134900  1
  K  K10  1  0.47808700  0.82091300  0.54151500  1
  K  K11  1  0.06642100  0.01398800  0.88137100  1
  K  K12  1  0.84417200  0.92656600  0.89865100  1
  K  K13  1  0.52191300  0.17908700  0.45848500  1
  K  K14  1  0.17908700  0.52191300  0.95848500  1
  K  K15  1  0.06874400  0.37913200  0.66889300  1
  K  K16  1  0.92656600  0.84417200  0.39865100  1
  K  K17  1  0.36171300  0.59902100  0.89276700  1
  K  K18  1  0.63828700  0.40097900  0.10723300  1
  K  K19  1  0.07343400  0.15582800  0.60134900  1
  K  K20  1  0.37913200  0.06874400  0.16889300  1
  K  K21  1  0.60715300  0.26566100  0.71035600  1
  K  K22  1  0.62086800  0.93125600  0.83110700  1
  K  K23  1  0.40097900  0.63828700  0.60723300  1
  K  K24  1  0.72360900  0.80848100  0.55472000  1
  K  K25  1  0.27639100  0.19151900  0.44528000  1
  K  K26  1  0.93357900  0.98601200  0.11862900  1
  K  K27  1  0.26566100  0.60715300  0.21035600  1
  K  K28  1  0.93125600  0.62086800  0.33110700  1
  K  K29  1  0.71486900  0.63813200  0.78252100  1
  K  K30  1  0.01398800  0.06642100  0.38137100  1
  K  K31  1  0.73433900  0.39284700  0.78964400  1
  Nb  Nb32  1  0.68254800  0.00371100  0.18217500  1
  Nb  Nb33  1  0.00371100  0.68254800  0.68217500  1
  Nb  Nb34  1  0.31745200  0.99628900  0.81782500  1
  Nb  Nb35  1  0.99628900  0.31745200  0.31782500  1
  As  As36  1  0.23703500  0.04606700  0.35037900  1
  As  As37  1  0.40153900  0.02871500  0.68568300  1
  As  As38  1  0.52947300  0.11781400  0.02802100  1
  As  As39  1  0.88218600  0.47052700  0.47197900  1
  As  As40  1  0.19867900  0.61438400  0.73769100  1
  As  As41  1  0.97128500  0.59846100  0.81431700  1
  As  As42  1  0.72920400  0.21392100  0.92184300  1
  As  As43  1  0.78607900  0.27079600  0.57815700  1
  As  As44  1  0.21392100  0.72920400  0.42184300  1
  As  As45  1  0.04606700  0.23703500  0.85037900  1
  As  As46  1  0.61438400  0.19867900  0.23769100  1
  As  As47  1  0.59846100  0.97128500  0.31431700  1
  As  As48  1  0.02871500  0.40153900  0.18568300  1
  As  As49  1  0.95393300  0.76296500  0.14962100  1
  As  As50  1  0.27079600  0.78607900  0.07815700  1
  As  As51  1  0.47052700  0.88218600  0.97197900  1
  As  As52  1  0.11781400  0.52947300  0.52802100  1
  As  As53  1  0.38561600  0.80132100  0.76230900  1
  As  As54  1  0.76296500  0.95393300  0.64962100  1
  As  As55  1  0.80132100  0.38561600  0.26230900  1
  Pb  Pb56  1  0.47527300  0.70551100  0.96433600  1
  Pb  Pb57  1  0.52472700  0.29448900  0.03566400  1
  Pb  Pb58  1  0.70551100  0.47527300  0.46433600  1
  Pb  Pb59  1  0.29448900  0.52472700  0.53566400  1
