# generated using pymatgen
data_Rb2CaV2O7
_symmetry_space_group_name_H-M   'P 1'
_cell_length_a   6.07976500
_cell_length_b   10.49859100
_cell_length_c   15.34588125
_cell_angle_alpha   63.61298222
_cell_angle_beta   90.00000000
_cell_angle_gamma   90.00000000
_symmetry_Int_Tables_number   1
_chemical_formula_structural   Rb2CaV2O7
_chemical_formula_sum   'Rb8 Ca4 V8 O28'
_cell_volume   877.45883966
_cell_formula_units_Z   4
loop_
 _symmetry_equiv_pos_site_id
 _symmetry_equiv_pos_as_xyz
  1  'x, y, z'
loop_
 _atom_site_type_symbol
 _atom_site_label
 _atom_site_symmetry_multiplicity
 _atom_site_fract_x
 _atom_site_fract_y
 _atom_site_fract_z
 _atom_site_occupancy
  Rb  Rb0  1  0.76518300  0.97337600  0.16931000  1
  Rb  Rb1  1  0.72499000  0.50068400  0.86978600  1
  Rb  Rb2  1  0.23481700  0.02662400  0.83069000  1
  Rb  Rb3  1  0.26518300  0.02662400  0.33069000  1
  Rb  Rb4  1  0.73481700  0.97337600  0.66931000  1
  Rb  Rb5  1  0.27501000  0.49931600  0.13021400  1
  Rb  Rb6  1  0.22499000  0.49931600  0.63021400  1
  Rb  Rb7  1  0.77501000  0.50068400  0.36978600  1
  Ca  Ca8  1  0.23960000  0.22988700  0.02166300  1
  Ca  Ca9  1  0.26040000  0.22988700  0.52166300  1
  Ca  Ca10  1  0.73960000  0.77011300  0.47833700  1
  Ca  Ca11  1  0.76040000  0.77011300  0.97833700  1
  V  V12  1  0.73431000  0.33786800  0.63906900  1
  V  V13  1  0.72844000  0.17301000  0.87776700  1
  V  V14  1  0.27156000  0.82699000  0.12223300  1
  V  V15  1  0.26569000  0.66213200  0.36093100  1
  V  V16  1  0.77156000  0.17301000  0.37776700  1
  V  V17  1  0.76569000  0.33786800  0.13906900  1
  V  V18  1  0.23431000  0.66213200  0.86093100  1
  V  V19  1  0.22844000  0.82699000  0.62223300  1
  O  O20  1  0.18705500  0.68148400  0.23987600  1
  O  O21  1  0.94598200  0.27020000  0.59824100  1
  O  O22  1  0.27038200  0.98577200  0.13006700  1
  O  O23  1  0.77038200  0.01422800  0.36993300  1
  O  O24  1  0.91639600  0.17607800  0.95963100  1
  O  O25  1  0.72961800  0.01422800  0.86993300  1
  O  O26  1  0.49021200  0.25180600  0.64357100  1
  O  O27  1  0.46918400  0.21173500  0.90425500  1
  O  O28  1  0.08360400  0.82392200  0.04036900  1
  O  O29  1  0.55401800  0.27020000  0.09824100  1
  O  O30  1  0.50978800  0.74819400  0.35642900  1
  O  O31  1  0.99021200  0.74819400  0.85642900  1
  O  O32  1  0.05401800  0.72980000  0.40175900  1
  O  O33  1  0.96918400  0.78826500  0.59574500  1
  O  O34  1  0.03081600  0.21173500  0.40425500  1
  O  O35  1  0.58360400  0.17607800  0.45963100  1
  O  O36  1  0.44598200  0.72980000  0.90175900  1
  O  O37  1  0.29198600  0.48242400  0.43274600  1
  O  O38  1  0.70801400  0.51757600  0.56725400  1
  O  O39  1  0.81294500  0.31851600  0.76012400  1
  O  O40  1  0.41639600  0.82392200  0.54036900  1
  O  O41  1  0.79198600  0.51757600  0.06725400  1
  O  O42  1  0.00978800  0.25180600  0.14357100  1
  O  O43  1  0.22961800  0.98577200  0.63006700  1
  O  O44  1  0.31294500  0.68148400  0.73987600  1
  O  O45  1  0.68705500  0.31851600  0.26012400  1
  O  O46  1  0.20801400  0.48242400  0.93274600  1
  O  O47  1  0.53081600  0.78826500  0.09574500  1
