# generated using pymatgen
data_Rb2Sb4O11
_symmetry_space_group_name_H-M   'P 1'
_cell_length_a   10.64963770
_cell_length_b   10.64963770
_cell_length_c   7.34175421
_cell_angle_alpha   84.89695687
_cell_angle_beta   84.89695687
_cell_angle_gamma   42.43499898
_symmetry_Int_Tables_number   1
_chemical_formula_structural   Rb2Sb4O11
_chemical_formula_sum   'Rb4 Sb8 O22'
_cell_volume   559.27909163
_cell_formula_units_Z   2
loop_
 _symmetry_equiv_pos_site_id
 _symmetry_equiv_pos_as_xyz
  1  'x, y, z'
loop_
 _atom_site_type_symbol
 _atom_site_label
 _atom_site_symmetry_multiplicity
 _atom_site_fract_x
 _atom_site_fract_y
 _atom_site_fract_z
 _atom_site_occupancy
  Rb  Rb0  1  0.50808100  0.50808100  0.74525500  1
  Rb  Rb1  1  0.26536300  0.26536300  0.00596700  1
  Rb  Rb2  1  0.49191900  0.49191900  0.25474500  1
  Rb  Rb3  1  0.73463700  0.73463700  0.99403300  1
  Sb  Sb4  1  0.92839000  0.92839000  0.09822700  1
  Sb  Sb5  1  0.43121500  0.91756200  0.56330800  1
  Sb  Sb6  1  0.08243800  0.56878500  0.43669200  1
  Sb  Sb7  1  0.91756200  0.43121500  0.56330800  1
  Sb  Sb8  1  0.92406800  0.92406800  0.61717700  1
  Sb  Sb9  1  0.07161000  0.07161000  0.90177300  1
  Sb  Sb10  1  0.07593200  0.07593200  0.38282300  1
  Sb  Sb11  1  0.56878500  0.08243800  0.43669200  1
  O  O12  1  0.05038300  0.47605600  0.66683600  1
  O  O13  1  0.11761600  0.11761600  0.13136500  1
  O  O14  1  0.47605600  0.05038300  0.66683600  1
  O  O15  1  0.16549500  0.65672100  0.57080700  1
  O  O16  1  0.83351400  0.83351400  0.51001800  1
  O  O17  1  0.33997000  0.33997000  0.35822100  1
  O  O18  1  0.32703500  0.93028300  0.81048700  1
  O  O19  1  0.82910400  0.17089600  0.00000000  1
  O  O20  1  0.65672100  0.16549500  0.57080700  1
  O  O21  1  0.67296500  0.06971800  0.18951300  1
  O  O22  1  0.16648600  0.16648600  0.48998200  1
  O  O23  1  0.83450500  0.34327900  0.42919300  1
  O  O24  1  0.06971800  0.67296500  0.18951300  1
  O  O25  1  0.17089600  0.82910400  0.00000000  1
  O  O26  1  0.52394400  0.94961700  0.33316400  1
  O  O27  1  0.93028300  0.32703500  0.81048700  1
  O  O28  1  0.66003000  0.66003000  0.64177900  1
  O  O29  1  0.97668400  0.97668400  0.34578900  1
  O  O30  1  0.94961700  0.52394400  0.33316400  1
  O  O31  1  0.34327900  0.83450500  0.42919300  1
  O  O32  1  0.02331600  0.02331600  0.65421100  1
  O  O33  1  0.88238400  0.88238400  0.86863500  1
