# generated using pymatgen
data_Rb2MnO4
_symmetry_space_group_name_H-M   'P 1'
_cell_length_a   6.16520201
_cell_length_b   8.14637102
_cell_length_c   10.94039902
_cell_angle_alpha   90.00610572
_cell_angle_beta   89.99717328
_cell_angle_gamma   90.00419631
_symmetry_Int_Tables_number   1
_chemical_formula_structural   Rb2MnO4
_chemical_formula_sum   'Rb8 Mn4 O16'
_cell_volume   549.47084599
_cell_formula_units_Z   4
loop_
 _symmetry_equiv_pos_site_id
 _symmetry_equiv_pos_as_xyz
  1  'x, y, z'
loop_
 _atom_site_type_symbol
 _atom_site_label
 _atom_site_symmetry_multiplicity
 _atom_site_fract_x
 _atom_site_fract_y
 _atom_site_fract_z
 _atom_site_occupancy
  Rb  Rb0  1  0.74999800  0.83244000  0.58800400  1
  Rb  Rb1  1  0.24999800  0.16755500  0.41199900  1
  Rb  Rb2  1  0.74999900  0.33244200  0.91202300  1
  Rb  Rb3  1  0.25002000  0.66753600  0.08798200  1
  Rb  Rb4  1  0.74998900  0.51310400  0.30394000  1
  Rb  Rb5  1  0.24998800  0.48683200  0.69607700  1
  Rb  Rb6  1  0.74999100  0.01316300  0.19602000  1
  Rb  Rb7  1  0.24998500  0.98687900  0.80397800  1
  Mn  Mn8  1  0.75000600  0.76751300  0.92051900  1
  Mn  Mn9  1  0.24999800  0.23254200  0.07945600  1
  Mn  Mn10  1  0.75001300  0.26758200  0.57942200  1
  Mn  Mn11  1  0.24989300  0.73245000  0.42057500  1
  O  O12  1  0.74998300  0.20589300  0.43378600  1
  O  O13  1  0.24979400  0.79416000  0.56621900  1
  O  O14  1  0.74993000  0.70588100  0.06630900  1
  O  O15  1  0.25000800  0.29411800  0.93369100  1
  O  O16  1  0.75008400  0.97109900  0.91697700  1
  O  O17  1  0.24998800  0.02889200  0.08303300  1
  O  O18  1  0.75003400  0.47099400  0.58298800  1
  O  O19  1  0.25026800  0.52898800  0.41697200  1
  O  O20  1  0.96917300  0.69336400  0.85060500  1
  O  O21  1  0.46921200  0.30669700  0.14937200  1
  O  O22  1  0.53092500  0.19331600  0.64930300  1
  O  O23  1  0.03086100  0.80684200  0.35078500  1
  O  O24  1  0.03078700  0.30666900  0.14937700  1
  O  O25  1  0.53081500  0.69323800  0.85064900  1
  O  O26  1  0.46918200  0.80648100  0.35063100  1
  O  O27  1  0.96907900  0.19332900  0.64930600  1
