# generated using pymatgen
data_Na2SrVP2O9
_symmetry_space_group_name_H-M   'P 1'
_cell_length_a   6.72136200
_cell_length_b   10.38060400
_cell_length_c   10.80425300
_cell_angle_alpha   90.00000000
_cell_angle_beta   90.00000000
_cell_angle_gamma   90.00000000
_symmetry_Int_Tables_number   1
_chemical_formula_structural   Na2SrVP2O9
_chemical_formula_sum   'Na8 Sr4 V4 P8 O36'
_cell_volume   753.83214989
_cell_formula_units_Z   4
loop_
 _symmetry_equiv_pos_site_id
 _symmetry_equiv_pos_as_xyz
  1  'x, y, z'
loop_
 _atom_site_type_symbol
 _atom_site_label
 _atom_site_symmetry_multiplicity
 _atom_site_fract_x
 _atom_site_fract_y
 _atom_site_fract_z
 _atom_site_occupancy
  Na  Na0  1  0.99990000  0.36531600  0.78271400  1
  Na  Na1  1  0.99990000  0.13468400  0.28271400  1
  Na  Na2  1  0.50010000  0.13468400  0.28271400  1
  Na  Na3  1  0.50010000  0.36531600  0.78271400  1
  Na  Na4  1  0.49990000  0.63468400  0.21728600  1
  Na  Na5  1  0.00010000  0.86531600  0.71728600  1
  Na  Na6  1  0.00010000  0.63468400  0.21728600  1
  Na  Na7  1  0.49990000  0.86531600  0.71728600  1
  Sr  Sr8  1  0.75000000  0.09559500  0.94271900  1
  Sr  Sr9  1  0.25000000  0.59559500  0.55728100  1
  Sr  Sr10  1  0.75000000  0.40440500  0.44271900  1
  Sr  Sr11  1  0.25000000  0.90440500  0.05728100  1
  V  V12  1  0.25000000  0.18781700  0.52818300  1
  V  V13  1  0.75000000  0.68781700  0.97181700  1
  V  V14  1  0.25000000  0.31218300  0.02818300  1
  V  V15  1  0.75000000  0.81218300  0.47181700  1
  P  P16  1  0.75000000  0.36827400  0.08648900  1
  P  P17  1  0.25000000  0.41490400  0.31610700  1
  P  P18  1  0.75000000  0.13172600  0.58648900  1
  P  P19  1  0.25000000  0.08509600  0.81610700  1
  P  P20  1  0.75000000  0.58509600  0.68389300  1
  P  P21  1  0.75000000  0.91490400  0.18389300  1
  P  P22  1  0.25000000  0.86827400  0.41351100  1
  P  P23  1  0.25000000  0.63172600  0.91351100  1
  O  O24  1  0.75000000  0.51734300  0.09565200  1
  O  O25  1  0.75000000  0.56915100  0.82748500  1
  O  O26  1  0.25000000  0.80299100  0.28481700  1
  O  O27  1  0.93327500  0.51514600  0.63138900  1
  O  O28  1  0.06672500  0.48485400  0.36861100  1
  O  O29  1  0.75000000  0.73018100  0.64741100  1
  O  O30  1  0.93463600  0.31920100  0.00801900  1
  O  O31  1  0.56672500  0.98485400  0.13138900  1
  O  O32  1  0.06536400  0.81920100  0.49198100  1
  O  O33  1  0.43463600  0.81920100  0.49198100  1
  O  O34  1  0.56536400  0.31920100  0.00801900  1
  O  O35  1  0.93463600  0.18079900  0.50801900  1
  O  O36  1  0.75000000  0.98265700  0.59565200  1
  O  O37  1  0.25000000  0.32749700  0.60345400  1
  O  O38  1  0.25000000  0.23018100  0.85258900  1
  O  O39  1  0.25000000  0.43084900  0.17251500  1
  O  O40  1  0.25000000  0.06915100  0.67251500  1
  O  O41  1  0.25000000  0.26981900  0.35258900  1
  O  O42  1  0.43463600  0.68079900  0.99198100  1
  O  O43  1  0.75000000  0.93084900  0.32748500  1
  O  O44  1  0.06536400  0.68079900  0.99198100  1
  O  O45  1  0.06672500  0.01514600  0.86861100  1
  O  O46  1  0.25000000  0.48265700  0.90434800  1
  O  O47  1  0.43327500  0.01514600  0.86861100  1
  O  O48  1  0.75000000  0.67250300  0.39654600  1
  O  O49  1  0.25000000  0.69700900  0.78481700  1
  O  O50  1  0.75000000  0.30299100  0.21518300  1
  O  O51  1  0.93327500  0.98485400  0.13138900  1
  O  O52  1  0.75000000  0.76981900  0.14741100  1
  O  O53  1  0.75000000  0.19700900  0.71518300  1
  O  O54  1  0.75000000  0.82749700  0.89654600  1
  O  O55  1  0.25000000  0.01734300  0.40434800  1
  O  O56  1  0.43327500  0.48485400  0.36861100  1
  O  O57  1  0.56672500  0.51514600  0.63138900  1
  O  O58  1  0.25000000  0.17250300  0.10345400  1
  O  O59  1  0.56536400  0.18079900  0.50801900  1
