# generated using pymatgen
data_CsPPbS4
_symmetry_space_group_name_H-M   'P 1'
_cell_length_a   6.50971200
_cell_length_b   6.89285300
_cell_length_c   18.41196000
_cell_angle_alpha   90.00000000
_cell_angle_beta   90.00000000
_cell_angle_gamma   90.00000000
_symmetry_Int_Tables_number   1
_chemical_formula_structural   CsPPbS4
_chemical_formula_sum   'Cs4 P4 Pb4 S16'
_cell_volume   826.15362818
_cell_formula_units_Z   4
loop_
 _symmetry_equiv_pos_site_id
 _symmetry_equiv_pos_as_xyz
  1  'x, y, z'
loop_
 _atom_site_type_symbol
 _atom_site_label
 _atom_site_symmetry_multiplicity
 _atom_site_fract_x
 _atom_site_fract_y
 _atom_site_fract_z
 _atom_site_occupancy
  Cs  Cs0  1  0.93719500  0.75000000  0.79546600  1
  Cs  Cs1  1  0.06280500  0.25000000  0.20453400  1
  Cs  Cs2  1  0.43719500  0.25000000  0.70453400  1
  Cs  Cs3  1  0.56280500  0.75000000  0.29546600  1
  P  P4  1  0.21699900  0.25000000  0.90721400  1
  P  P5  1  0.28300100  0.25000000  0.40721400  1
  P  P6  1  0.71699900  0.75000000  0.59278600  1
  P  P7  1  0.78300100  0.75000000  0.09278600  1
  Pb  Pb8  1  0.21137600  0.75000000  0.51568500  1
  Pb  Pb9  1  0.28862400  0.75000000  0.01568500  1
  Pb  Pb10  1  0.78862400  0.25000000  0.48431500  1
  Pb  Pb11  1  0.71137600  0.25000000  0.98431500  1
  S  S12  1  0.39240800  0.49094900  0.88488700  1
  S  S13  1  0.15088200  0.25000000  0.01688600  1
  S  S14  1  0.10759200  0.49094900  0.38488700  1
  S  S15  1  0.45257400  0.75000000  0.65277600  1
  S  S16  1  0.60759200  0.99094900  0.11511300  1
  S  S17  1  0.39240800  0.00905100  0.88488700  1
  S  S18  1  0.10759200  0.00905100  0.38488700  1
  S  S19  1  0.34911800  0.25000000  0.51688600  1
  S  S20  1  0.84911800  0.75000000  0.98311400  1
  S  S21  1  0.04742600  0.75000000  0.15277600  1
  S  S22  1  0.54742600  0.25000000  0.34722400  1
  S  S23  1  0.89240800  0.50905100  0.61511300  1
  S  S24  1  0.95257400  0.25000000  0.84722400  1
  S  S25  1  0.60759200  0.50905100  0.11511300  1
  S  S26  1  0.89240800  0.99094900  0.61511300  1
  S  S27  1  0.65088200  0.75000000  0.48311400  1
