# generated using pymatgen
data_Eu(IO3)3
_symmetry_space_group_name_H-M   'P 1'
_cell_length_a   6.07072500
_cell_length_b   8.94752600
_cell_length_c   17.00423636
_cell_angle_alpha   65.17203706
_cell_angle_beta   90.00000000
_cell_angle_gamma   90.00000000
_symmetry_Int_Tables_number   1
_chemical_formula_structural   Eu(IO3)3
_chemical_formula_sum   'Eu4 I12 O36'
_cell_volume   838.26641401
_cell_formula_units_Z   4
loop_
 _symmetry_equiv_pos_site_id
 _symmetry_equiv_pos_as_xyz
  1  'x, y, z'
loop_
 _atom_site_type_symbol
 _atom_site_label
 _atom_site_symmetry_multiplicity
 _atom_site_fract_x
 _atom_site_fract_y
 _atom_site_fract_z
 _atom_site_occupancy
  Eu  Eu0  1  0.26970900  0.14026600  0.39950900  1
  Eu  Eu1  1  0.23029100  0.14026600  0.89950900  1
  Eu  Eu2  1  0.76970900  0.85973400  0.10049100  1
  Eu  Eu3  1  0.73029100  0.85973400  0.60049100  1
  I  I4  1  0.36187100  0.64371300  0.52191700  1
  I  I5  1  0.90925900  0.41800200  0.69790800  1
  I  I6  1  0.40925900  0.58199800  0.80209200  1
  I  I7  1  0.81272800  0.93074800  0.35219000  1
  I  I8  1  0.59074100  0.41800200  0.19790800  1
  I  I9  1  0.31272800  0.06925200  0.14781000  1
  I  I10  1  0.13812900  0.64371300  0.02191700  1
  I  I11  1  0.63812900  0.35628700  0.47808300  1
  I  I12  1  0.68727200  0.93074800  0.85219000  1
  I  I13  1  0.09074100  0.58199800  0.30209200  1
  I  I14  1  0.86187100  0.35628700  0.97808300  1
  I  I15  1  0.18727200  0.06925200  0.64781000  1
  O  O16  1  0.39106400  0.86822900  0.49030800  1
  O  O17  1  0.10038900  0.09796300  0.53916300  1
  O  O18  1  0.39469200  0.90607500  0.67083100  1
  O  O19  1  0.18151500  0.34388400  0.74431300  1
  O  O20  1  0.00218500  0.36698600  0.36623300  1
  O  O21  1  0.53015000  0.60155500  0.61843900  1
  O  O22  1  0.08776200  0.66066500  0.38539900  1
  O  O23  1  0.91960100  0.64484200  0.94507000  1
  O  O24  1  0.91223800  0.33933500  0.61460100  1
  O  O25  1  0.39961100  0.09796300  0.03916300  1
  O  O26  1  0.05147600  0.06107900  0.30045600  1
  O  O27  1  0.58039900  0.64484200  0.44507000  1
  O  O28  1  0.31848500  0.34388400  0.24431300  1
  O  O29  1  0.44852400  0.06107900  0.80045600  1
  O  O30  1  0.03015000  0.39844500  0.88156100  1
  O  O31  1  0.10530800  0.90607500  0.17083100  1
  O  O32  1  0.99781500  0.63301400  0.63376700  1
  O  O33  1  0.89469200  0.09392500  0.82916900  1
  O  O34  1  0.10893600  0.86822900  0.99030800  1
  O  O35  1  0.50218500  0.63301400  0.13376700  1
  O  O36  1  0.41223800  0.66066500  0.88539900  1
  O  O37  1  0.55147600  0.93892100  0.19954400  1
  O  O38  1  0.81848500  0.65611600  0.25568700  1
  O  O39  1  0.60038900  0.90203700  0.96083700  1
  O  O40  1  0.96985000  0.60155500  0.11843900  1
  O  O41  1  0.08039900  0.35515800  0.05493000  1
  O  O42  1  0.58776200  0.33933500  0.11460100  1
  O  O43  1  0.60530800  0.09392500  0.32916900  1
  O  O44  1  0.94852400  0.93892100  0.69954400  1
  O  O45  1  0.49781500  0.36698600  0.86623300  1
  O  O46  1  0.41960100  0.35515800  0.55493000  1
  O  O47  1  0.89106400  0.13177100  0.00969200  1
  O  O48  1  0.68151500  0.65611600  0.75568700  1
  O  O49  1  0.89961100  0.90203700  0.46083700  1
  O  O50  1  0.60893600  0.13177100  0.50969200  1
  O  O51  1  0.46985000  0.39844500  0.38156100  1
