# generated using pymatgen
data_Pr13Zn58
_symmetry_space_group_name_H-M   'P 1'
_cell_length_a   14.24685949
_cell_length_b   14.62908902
_cell_length_c   14.62908902
_cell_angle_alpha   120.00021128
_cell_angle_beta   90.00000000
_cell_angle_gamma   90.00000000
_symmetry_Int_Tables_number   1
_chemical_formula_structural   Pr13Zn58
_chemical_formula_sum   'Pr26 Zn116'
_cell_volume   2640.48322865
_cell_formula_units_Z   2
loop_
 _symmetry_equiv_pos_site_id
 _symmetry_equiv_pos_as_xyz
  1  'x, y, z'
loop_
 _atom_site_type_symbol
 _atom_site_label
 _atom_site_symmetry_multiplicity
 _atom_site_fract_x
 _atom_site_fract_y
 _atom_site_fract_z
 _atom_site_occupancy
  Pr  Pr0  1  0.50000000  0.00000000  0.00000000  1
  Pr  Pr1  1  0.00000000  0.00000000  0.00000000  1
  Pr  Pr2  1  0.75000000  0.45697711  0.91396647  1
  Pr  Pr3  1  0.75000000  0.45698536  0.54301464  1
  Pr  Pr4  1  0.75000000  0.08603353  0.54302289  1
  Pr  Pr5  1  0.25000000  0.54302289  0.08603353  1
  Pr  Pr6  1  0.25000000  0.54301464  0.45698536  1
  Pr  Pr7  1  0.25000000  0.91396647  0.45697711  1
  Pr  Pr8  1  0.75000000  0.12822987  0.25646686  1
  Pr  Pr9  1  0.75000000  0.12823233  0.87176767  1
  Pr  Pr10  1  0.75000000  0.74353314  0.87177013  1
  Pr  Pr11  1  0.25000000  0.87177013  0.74353314  1
  Pr  Pr12  1  0.25000000  0.87176767  0.12823233  1
  Pr  Pr13  1  0.25000000  0.25646686  0.12822987  1
  Pr  Pr14  1  0.55239478  0.79500535  0.59001266  1
  Pr  Pr15  1  0.55239896  0.79500998  0.20499002  1
  Pr  Pr16  1  0.55239478  0.40998734  0.20499465  1
  Pr  Pr17  1  0.44760522  0.20499465  0.40998734  1
  Pr  Pr18  1  0.44760104  0.20499002  0.79500998  1
  Pr  Pr19  1  0.44760522  0.59001266  0.79500535  1
  Pr  Pr20  1  0.05239478  0.20499465  0.40998734  1
  Pr  Pr21  1  0.05239896  0.20499002  0.79500998  1
  Pr  Pr22  1  0.05239478  0.59001266  0.79500535  1
  Pr  Pr23  1  0.94760522  0.79500535  0.59001266  1
  Pr  Pr24  1  0.94760104  0.79500998  0.20499002  1
  Pr  Pr25  1  0.94760522  0.40998734  0.20499465  1
  Zn  Zn26  1  0.75000000  0.00000007  0.99999993  1
  Zn  Zn27  1  0.25000000  0.99999993  0.00000007  1
  Zn  Zn28  1  0.25000000  0.66667813  0.33332187  1
  Zn  Zn29  1  0.75000000  0.33332187  0.66667813  1
  Zn  Zn30  1  0.59656679  0.66667939  0.33332061  1
  Zn  Zn31  1  0.40343321  0.33332061  0.66667939  1
  Zn  Zn32  1  0.09656679  0.33332061  0.66667939  1
  Zn  Zn33  1  0.90343321  0.66667939  0.33332061  1
  Zn  Zn34  1  0.50000000  0.50000000  0.00000000  1
  Zn  Zn35  1  0.50000000  0.50000000  0.50000000  1
  Zn  Zn36  1  0.50000000  0.00000000  0.50000000  1
  Zn  Zn37  1  0.00000000  0.50000000  0.00000000  1
  Zn  Zn38  1  0.00000000  0.50000000  0.50000000  1
  Zn  Zn39  1  0.00000000  0.00000000  0.50000000  1
  Zn  Zn40  1  0.75000000  0.72974189  0.45948595  1
  Zn  Zn41  1  0.75000000  0.72974761  0.27025239  1
  Zn  Zn42  1  0.75000000  0.54051405  0.27025811  1
  Zn  Zn43  1  0.25000000  0.27025811  0.54051405  1
  Zn  Zn44  1  0.25000000  0.27025239  0.72974761  1
  Zn  Zn45  1  0.25000000  0.45948595  0.72974189  1
  Zn  Zn46  1  0.49999956  0.79798979  -0.00000014  1
  Zn  Zn47  1  0.50000000  0.20201011  0.20201011  1
  Zn  Zn48  1  0.50000044  -0.00000014  0.79798979  1
  Zn  Zn49  1  0.50000044  0.20201021  0.00000014  1
  Zn  Zn50  1  0.49999956  0.00000014  0.20201021  1
  Zn  Zn51  1  0.50000000  0.79798989  0.79798989  1
  Zn  Zn52  1  0.99999956  0.20201021  0.00000014  1
  Zn  Zn53  1  0.00000000  0.79798989  0.79798989  1
  Zn  Zn54  1  0.00000044  0.00000014  0.20201021  1
  Zn  Zn55  1  0.00000044  0.79798979  -0.00000014  1
  Zn  Zn56  1  0.99999956  -0.00000014  0.79798979  1
  Zn  Zn57  1  0.00000000  0.20201011  0.20201011  1
  Zn  Zn58  1  0.75000000  0.91554615  0.63379981  1
  Zn  Zn59  1  0.75000000  0.71825430  0.08445243  1
  Zn  Zn60  1  0.75000000  0.36619901  0.28174652  1
  Zn  Zn61  1  0.75000000  0.71825348  0.63380099  1
  Zn  Zn62  1  0.75000000  0.36620019  0.08445385  1
  Zn  Zn63  1  0.75000000  0.91554757  0.28174570  1
  Zn  Zn64  1  0.25000000  0.08445385  0.36620019  1
  Zn  Zn65  1  0.25000000  0.28174570  0.91554757  1
  Zn  Zn66  1  0.25000000  0.63380099  0.71825348  1
  Zn  Zn67  1  0.25000000  0.28174652  0.36619901  1
  Zn  Zn68  1  0.25000000  0.63379981  0.91554615  1
  Zn  Zn69  1  0.25000000  0.08445243  0.71825430  1
  Zn  Zn70  1  0.65685505  0.90505149  0.81010345  1
  Zn  Zn71  1  0.65685556  0.90505213  0.09494787  1
  Zn  Zn72  1  0.65685505  0.18989655  0.09494851  1
  Zn  Zn73  1  0.34314495  0.09494851  0.18989655  1
  Zn  Zn74  1  0.34314444  0.09494787  0.90505213  1
  Zn  Zn75  1  0.34314495  0.81010345  0.90505149  1
  Zn  Zn76  1  0.15685505  0.09494851  0.18989655  1
  Zn  Zn77  1  0.15685556  0.09494787  0.90505213  1
  Zn  Zn78  1  0.15685505  0.81010345  0.90505149  1
  Zn  Zn79  1  0.84314495  0.90505149  0.81010345  1
  Zn  Zn80  1  0.84314444  0.90505213  0.09494787  1
  Zn  Zn81  1  0.84314495  0.18989655  0.09494851  1
  Zn  Zn82  1  0.14119069  0.43517808  0.87035572  1
  Zn  Zn83  1  0.14118724  0.43517049  0.56482951  1
  Zn  Zn84  1  0.14119069  0.12964428  0.56482192  1
  Zn  Zn85  1  0.85880931  0.56482192  0.12964428  1
  Zn  Zn86  1  0.85881276  0.56482951  0.43517049  1
  Zn  Zn87  1  0.85880931  0.87035572  0.43517808  1
  Zn  Zn88  1  0.64119069  0.56482192  0.12964428  1
  Zn  Zn89  1  0.64118724  0.56482951  0.43517049  1
  Zn  Zn90  1  0.64119069  0.87035572  0.43517808  1
  Zn  Zn91  1  0.35880931  0.43517808  0.87035572  1
  Zn  Zn92  1  0.35881276  0.43517049  0.56482951  1
  Zn  Zn93  1  0.35880931  0.12964428  0.56482192  1
  Zn  Zn94  1  0.55097590  0.39794049  0.79588129  1
  Zn  Zn95  1  0.55096637  0.39793808  0.60206192  1
  Zn  Zn96  1  0.55097590  0.20411871  0.60205951  1
  Zn  Zn97  1  0.44902410  0.60205951  0.20411871  1
  Zn  Zn98  1  0.44903363  0.60206192  0.39793808  1
  Zn  Zn99  1  0.44902410  0.79588129  0.39794049  1
  Zn  Zn100  1  0.05097590  0.60205951  0.20411871  1
  Zn  Zn101  1  0.05096637  0.60206192  0.39793808  1
  Zn  Zn102  1  0.05097590  0.79588129  0.39794049  1
  Zn  Zn103  1  0.94902410  0.39794049  0.79588129  1
  Zn  Zn104  1  0.94903363  0.39793808  0.60206192  1
  Zn  Zn105  1  0.94902410  0.20411871  0.60205951  1
  Zn  Zn106  1  0.15713151  0.76261467  0.52522740  1
  Zn  Zn107  1  0.15712755  0.76261824  0.23738176  1
  Zn  Zn108  1  0.15713151  0.47477260  0.23738533  1
  Zn  Zn109  1  0.84286849  0.23738533  0.47477260  1
  Zn  Zn110  1  0.84287245  0.23738176  0.76261824  1
  Zn  Zn111  1  0.84286849  0.52522740  0.76261467  1
  Zn  Zn112  1  0.65713151  0.23738533  0.47477260  1
  Zn  Zn113  1  0.65712755  0.23738176  0.76261824  1
  Zn  Zn114  1  0.65713151  0.52522740  0.76261467  1
  Zn  Zn115  1  0.34286849  0.76261467  0.52522740  1
  Zn  Zn116  1  0.34287245  0.76261824  0.23738176  1
  Zn  Zn117  1  0.34286849  0.47477260  0.23738533  1
  Zn  Zn118  1  0.60252941  0.63453635  0.96417051  1
  Zn  Zn119  1  0.60253044  0.32963405  0.36546378  1
  Zn  Zn120  1  0.60253005  0.03582988  0.67036607  1
  Zn  Zn121  1  0.60253005  0.32963393  0.96417012  1
  Zn  Zn122  1  0.60252941  0.03582949  0.36546365  1
  Zn  Zn123  1  0.60253044  0.63453622  0.67036595  1
  Zn  Zn124  1  0.39747059  0.36546365  0.03582949  1
  Zn  Zn125  1  0.39746956  0.67036595  0.63453622  1
  Zn  Zn126  1  0.39746995  0.96417012  0.32963393  1
  Zn  Zn127  1  0.39746995  0.67036607  0.03582988  1
  Zn  Zn128  1  0.39747059  0.96417051  0.63453635  1
  Zn  Zn129  1  0.39746956  0.36546378  0.32963405  1
  Zn  Zn130  1  0.10252941  0.36546365  0.03582949  1
  Zn  Zn131  1  0.10253044  0.67036595  0.63453622  1
  Zn  Zn132  1  0.10253005  0.96417012  0.32963393  1
  Zn  Zn133  1  0.10253005  0.67036607  0.03582988  1
  Zn  Zn134  1  0.10252941  0.96417051  0.63453635  1
  Zn  Zn135  1  0.10253044  0.36546378  0.32963405  1
  Zn  Zn136  1  0.89747059  0.63453635  0.96417051  1
  Zn  Zn137  1  0.89746956  0.32963405  0.36546378  1
  Zn  Zn138  1  0.89746995  0.03582988  0.67036607  1
  Zn  Zn139  1  0.89746995  0.32963393  0.96417012  1
  Zn  Zn140  1  0.89747059  0.03582949  0.36546365  1
  Zn  Zn141  1  0.89746956  0.63453622  0.67036595  1
