# generated using pymatgen
data_RbV(PO4)2
_symmetry_space_group_name_H-M   'P 1'
_cell_length_a   9.16337000
_cell_length_b   4.76137700
_cell_length_c   16.79611905
_cell_angle_alpha   86.97258322
_cell_angle_beta   90.00000000
_cell_angle_gamma   90.00000000
_symmetry_Int_Tables_number   1
_chemical_formula_structural   RbV(PO4)2
_chemical_formula_sum   'Rb4 V4 P8 O32'
_cell_volume   731.79628796
_cell_formula_units_Z   4
loop_
 _symmetry_equiv_pos_site_id
 _symmetry_equiv_pos_as_xyz
  1  'x, y, z'
loop_
 _atom_site_type_symbol
 _atom_site_label
 _atom_site_symmetry_multiplicity
 _atom_site_fract_x
 _atom_site_fract_y
 _atom_site_fract_z
 _atom_site_occupancy
  Rb  Rb0  1  0.35302800  0.60871600  0.08564600  1
  Rb  Rb1  1  0.85302800  0.39128400  0.41435400  1
  Rb  Rb2  1  0.64697200  0.39128400  0.91435400  1
  Rb  Rb3  1  0.14697200  0.60871600  0.58564600  1
  V  V4  1  0.43199000  0.59436300  0.33665700  1
  V  V5  1  0.06801000  0.59436300  0.83665700  1
  V  V6  1  0.93199000  0.40563700  0.16334300  1
  V  V7  1  0.56801000  0.40563700  0.66334300  1
  P  P8  1  0.78046900  0.92159100  0.59864500  1
  P  P9  1  0.10850300  0.85820500  0.25642300  1
  P  P10  1  0.60850300  0.14179500  0.24357700  1
  P  P11  1  0.28046900  0.07840900  0.90135500  1
  P  P12  1  0.89149700  0.14179500  0.74357700  1
  P  P13  1  0.71953100  0.92159100  0.09864500  1
  P  P14  1  0.39149700  0.85820500  0.75642300  1
  P  P15  1  0.21953100  0.07840900  0.40135500  1
  O  O16  1  0.44042700  0.10229300  0.69908700  1
  O  O17  1  0.66399800  0.15665300  0.59219200  1
  O  O18  1  0.49900500  0.39037500  0.24542200  1
  O  O19  1  0.76717000  0.21476000  0.25590200  1
  O  O20  1  0.96047000  0.44871900  0.90285200  1
  O  O21  1  0.72599400  0.66396300  0.65037900  1
  O  O22  1  0.58670100  0.04362500  0.15292200  1
  O  O23  1  0.34660700  0.14631200  0.97918200  1
  O  O24  1  0.03953000  0.55128100  0.09714800  1
  O  O25  1  0.33600200  0.84334700  0.40780800  1
  O  O26  1  0.84660700  0.85368800  0.52081800  1
  O  O27  1  0.16399800  0.84334700  0.90780800  1
  O  O28  1  0.46047000  0.55128100  0.59714800  1
  O  O29  1  0.53953000  0.44871900  0.40285200  1
  O  O30  1  0.05957300  0.10229300  0.19908700  1
  O  O31  1  0.91329900  0.04362500  0.65292200  1
  O  O32  1  0.77400600  0.66396300  0.15037900  1
  O  O33  1  0.00099500  0.39037500  0.74542200  1
  O  O34  1  0.23283000  0.78524000  0.74409800  1
  O  O35  1  0.15339300  0.14631200  0.47918200  1
  O  O36  1  0.27400600  0.33603700  0.34962100  1
  O  O37  1  0.26717000  0.78524000  0.24409800  1
  O  O38  1  0.94042700  0.89770700  0.80091300  1
  O  O39  1  0.22599400  0.33603700  0.84962100  1
  O  O40  1  0.08670100  0.95637500  0.34707800  1
  O  O41  1  0.99900500  0.60962500  0.25457800  1
  O  O42  1  0.65339300  0.85368800  0.02081800  1
  O  O43  1  0.83600200  0.15665300  0.09219200  1
  O  O44  1  0.41329900  0.95637500  0.84707800  1
  O  O45  1  0.55957300  0.89770700  0.30091300  1
  O  O46  1  0.73283000  0.21476000  0.75590200  1
  O  O47  1  0.50099500  0.60962500  0.75457800  1
