# generated using pymatgen
data_NaGe4(PO4)3
_symmetry_space_group_name_H-M   'P 1'
_cell_length_a   9.78453162
_cell_length_b   9.78453162
_cell_length_c   9.78453176
_cell_angle_alpha   59.12625257
_cell_angle_beta   59.12625257
_cell_angle_gamma   59.12625801
_symmetry_Int_Tables_number   1
_chemical_formula_structural   NaGe4(PO4)3
_chemical_formula_sum   'Na2 Ge8 P6 O24'
_cell_volume   649.18507116
_cell_formula_units_Z   2
loop_
 _symmetry_equiv_pos_site_id
 _symmetry_equiv_pos_as_xyz
  1  'x, y, z'
loop_
 _atom_site_type_symbol
 _atom_site_label
 _atom_site_symmetry_multiplicity
 _atom_site_fract_x
 _atom_site_fract_y
 _atom_site_fract_z
 _atom_site_occupancy
  Na  Na0  1  0.78435000  0.78435000  0.78435000  1
  Na  Na1  1  0.28435000  0.28435000  0.28435000  1
  Ge  Ge2  1  0.92509500  0.92509500  0.92509500  1
  Ge  Ge3  1  0.48296100  0.84063600  0.36942300  1
  Ge  Ge4  1  0.86942300  0.34063600  0.98296100  1
  Ge  Ge5  1  0.42509500  0.42509500  0.42509500  1
  Ge  Ge6  1  0.34063600  0.98296100  0.86942300  1
  Ge  Ge7  1  0.84063600  0.36942300  0.48296100  1
  Ge  Ge8  1  0.98296100  0.86942300  0.34063600  1
  Ge  Ge9  1  0.36942300  0.48296100  0.84063600  1
  P  P10  1  0.02694700  0.48051700  0.56798400  1
  P  P11  1  0.56798400  0.02694700  0.48051700  1
  P  P12  1  0.52694700  0.06798400  0.98051700  1
  P  P13  1  0.48051700  0.56798400  0.02694700  1
  P  P14  1  0.98051700  0.52694700  0.06798400  1
  P  P15  1  0.06798400  0.98051700  0.52694700  1
  O  O16  1  0.66324000  0.54662500  0.99162400  1
  O  O17  1  0.71662400  0.04443600  0.87120900  1
  O  O18  1  0.39594700  0.74522500  0.91566500  1
  O  O19  1  0.54662500  0.99162400  0.66324000  1
  O  O20  1  0.41566500  0.24522500  0.89594700  1
  O  O21  1  0.37120900  0.54443600  0.21662400  1
  O  O22  1  0.48285200  0.93155900  0.98749600  1
  O  O23  1  0.04662500  0.16324000  0.49162400  1
  O  O24  1  0.89594700  0.41566500  0.24522500  1
  O  O25  1  0.93155900  0.98749600  0.48285200  1
  O  O26  1  0.16324000  0.49162400  0.04662500  1
  O  O27  1  0.91566500  0.39594700  0.74522500  1
  O  O28  1  0.48749600  0.43155900  0.98285200  1
  O  O29  1  0.74522500  0.91566500  0.39594700  1
  O  O30  1  0.54443600  0.21662400  0.37120900  1
  O  O31  1  0.24522500  0.89594700  0.41566500  1
  O  O32  1  0.99162400  0.66324000  0.54662500  1
  O  O33  1  0.21662400  0.37120900  0.54443600  1
  O  O34  1  0.98285200  0.48749600  0.43155900  1
  O  O35  1  0.04443600  0.87120900  0.71662400  1
  O  O36  1  0.43155900  0.98285200  0.48749600  1
  O  O37  1  0.98749600  0.48285200  0.93155900  1
  O  O38  1  0.87120900  0.71662400  0.04443600  1
  O  O39  1  0.49162400  0.04662500  0.16324000  1
