# generated using pymatgen
data_KZrSnF7
_symmetry_space_group_name_H-M   'P 1'
_cell_length_a   6.05310200
_cell_length_b   8.54287500
_cell_length_c   12.67308400
_cell_angle_alpha   90.00000000
_cell_angle_beta   90.00000000
_cell_angle_gamma   90.00000000
_symmetry_Int_Tables_number   1
_chemical_formula_structural   KZrSnF7
_chemical_formula_sum   'K4 Zr4 Sn4 F28'
_cell_volume   655.33650019
_cell_formula_units_Z   4
loop_
 _symmetry_equiv_pos_site_id
 _symmetry_equiv_pos_as_xyz
  1  'x, y, z'
loop_
 _atom_site_type_symbol
 _atom_site_label
 _atom_site_symmetry_multiplicity
 _atom_site_fract_x
 _atom_site_fract_y
 _atom_site_fract_z
 _atom_site_occupancy
  K  K0  1  0.21371800  0.75000000  0.25000000  1
  K  K1  1  0.21371800  0.25000000  0.25000000  1
  K  K2  1  0.78628200  0.25000000  0.75000000  1
  K  K3  1  0.78628200  0.75000000  0.75000000  1
  Zr  Zr4  1  0.25110400  0.00000000  0.91481200  1
  Zr  Zr5  1  0.74889600  0.00000000  0.08518800  1
  Zr  Zr6  1  0.74889600  0.50000000  0.41481200  1
  Zr  Zr7  1  0.25110400  0.50000000  0.58518800  1
  Sn  Sn8  1  0.23513400  0.00000000  0.59349800  1
  Sn  Sn9  1  0.76486600  0.00000000  0.40650200  1
  Sn  Sn10  1  0.76486600  0.50000000  0.09349800  1
  Sn  Sn11  1  0.23513400  0.50000000  0.90650200  1
  F  F12  1  0.50000300  0.00000000  0.19441500  1
  F  F13  1  0.15959700  0.26714200  0.60964900  1
  F  F14  1  0.15959700  0.23285800  0.89035100  1
  F  F15  1  0.87370600  0.00000000  0.92850300  1
  F  F16  1  0.87749400  0.00000000  0.58386300  1
  F  F17  1  0.09459500  0.50000000  0.74016500  1
  F  F18  1  0.90540500  0.00000000  0.24016500  1
  F  F19  1  0.50000000  0.35793100  0.50000000  1
  F  F20  1  0.84040300  0.73285800  0.39035100  1
  F  F21  1  0.15959700  0.76714200  0.89035100  1
  F  F22  1  0.84040300  0.76714200  0.10964900  1
  F  F23  1  0.50000000  0.14206900  0.00000000  1
  F  F24  1  0.12629400  0.00000000  0.07149700  1
  F  F25  1  0.12629400  0.50000000  0.42850300  1
  F  F26  1  0.49999700  0.00000000  0.80558500  1
  F  F27  1  0.49999700  0.50000000  0.69441500  1
  F  F28  1  0.15959700  0.73285800  0.60964900  1
  F  F29  1  0.12250600  0.50000000  0.08386300  1
  F  F30  1  0.12250600  0.00000000  0.41613700  1
  F  F31  1  0.09459500  0.00000000  0.75983500  1
  F  F32  1  0.87749400  0.50000000  0.91613700  1
  F  F33  1  0.90540500  0.50000000  0.25983500  1
  F  F34  1  0.50000300  0.50000000  0.30558500  1
  F  F35  1  0.87370600  0.50000000  0.57149700  1
  F  F36  1  0.50000000  0.85793100  0.00000000  1
  F  F37  1  0.50000000  0.64206900  0.50000000  1
  F  F38  1  0.84040300  0.23285800  0.10964900  1
  F  F39  1  0.84040300  0.26714200  0.39035100  1
