# generated using pymatgen
data_SbSeCl7O
_symmetry_space_group_name_H-M   'P 1'
_cell_length_a   15.21154300
_cell_length_b   12.86604100
_cell_length_c   13.69049831
_cell_angle_alpha   74.01470965
_cell_angle_beta   90.00000000
_cell_angle_gamma   90.00000000
_symmetry_Int_Tables_number   1
_chemical_formula_structural   SbSeCl7O
_chemical_formula_sum   'Sb8 Se8 Cl56 O8'
_cell_volume   2575.79353841
_cell_formula_units_Z   8
loop_
 _symmetry_equiv_pos_site_id
 _symmetry_equiv_pos_as_xyz
  1  'x, y, z'
loop_
 _atom_site_type_symbol
 _atom_site_label
 _atom_site_symmetry_multiplicity
 _atom_site_fract_x
 _atom_site_fract_y
 _atom_site_fract_z
 _atom_site_occupancy
  Sb  Sb0  1  0.64282500  0.25604700  0.23741400  1
  Sb  Sb1  1  0.60737100  0.24685400  0.74321000  1
  Sb  Sb2  1  0.35717500  0.74395300  0.76258600  1
  Sb  Sb3  1  0.39262900  0.75314600  0.25679000  1
  Sb  Sb4  1  0.85717500  0.75604700  0.23741400  1
  Sb  Sb5  1  0.14282500  0.24395300  0.76258600  1
  Sb  Sb6  1  0.10737100  0.25314600  0.25679000  1
  Sb  Sb7  1  0.89262900  0.74685400  0.74321000  1
  Se  Se8  1  0.99796200  0.23791900  0.94880100  1
  Se  Se9  1  0.74901700  0.26883200  0.55190800  1
  Se  Se10  1  0.24901700  0.23116800  0.44809200  1
  Se  Se11  1  0.00203800  0.76208100  0.05119900  1
  Se  Se12  1  0.75098300  0.76883200  0.55190800  1
  Se  Se13  1  0.49796200  0.26208100  0.05119900  1
  Se  Se14  1  0.50203800  0.73791900  0.94880100  1
  Se  Se15  1  0.25098300  0.73116800  0.44809200  1
  Cl  Cl16  1  0.39118000  0.88636600  0.35351100  1
  Cl  Cl17  1  0.70046500  0.13207600  0.86560600  1
  Cl  Cl18  1  0.63906500  0.11166900  0.15415900  1
  Cl  Cl19  1  0.45122700  0.84845000  0.63382100  1
  Cl  Cl20  1  0.40003200  0.13869700  0.11593000  1
  Cl  Cl21  1  0.95122700  0.65155000  0.36617900  1
  Cl  Cl22  1  0.66606400  0.90557600  0.48145000  1
  Cl  Cl23  1  0.34916500  0.35496800  0.39576100  1
  Cl  Cl24  1  0.47130700  0.63491100  0.39370100  1
  Cl  Cl25  1  0.22766700  0.80973200  0.66815800  1
  Cl  Cl26  1  0.79953500  0.63207600  0.86560600  1
  Cl  Cl27  1  0.52869300  0.36508900  0.60629900  1
  Cl  Cl28  1  0.16606400  0.59442400  0.51855000  1
  Cl  Cl29  1  0.72405100  0.36180500  0.09556700  1
  Cl  Cl30  1  0.60882000  0.11363400  0.64648900  1
  Cl  Cl31  1  0.59077400  0.60719400  0.02352800  1
  Cl  Cl32  1  0.84916500  0.14503200  0.60423900  1
  Cl  Cl33  1  0.90922600  0.10719400  0.02352800  1
  Cl  Cl34  1  0.27594900  0.63819500  0.90443300  1
  Cl  Cl35  1  0.37265400  0.61106900  0.17886100  1
  Cl  Cl36  1  0.59996800  0.86130300  0.88407000  1
  Cl  Cl37  1  0.54877300  0.15155000  0.36617900  1
  Cl  Cl38  1  0.12734600  0.11106900  0.17886100  1
  Cl  Cl39  1  0.10882000  0.38636600  0.35351100  1
  Cl  Cl40  1  0.86093500  0.61166900  0.15415900  1
  Cl  Cl41  1  0.87265400  0.88893100  0.82113900  1
  Cl  Cl42  1  0.65083500  0.64503200  0.60423900  1
  Cl  Cl43  1  0.20046500  0.36792400  0.13439400  1
  Cl  Cl44  1  0.83393600  0.40557600  0.48145000  1
  Cl  Cl45  1  0.77233300  0.19026800  0.33184200  1
  Cl  Cl46  1  0.04877300  0.34845000  0.63382100  1
  Cl  Cl47  1  0.62734600  0.38893100  0.82113900  1
  Cl  Cl48  1  0.40922600  0.39280600  0.97647200  1
  Cl  Cl49  1  0.77594900  0.86180500  0.09556700  1
  Cl  Cl50  1  0.27233300  0.30973200  0.66815800  1
  Cl  Cl51  1  0.62481400  0.40842900  0.30100700  1
  Cl  Cl52  1  0.09996800  0.63869700  0.11593000  1
  Cl  Cl53  1  0.29953500  0.86792400  0.13439400  1
  Cl  Cl54  1  0.09077400  0.89280600  0.97647200  1
  Cl  Cl55  1  0.36093500  0.88833100  0.84584100  1
  Cl  Cl56  1  0.13906500  0.38833100  0.84584100  1
  Cl  Cl57  1  0.02869300  0.13491100  0.39370100  1
  Cl  Cl58  1  0.47709800  0.17691600  0.83346900  1
  Cl  Cl59  1  0.97130700  0.86508900  0.60629900  1
  Cl  Cl60  1  0.33393600  0.09442400  0.51855000  1
  Cl  Cl61  1  0.72766700  0.69026800  0.33184200  1
  Cl  Cl62  1  0.22405100  0.13819500  0.90443300  1
  Cl  Cl63  1  0.87518600  0.90842900  0.30100700  1
  Cl  Cl64  1  0.52290200  0.82308400  0.16653100  1
  Cl  Cl65  1  0.02290200  0.67691600  0.83346900  1
  Cl  Cl66  1  0.37518600  0.59157100  0.69899300  1
  Cl  Cl67  1  0.97709800  0.32308400  0.16653100  1
  Cl  Cl68  1  0.89118000  0.61363400  0.64648900  1
  Cl  Cl69  1  0.12481400  0.09157100  0.69899300  1
  Cl  Cl70  1  0.15083500  0.85496800  0.39576100  1
  Cl  Cl71  1  0.90003200  0.36130300  0.88407000  1
  O  O72  1  0.72567100  0.30784300  0.65926200  1
  O  O73  1  0.77432900  0.80784300  0.65926200  1
  O  O74  1  0.47499800  0.68698600  0.84922200  1
  O  O75  1  0.22567100  0.19215700  0.34073800  1
  O  O76  1  0.52500200  0.31301400  0.15077800  1
  O  O77  1  0.27432900  0.69215700  0.34073800  1
  O  O78  1  0.97499800  0.81301400  0.15077800  1
  O  O79  1  0.02500200  0.18698600  0.84922200  1
