# generated using pymatgen
data_Tl8Sb21As19(PbS17)4
_symmetry_space_group_name_H-M   'P 1'
_cell_length_a   8.59967500
_cell_length_b   17.04317354
_cell_length_c   21.71991592
_cell_angle_alpha   84.91318441
_cell_angle_beta   84.51673985
_cell_angle_gamma   89.34210101
_symmetry_Int_Tables_number   1
_chemical_formula_structural   Tl8Sb21As19(PbS17)4
_chemical_formula_sum   'Tl8 Sb21 As19 Pb4 S68'
_cell_volume   3156.33413256
_cell_formula_units_Z   1
loop_
 _symmetry_equiv_pos_site_id
 _symmetry_equiv_pos_as_xyz
  1  'x, y, z'
loop_
 _atom_site_type_symbol
 _atom_site_label
 _atom_site_symmetry_multiplicity
 _atom_site_fract_x
 _atom_site_fract_y
 _atom_site_fract_z
 _atom_site_occupancy
  Tl  Tl0  1  0.40834700  0.72919800  0.32314700  1
  Tl  Tl1  1  0.55603800  0.27464300  0.68814400  1
  Tl  Tl2  1  0.06630700  0.77663500  0.68820200  1
  Tl  Tl3  1  0.07690100  0.28170700  0.68786800  1
  Tl  Tl4  1  0.42888700  0.23575900  0.31554800  1
  Tl  Tl5  1  0.90459200  0.22992900  0.31798900  1
  Tl  Tl6  1  0.91537600  0.73628700  0.31752900  1
  Tl  Tl7  1  0.57360400  0.78529600  0.68330300  1
  Sb  Sb8  1  0.93908300  0.16349500  0.05688800  1
  Sb  Sb9  1  0.82850500  0.00490300  0.61063700  1
  Sb  Sb10  1  0.86959100  0.34268500  0.48542400  1
  Sb  Sb11  1  0.47951500  0.84203100  0.93401900  1
  Sb  Sb12  1  0.21568200  0.83380300  0.11986300  1
  Sb  Sb13  1  0.11175400  0.17085100  0.52106200  1
  Sb  Sb14  1  0.15301000  0.50994900  0.39504500  1
  Sb  Sb15  1  0.76310300  0.67991400  0.88710600  1
  Sb  Sb16  1  0.41216400  0.49221100  0.24070100  1
  Sb  Sb17  1  0.72427700  0.49138400  0.98133900  1
  Sb  Sb18  1  0.94041200  0.66308500  0.05844000  1
  Sb  Sb19  1  0.33154400  0.50044400  0.61404300  1
  Sb  Sb20  1  0.04383100  0.52744400  0.76656700  1
  Sb  Sb21  1  0.57682700  0.02296100  0.76517100  1
  Sb  Sb22  1  0.76270900  0.18321900  0.88456100  1
  Sb  Sb23  1  0.24767700  0.67650900  0.87312300  1
  Sb  Sb24  1  0.21707600  0.33607400  0.12503000  1
  Sb  Sb25  1  0.95726300  0.97944600  0.23454500  1
  Sb  Sb26  1  0.64880500  0.01454200  0.38913300  1
  Sb  Sb27  1  0.61284000  0.67021100  0.52066400  1
  Sb  Sb28  1  0.37005700  0.84476400  0.48451500  1
  As  As29  1  0.63281600  0.15776200  0.49370100  1
  As  As30  1  0.32934500  0.99932500  0.63149200  1
  As  As31  1  0.73282600  0.99710200  0.96121700  1
  As  As32  1  0.82081100  0.49690000  0.63183100  1
  As  As33  1  0.71825700  0.32761000  0.13305800  1
  As  As34  1  0.47264800  0.34630200  0.93357700  1
  As  As35  1  0.74024900  0.82837500  0.13715300  1
  As  As36  1  0.06070400  0.85064200  0.93726800  1
  As  As37  1  0.51501100  0.16620100  0.06905500  1
  As  As38  1  0.65182400  0.51434000  0.37414500  1
  As  As39  1  0.06448600  0.34907200  0.94328600  1
  As  As40  1  0.52140600  0.67372600  0.07703900  1
  As  As41  1  0.25872200  0.01740800  0.03756200  1
  As  As42  1  0.25870900  0.52319600  0.04619900  1
  As  As43  1  0.85013900  0.85660600  0.51048700  1
  As  As44  1  0.26144500  0.18689600  0.87241500  1
  As  As45  1  0.34963800  0.35534600  0.51071200  1
  As  As46  1  0.13263600  0.65830600  0.49507600  1
  As  As47  1  0.16114300  0.01480600  0.37087700  1
  Pb  Pb48  1  0.45466500  0.00307100  0.22484600  1
  Pb  Pb49  1  0.92740900  0.49303900  0.22911600  1
  Pb  Pb50  1  0.05443700  0.02106100  0.77771000  1
  Pb  Pb51  1  0.54746000  0.51326500  0.77805000  1
  S  S52  1  0.54898600  0.08992900  0.93562700  1
  S  S53  1  0.69156500  0.37238700  0.22829200  1
  S  S54  1  0.10576500  0.27941000  0.43247000  1
  S  S55  1  0.67196600  0.59631600  0.28693800  1
  S  S56  1  0.69698800  0.57921500  0.10425400  1
  S  S57  1  0.87504900  0.23409400  0.57386900  1
  S  S58  1  0.91708300  0.23984600  0.15486900  1
  S  S59  1  0.06819700  0.28002000  0.85361000  1
  S  S60  1  0.43513000  0.42713400  0.07221500  1
  S  S61  1  0.37299300  0.93434300  0.35558800  1
  S  S62  1  0.05027900  0.78166600  0.84762700  1
  S  S63  1  0.82881800  0.73587500  0.56820000  1
  S  S64  1  0.03290400  0.90666900  0.56798200  1
  S  S65  1  0.77675300  0.13025800  0.76920000  1
  S  S66  1  0.69180700  0.07680500  0.10006800  1
  S  S67  1  0.48228800  0.76280200  0.83912600  1
  S  S68  1  0.44409400  0.10837900  0.43855600  1
  S  S69  1  0.94775500  0.07238600  0.92371300  1
  S  S70  1  0.15341600  0.77893600  0.43721700  1
  S  S71  1  0.28398800  0.09842800  0.11892200  1
  S  S72  1  0.28048600  0.43325000  0.90781300  1
  S  S73  1  0.71295600  0.92214300  0.87719200  1
  S  S74  1  0.51782000  0.74970300  0.16380500  1
  S  S75  1  0.60602000  0.78109500  0.43205700  1
  S  S76  1  0.32551100  0.23591600  0.57039400  1
  S  S77  1  0.50107900  0.24364900  0.15565100  1
  S  S78  1  0.94869300  0.60759400  0.43832700  1
  S  S79  1  0.53763200  0.59262200  0.94500100  1
  S  S80  1  0.19791200  0.75791800  0.99068600  1
  S  S81  1  0.79029500  0.93177000  0.71684100  1
  S  S82  1  0.72434600  0.87647000  0.23640800  1
  S  S83  1  0.65515800  0.27835800  0.43564400  1
  S  S84  1  0.77325400  0.76266900  0.01258200  1
  S  S85  1  0.79948000  0.62910200  0.78135300  1
  S  S86  1  0.95433600  0.93470300  0.34742800  1
  S  S87  1  0.29188700  0.42772900  0.71767000  1
  S  S88  1  0.30563200  0.91640000  0.71771100  1
  S  S89  1  0.53614800  0.40547100  0.56662700  1
  S  S90  1  0.84156200  0.09496700  0.44476800  1
  S  S91  1  0.63985400  0.92013100  0.55887300  1
  S  S92  1  0.04093700  0.94479300  0.07768300  1
  S  S93  1  0.27151800  0.93474700  0.90135400  1
  S  S94  1  0.45041800  0.43237900  0.34967900  1
  S  S95  1  0.02553100  0.57739600  0.65617400  1
  S  S96  1  0.34263700  0.59518100  0.44601900  1
  S  S97  1  0.61127800  0.57872700  0.64807000  1
  S  S98  1  0.28175400  0.14490900  0.77681500  1
  S  S99  1  0.77512600  0.25593000  0.99975200  1
  S  S100  1  0.47899800  0.26998600  0.84837600  1
  S  S101  1  0.19206600  0.58237100  0.28858400  1
  S  S102  1  0.43942600  0.92507200  0.06393500  1
  S  S103  1  0.18946900  0.88004600  0.22688200  1
  S  S104  1  0.19458000  0.26217100  0.00322500  1
  S  S105  1  0.53141700  0.08134400  0.65605400  1
  S  S106  1  0.28850200  0.60332100  0.12676700  1
  S  S107  1  0.11177700  0.07779700  0.65054800  1
  S  S108  1  0.20673800  0.38349700  0.23727800  1
  S  S109  1  0.95092800  0.57580200  0.93450100  1
  S  S110  1  0.68582000  0.08725500  0.28568100  1
  S  S111  1  0.37677900  0.73389500  0.57305900  1
  S  S112  1  0.93385000  0.73874400  0.15915200  1
  S  S113  1  0.04018300  0.45156000  0.08622400  1
  S  S114  1  0.69067100  0.41428900  0.88513500  1
  S  S115  1  0.25826600  0.63396800  0.76302200  1
  S  S116  1  0.87001600  0.43621400  0.35572700  1
  S  S117  1  0.79616900  0.41928300  0.72206400  1
  S  S118  1  0.18448000  0.09115000  0.27991300  1
  S  S119  1  0.14071600  0.42038000  0.55757300  1
