# generated using pymatgen
data_Na8Hg3
_symmetry_space_group_name_H-M   'P 1'
_cell_length_a   18.34734609
_cell_length_b   18.34734609
_cell_length_c   18.34734649
_cell_angle_alpha   29.33989145
_cell_angle_beta   29.33989145
_cell_angle_gamma   29.33989029
_symmetry_Int_Tables_number   1
_chemical_formula_structural   Na8Hg3
_chemical_formula_sum   'Na32 Hg12'
_cell_volume   1312.19851981
_cell_formula_units_Z   4
loop_
 _symmetry_equiv_pos_site_id
 _symmetry_equiv_pos_as_xyz
  1  'x, y, z'
loop_
 _atom_site_type_symbol
 _atom_site_label
 _atom_site_symmetry_multiplicity
 _atom_site_fract_x
 _atom_site_fract_y
 _atom_site_fract_z
 _atom_site_occupancy
  Na  Na0  1  0.20967200  0.85843900  0.48637400  1
  Na  Na1  1  0.85843900  0.48637400  0.20967200  1
  Na  Na2  1  0.48637400  0.20967200  0.85843900  1
  Na  Na3  1  0.64156100  0.29032800  0.01362600  1
  Na  Na4  1  0.29032800  0.01362600  0.64156100  1
  Na  Na5  1  0.01362600  0.64156100  0.29032800  1
  Na  Na6  1  0.79032800  0.14156100  0.51362600  1
  Na  Na7  1  0.14156100  0.51362600  0.79032800  1
  Na  Na8  1  0.51362600  0.79032800  0.14156100  1
  Na  Na9  1  0.35843900  0.70967200  0.98637400  1
  Na  Na10  1  0.70967200  0.98637400  0.35843900  1
  Na  Na11  1  0.98637400  0.35843900  0.70967200  1
  Na  Na12  1  0.63391600  0.87940100  0.14326800  1
  Na  Na13  1  0.87940100  0.14326800  0.63391600  1
  Na  Na14  1  0.14326800  0.63391600  0.87940100  1
  Na  Na15  1  0.62059900  0.86608400  0.35673200  1
  Na  Na16  1  0.86608400  0.35673200  0.62059900  1
  Na  Na17  1  0.35673200  0.62059900  0.86608400  1
  Na  Na18  1  0.36608400  0.12059900  0.85673200  1
  Na  Na19  1  0.12059900  0.85673200  0.36608400  1
  Na  Na20  1  0.85673200  0.36608400  0.12059900  1
  Na  Na21  1  0.37940100  0.13391600  0.64326800  1
  Na  Na22  1  0.13391600  0.64326800  0.37940100  1
  Na  Na23  1  0.64326800  0.37940100  0.13391600  1
  Na  Na24  1  0.56140100  0.56140100  0.56140100  1
  Na  Na25  1  0.93859900  0.93859900  0.93859900  1
  Na  Na26  1  0.43859900  0.43859900  0.43859900  1
  Na  Na27  1  0.06140100  0.06140100  0.06140100  1
  Na  Na28  1  0.21973100  0.21973100  0.21973100  1
  Na  Na29  1  0.28026900  0.28026900  0.28026900  1
  Na  Na30  1  0.78026900  0.78026900  0.78026900  1
  Na  Na31  1  0.71973100  0.71973100  0.71973100  1
  Hg  Hg32  1  0.06543200  0.43456800  0.75000000  1
  Hg  Hg33  1  0.43456800  0.75000000  0.06543200  1
  Hg  Hg34  1  0.75000000  0.06543200  0.43456800  1
  Hg  Hg35  1  0.93456800  0.56543200  0.25000000  1
  Hg  Hg36  1  0.56543200  0.25000000  0.93456800  1
  Hg  Hg37  1  0.25000000  0.93456800  0.56543200  1
  Hg  Hg38  1  0.50000000  0.50000000  0.50000000  1
  Hg  Hg39  1  0.00000000  0.00000000  0.00000000  1
  Hg  Hg40  1  0.84194000  0.84194000  0.84194000  1
  Hg  Hg41  1  0.65806000  0.65806000  0.65806000  1
  Hg  Hg42  1  0.15806000  0.15806000  0.15806000  1
  Hg  Hg43  1  0.34194000  0.34194000  0.34194000  1
