# generated using pymatgen
data_SrFe3(PO4)3
_symmetry_space_group_name_H-M   'P 1'
_cell_length_a   9.23694561
_cell_length_b   9.23694561
_cell_length_c   9.23694561
_cell_angle_alpha   138.01043462
_cell_angle_beta   110.06543223
_cell_angle_gamma   85.04578075
_symmetry_Int_Tables_number   1
_chemical_formula_structural   SrFe3(PO4)3
_chemical_formula_sum   'Sr2 Fe6 P6 O24'
_cell_volume   477.06772402
_cell_formula_units_Z   2
loop_
 _symmetry_equiv_pos_site_id
 _symmetry_equiv_pos_as_xyz
  1  'x, y, z'
loop_
 _atom_site_type_symbol
 _atom_site_label
 _atom_site_symmetry_multiplicity
 _atom_site_fract_x
 _atom_site_fract_y
 _atom_site_fract_z
 _atom_site_occupancy
  Sr  Sr0  1  0.75000000  0.14976600  0.39976600  1
  Sr  Sr1  1  0.25000000  0.85023400  0.60023400  1
  Fe  Fe2  1  0.61755800  0.61755800  0.50000000  1
  Fe  Fe3  1  0.38244200  0.38244200  0.50000000  1
  Fe  Fe4  1  0.11755800  0.61755800  0.00000000  1
  Fe  Fe5  1  0.88244200  0.38244200  0.00000000  1
  Fe  Fe6  1  0.00000000  0.00000000  0.00000000  1
  Fe  Fe7  1  0.50000000  0.50000000  0.00000000  1
  P  P8  1  0.32349000  0.82349000  0.00000000  1
  P  P9  1  0.75000000  0.65560100  0.90560100  1
  P  P10  1  0.17651000  0.17651000  0.50000000  1
  P  P11  1  0.67651000  0.17651000  0.00000000  1
  P  P12  1  0.25000000  0.34439900  0.09439900  1
  P  P13  1  0.82349000  0.82349000  0.50000000  1
  O  O14  1  0.57350200  0.93167700  0.77755400  1
  O  O15  1  0.07350200  0.29594800  0.64182500  1
  O  O16  1  0.84246900  0.88389600  0.04142700  1
  O  O17  1  0.34587700  0.70405200  0.77755400  1
  O  O18  1  0.13946100  0.20431800  0.34219800  1
  O  O19  1  0.34246900  0.30104200  0.95857300  1
  O  O20  1  0.63788000  0.70273700  0.34219800  1
  O  O21  1  0.86053900  0.79568200  0.65780200  1
  O  O22  1  0.36617000  0.48957500  0.35574500  1
  O  O23  1  0.15412300  0.93167700  0.35817500  1
  O  O24  1  0.63946100  0.29726300  0.93514300  1
  O  O25  1  0.63383000  0.51042500  0.64425500  1
  O  O26  1  0.86212000  0.20431800  0.06485700  1
  O  O27  1  0.84587700  0.06832300  0.64182500  1
  O  O28  1  0.36053900  0.70273700  0.06485700  1
  O  O29  1  0.36212000  0.29726300  0.65780200  1
  O  O30  1  0.65753100  0.69895800  0.04142700  1
  O  O31  1  0.92649800  0.70405200  0.35817500  1
  O  O32  1  0.15753100  0.11610300  0.95857300  1
  O  O33  1  0.86617000  0.51042500  0.87659500  1
  O  O34  1  0.13383000  0.48957500  0.12340500  1
  O  O35  1  0.13788000  0.79568200  0.93514300  1
  O  O36  1  0.65412300  0.29594800  0.22244600  1
  O  O37  1  0.42649800  0.06832300  0.22244600  1
