# generated using pymatgen
data_KNaTiO3
_symmetry_space_group_name_H-M   'P 1'
_cell_length_a   6.28111671
_cell_length_b   6.28111671
_cell_length_c   5.51255805
_cell_angle_alpha   86.55403080
_cell_angle_beta   86.55403080
_cell_angle_gamma   124.52482172
_symmetry_Int_Tables_number   1
_chemical_formula_structural   KNaTiO3
_chemical_formula_sum   'K2 Na2 Ti2 O6'
_cell_volume   177.68018733
_cell_formula_units_Z   2
loop_
 _symmetry_equiv_pos_site_id
 _symmetry_equiv_pos_as_xyz
  1  'x, y, z'
loop_
 _atom_site_type_symbol
 _atom_site_label
 _atom_site_symmetry_multiplicity
 _atom_site_fract_x
 _atom_site_fract_y
 _atom_site_fract_z
 _atom_site_occupancy
  K  K0  1  0.73712100  0.26287900  0.25000000  1
  K  K1  1  0.26287900  0.73712100  0.75000000  1
  Na  Na2  1  0.42241600  0.57758400  0.25000000  1
  Na  Na3  1  0.57758400  0.42241600  0.75000000  1
  Ti  Ti4  1  0.94707100  0.05292900  0.75000000  1
  Ti  Ti5  1  0.05292900  0.94707100  0.25000000  1
  O  O6  1  0.76160400  0.81061500  0.49537300  1
  O  O7  1  0.81061500  0.76160400  0.99537300  1
  O  O8  1  0.18938500  0.23839600  0.00462700  1
  O  O9  1  0.23839600  0.18938500  0.50462700  1
  O  O10  1  0.21323100  0.78676900  0.25000000  1
  O  O11  1  0.78676900  0.21323100  0.75000000  1
