# generated using pymatgen
data_Ba3CaSb2O9
_symmetry_space_group_name_H-M   'P 1'
_cell_length_a   6.08641256
_cell_length_b   6.08641256
_cell_length_c   15.07466047
_cell_angle_alpha   88.96710058
_cell_angle_beta   88.96710058
_cell_angle_gamma   119.80366142
_symmetry_Int_Tables_number   1
_chemical_formula_structural   Ba3CaSb2O9
_chemical_formula_sum   'Ba6 Ca2 Sb4 O18'
_cell_volume   484.25711162
_cell_formula_units_Z   2
loop_
 _symmetry_equiv_pos_site_id
 _symmetry_equiv_pos_as_xyz
  1  'x, y, z'
loop_
 _atom_site_type_symbol
 _atom_site_label
 _atom_site_symmetry_multiplicity
 _atom_site_fract_x
 _atom_site_fract_y
 _atom_site_fract_z
 _atom_site_occupancy
  Ba  Ba0  1  0.00999300  0.99000700  0.25000000  1
  Ba  Ba1  1  0.33942400  0.67699000  0.91012400  1
  Ba  Ba2  1  0.32301000  0.66057600  0.58987600  1
  Ba  Ba3  1  0.67699000  0.33942400  0.41012400  1
  Ba  Ba4  1  0.66057600  0.32301000  0.08987600  1
  Ba  Ba5  1  0.99000700  0.00999300  0.75000000  1
  Ca  Ca6  1  0.00000000  0.00000000  0.00000000  1
  Ca  Ca7  1  0.00000000  0.00000000  0.50000000  1
  Sb  Sb8  1  0.31655300  0.64246400  0.15457500  1
  Sb  Sb9  1  0.64246400  0.31655300  0.65457500  1
  Sb  Sb10  1  0.35753600  0.68344700  0.34542500  1
  Sb  Sb11  1  0.68344700  0.35753600  0.84542500  1
  O  O12  1  0.95145600  0.47917400  0.73642200  1
  O  O13  1  0.13697300  0.78080700  0.08771400  1
  O  O14  1  0.78080700  0.13697300  0.58771400  1
  O  O15  1  0.86857300  0.69499600  0.89505600  1
  O  O16  1  0.04854400  0.52082600  0.26357800  1
  O  O17  1  0.13142700  0.30500400  0.10494400  1
  O  O18  1  0.47917400  0.95145600  0.23642200  1
  O  O19  1  0.22677200  0.39049500  0.42780100  1
  O  O20  1  0.51707200  0.48292800  0.75000000  1
  O  O21  1  0.60950500  0.77322800  0.07219900  1
  O  O22  1  0.69499600  0.86857300  0.39505600  1
  O  O23  1  0.86302700  0.21919300  0.91228600  1
  O  O24  1  0.52082600  0.04854400  0.76357800  1
  O  O25  1  0.39049500  0.22677200  0.92780100  1
  O  O26  1  0.77322800  0.60950500  0.57219900  1
  O  O27  1  0.30500400  0.13142700  0.60494400  1
  O  O28  1  0.21919300  0.86302700  0.41228600  1
  O  O29  1  0.48292800  0.51707200  0.25000000  1
