# generated using pymatgen
data_Ca7NbSi2N9
_symmetry_space_group_name_H-M   'P 1'
_cell_length_a   9.96507500
_cell_length_b   6.06582000
_cell_length_c   9.02428517
_cell_angle_alpha   88.02954095
_cell_angle_beta   90.00000000
_cell_angle_gamma   90.00000000
_symmetry_Int_Tables_number   1
_chemical_formula_structural   Ca7NbSi2N9
_chemical_formula_sum   'Ca14 Nb2 Si4 N18'
_cell_volume   545.16255904
_cell_formula_units_Z   2
loop_
 _symmetry_equiv_pos_site_id
 _symmetry_equiv_pos_as_xyz
  1  'x, y, z'
loop_
 _atom_site_type_symbol
 _atom_site_label
 _atom_site_symmetry_multiplicity
 _atom_site_fract_x
 _atom_site_fract_y
 _atom_site_fract_z
 _atom_site_occupancy
  Ca  Ca0  1  0.94310200  0.43099700  0.16565000  1
  Ca  Ca1  1  0.07744800  0.24967600  0.49487000  1
  Ca  Ca2  1  0.25000000  0.09066900  0.80120800  1
  Ca  Ca3  1  0.44310200  0.56900300  0.83435000  1
  Ca  Ca4  1  0.57744800  0.75032400  0.50513000  1
  Ca  Ca5  1  0.57789700  0.06975600  0.83087800  1
  Ca  Ca6  1  0.92210300  0.06975600  0.83087800  1
  Ca  Ca7  1  0.42210300  0.93024400  0.16912200  1
  Ca  Ca8  1  0.42255200  0.24967600  0.49487000  1
  Ca  Ca9  1  0.07789700  0.93024400  0.16912200  1
  Ca  Ca10  1  0.92255200  0.75032400  0.50513000  1
  Ca  Ca11  1  0.05689800  0.56900300  0.83435000  1
  Ca  Ca12  1  0.75000000  0.90933100  0.19879200  1
  Ca  Ca13  1  0.55689800  0.43099700  0.16565000  1
  Nb  Nb14  1  0.75000000  0.27905600  0.43812500  1
  Nb  Nb15  1  0.25000000  0.72094400  0.56187500  1
  Si  Si16  1  0.25000000  0.32345700  0.06210000  1
  Si  Si17  1  0.75000000  0.45900400  0.72232300  1
  Si  Si18  1  0.75000000  0.67654300  0.93790000  1
  Si  Si19  1  0.25000000  0.54099600  0.27767700  1
  N  N20  1  0.39943900  0.23232800  0.98180600  1
  N  N21  1  0.25000000  0.24633800  0.25905200  1
  N  N22  1  0.90201500  0.11438700  0.34184000  1
  N  N23  1  0.60940700  0.36611300  0.63107200  1
  N  N24  1  0.75000000  0.55772000  0.33266000  1
  N  N25  1  0.25000000  0.61989700  0.08374400  1
  N  N26  1  0.89059300  0.36611300  0.63107200  1
  N  N27  1  0.39059300  0.63388700  0.36892800  1
  N  N28  1  0.75000000  0.38010300  0.91625600  1
  N  N29  1  0.09798500  0.88561300  0.65816000  1
  N  N30  1  0.75000000  0.75366200  0.74094800  1
  N  N31  1  0.10940700  0.63388700  0.36892800  1
  N  N32  1  0.60056100  0.76767200  0.01819400  1
  N  N33  1  0.25000000  0.44228000  0.66734000  1
  N  N34  1  0.40201500  0.88561300  0.65816000  1
  N  N35  1  0.59798500  0.11438700  0.34184000  1
  N  N36  1  0.10056100  0.23232800  0.98180600  1
  N  N37  1  0.89943900  0.76767200  0.01819400  1
