# generated using pymatgen
data_Ba5Si(Cl3O2)2
_symmetry_space_group_name_H-M   'P 1'
_cell_length_a   8.92860392
_cell_length_b   8.92860392
_cell_length_c   11.85388612
_cell_angle_alpha   82.31749836
_cell_angle_beta   82.31749836
_cell_angle_gamma   114.45170776
_symmetry_Int_Tables_number   1
_chemical_formula_structural   Ba5Si(Cl3O2)2
_chemical_formula_sum   'Ba10 Si2 Cl12 O8'
_cell_volume   833.59160822
_cell_formula_units_Z   2
loop_
 _symmetry_equiv_pos_site_id
 _symmetry_equiv_pos_as_xyz
  1  'x, y, z'
loop_
 _atom_site_type_symbol
 _atom_site_label
 _atom_site_symmetry_multiplicity
 _atom_site_fract_x
 _atom_site_fract_y
 _atom_site_fract_z
 _atom_site_occupancy
  Ba  Ba0  1  0.68397100  0.42903500  0.52027900  1
  Ba  Ba1  1  0.79836300  0.20163700  0.25000000  1
  Ba  Ba2  1  0.76634100  0.92257800  0.63385000  1
  Ba  Ba3  1  0.07742200  0.23365900  0.86615000  1
  Ba  Ba4  1  0.31602900  0.57096500  0.47972100  1
  Ba  Ba5  1  0.20163700  0.79836300  0.75000000  1
  Ba  Ba6  1  0.92257800  0.76634100  0.13385000  1
  Ba  Ba7  1  0.23365900  0.07742200  0.36615000  1
  Ba  Ba8  1  0.42903500  0.68397100  0.02027900  1
  Ba  Ba9  1  0.57096500  0.31602900  0.97972100  1
  Si  Si10  1  0.42256500  0.57743500  0.75000000  1
  Si  Si11  1  0.57743500  0.42256500  0.25000000  1
  Cl  Cl12  1  0.20182100  0.14347300  0.63383400  1
  Cl  Cl13  1  0.01923400  0.72001800  0.54870500  1
  Cl  Cl14  1  0.72001800  0.01923400  0.04870500  1
  Cl  Cl15  1  0.79817900  0.85652700  0.36616600  1
  Cl  Cl16  1  0.85652700  0.79817900  0.86616600  1
  Cl  Cl17  1  0.75822200  0.24177800  0.75000000  1
  Cl  Cl18  1  0.98076600  0.27998200  0.45129500  1
  Cl  Cl19  1  0.14347300  0.20182100  0.13383400  1
  Cl  Cl20  1  0.24177800  0.75822200  0.25000000  1
  Cl  Cl21  1  0.00000000  0.50000000  0.00000000  1
  Cl  Cl22  1  0.27998200  0.98076600  0.95129500  1
  Cl  Cl23  1  0.50000000  0.00000000  0.50000000  1
  O  O24  1  0.40211500  0.44283800  0.86755100  1
  O  O25  1  0.23625400  0.52325300  0.71397700  1
  O  O26  1  0.55716200  0.59788500  0.63244900  1
  O  O27  1  0.52325300  0.23625400  0.21397700  1
  O  O28  1  0.47674700  0.76374600  0.78602300  1
  O  O29  1  0.44283800  0.40211500  0.36755100  1
  O  O30  1  0.76374600  0.47674700  0.28602300  1
  O  O31  1  0.59788500  0.55716200  0.13244900  1
