# generated using pymatgen
data_Rb2In3F11
_symmetry_space_group_name_H-M   'P 1'
_cell_length_a   8.38400800
_cell_length_b   6.78038600
_cell_length_c   19.47329585
_cell_angle_alpha   89.01136440
_cell_angle_beta   90.00000000
_cell_angle_gamma   90.00000000
_symmetry_Int_Tables_number   1
_chemical_formula_structural   Rb2In3F11
_chemical_formula_sum   'Rb8 In12 F44'
_cell_volume   1106.82996798
_cell_formula_units_Z   4
loop_
 _symmetry_equiv_pos_site_id
 _symmetry_equiv_pos_as_xyz
  1  'x, y, z'
loop_
 _atom_site_type_symbol
 _atom_site_label
 _atom_site_symmetry_multiplicity
 _atom_site_fract_x
 _atom_site_fract_y
 _atom_site_fract_z
 _atom_site_occupancy
  Rb  Rb0  1  0.25000000  0.24689700  0.85033900  1
  Rb  Rb1  1  0.75000000  0.75310300  0.14966100  1
  Rb  Rb2  1  0.75000000  0.25839600  0.84784600  1
  Rb  Rb3  1  0.25000000  0.74160400  0.15215400  1
  Rb  Rb4  1  0.25000000  0.23708900  0.65344000  1
  Rb  Rb5  1  0.75000000  0.76291100  0.34656000  1
  Rb  Rb6  1  0.75000000  0.24664200  0.64861700  1
  Rb  Rb7  1  0.25000000  0.75335800  0.35138300  1
  In  In8  1  0.49842100  0.75127200  0.96821200  1
  In  In9  1  0.99842100  0.24872800  0.03178800  1
  In  In10  1  0.50157900  0.24872800  0.03178800  1
  In  In11  1  0.00157900  0.75127200  0.96821200  1
  In  In12  1  0.00024300  0.74761100  0.75042400  1
  In  In13  1  0.50024300  0.25238900  0.24957600  1
  In  In14  1  0.99975700  0.25238900  0.24957600  1
  In  In15  1  0.49975700  0.74761100  0.75042400  1
  In  In16  1  0.99930100  0.74834200  0.53180400  1
  In  In17  1  0.49930100  0.25165800  0.46819600  1
  In  In18  1  0.00069900  0.25165800  0.46819600  1
  In  In19  1  0.50069900  0.74834200  0.53180400  1
  F  F20  1  0.49405900  0.05654400  0.56078500  1
  F  F21  1  0.99405900  0.94345600  0.43921500  1
  F  F22  1  0.50594100  0.94345600  0.43921500  1
  F  F23  1  0.00594100  0.05654400  0.56078500  1
  F  F24  1  0.49298900  0.43629900  0.56059000  1
  F  F25  1  0.99298900  0.56370100  0.43941000  1
  F  F26  1  0.50701100  0.56370100  0.43941000  1
  F  F27  1  0.00701100  0.43629900  0.56059000  1
  F  F28  1  0.55164900  0.04237700  0.74857000  1
  F  F29  1  0.05164900  0.95762300  0.25143000  1
  F  F30  1  0.44835100  0.95762300  0.25143000  1
  F  F31  1  0.94835100  0.04237700  0.74857000  1
  F  F32  1  0.45119500  0.45177200  0.75211500  1
  F  F33  1  0.95119500  0.54822800  0.24788500  1
  F  F34  1  0.54880500  0.54822800  0.24788500  1
  F  F35  1  0.49481100  0.44238600  0.93937300  1
  F  F36  1  0.04880500  0.45177200  0.75211500  1
  F  F37  1  0.99585300  0.93694300  0.06060300  1
  F  F38  1  0.50414700  0.93694300  0.06060300  1
  F  F39  1  0.00414700  0.06305700  0.93939700  1
  F  F40  1  0.25000000  0.75134500  0.98260300  1
  F  F41  1  0.75000000  0.24865500  0.01739700  1
  F  F42  1  0.75000000  0.75136700  0.96585000  1
  F  F43  1  0.25000000  0.24863300  0.03415000  1
  F  F44  1  0.25000000  0.82983400  0.73834200  1
  F  F45  1  0.75000000  0.17016600  0.26165800  1
  F  F46  1  0.75000000  0.66572100  0.76251600  1
  F  F47  1  0.25000000  0.33427900  0.23748400  1
  F  F48  1  0.25000000  0.74902100  0.52446700  1
  F  F49  1  0.75000000  0.25097900  0.47553300  1
  F  F50  1  0.75000000  0.74891100  0.52610600  1
  F  F51  1  0.25000000  0.25108900  0.47389400  1
  F  F52  1  0.03036300  0.75755200  0.85880200  1
  F  F53  1  0.53036300  0.24244800  0.14119800  1
  F  F54  1  0.96963700  0.24244800  0.14119800  1
  F  F55  1  0.46963700  0.75755200  0.85880200  1
  F  F56  1  0.97890000  0.74047200  0.64165200  1
  F  F57  1  0.47890000  0.25952800  0.35834800  1
  F  F58  1  0.02110000  0.25952800  0.35834800  1
  F  F59  1  0.52110000  0.74047200  0.64165200  1
  F  F60  1  0.00518900  0.44238600  0.93937300  1
  F  F61  1  0.50518900  0.55761400  0.06062700  1
  F  F62  1  0.99481100  0.55761400  0.06062700  1
  F  F63  1  0.49585300  0.06305700  0.93939700  1
