# generated using pymatgen
data_Ca9In(PO4)7
_symmetry_space_group_name_H-M   'P 1'
_cell_length_a   13.93474455
_cell_length_b   13.93474455
_cell_length_c   13.93474521
_cell_angle_alpha   44.30900280
_cell_angle_beta   44.30900280
_cell_angle_gamma   44.30900382
_symmetry_Int_Tables_number   1
_chemical_formula_structural   Ca9In(PO4)7
_chemical_formula_sum   'Ca18 In2 P14 O56'
_cell_volume   1199.94113255
_cell_formula_units_Z   2
loop_
 _symmetry_equiv_pos_site_id
 _symmetry_equiv_pos_as_xyz
  1  'x, y, z'
loop_
 _atom_site_type_symbol
 _atom_site_label
 _atom_site_symmetry_multiplicity
 _atom_site_fract_x
 _atom_site_fract_y
 _atom_site_fract_z
 _atom_site_occupancy
  Ca  Ca0  1  0.43193200  0.85564200  0.40676700  1
  Ca  Ca1  1  0.15225600  0.57759900  0.56408200  1
  Ca  Ca2  1  0.40676700  0.43193200  0.85564200  1
  Ca  Ca3  1  0.57759900  0.56408200  0.15225600  1
  Ca  Ca4  1  0.35564200  0.93193200  0.90676700  1
  Ca  Ca5  1  0.90676700  0.35564200  0.93193200  1
  Ca  Ca6  1  0.05026900  0.47188900  0.45318200  1
  Ca  Ca7  1  0.47188900  0.45318200  0.05026900  1
  Ca  Ca8  1  0.95318200  0.97188900  0.55026900  1
  Ca  Ca9  1  0.85564200  0.40676700  0.43193200  1
  Ca  Ca10  1  0.55026900  0.95318200  0.97188900  1
  Ca  Ca11  1  0.97188900  0.55026900  0.95318200  1
  Ca  Ca12  1  0.93193200  0.90676700  0.35564200  1
  Ca  Ca13  1  0.06408200  0.07759900  0.65225600  1
  Ca  Ca14  1  0.56408200  0.15225600  0.57759900  1
  Ca  Ca15  1  0.65225600  0.06408200  0.07759900  1
  Ca  Ca16  1  0.07759900  0.65225600  0.06408200  1
  Ca  Ca17  1  0.45318200  0.05026900  0.47188900  1
  In  In18  1  0.99947700  0.99947700  0.99947700  1
  In  In19  1  0.49947700  0.49947700  0.49947700  1
  P  P20  1  0.76893200  0.76893200  0.76893200  1
  P  P21  1  0.26893200  0.26893200  0.26893200  1
  P  P22  1  0.18673700  0.22064800  0.68521700  1
  P  P23  1  0.30857700  0.81991700  0.27440200  1
  P  P24  1  0.81991700  0.27440200  0.30857700  1
  P  P25  1  0.27440200  0.30857700  0.81991700  1
  P  P26  1  0.72064800  0.68673700  0.18521700  1
  P  P27  1  0.22064800  0.68521700  0.18673700  1
  P  P28  1  0.80857700  0.77440200  0.31991700  1
  P  P29  1  0.18521700  0.72064800  0.68673700  1
  P  P30  1  0.68673700  0.18521700  0.72064800  1
  P  P31  1  0.31991700  0.80857700  0.77440200  1
  P  P32  1  0.77440200  0.31991700  0.80857700  1
  P  P33  1  0.68521700  0.18673700  0.22064800  1
  O  O34  1  0.77087200  0.39280400  0.85671800  1
  O  O35  1  0.89280400  0.27087200  0.35671800  1
  O  O36  1  0.68443100  0.66857800  0.11857600  1
  O  O37  1  0.39190400  0.11036900  0.26612700  1
  O  O38  1  0.38827300  0.83881400  0.11076900  1
  O  O39  1  0.86857900  0.13955900  0.87580600  1
  O  O40  1  0.63955900  0.36857900  0.37580600  1
  O  O41  1  0.59541700  0.14431800  0.89236100  1
  O  O42  1  0.88827300  0.61076900  0.33881400  1
  O  O43  1  0.27087200  0.35671800  0.89280400  1
  O  O44  1  0.11036900  0.26612700  0.39190400  1
  O  O45  1  0.26612700  0.39190400  0.11036900  1
  O  O46  1  0.35671800  0.89280400  0.27087200  1
  O  O47  1  0.16857800  0.18443100  0.61857600  1
  O  O48  1  0.85616000  0.12971800  0.66242100  1
  O  O49  1  0.18443100  0.61857600  0.16857800  1
  O  O50  1  0.36382400  0.63581300  0.61794200  1
  O  O51  1  0.63581300  0.61794200  0.36382400  1
  O  O52  1  0.13581300  0.86382400  0.11794200  1
  O  O53  1  0.66242100  0.85616000  0.12971800  1
  O  O54  1  0.62971800  0.35616000  0.16242100  1
  O  O55  1  0.39280400  0.85671800  0.77087200  1
  O  O56  1  0.76612700  0.61036900  0.89190400  1
  O  O57  1  0.86382400  0.11794200  0.13581300  1
  O  O58  1  0.61036900  0.89190400  0.76612700  1
  O  O59  1  0.13629300  0.87256700  0.35062300  1
  O  O60  1  0.66857800  0.11857600  0.68443100  1
  O  O61  1  0.61857600  0.16857800  0.18443100  1
  O  O62  1  0.09541700  0.39236100  0.64431800  1
  O  O63  1  0.35616000  0.16242100  0.62971800  1
  O  O64  1  0.36857900  0.37580600  0.63955900  1
  O  O65  1  0.11794200  0.13581300  0.86382400  1
  O  O66  1  0.35062300  0.13629300  0.87256700  1
  O  O67  1  0.89190400  0.76612700  0.61036900  1
  O  O68  1  0.33881400  0.88827300  0.61076900  1
  O  O69  1  0.12971800  0.66242100  0.85616000  1
  O  O70  1  0.37580600  0.63955900  0.36857900  1
  O  O71  1  0.63629300  0.85062300  0.37256700  1
  O  O72  1  0.61794200  0.36382400  0.63581300  1
  O  O73  1  0.85062300  0.37256700  0.63629300  1
  O  O74  1  0.64431800  0.09541700  0.39236100  1
  O  O75  1  0.87256700  0.35062300  0.13629300  1
  O  O76  1  0.81033700  0.81033700  0.81033700  1
  O  O77  1  0.61076900  0.33881400  0.88827300  1
  O  O78  1  0.31033700  0.31033700  0.31033700  1
  O  O79  1  0.39236100  0.64431800  0.09541700  1
  O  O80  1  0.16242100  0.62971800  0.35616000  1
  O  O81  1  0.89236100  0.59541700  0.14431800  1
  O  O82  1  0.85671800  0.77087200  0.39280400  1
  O  O83  1  0.14431800  0.89236100  0.59541700  1
  O  O84  1  0.83881400  0.11076900  0.38827300  1
  O  O85  1  0.11076900  0.38827300  0.83881400  1
  O  O86  1  0.13955900  0.87580600  0.86857900  1
  O  O87  1  0.87580600  0.86857900  0.13955900  1
  O  O88  1  0.37256700  0.63629300  0.85062300  1
  O  O89  1  0.11857600  0.68443100  0.66857800  1
