# generated using pymatgen
data_Cs4Pb9
_symmetry_space_group_name_H-M   'P 1'
_cell_length_a   15.21362400
_cell_length_b   10.35254500
_cell_length_c   17.76213237
_cell_angle_alpha   64.81073073
_cell_angle_beta   90.00000000
_cell_angle_gamma   90.00000000
_symmetry_Int_Tables_number   1
_chemical_formula_structural   Cs4Pb9
_chemical_formula_sum   'Cs16 Pb36'
_cell_volume   2531.50476823
_cell_formula_units_Z   4
loop_
 _symmetry_equiv_pos_site_id
 _symmetry_equiv_pos_as_xyz
  1  'x, y, z'
loop_
 _atom_site_type_symbol
 _atom_site_label
 _atom_site_symmetry_multiplicity
 _atom_site_fract_x
 _atom_site_fract_y
 _atom_site_fract_z
 _atom_site_occupancy
  Cs  Cs0  1  0.72975900  0.36659500  0.12042800  1
  Cs  Cs1  1  0.45986800  0.22966900  0.51424400  1
  Cs  Cs2  1  0.93110700  0.73048700  0.65983800  1
  Cs  Cs3  1  0.54013200  0.77033100  0.48575600  1
  Cs  Cs4  1  0.27101700  0.80547000  0.09178700  1
  Cs  Cs5  1  0.77024100  0.36659500  0.62042800  1
  Cs  Cs6  1  0.95986800  0.77033100  0.98575600  1
  Cs  Cs7  1  0.77101700  0.19453000  0.40821300  1
  Cs  Cs8  1  0.43110700  0.26951300  0.84016200  1
  Cs  Cs9  1  0.72898300  0.19453000  0.90821300  1
  Cs  Cs10  1  0.22898300  0.80547000  0.59178700  1
  Cs  Cs11  1  0.56889300  0.73048700  0.15983800  1
  Cs  Cs12  1  0.27024100  0.63340500  0.87957200  1
  Cs  Cs13  1  0.06889300  0.26951300  0.34016200  1
  Cs  Cs14  1  0.22975900  0.63340500  0.37957200  1
  Cs  Cs15  1  0.04013200  0.22966900  0.01424400  1
  Pb  Pb16  1  0.71369900  0.59969400  0.36552900  1
  Pb  Pb17  1  0.98872800  0.17654200  0.60245800  1
  Pb  Pb18  1  0.21369900  0.40030600  0.13447100  1
  Pb  Pb19  1  0.60314000  0.05003100  0.75493500  1
  Pb  Pb20  1  0.28630100  0.40030600  0.63447100  1
  Pb  Pb21  1  0.92144800  0.54144400  0.40550700  1
  Pb  Pb22  1  0.01127200  0.82345800  0.39754200  1
  Pb  Pb23  1  0.00588600  0.79808800  0.22428400  1
  Pb  Pb24  1  0.80263000  0.94152700  0.77352400  1
  Pb  Pb25  1  0.17797700  0.07057500  0.86896000  1
  Pb  Pb26  1  0.32202300  0.07057500  0.36896000  1
  Pb  Pb27  1  0.39686000  0.94996900  0.24506500  1
  Pb  Pb28  1  0.30263000  0.05847300  0.72647600  1
  Pb  Pb29  1  0.42144800  0.45855600  0.09449300  1
  Pb  Pb30  1  0.67797700  0.92942500  0.63104000  1
  Pb  Pb31  1  0.99411400  0.20191200  0.77571600  1
  Pb  Pb32  1  0.07855200  0.45855600  0.59449300  1
  Pb  Pb33  1  0.78630100  0.59969400  0.86552900  1
  Pb  Pb34  1  0.82202300  0.92942500  0.13104000  1
  Pb  Pb35  1  0.84498800  0.59526700  0.22731000  1
  Pb  Pb36  1  0.57855200  0.54144400  0.90550700  1
  Pb  Pb37  1  0.89686000  0.05003100  0.25493500  1
  Pb  Pb38  1  0.69737000  0.94152700  0.27352400  1
  Pb  Pb39  1  0.51127200  0.17654200  0.10245800  1
  Pb  Pb40  1  0.49411400  0.79808800  0.72428400  1
  Pb  Pb41  1  0.19737000  0.05847300  0.22647600  1
  Pb  Pb42  1  0.69041700  0.79135400  0.93973100  1
  Pb  Pb43  1  0.30958300  0.20864600  0.06026900  1
  Pb  Pb44  1  0.65501200  0.59526700  0.72731000  1
  Pb  Pb45  1  0.80958300  0.79135400  0.43973100  1
  Pb  Pb46  1  0.50588600  0.20191200  0.27571600  1
  Pb  Pb47  1  0.34498800  0.40473300  0.27269000  1
  Pb  Pb48  1  0.10314000  0.94996900  0.74506500  1
  Pb  Pb49  1  0.15501200  0.40473300  0.77269000  1
  Pb  Pb50  1  0.48872800  0.82345800  0.89754200  1
  Pb  Pb51  1  0.19041700  0.20864600  0.56026900  1
