# generated using pymatgen
data_CsMo2P2O11
_symmetry_space_group_name_H-M   'P 1'
_cell_length_a   8.91866500
_cell_length_b   10.47935900
_cell_length_c   11.78746004
_cell_angle_alpha   76.10217045
_cell_angle_beta   90.00000000
_cell_angle_gamma   90.00000000
_symmetry_Int_Tables_number   1
_chemical_formula_structural   CsMo2P2O11
_chemical_formula_sum   'Cs4 Mo8 P8 O44'
_cell_volume   1069.42732878
_cell_formula_units_Z   4
loop_
 _symmetry_equiv_pos_site_id
 _symmetry_equiv_pos_as_xyz
  1  'x, y, z'
loop_
 _atom_site_type_symbol
 _atom_site_label
 _atom_site_symmetry_multiplicity
 _atom_site_fract_x
 _atom_site_fract_y
 _atom_site_fract_z
 _atom_site_occupancy
  Cs  Cs0  1  0.23604200  0.90406000  0.07413200  1
  Cs  Cs1  1  0.73604200  0.09594000  0.42586800  1
  Cs  Cs2  1  0.76395800  0.09594000  0.92586800  1
  Cs  Cs3  1  0.26395800  0.90406000  0.57413200  1
  Mo  Mo4  1  0.25294500  0.61089600  0.39006900  1
  Mo  Mo5  1  0.75294500  0.38910400  0.10993100  1
  Mo  Mo6  1  0.74705500  0.38910400  0.60993100  1
  Mo  Mo7  1  0.24705500  0.61089600  0.89006900  1
  Mo  Mo8  1  0.22360100  0.19993800  0.27346700  1
  Mo  Mo9  1  0.72360100  0.80006200  0.22653300  1
  Mo  Mo10  1  0.77639900  0.80006200  0.72653300  1
  Mo  Mo11  1  0.27639900  0.19993800  0.77346700  1
  P  P12  1  0.08106600  0.52032500  0.16491100  1
  P  P13  1  0.58106600  0.47967500  0.33508900  1
  P  P14  1  0.91893400  0.47967500  0.83508900  1
  P  P15  1  0.41893400  0.52032500  0.66491100  1
  P  P16  1  0.08772100  0.29444500  0.51268000  1
  P  P17  1  0.58772100  0.70555500  0.98732000  1
  P  P18  1  0.91227900  0.70555500  0.48732000  1
  P  P19  1  0.41227900  0.29444500  0.01268000  1
  O  O20  1  0.33857500  0.75741700  0.32460500  1
  O  O21  1  0.83857500  0.24258300  0.17539500  1
  O  O22  1  0.66142500  0.24258300  0.67539500  1
  O  O23  1  0.16142500  0.75741700  0.82460500  1
  O  O24  1  0.11916700  0.60430400  0.25183500  1
  O  O25  1  0.61916700  0.39569600  0.24816500  1
  O  O26  1  0.88083300  0.39569600  0.74816500  1
  O  O27  1  0.38083300  0.60430400  0.75183500  1
  O  O28  1  0.40923600  0.49588100  0.33398400  1
  O  O29  1  0.90923600  0.50411900  0.16601600  1
  O  O30  1  0.59076400  0.50411900  0.66601600  1
  O  O31  1  0.09076400  0.49588100  0.83398400  1
  O  O32  1  0.07859500  0.70714000  0.45390000  1
  O  O33  1  0.57859500  0.29286000  0.04610000  1
  O  O34  1  0.92140500  0.29286000  0.54610000  1
  O  O35  1  0.42140500  0.70714000  0.95390000  1
  O  O36  1  0.36428100  0.59656400  0.54431600  1
  O  O37  1  0.86428100  0.40343600  0.95568400  1
  O  O38  1  0.63571900  0.40343600  0.45568400  1
  O  O39  1  0.13571900  0.59656400  0.04431600  1
  O  O40  1  0.15116200  0.43238200  0.47455600  1
  O  O41  1  0.65116200  0.56761800  0.02544400  1
  O  O42  1  0.84883800  0.56761800  0.52544400  1
  O  O43  1  0.34883800  0.43238200  0.97455600  1
  O  O44  1  0.13206800  0.05528500  0.27138500  1
  O  O45  1  0.63206800  0.94471500  0.22861500  1
  O  O46  1  0.86793200  0.94471500  0.72861500  1
  O  O47  1  0.36793200  0.05528500  0.77138500  1
  O  O48  1  0.38509100  0.15932100  0.35637100  1
  O  O49  1  0.88509100  0.84067900  0.14362900  1
  O  O50  1  0.61490900  0.84067900  0.64362900  1
  O  O51  1  0.11490900  0.15932100  0.85637100  1
  O  O52  1  0.15855100  0.38394400  0.20044900  1
  O  O53  1  0.65855100  0.61605600  0.29955100  1
  O  O54  1  0.84144900  0.61605600  0.79955100  1
  O  O55  1  0.34144900  0.38394400  0.70044900  1
  O  O56  1  0.31953300  0.21008000  0.11693700  1
  O  O57  1  0.81953300  0.78992000  0.38306300  1
  O  O58  1  0.68046700  0.78992000  0.88306300  1
  O  O59  1  0.18046700  0.21008000  0.61693700  1
  O  O60  1  0.09788800  0.21894600  0.41344500  1
  O  O61  1  0.59788800  0.78105400  0.08655500  1
  O  O62  1  0.90211200  0.78105400  0.58655500  1
  O  O63  1  0.40211200  0.21894600  0.91344500  1
