# generated using pymatgen
data_Ga2Te2Br7
_symmetry_space_group_name_H-M   'P 1'
_cell_length_a   11.73883800
_cell_length_b   10.47317300
_cell_length_c   14.37640920
_cell_angle_alpha   81.13406056
_cell_angle_beta   90.00000000
_cell_angle_gamma   90.00000000
_symmetry_Int_Tables_number   1
_chemical_formula_structural   Ga2Te2Br7
_chemical_formula_sum   'Ga8 Te8 Br28'
_cell_volume   1746.35875319
_cell_formula_units_Z   4
loop_
 _symmetry_equiv_pos_site_id
 _symmetry_equiv_pos_as_xyz
  1  'x, y, z'
loop_
 _atom_site_type_symbol
 _atom_site_label
 _atom_site_symmetry_multiplicity
 _atom_site_fract_x
 _atom_site_fract_y
 _atom_site_fract_z
 _atom_site_occupancy
  Ga  Ga0  1  0.31687700  0.90551900  0.68052900  1
  Ga  Ga1  1  0.10831700  0.28360400  0.16415200  1
  Ga  Ga2  1  0.81687700  0.09448100  0.81947100  1
  Ga  Ga3  1  0.60831700  0.71639600  0.33584800  1
  Ga  Ga4  1  0.89168300  0.71639600  0.83584800  1
  Ga  Ga5  1  0.39168300  0.28360400  0.66415200  1
  Ga  Ga6  1  0.68312300  0.09448100  0.31947100  1
  Ga  Ga7  1  0.18312300  0.90551900  0.18052900  1
  Te  Te8  1  0.53628200  0.41957500  0.12671300  1
  Te  Te9  1  0.44251800  0.64949800  0.04849400  1
  Te  Te10  1  0.46371800  0.58042500  0.87328700  1
  Te  Te11  1  0.55748200  0.35050200  0.95150600  1
  Te  Te12  1  0.05748200  0.64949800  0.54849400  1
  Te  Te13  1  0.03628200  0.58042500  0.37328700  1
  Te  Te14  1  0.94251800  0.35050200  0.45150600  1
  Te  Te15  1  0.96371800  0.41957500  0.62671300  1
  Br  Br16  1  0.17031900  0.38743400  0.01944400  1
  Br  Br17  1  0.14560800  0.98617200  0.61551100  1
  Br  Br18  1  0.06049000  0.61935900  0.78455400  1
  Br  Br19  1  0.11850400  0.72419400  0.12028900  1
  Br  Br20  1  0.64560800  0.01382800  0.88448900  1
  Br  Br21  1  0.93951000  0.38064100  0.21544600  1
  Br  Br22  1  0.61850400  0.27580600  0.37971100  1
  Br  Br23  1  0.53248900  0.92967800  0.36685000  1
  Br  Br24  1  0.03248900  0.07032200  0.13315000  1
  Br  Br25  1  0.24198300  0.25478600  0.28405200  1
  Br  Br26  1  0.56049000  0.38064100  0.71544600  1
  Br  Br27  1  0.75801700  0.74521400  0.71594800  1
  Br  Br28  1  0.67723300  0.13323500  0.15248000  1
  Br  Br29  1  0.25801700  0.25478600  0.78405200  1
  Br  Br30  1  0.74198300  0.74521400  0.21594800  1
  Br  Br31  1  0.32276700  0.86676500  0.84752000  1
  Br  Br32  1  0.17723300  0.86676500  0.34752000  1
  Br  Br33  1  0.43951000  0.61935900  0.28455400  1
  Br  Br34  1  0.67031900  0.61256600  0.48055600  1
  Br  Br35  1  0.32968100  0.38743400  0.51944400  1
  Br  Br36  1  0.82276700  0.13323500  0.65248000  1
  Br  Br37  1  0.35439200  0.98617200  0.11551100  1
  Br  Br38  1  0.82968100  0.61256600  0.98055600  1
  Br  Br39  1  0.96751100  0.92967800  0.86685000  1
  Br  Br40  1  0.38149600  0.72419400  0.62028900  1
  Br  Br41  1  0.88149600  0.27580600  0.87971100  1
  Br  Br42  1  0.85439200  0.01382800  0.38448900  1
  Br  Br43  1  0.46751100  0.07032200  0.63315000  1
