# generated using pymatgen
data_Rb3As11
_symmetry_space_group_name_H-M   'P 1'
_cell_length_a   11.16687200
_cell_length_b   11.67560800
_cell_length_c   15.41861000
_cell_angle_alpha   90.00000000
_cell_angle_beta   90.00000000
_cell_angle_gamma   90.00000000
_symmetry_Int_Tables_number   1
_chemical_formula_structural   Rb3As11
_chemical_formula_sum   'Rb12 As44'
_cell_volume   2010.27868107
_cell_formula_units_Z   4
loop_
 _symmetry_equiv_pos_site_id
 _symmetry_equiv_pos_as_xyz
  1  'x, y, z'
loop_
 _atom_site_type_symbol
 _atom_site_label
 _atom_site_symmetry_multiplicity
 _atom_site_fract_x
 _atom_site_fract_y
 _atom_site_fract_z
 _atom_site_occupancy
  Rb  Rb0  1  0.91030600  0.26891900  0.48356000  1
  Rb  Rb1  1  0.25000000  0.00000000  0.29381000  1
  Rb  Rb2  1  0.08969400  0.76891900  0.01644000  1
  Rb  Rb3  1  0.41030600  0.26891900  0.51644000  1
  Rb  Rb4  1  0.91030600  0.23108100  0.98356000  1
  Rb  Rb5  1  0.75000000  0.50000000  0.20619000  1
  Rb  Rb6  1  0.75000000  0.00000000  0.70619000  1
  Rb  Rb7  1  0.25000000  0.50000000  0.79381000  1
  Rb  Rb8  1  0.41030600  0.23108100  0.01644000  1
  Rb  Rb9  1  0.58969400  0.76891900  0.98356000  1
  Rb  Rb10  1  0.58969400  0.73108100  0.48356000  1
  Rb  Rb11  1  0.08969400  0.73108100  0.51644000  1
  As  As12  1  0.56820600  0.88676200  0.28288200  1
  As  As13  1  0.39745800  0.93245800  0.63569600  1
  As  As14  1  0.50329100  0.46274800  0.35380000  1
  As  As15  1  0.60254200  0.43245800  0.86430400  1
  As  As16  1  0.67313000  0.42296400  0.61651900  1
  As  As17  1  0.93179400  0.38676200  0.78288200  1
  As  As18  1  0.99670900  0.53725200  0.35380000  1
  As  As19  1  0.00329100  0.03725200  0.14620000  1
  As  As20  1  0.27873300  0.82075700  0.74493300  1
  As  As21  1  0.75000000  0.50000000  0.96830400  1
  As  As22  1  0.25000000  0.50000000  0.03169600  1
  As  As23  1  0.77873300  0.82075700  0.25506700  1
  As  As24  1  0.50329100  0.03725200  0.85380000  1
  As  As25  1  0.06820600  0.88676200  0.71711800  1
  As  As26  1  0.10254200  0.43245800  0.13569600  1
  As  As27  1  0.77873300  0.67924300  0.75506700  1
  As  As28  1  0.60254200  0.06754200  0.36430400  1
  As  As29  1  0.49670900  0.96274800  0.14620000  1
  As  As30  1  0.17313000  0.07703600  0.88348100  1
  As  As31  1  0.99670900  0.96274800  0.85380000  1
  As  As32  1  0.75000000  0.00000000  0.46830400  1
  As  As33  1  0.06820600  0.61323800  0.21711800  1
  As  As34  1  0.82687000  0.92296400  0.11651900  1
  As  As35  1  0.17313000  0.42296400  0.38348100  1
  As  As36  1  0.89745800  0.93245800  0.36430400  1
  As  As37  1  0.82687000  0.57703600  0.61651900  1
  As  As38  1  0.32687000  0.57703600  0.38348100  1
  As  As39  1  0.22126700  0.17924300  0.74493300  1
  As  As40  1  0.43179400  0.11323800  0.71711800  1
  As  As41  1  0.72126700  0.17924300  0.25506700  1
  As  As42  1  0.49670900  0.53725200  0.64620000  1
  As  As43  1  0.00329100  0.46274800  0.64620000  1
  As  As44  1  0.27873300  0.67924300  0.24493300  1
  As  As45  1  0.56820600  0.61323800  0.78288200  1
  As  As46  1  0.39745800  0.56754200  0.13569600  1
  As  As47  1  0.10254200  0.06754200  0.63569600  1
  As  As48  1  0.32687000  0.92296400  0.88348100  1
  As  As49  1  0.72126700  0.32075700  0.75506700  1
  As  As50  1  0.22126700  0.32075700  0.24493300  1
  As  As51  1  0.89745800  0.56754200  0.86430400  1
  As  As52  1  0.67313000  0.07703600  0.11651900  1
  As  As53  1  0.43179400  0.38676200  0.21711800  1
  As  As54  1  0.93179400  0.11323800  0.28288200  1
  As  As55  1  0.25000000  0.00000000  0.53169600  1
