# generated using pymatgen
data_SmSnPd
_symmetry_space_group_name_H-M   'P 1'
_cell_length_a   4.70870500
_cell_length_b   7.40508900
_cell_length_c   8.01999400
_cell_angle_alpha   90.00000000
_cell_angle_beta   90.00000000
_cell_angle_gamma   90.00000000
_symmetry_Int_Tables_number   1
_chemical_formula_structural   SmSnPd
_chemical_formula_sum   'Sm4 Sn4 Pd4'
_cell_volume   279.64419518
_cell_formula_units_Z   4
loop_
 _symmetry_equiv_pos_site_id
 _symmetry_equiv_pos_as_xyz
  1  'x, y, z'
loop_
 _atom_site_type_symbol
 _atom_site_label
 _atom_site_symmetry_multiplicity
 _atom_site_fract_x
 _atom_site_fract_y
 _atom_site_fract_z
 _atom_site_occupancy
  Sm  Sm0  1  0.75000000  0.51019800  0.79467200  1
  Sm  Sm1  1  0.75000000  0.01019800  0.70532800  1
  Sm  Sm2  1  0.25000000  0.98980200  0.29467200  1
  Sm  Sm3  1  0.25000000  0.48980200  0.20532800  1
  Sn  Sn4  1  0.75000000  0.19184000  0.08731100  1
  Sn  Sn5  1  0.75000000  0.69184000  0.41268900  1
  Sn  Sn6  1  0.25000000  0.80816000  0.91268900  1
  Sn  Sn7  1  0.25000000  0.30816000  0.58731100  1
  Pd  Pd8  1  0.75000000  0.79722900  0.08335500  1
  Pd  Pd9  1  0.25000000  0.20277100  0.91664500  1
  Pd  Pd10  1  0.75000000  0.29722900  0.41664500  1
  Pd  Pd11  1  0.25000000  0.70277100  0.58335500  1
