# generated using pymatgen
data_Eu(BO2)2
_symmetry_space_group_name_H-M   'P 1'
_cell_length_a   4.37490500
_cell_length_b   6.65292300
_cell_length_c   12.10690200
_cell_angle_alpha   90.00000000
_cell_angle_beta   90.00000000
_cell_angle_gamma   90.00000000
_symmetry_Int_Tables_number   1
_chemical_formula_structural   Eu(BO2)2
_chemical_formula_sum   'Eu4 B8 O16'
_cell_volume   352.38235274
_cell_formula_units_Z   4
loop_
 _symmetry_equiv_pos_site_id
 _symmetry_equiv_pos_as_xyz
  1  'x, y, z'
loop_
 _atom_site_type_symbol
 _atom_site_label
 _atom_site_symmetry_multiplicity
 _atom_site_fract_x
 _atom_site_fract_y
 _atom_site_fract_z
 _atom_site_occupancy
  Eu  Eu0  1  0.26426600  0.25000000  0.00000000  1
  Eu  Eu1  1  0.23573400  0.75000000  0.50000000  1
  Eu  Eu2  1  0.73573400  0.75000000  0.00000000  1
  Eu  Eu3  1  0.76426600  0.25000000  0.50000000  1
  B  B4  1  0.82807300  0.12433800  0.19418500  1
  B  B5  1  0.82807300  0.37566200  0.80581500  1
  B  B6  1  0.67192700  0.62433800  0.30581500  1
  B  B7  1  0.67192700  0.87566200  0.69418500  1
  B  B8  1  0.17192700  0.87566200  0.80581500  1
  B  B9  1  0.17192700  0.62433800  0.19418500  1
  B  B10  1  0.32807300  0.37566200  0.69418500  1
  B  B11  1  0.32807300  0.12433800  0.30581500  1
  O  O12  1  0.73381200  0.09310400  0.09049900  1
  O  O13  1  0.73381200  0.40689600  0.90950100  1
  O  O14  1  0.76618800  0.59310400  0.40950100  1
  O  O15  1  0.76618800  0.90689600  0.59049900  1
  O  O16  1  0.26618800  0.90689600  0.90950100  1
  O  O17  1  0.26618800  0.59310400  0.09049900  1
  O  O18  1  0.23381200  0.40689600  0.59049900  1
  O  O19  1  0.23381200  0.09310400  0.40950100  1
  O  O20  1  0.14698900  0.14450200  0.21121100  1
  O  O21  1  0.14698900  0.35549800  0.78878900  1
  O  O22  1  0.35301100  0.64450200  0.28878900  1
  O  O23  1  0.35301100  0.85549800  0.71121100  1
  O  O24  1  0.85301100  0.85549800  0.78878900  1
  O  O25  1  0.85301100  0.64450200  0.21121100  1
  O  O26  1  0.64698900  0.35549800  0.71121100  1
  O  O27  1  0.64698900  0.14450200  0.28878900  1
