# generated using pymatgen
data_CsCeCdSe3
_symmetry_space_group_name_H-M   'P 1'
_cell_length_a   8.39333794
_cell_length_b   8.39333794
_cell_length_c   11.56323600
_cell_angle_alpha   90.00000000
_cell_angle_beta   90.00000000
_cell_angle_gamma   149.27857603
_symmetry_Int_Tables_number   1
_chemical_formula_structural   CsCeCdSe3
_chemical_formula_sum   'Cs2 Ce2 Cd2 Se6'
_cell_volume   416.15435637
_cell_formula_units_Z   2
loop_
 _symmetry_equiv_pos_site_id
 _symmetry_equiv_pos_as_xyz
  1  'x, y, z'
loop_
 _atom_site_type_symbol
 _atom_site_label
 _atom_site_symmetry_multiplicity
 _atom_site_fract_x
 _atom_site_fract_y
 _atom_site_fract_z
 _atom_site_occupancy
  Cs  Cs0  1  0.74243100  0.25756900  0.25000000  1
  Cs  Cs1  1  0.25756900  0.74243100  0.75000000  1
  Ce  Ce2  1  0.00000000  0.00000000  0.00000000  1
  Ce  Ce3  1  0.00000000  0.00000000  0.50000000  1
  Cd  Cd4  1  0.46066000  0.53934000  0.25000000  1
  Cd  Cd5  1  0.53934000  0.46066000  0.75000000  1
  Se  Se6  1  0.05968700  0.94031300  0.25000000  1
  Se  Se7  1  0.37956400  0.62043600  0.44739300  1
  Se  Se8  1  0.62043600  0.37956400  0.94739300  1
  Se  Se9  1  0.62043600  0.37956400  0.55260700  1
  Se  Se10  1  0.37956400  0.62043600  0.05260700  1
  Se  Se11  1  0.94031300  0.05968700  0.75000000  1
