# generated using pymatgen
data_Si2Mo4P6O25
_symmetry_space_group_name_H-M   'P 1'
_cell_length_a   14.87211441
_cell_length_b   14.87211441
_cell_length_c   8.00532000
_cell_angle_alpha   90.00000000
_cell_angle_beta   90.00000000
_cell_angle_gamma   120.00000180
_symmetry_Int_Tables_number   1
_chemical_formula_structural   Si2Mo4P6O25
_chemical_formula_sum   'Si6 Mo12 P18 O75'
_cell_volume   1533.39751782
_cell_formula_units_Z   3
loop_
 _symmetry_equiv_pos_site_id
 _symmetry_equiv_pos_as_xyz
  1  'x, y, z'
loop_
 _atom_site_type_symbol
 _atom_site_label
 _atom_site_symmetry_multiplicity
 _atom_site_fract_x
 _atom_site_fract_y
 _atom_site_fract_z
 _atom_site_occupancy
  Si  Si0  1  0.00000000  0.00000000  0.30033700  1
  Si  Si1  1  0.33333300  0.66666700  0.19768900  1
  Si  Si2  1  0.33333300  0.66666700  0.79861800  1
  Si  Si3  1  0.66666700  0.33333300  0.20138200  1
  Si  Si4  1  0.66666700  0.33333300  0.80231100  1
  Si  Si5  1  0.00000000  0.00000000  0.69966300  1
  Mo  Mo6  1  0.00056300  0.66185600  0.05045700  1
  Mo  Mo7  1  0.67251700  0.00249200  0.44448900  1
  Mo  Mo8  1  0.66185600  0.66129300  0.94954300  1
  Mo  Mo9  1  0.00249200  0.32997500  0.55551100  1
  Mo  Mo10  1  0.66129300  0.99943700  0.05045700  1
  Mo  Mo11  1  0.67002500  0.67251700  0.55551100  1
  Mo  Mo12  1  0.99943700  0.33814400  0.94954300  1
  Mo  Mo13  1  0.32997500  0.32748300  0.44448900  1
  Mo  Mo14  1  0.32748300  0.99750800  0.55551100  1
  Mo  Mo15  1  0.33870700  0.00056300  0.94954300  1
  Mo  Mo16  1  0.33814400  0.33870700  0.05045700  1
  Mo  Mo17  1  0.99750800  0.67002500  0.44448900  1
  P  P18  1  0.42734900  0.89795500  0.25368800  1
  P  P19  1  0.10204500  0.52939400  0.25368800  1
  P  P20  1  0.76789000  0.86210900  0.25006600  1
  P  P21  1  0.47060600  0.57265100  0.25368800  1
  P  P22  1  0.86210900  0.09421900  0.74993400  1
  P  P23  1  0.23211000  0.13789100  0.74993400  1
  P  P24  1  0.75968400  0.56515500  0.25166300  1
  P  P25  1  0.90578100  0.76789000  0.74993400  1
  P  P26  1  0.24031600  0.43484500  0.74833700  1
  P  P27  1  0.57265100  0.10204500  0.74631200  1
  P  P28  1  0.13789100  0.90578100  0.25006600  1
  P  P29  1  0.80547100  0.24031600  0.25166300  1
  P  P30  1  0.56515500  0.80547100  0.74833700  1
  P  P31  1  0.09421900  0.23211000  0.25006600  1
  P  P32  1  0.89795500  0.47060600  0.74631200  1
  P  P33  1  0.52939400  0.42734900  0.74631200  1
  P  P34  1  0.43484500  0.19452900  0.25166300  1
  P  P35  1  0.19452900  0.75968400  0.74833700  1
  O  O36  1  0.47726300  0.38582900  0.91447300  1
  O  O37  1  0.27869600  0.40974000  0.59034800  1
  O  O38  1  0.40793900  0.78309100  0.26989300  1
  O  O39  1  0.91552400  0.53714800  0.59382600  1
  O  O40  1  0.78309100  0.37515200  0.73010700  1
  O  O41  1  0.08447600  0.46285200  0.40617400  1
  O  O42  1  0.62484800  0.40793900  0.73010700  1
  O  O43  1  0.61417100  0.09143400  0.91447300  1
  O  O44  1  0.91734800  0.21580800  0.75590900  1
  O  O45  1  0.95532400  0.07197100  0.77306900  1
  O  O46  1  0.72130400  0.59026000  0.40965200  1
  O  O47  1  0.24071500  0.18662900  0.57929600  1
  O  O48  1  0.75023800  0.11879300  0.24247200  1
  O  O49  1  0.29050500  0.42942700  0.91064800  1
  O  O50  1  0.45002600  0.71166100  0.72562800  1
  O  O51  1  0.88335300  0.95532400  0.22693100  1
  O  O52  1  0.36855500  0.24976200  0.24247200  1
  O  O53  1  0.73836500  0.45002600  0.27437200  1
  O  O54  1  0.08265200  0.78419200  0.24409100  1
  O  O55  1  0.92802900  0.88335300  0.77306900  1
  O  O56  1  0.66666700  0.33333300  0.00186000  1
  O  O57  1  0.13892200  0.70949500  0.91064800  1
  O  O58  1  0.33333300  0.66666700  0.99814000  1
  O  O59  1  0.57057300  0.86107800  0.91064800  1
  O  O60  1  0.24976200  0.88120700  0.75752800  1
  O  O61  1  0.18662900  0.94591400  0.42070400  1
  O  O62  1  0.94591400  0.75928500  0.57929600  1
  O  O63  1  0.90856600  0.52273700  0.91447300  1
  O  O64  1  0.62162400  0.08447600  0.59382600  1
  O  O65  1  0.79155300  0.04563800  0.89841600  1
  O  O66  1  0.58253000  0.54883500  0.74381800  1
  O  O67  1  0.42942700  0.13892200  0.08935200  1
  O  O68  1  0.00000000  0.00000000  0.50000000  1
  O  O69  1  0.11879300  0.36855500  0.75752800  1
  O  O70  1  0.21580800  0.29846000  0.24409100  1
  O  O71  1  0.11664700  0.04467600  0.77306900  1
  O  O72  1  0.59026000  0.86895600  0.59034800  1
  O  O73  1  0.25408500  0.20844700  0.89841600  1
  O  O74  1  0.38582900  0.90856600  0.08552700  1
  O  O75  1  0.04467600  0.92802900  0.22693100  1
  O  O76  1  0.13104400  0.72130400  0.59034800  1
  O  O77  1  0.70154000  0.91734800  0.24409100  1
  O  O78  1  0.88120700  0.63144500  0.24247200  1
  O  O79  1  0.21690900  0.62484800  0.26989300  1
  O  O80  1  0.41747000  0.45116500  0.25618200  1
  O  O81  1  0.04563800  0.25408500  0.10158400  1
  O  O82  1  0.63144500  0.75023800  0.75752800  1
  O  O83  1  0.86895600  0.27869600  0.40965200  1
  O  O84  1  0.37837600  0.91552400  0.40617400  1
  O  O85  1  0.20844700  0.95436200  0.10158400  1
  O  O86  1  0.59206100  0.21690900  0.73010700  1
  O  O87  1  0.03369500  0.58253000  0.25618200  1
  O  O88  1  0.29846000  0.08265200  0.75590900  1
  O  O89  1  0.54997400  0.28833900  0.27437200  1
  O  O90  1  0.81337100  0.05408600  0.57929600  1
  O  O91  1  0.05408600  0.24071500  0.42070400  1
  O  O92  1  0.40974000  0.13104400  0.40965200  1
  O  O93  1  0.37515200  0.59206100  0.26989300  1
  O  O94  1  0.28833900  0.73836500  0.72562800  1
  O  O95  1  0.46285200  0.37837600  0.59382600  1
  O  O96  1  0.26163500  0.54997400  0.72562800  1
  O  O97  1  0.09143400  0.47726300  0.08552700  1
  O  O98  1  0.52273700  0.61417100  0.08552700  1
  O  O99  1  0.95436200  0.74591500  0.89841600  1
  O  O100  1  0.71166100  0.26163500  0.27437200  1
  O  O101  1  0.54883500  0.96630500  0.25618200  1
  O  O102  1  0.53714800  0.62162400  0.40617400  1
  O  O103  1  0.45116500  0.03369500  0.74381800  1
  O  O104  1  0.78419200  0.70154000  0.75590900  1
  O  O105  1  0.96630500  0.41747000  0.74381800  1
  O  O106  1  0.70949500  0.57057300  0.08935200  1
  O  O107  1  0.07197100  0.11664700  0.22693100  1
  O  O108  1  0.74591500  0.79155300  0.10158400  1
  O  O109  1  0.86107800  0.29050500  0.08935200  1
  O  O110  1  0.75928500  0.81337100  0.42070400  1
