# generated using pymatgen
data_Sc2TeO6
_symmetry_space_group_name_H-M   'P 1'
_cell_length_a   8.84713504
_cell_length_b   8.84713504
_cell_length_c   4.86480100
_cell_angle_alpha   90.00000000
_cell_angle_beta   90.00000000
_cell_angle_gamma   120.00000781
_symmetry_Int_Tables_number   1
_chemical_formula_structural   Sc2TeO6
_chemical_formula_sum   'Sc6 Te3 O18'
_cell_volume   329.76228981
_cell_formula_units_Z   3
loop_
 _symmetry_equiv_pos_site_id
 _symmetry_equiv_pos_as_xyz
  1  'x, y, z'
loop_
 _atom_site_type_symbol
 _atom_site_label
 _atom_site_symmetry_multiplicity
 _atom_site_fract_x
 _atom_site_fract_y
 _atom_site_fract_z
 _atom_site_occupancy
  Sc  Sc0  1  0.29274100  0.00000000  0.50000000  1
  Sc  Sc1  1  0.62862200  0.00000000  0.00000000  1
  Sc  Sc2  1  0.70725900  0.70725900  0.50000000  1
  Sc  Sc3  1  0.00000000  0.62862200  0.00000000  1
  Sc  Sc4  1  0.37137800  0.37137800  0.00000000  1
  Sc  Sc5  1  0.00000000  0.29274100  0.50000000  1
  Te  Te6  1  0.00000000  0.00000000  0.00000000  1
  Te  Te7  1  0.66666700  0.33333300  0.49657400  1
  Te  Te8  1  0.33333300  0.66666700  0.50342600  1
  O  O9  1  0.87949900  0.09000300  0.21929100  1
  O  O10  1  0.45728300  0.58070200  0.72774200  1
  O  O11  1  0.22236200  0.76722200  0.28016600  1
  O  O12  1  0.76722200  0.22236200  0.71983400  1
  O  O13  1  0.54486000  0.77763800  0.28016600  1
  O  O14  1  0.23277800  0.45514000  0.28016600  1
  O  O15  1  0.12341900  0.54271700  0.72774200  1
  O  O16  1  0.58070200  0.45728300  0.27225800  1
  O  O17  1  0.54271700  0.12341900  0.27225800  1
  O  O18  1  0.87658100  0.41929800  0.27225800  1
  O  O19  1  0.45514000  0.23277800  0.71983400  1
  O  O20  1  0.21050300  0.12050100  0.21929100  1
  O  O21  1  0.90999700  0.78949700  0.21929100  1
  O  O22  1  0.12050100  0.21050300  0.78070900  1
  O  O23  1  0.78949700  0.90999700  0.78070900  1
  O  O24  1  0.09000300  0.87949900  0.78070900  1
  O  O25  1  0.41929800  0.87658100  0.72774200  1
  O  O26  1  0.77763800  0.54486000  0.71983400  1
