# generated using pymatgen
data_DyAgPb
_symmetry_space_group_name_H-M   'P 1'
_cell_length_a   4.82811677
_cell_length_b   4.82811677
_cell_length_c   7.51836400
_cell_angle_alpha   90.00000000
_cell_angle_beta   90.00000000
_cell_angle_gamma   120.00001058
_symmetry_Int_Tables_number   1
_chemical_formula_structural   DyAgPb
_chemical_formula_sum   'Dy2 Ag2 Pb2'
_cell_volume   151.77822313
_cell_formula_units_Z   2
loop_
 _symmetry_equiv_pos_site_id
 _symmetry_equiv_pos_as_xyz
  1  'x, y, z'
loop_
 _atom_site_type_symbol
 _atom_site_label
 _atom_site_symmetry_multiplicity
 _atom_site_fract_x
 _atom_site_fract_y
 _atom_site_fract_z
 _atom_site_occupancy
  Dy  Dy0  1  0.00000000  0.00000000  0.00230700  1
  Dy  Dy1  1  0.00000000  0.00000000  0.50230700  1
  Ag  Ag2  1  0.33333300  0.66666700  0.82219600  1
  Ag  Ag3  1  0.66666700  0.33333300  0.32219600  1
  Pb  Pb4  1  0.33333300  0.66666700  0.22699700  1
  Pb  Pb5  1  0.66666700  0.33333300  0.72699700  1
