# generated using pymatgen
data_Sc2CI3
_symmetry_space_group_name_H-M   'P 1'
_cell_length_a   11.06933200
_cell_length_b   11.16695154
_cell_length_c   14.23719680
_cell_angle_alpha   107.56456947
_cell_angle_beta   88.52966301
_cell_angle_gamma   119.20514804
_symmetry_Int_Tables_number   1
_chemical_formula_structural   Sc2CI3
_chemical_formula_sum   'Sc16 C8 I24'
_cell_volume   1448.81573014
_cell_formula_units_Z   8
loop_
 _symmetry_equiv_pos_site_id
 _symmetry_equiv_pos_as_xyz
  1  'x, y, z'
loop_
 _atom_site_type_symbol
 _atom_site_label
 _atom_site_symmetry_multiplicity
 _atom_site_fract_x
 _atom_site_fract_y
 _atom_site_fract_z
 _atom_site_occupancy
  Sc  Sc0  1  0.56466700  0.40659200  0.60190300  1
  Sc  Sc1  1  0.43533300  0.59340800  0.39809700  1
  Sc  Sc2  1  0.92483100  0.64440200  0.66289300  1
  Sc  Sc3  1  0.07516900  0.35559800  0.33710700  1
  Sc  Sc4  1  0.66350000  0.53272500  0.83677200  1
  Sc  Sc5  1  0.33650000  0.46727500  0.16322800  1
  Sc  Sc6  1  0.80591000  0.90988400  0.89261000  1
  Sc  Sc7  1  0.19409000  0.09011600  0.10739000  1
  Sc  Sc8  1  0.14906900  0.15897500  0.88125400  1
  Sc  Sc9  1  0.85093100  0.84102500  0.11874600  1
  Sc  Sc10  1  0.30408200  0.51848500  0.61961100  1
  Sc  Sc11  1  0.69591800  0.48151500  0.38038900  1
  Sc  Sc12  1  0.66146700  0.71590700  0.60456200  1
  Sc  Sc13  1  0.33853300  0.28409300  0.39543800  1
  Sc  Sc14  1  0.01299300  0.80540400  0.89961000  1
  Sc  Sc15  1  0.98700700  0.19459600  0.10039000  1
  C  C16  1  0.83026700  0.71275400  0.79179100  1
  C  C17  1  0.16973300  0.28724600  0.20820900  1
  C  C18  1  0.96017100  0.95797900  0.02918000  1
  C  C19  1  0.03982900  0.04202100  0.97082000  1
  C  C20  1  0.71880700  0.61302100  0.70811100  1
  C  C21  1  0.28119300  0.38697900  0.29188900  1
  C  C22  1  0.44912900  0.50297800  0.52996000  1
  C  C23  1  0.55087100  0.49702200  0.47004000  1
  I  I24  1  0.85858000  0.57945300  0.99963400  1
  I  I25  1  0.14142000  0.42054700  0.00036600  1
  I  I26  1  0.58124500  0.71480200  0.99361000  1
  I  I27  1  0.41875500  0.28519800  0.00639000  1
  I  I28  1  0.73014800  0.12725400  0.99360300  1
  I  I29  1  0.26985200  0.87274600  0.00639700  1
  I  I30  1  0.63668100  0.89762100  0.50650900  1
  I  I31  1  0.36331900  0.10237900  0.49349100  1
  I  I32  1  0.92187100  0.77024000  0.50714400  1
  I  I33  1  0.07812900  0.22976000  0.49285600  1
  I  I34  1  0.78502700  0.35804200  0.49898100  1
  I  I35  1  0.21497300  0.64195800  0.50101900  1
  I  I36  1  0.19624100  0.93123200  0.75113900  1
  I  I37  1  0.80375900  0.06876800  0.24886100  1
  I  I38  1  0.50507100  0.80219800  0.75607200  1
  I  I39  1  0.49492900  0.19780200  0.24392800  1
  I  I40  1  0.06210400  0.53084600  0.74950200  1
  I  I41  1  0.93789600  0.46915400  0.25049800  1
  I  I42  1  0.34828600  0.37808700  0.75244500  1
  I  I43  1  0.65171400  0.62191300  0.24755500  1
  I  I44  1  0.90755500  0.06489900  0.74531700  1
  I  I45  1  0.09244500  0.93510100  0.25468300  1
  I  I46  1  0.63011200  0.25981800  0.73814800  1
  I  I47  1  0.36988800  0.74018200  0.26185200  1
