# generated using pymatgen
data_BaNa2Nd2Si4CO15
_symmetry_space_group_name_H-M   'P 1'
_cell_length_a   7.05760600
_cell_length_b   13.61261300
_cell_length_c   14.18709300
_cell_angle_alpha   90.00000000
_cell_angle_beta   90.00000000
_cell_angle_gamma   90.00000000
_symmetry_Int_Tables_number   1
_chemical_formula_structural   BaNa2Nd2Si4CO15
_chemical_formula_sum   'Ba4 Na8 Nd8 Si16 C4 O60'
_cell_volume   1362.98891319
_cell_formula_units_Z   4
loop_
 _symmetry_equiv_pos_site_id
 _symmetry_equiv_pos_as_xyz
  1  'x, y, z'
loop_
 _atom_site_type_symbol
 _atom_site_label
 _atom_site_symmetry_multiplicity
 _atom_site_fract_x
 _atom_site_fract_y
 _atom_site_fract_z
 _atom_site_occupancy
  Ba  Ba0  1  0.41059000  0.25000000  0.14060300  1
  Ba  Ba1  1  0.91059000  0.75000000  0.35939700  1
  Ba  Ba2  1  0.08941000  0.25000000  0.64060300  1
  Ba  Ba3  1  0.58941000  0.75000000  0.85939700  1
  Na  Na4  1  0.76399600  0.96277600  0.47071400  1
  Na  Na5  1  0.23600400  0.03722400  0.52928600  1
  Na  Na6  1  0.26399600  0.46277600  0.02928600  1
  Na  Na7  1  0.76399600  0.53722400  0.47071400  1
  Na  Na8  1  0.73600400  0.53722400  0.97071400  1
  Na  Na9  1  0.23600400  0.46277600  0.52928600  1
  Na  Na10  1  0.26399600  0.03722400  0.02928600  1
  Na  Na11  1  0.73600400  0.96277600  0.97071400  1
  Nd  Nd12  1  0.88101800  0.94281200  0.71254300  1
  Nd  Nd13  1  0.38101800  0.05718800  0.78745700  1
  Nd  Nd14  1  0.11898200  0.44281200  0.28745700  1
  Nd  Nd15  1  0.61898200  0.94281200  0.21254300  1
  Nd  Nd16  1  0.61898200  0.55718800  0.21254300  1
  Nd  Nd17  1  0.38101800  0.44281200  0.78745700  1
  Nd  Nd18  1  0.11898200  0.05718800  0.28745700  1
  Nd  Nd19  1  0.88101800  0.55718800  0.71254300  1
  Si  Si20  1  0.11847800  0.86655600  0.14950400  1
  Si  Si21  1  0.38152200  0.86655600  0.64950400  1
  Si  Si22  1  0.61909400  0.13714400  0.57441600  1
  Si  Si23  1  0.88090600  0.13714400  0.07441600  1
  Si  Si24  1  0.38090600  0.86285600  0.42558400  1
  Si  Si25  1  0.61847800  0.36655600  0.35049600  1
  Si  Si26  1  0.38152200  0.63344400  0.64950400  1
  Si  Si27  1  0.38090600  0.63714400  0.42558400  1
  Si  Si28  1  0.88152200  0.13344400  0.85049600  1
  Si  Si29  1  0.11847800  0.63344400  0.14950400  1
  Si  Si30  1  0.11909400  0.63714400  0.92558400  1
  Si  Si31  1  0.88152200  0.36655600  0.85049600  1
  Si  Si32  1  0.11909400  0.86285600  0.92558400  1
  Si  Si33  1  0.61909400  0.36285600  0.57441600  1
  Si  Si34  1  0.61847800  0.13344400  0.35049600  1
  Si  Si35  1  0.88090600  0.36285600  0.07441600  1
  C  C36  1  0.87939300  0.75000000  0.59848000  1
  C  C37  1  0.62060700  0.75000000  0.09848000  1
  C  C38  1  0.37939300  0.25000000  0.90152000  1
  C  C39  1  0.12060700  0.25000000  0.40152000  1
  O  O40  1  0.05102200  0.10041300  0.77881900  1
  O  O41  1  0.94897800  0.89958700  0.22118100  1
  O  O42  1  0.55666800  0.38279800  0.46195300  1
  O  O43  1  0.86881800  0.75000000  0.69039400  1
  O  O44  1  0.61432600  0.83328100  0.05410500  1
  O  O45  1  0.20730200  0.75000000  0.91828200  1
  O  O46  1  0.55102200  0.60041300  0.72118100  1
  O  O47  1  0.57601600  0.87477200  0.36613100  1
  O  O48  1  0.57601600  0.62522800  0.36613100  1
  O  O49  1  0.63118200  0.75000000  0.19039400  1
  O  O50  1  0.38567400  0.16671900  0.94589500  1
  O  O51  1  0.29327100  0.56407800  0.89945500  1
  O  O52  1  0.94897800  0.60041300  0.22118100  1
  O  O53  1  0.44897800  0.10041300  0.27881900  1
  O  O54  1  0.29327100  0.93592200  0.89945500  1
  O  O55  1  0.70730200  0.25000000  0.58171800  1
  O  O56  1  0.88567400  0.83328100  0.55410500  1
  O  O57  1  0.29269800  0.75000000  0.41828200  1
  O  O58  1  0.70672900  0.43592200  0.10054500  1
  O  O59  1  0.13118200  0.25000000  0.30960600  1
  O  O60  1  0.20447400  0.93923200  0.67268300  1
  O  O61  1  0.94333200  0.11720200  0.96195300  1
  O  O62  1  0.20447400  0.56076800  0.67268300  1
  O  O63  1  0.79552600  0.06076800  0.32731700  1
  O  O64  1  0.07601600  0.37477200  0.13386900  1
  O  O65  1  0.11432600  0.16671900  0.44589500  1
  O  O66  1  0.16910800  0.75000000  0.16819000  1
  O  O67  1  0.42398400  0.12522800  0.63386900  1
  O  O68  1  0.05102200  0.39958700  0.77881900  1
  O  O69  1  0.36881800  0.25000000  0.80960600  1
  O  O70  1  0.61432600  0.66671900  0.05410500  1
  O  O71  1  0.66910800  0.25000000  0.33181000  1
  O  O72  1  0.92398400  0.62522800  0.86613100  1
  O  O73  1  0.20672900  0.56407800  0.39945500  1
  O  O74  1  0.11432600  0.33328100  0.44589500  1
  O  O75  1  0.29552600  0.56076800  0.17268300  1
  O  O76  1  0.29552600  0.93923200  0.17268300  1
  O  O77  1  0.79327100  0.43592200  0.60054500  1
  O  O78  1  0.20672900  0.93592200  0.39945500  1
  O  O79  1  0.38567400  0.33328100  0.94589500  1
  O  O80  1  0.70672900  0.06407800  0.10054500  1
  O  O81  1  0.33089200  0.75000000  0.66819000  1
  O  O82  1  0.05666800  0.88279800  0.03804700  1
  O  O83  1  0.55102200  0.89958700  0.72118100  1
  O  O84  1  0.44333200  0.61720200  0.53804700  1
  O  O85  1  0.94333200  0.38279800  0.96195300  1
  O  O86  1  0.79327100  0.06407800  0.60054500  1
  O  O87  1  0.05666800  0.61720200  0.03804700  1
  O  O88  1  0.79552600  0.43923200  0.32731700  1
  O  O89  1  0.07601600  0.12522800  0.13386900  1
  O  O90  1  0.55666800  0.11720200  0.46195300  1
  O  O91  1  0.44333200  0.88279800  0.53804700  1
  O  O92  1  0.83089200  0.25000000  0.83181000  1
  O  O93  1  0.92398400  0.87477200  0.86613100  1
  O  O94  1  0.42398400  0.37477200  0.63386900  1
  O  O95  1  0.88567400  0.66671900  0.55410500  1
  O  O96  1  0.70447400  0.06076800  0.82731700  1
  O  O97  1  0.70447400  0.43923200  0.82731700  1
  O  O98  1  0.79269800  0.25000000  0.08171800  1
  O  O99  1  0.44897800  0.39958700  0.27881900  1
