# generated using pymatgen
data_Nd3NbO7
_symmetry_space_group_name_H-M   'P 1'
_cell_length_a   7.68347000
_cell_length_b   7.77407800
_cell_length_c   10.98873700
_cell_angle_alpha   90.00000000
_cell_angle_beta   90.00000000
_cell_angle_gamma   90.00000000
_symmetry_Int_Tables_number   1
_chemical_formula_structural   Nd3NbO7
_chemical_formula_sum   'Nd12 Nb4 O28'
_cell_volume   656.37808566
_cell_formula_units_Z   4
loop_
 _symmetry_equiv_pos_site_id
 _symmetry_equiv_pos_as_xyz
  1  'x, y, z'
loop_
 _atom_site_type_symbol
 _atom_site_label
 _atom_site_symmetry_multiplicity
 _atom_site_fract_x
 _atom_site_fract_y
 _atom_site_fract_z
 _atom_site_occupancy
  Nd  Nd0  1  0.48688600  0.29544600  0.25000000  1
  Nd  Nd1  1  0.74938800  0.54223200  0.47625400  1
  Nd  Nd2  1  0.25061200  0.45776800  0.52374600  1
  Nd  Nd3  1  0.98688600  0.20455400  0.25000000  1
  Nd  Nd4  1  0.75061200  0.04223200  0.97625400  1
  Nd  Nd5  1  0.75061200  0.04223200  0.52374600  1
  Nd  Nd6  1  0.51311400  0.70455400  0.75000000  1
  Nd  Nd7  1  0.25061200  0.45776800  0.97625400  1
  Nd  Nd8  1  0.01311400  0.79544600  0.75000000  1
  Nd  Nd9  1  0.24938800  0.95776800  0.02374600  1
  Nd  Nd10  1  0.74938800  0.54223200  0.02374600  1
  Nd  Nd11  1  0.24938800  0.95776800  0.47625400  1
  Nb  Nb12  1  0.49508600  0.75369800  0.25000000  1
  Nb  Nb13  1  0.99508600  0.74630200  0.25000000  1
  Nb  Nb14  1  0.00491400  0.25369800  0.75000000  1
  Nb  Nb15  1  0.50491400  0.24630200  0.75000000  1
  O  O16  1  0.03551500  0.04999200  0.62681000  1
  O  O17  1  0.96448500  0.95000800  0.12681000  1
  O  O18  1  0.75266600  0.67096900  0.25000000  1
  O  O19  1  0.53551500  0.45000800  0.62681000  1
  O  O20  1  0.96448500  0.95000800  0.37319000  1
  O  O21  1  0.25613000  0.72939800  0.61707400  1
  O  O22  1  0.25266600  0.82903100  0.25000000  1
  O  O23  1  0.46448500  0.54999200  0.37319000  1
  O  O24  1  0.24387000  0.22939800  0.38292600  1
  O  O25  1  0.45761800  0.09347900  0.61348200  1
  O  O26  1  0.74387000  0.27060200  0.11707400  1
  O  O27  1  0.45761800  0.09347900  0.88651800  1
  O  O28  1  0.74387000  0.27060200  0.38292600  1
  O  O29  1  0.95761800  0.40652100  0.88651800  1
  O  O30  1  0.24733400  0.32903100  0.75000000  1
  O  O31  1  0.54238200  0.90652100  0.38651800  1
  O  O32  1  0.04238200  0.59347900  0.11348200  1
  O  O33  1  0.95761800  0.40652100  0.61348200  1
  O  O34  1  0.24387000  0.22939800  0.11707400  1
  O  O35  1  0.54238200  0.90652100  0.11348200  1
  O  O36  1  0.74733400  0.17096900  0.75000000  1
  O  O37  1  0.46448500  0.54999200  0.12681000  1
  O  O38  1  0.75613000  0.77060200  0.88292600  1
  O  O39  1  0.25613000  0.72939800  0.88292600  1
  O  O40  1  0.53551500  0.45000800  0.87319000  1
  O  O41  1  0.04238200  0.59347900  0.38651800  1
  O  O42  1  0.75613000  0.77060200  0.61707400  1
  O  O43  1  0.03551500  0.04999200  0.87319000  1
