# generated using pymatgen
data_Cs3Nd(MoO4)3
_symmetry_space_group_name_H-M   'P 1'
_cell_length_a   6.52583700
_cell_length_b   9.53602500
_cell_length_c   26.42226400
_cell_angle_alpha   90.00000000
_cell_angle_beta   90.00000000
_cell_angle_gamma   90.00000000
_symmetry_Int_Tables_number   1
_chemical_formula_structural   Cs3Nd(MoO4)3
_chemical_formula_sum   'Cs12 Nd4 Mo12 O48'
_cell_volume   1644.27188299
_cell_formula_units_Z   4
loop_
 _symmetry_equiv_pos_site_id
 _symmetry_equiv_pos_as_xyz
  1  'x, y, z'
loop_
 _atom_site_type_symbol
 _atom_site_label
 _atom_site_symmetry_multiplicity
 _atom_site_fract_x
 _atom_site_fract_y
 _atom_site_fract_z
 _atom_site_occupancy
  Cs  Cs0  1  0.25000000  0.02471700  0.40788200  1
  Cs  Cs1  1  0.25000000  0.52471700  0.09211800  1
  Cs  Cs2  1  0.75000000  0.97528300  0.59211800  1
  Cs  Cs3  1  0.75000000  0.47528300  0.90788200  1
  Cs  Cs4  1  0.25000000  0.10385400  0.82009800  1
  Cs  Cs5  1  0.25000000  0.60385400  0.67990200  1
  Cs  Cs6  1  0.75000000  0.89614600  0.17990200  1
  Cs  Cs7  1  0.75000000  0.39614600  0.32009800  1
  Cs  Cs8  1  0.25000000  0.18842500  0.24101500  1
  Cs  Cs9  1  0.25000000  0.68842500  0.25898500  1
  Cs  Cs10  1  0.75000000  0.81157500  0.75898500  1
  Cs  Cs11  1  0.75000000  0.31157500  0.74101500  1
  Nd  Nd12  1  0.25000000  0.31852500  0.54075400  1
  Nd  Nd13  1  0.25000000  0.81852500  0.95924600  1
  Nd  Nd14  1  0.75000000  0.68147500  0.45924600  1
  Nd  Nd15  1  0.75000000  0.18147500  0.04075400  1
  Mo  Mo16  1  0.25000000  0.75271600  0.52419500  1
  Mo  Mo17  1  0.25000000  0.25271600  0.97580500  1
  Mo  Mo18  1  0.75000000  0.24728400  0.47580500  1
  Mo  Mo19  1  0.75000000  0.74728400  0.02419500  1
  Mo  Mo20  1  0.25000000  0.48061300  0.40055000  1
  Mo  Mo21  1  0.25000000  0.98061300  0.09945000  1
  Mo  Mo22  1  0.75000000  0.51938700  0.59945000  1
  Mo  Mo23  1  0.75000000  0.01938700  0.90055000  1
  Mo  Mo24  1  0.25000000  0.11524100  0.67430600  1
  Mo  Mo25  1  0.25000000  0.61524100  0.82569400  1
  Mo  Mo26  1  0.75000000  0.88475900  0.32569400  1
  Mo  Mo27  1  0.75000000  0.38475900  0.17430600  1
  O  O28  1  0.25000000  0.80169700  0.58848100  1
  O  O29  1  0.25000000  0.30169700  0.91151900  1
  O  O30  1  0.75000000  0.19830300  0.41151900  1
  O  O31  1  0.75000000  0.69830300  0.08848100  1
  O  O32  1  0.47393800  0.82165400  0.49214400  1
  O  O33  1  0.02606200  0.32165400  0.00785600  1
  O  O34  1  0.97393800  0.17834600  0.50785600  1
  O  O35  1  0.52606200  0.67834600  0.99214400  1
  O  O36  1  0.52606200  0.17834600  0.50785600  1
  O  O37  1  0.97393800  0.67834600  0.99214400  1
  O  O38  1  0.02606200  0.82165400  0.49214400  1
  O  O39  1  0.47393800  0.32165400  0.00785600  1
  O  O40  1  0.25000000  0.56409500  0.51875400  1
  O  O41  1  0.25000000  0.06409500  0.98124600  1
  O  O42  1  0.75000000  0.43590500  0.48124600  1
  O  O43  1  0.75000000  0.93590500  0.01875400  1
  O  O44  1  0.25000000  0.40399500  0.33871400  1
  O  O45  1  0.25000000  0.90399500  0.16128600  1
  O  O46  1  0.75000000  0.59600500  0.66128600  1
  O  O47  1  0.75000000  0.09600500  0.83871400  1
  O  O48  1  0.25000000  0.34181700  0.44641700  1
  O  O49  1  0.25000000  0.84181700  0.05358300  1
  O  O50  1  0.75000000  0.65818300  0.55358300  1
  O  O51  1  0.75000000  0.15818300  0.94641700  1
  O  O52  1  0.47904200  0.58581100  0.40587500  1
  O  O53  1  0.02095800  0.08581100  0.09412500  1
  O  O54  1  0.97904200  0.41418900  0.59412500  1
  O  O55  1  0.52095800  0.91418900  0.90587500  1
  O  O56  1  0.52095800  0.41418900  0.59412500  1
  O  O57  1  0.97904200  0.91418900  0.90587500  1
  O  O58  1  0.02095800  0.58581100  0.40587500  1
  O  O59  1  0.47904200  0.08581100  0.09412500  1
  O  O60  1  0.02408000  0.02142400  0.69332500  1
  O  O61  1  0.47592000  0.52142400  0.80667500  1
  O  O62  1  0.52408000  0.97857600  0.30667500  1
  O  O63  1  0.97592000  0.47857600  0.19332500  1
  O  O64  1  0.97592000  0.97857600  0.30667500  1
  O  O65  1  0.52408000  0.47857600  0.19332500  1
  O  O66  1  0.47592000  0.02142400  0.69332500  1
  O  O67  1  0.02408000  0.52142400  0.80667500  1
  O  O68  1  0.25000000  0.27911800  0.70784300  1
  O  O69  1  0.25000000  0.77911800  0.79215700  1
  O  O70  1  0.75000000  0.72088200  0.29215700  1
  O  O71  1  0.75000000  0.22088200  0.20784300  1
  O  O72  1  0.25000000  0.14733100  0.60615300  1
  O  O73  1  0.25000000  0.64733100  0.89384700  1
  O  O74  1  0.75000000  0.85266900  0.39384700  1
  O  O75  1  0.75000000  0.35266900  0.10615300  1
