# generated using pymatgen
data_Cs3TlF6
_symmetry_space_group_name_H-M   'P 1'
_cell_length_a   7.19683251
_cell_length_b   7.19683251
_cell_length_c   7.19683251
_cell_angle_alpha   120.89329602
_cell_angle_beta   120.89329602
_cell_angle_gamma   88.45960655
_symmetry_Int_Tables_number   1
_chemical_formula_structural   Cs3TlF6
_chemical_formula_sum   'Cs3 Tl1 F6'
_cell_volume   259.91720934
_cell_formula_units_Z   1
loop_
 _symmetry_equiv_pos_site_id
 _symmetry_equiv_pos_as_xyz
  1  'x, y, z'
loop_
 _atom_site_type_symbol
 _atom_site_label
 _atom_site_symmetry_multiplicity
 _atom_site_fract_x
 _atom_site_fract_y
 _atom_site_fract_z
 _atom_site_occupancy
  Cs  Cs0  1  0.50000000  0.50000000  0.00000000  1
  Cs  Cs1  1  0.25000000  0.75000000  0.50000000  1
  Cs  Cs2  1  0.75000000  0.25000000  0.50000000  1
  Tl  Tl3  1  0.00000000  0.00000000  0.00000000  1
  F  F4  1  0.69406600  0.00000000  0.69406600  1
  F  F5  1  0.77703800  0.77703800  0.00000000  1
  F  F6  1  0.00000000  0.69406600  0.69406600  1
  F  F7  1  0.22296200  0.22296200  0.00000000  1
  F  F8  1  0.30593400  0.00000000  0.30593400  1
  F  F9  1  0.00000000  0.30593400  0.30593400  1
