# generated using pymatgen
data_Ca4Si2O7F2
_symmetry_space_group_name_H-M   'P 1'
_cell_length_a   10.62534300
_cell_length_b   7.59567500
_cell_length_c   11.04787642
_cell_angle_alpha   70.53525619
_cell_angle_beta   90.00000000
_cell_angle_gamma   90.00000000
_symmetry_Int_Tables_number   1
_chemical_formula_structural   Ca4Si2O7F2
_chemical_formula_sum   'Ca16 Si8 O28 F8'
_cell_volume   840.67713005
_cell_formula_units_Z   4
loop_
 _symmetry_equiv_pos_site_id
 _symmetry_equiv_pos_as_xyz
  1  'x, y, z'
loop_
 _atom_site_type_symbol
 _atom_site_label
 _atom_site_symmetry_multiplicity
 _atom_site_fract_x
 _atom_site_fract_y
 _atom_site_fract_z
 _atom_site_occupancy
  Ca  Ca0  1  0.86634800  0.66324100  0.41641400  1
  Ca  Ca1  1  0.63365200  0.66324100  0.91641400  1
  Ca  Ca2  1  0.90267000  0.96891100  0.80106900  1
  Ca  Ca3  1  0.36288900  0.83149100  0.07244000  1
  Ca  Ca4  1  0.63711100  0.16850900  0.92756000  1
  Ca  Ca5  1  0.40267000  0.03108900  0.69893100  1
  Ca  Ca6  1  0.91285300  0.47092500  0.81523500  1
  Ca  Ca7  1  0.59733000  0.96891100  0.30106900  1
  Ca  Ca8  1  0.09733000  0.03108900  0.19893100  1
  Ca  Ca9  1  0.13365200  0.33675900  0.58358600  1
  Ca  Ca10  1  0.08714700  0.52907500  0.18476500  1
  Ca  Ca11  1  0.41285300  0.52907500  0.68476500  1
  Ca  Ca12  1  0.86288900  0.16850900  0.42756000  1
  Ca  Ca13  1  0.58714700  0.47092500  0.31523500  1
  Ca  Ca14  1  0.36634800  0.33675900  0.08358600  1
  Ca  Ca15  1  0.13711100  0.83149100  0.57244000  1
  Si  Si16  1  0.19065200  0.72625600  0.86775600  1
  Si  Si17  1  0.69065200  0.27374400  0.63224400  1
  Si  Si18  1  0.18881000  0.15245700  0.87675500  1
  Si  Si19  1  0.81119000  0.84754300  0.12324500  1
  Si  Si20  1  0.68881000  0.84754300  0.62324500  1
  Si  Si21  1  0.80934800  0.27374400  0.13224400  1
  Si  Si22  1  0.30934800  0.72625600  0.36775600  1
  Si  Si23  1  0.31119000  0.15245700  0.37675500  1
  O  O24  1  0.04130900  0.19712400  0.83892300  1
  O  O25  1  0.04239800  0.71451200  0.83579800  1
  O  O26  1  0.54239800  0.28548800  0.66420200  1
  O  O27  1  0.72375200  0.27111700  0.25635000  1
  O  O28  1  0.27693800  0.27820800  0.75814100  1
  O  O29  1  0.77350200  0.06415200  0.12088400  1
  O  O30  1  0.54130900  0.80287600  0.66107700  1
  O  O31  1  0.72649800  0.06415200  0.62088400  1
  O  O32  1  0.72306200  0.72179200  0.24185900  1
  O  O33  1  0.73613300  0.41045200  0.49120300  1
  O  O34  1  0.76386700  0.41045200  0.99120300  1
  O  O35  1  0.22375200  0.72888300  0.24365000  1
  O  O36  1  0.77693800  0.72179200  0.74185900  1
  O  O37  1  0.26824000  0.14018800  0.52169300  1
  O  O38  1  0.27624800  0.72888300  0.74365000  1
  O  O39  1  0.23176000  0.14018800  0.02169300  1
  O  O40  1  0.22306200  0.27820800  0.25814100  1
  O  O41  1  0.23613300  0.58954800  0.00879700  1
  O  O42  1  0.73176000  0.85981200  0.47830700  1
  O  O43  1  0.95869100  0.80287600  0.16107700  1
  O  O44  1  0.77624800  0.27111700  0.75635000  1
  O  O45  1  0.76824000  0.85981200  0.97830700  1
  O  O46  1  0.27350200  0.93584800  0.37911600  1
  O  O47  1  0.22649800  0.93584800  0.87911600  1
  O  O48  1  0.45760200  0.71451200  0.33579800  1
  O  O49  1  0.95760200  0.28548800  0.16420200  1
  O  O50  1  0.45869100  0.19712400  0.33892300  1
  O  O51  1  0.26386700  0.58954800  0.50879700  1
  F  F52  1  0.49991300  0.42437200  0.89636400  1
  F  F53  1  0.00518000  0.07011200  0.60237100  1
  F  F54  1  0.99482000  0.92988800  0.39762900  1
  F  F55  1  0.00008700  0.42437200  0.39636400  1
  F  F56  1  0.50518000  0.92988800  0.89762900  1
  F  F57  1  0.49482000  0.07011200  0.10237100  1
  F  F58  1  0.50008700  0.57562800  0.10363600  1
  F  F59  1  0.99991300  0.57562800  0.60363600  1
