# generated using pymatgen
data_BaRuO3
_symmetry_space_group_name_H-M   'P 1'
_cell_length_a   8.04637573
_cell_length_b   8.04637573
_cell_length_c   8.04637643
_cell_angle_alpha   42.49157109
_cell_angle_beta   42.49157109
_cell_angle_gamma   42.49157093
_symmetry_Int_Tables_number   1
_chemical_formula_structural   BaRuO3
_chemical_formula_sum   'Ba3 Ru3 O9'
_cell_volume   215.22868742
_cell_formula_units_Z   3
loop_
 _symmetry_equiv_pos_site_id
 _symmetry_equiv_pos_as_xyz
  1  'x, y, z'
loop_
 _atom_site_type_symbol
 _atom_site_label
 _atom_site_symmetry_multiplicity
 _atom_site_fract_x
 _atom_site_fract_y
 _atom_site_fract_z
 _atom_site_occupancy
  Ba  Ba0  1  0.78057200  0.78057200  0.78057200  1
  Ba  Ba1  1  0.21942800  0.21942800  0.21942800  1
  Ba  Ba2  1  0.00000000  0.00000000  0.00000000  1
  Ru  Ru3  1  0.61708400  0.61708400  0.61708400  1
  Ru  Ru4  1  0.38291600  0.38291600  0.38291600  1
  Ru  Ru5  1  0.50000000  0.50000000  0.50000000  1
  O  O6  1  0.24770000  0.71397300  0.71397300  1
  O  O7  1  0.71397300  0.24770000  0.71397300  1
  O  O8  1  0.71397300  0.71397300  0.24770000  1
  O  O9  1  0.75230000  0.28602700  0.28602700  1
  O  O10  1  0.28602700  0.75230000  0.28602700  1
  O  O11  1  0.28602700  0.28602700  0.75230000  1
  O  O12  1  0.50000000  0.50000000  0.00000000  1
  O  O13  1  0.50000000  0.00000000  0.50000000  1
  O  O14  1  0.00000000  0.50000000  0.50000000  1
