# generated using pymatgen
data_CsSmGeS4
_symmetry_space_group_name_H-M   'P 1'
_cell_length_a   6.59068300
_cell_length_b   6.86142500
_cell_length_c   18.08606300
_cell_angle_alpha   90.00000000
_cell_angle_beta   90.00000000
_cell_angle_gamma   90.00000000
_symmetry_Int_Tables_number   1
_chemical_formula_structural   CsSmGeS4
_chemical_formula_sum   'Cs4 Sm4 Ge4 S16'
_cell_volume   817.87848384
_cell_formula_units_Z   4
loop_
 _symmetry_equiv_pos_site_id
 _symmetry_equiv_pos_as_xyz
  1  'x, y, z'
loop_
 _atom_site_type_symbol
 _atom_site_label
 _atom_site_symmetry_multiplicity
 _atom_site_fract_x
 _atom_site_fract_y
 _atom_site_fract_z
 _atom_site_occupancy
  Cs  Cs0  1  0.49472100  0.99388600  0.53229300  1
  Cs  Cs1  1  0.50527900  0.49388600  0.96770700  1
  Cs  Cs2  1  0.00527900  0.00611400  0.03229300  1
  Cs  Cs3  1  0.99472100  0.50611400  0.46770700  1
  Sm  Sm4  1  0.70693100  0.48024400  0.22745900  1
  Sm  Sm5  1  0.79306900  0.51975600  0.72745900  1
  Sm  Sm6  1  0.20693100  0.01975600  0.77254100  1
  Sm  Sm7  1  0.29306900  0.98024400  0.27254100  1
  Ge  Ge8  1  0.20828800  0.51511400  0.16671400  1
  Ge  Ge9  1  0.70828800  0.98488600  0.83328600  1
  Ge  Ge10  1  0.79171200  0.01511400  0.33328600  1
  Ge  Ge11  1  0.29171200  0.48488600  0.66671400  1
  S  S12  1  0.89874200  0.08079200  0.21899100  1
  S  S13  1  0.60039600  0.74651600  0.34470900  1
  S  S14  1  0.39874200  0.41920800  0.78100900  1
  S  S15  1  0.89960400  0.25348400  0.84470900  1
  S  S16  1  0.43772400  0.75061000  0.14701300  1
  S  S17  1  0.39960400  0.24651600  0.15529100  1
  S  S18  1  0.10039600  0.75348400  0.65529100  1
  S  S19  1  0.93772400  0.74939000  0.85298700  1
  S  S20  1  0.06227600  0.24939000  0.64701300  1
  S  S21  1  0.94051100  0.51143300  0.09360400  1
  S  S22  1  0.56227600  0.25060900  0.35298700  1
  S  S23  1  0.10125800  0.58079200  0.28100900  1
  S  S24  1  0.60125800  0.91920800  0.71899100  1
  S  S25  1  0.55948900  0.48856700  0.59360400  1
  S  S26  1  0.44051100  0.98856700  0.90639600  1
  S  S27  1  0.05948900  0.01143300  0.40639600  1
