# generated using pymatgen
data_Ba2TaBiO6
_symmetry_space_group_name_H-M   'P 1'
_cell_length_a   6.10526149
_cell_length_b   6.10526149
_cell_length_c   6.16693836
_cell_angle_alpha   59.99140940
_cell_angle_beta   59.99140940
_cell_angle_gamma   60.01537219
_symmetry_Int_Tables_number   1
_chemical_formula_structural   Ba2TaBiO6
_chemical_formula_sum   'Ba2 Ta1 Bi1 O6'
_cell_volume   162.53884192
_cell_formula_units_Z   1
loop_
 _symmetry_equiv_pos_site_id
 _symmetry_equiv_pos_as_xyz
  1  'x, y, z'
loop_
 _atom_site_type_symbol
 _atom_site_label
 _atom_site_symmetry_multiplicity
 _atom_site_fract_x
 _atom_site_fract_y
 _atom_site_fract_z
 _atom_site_occupancy
  Ba  Ba0  1  0.75092900  0.75092900  0.24493600  1
  Ba  Ba1  1  0.24907100  0.24907100  0.75506400  1
  Ta  Ta2  1  0.50000000  0.50000000  0.00000000  1
  Bi  Bi3  1  0.00000000  0.00000000  0.50000000  1
  O  O4  1  0.30057600  0.76522000  0.19473000  1
  O  O5  1  0.69942400  0.23478000  0.80527000  1
  O  O6  1  0.76522000  0.30057600  0.19473000  1
  O  O7  1  0.72913600  0.72913600  0.71060900  1
  O  O8  1  0.23478000  0.69942400  0.80527000  1
  O  O9  1  0.27086400  0.27086400  0.28939100  1
