# generated using pymatgen
data_K3NaRe2O9
_symmetry_space_group_name_H-M   'P 1'
_cell_length_a   6.12574630
_cell_length_b   6.12574630
_cell_length_c   14.55116300
_cell_angle_alpha   90.00000000
_cell_angle_beta   90.00000000
_cell_angle_gamma   120.00000324
_symmetry_Int_Tables_number   1
_chemical_formula_structural   K3NaRe2O9
_chemical_formula_sum   'K6 Na2 Re4 O18'
_cell_volume   472.87498003
_cell_formula_units_Z   2
loop_
 _symmetry_equiv_pos_site_id
 _symmetry_equiv_pos_as_xyz
  1  'x, y, z'
loop_
 _atom_site_type_symbol
 _atom_site_label
 _atom_site_symmetry_multiplicity
 _atom_site_fract_x
 _atom_site_fract_y
 _atom_site_fract_z
 _atom_site_occupancy
  K  K0  1  0.00000000  0.00000000  0.25000000  1
  K  K1  1  0.00000000  0.00000000  0.75000000  1
  K  K2  1  0.33333300  0.66666700  0.11646000  1
  K  K3  1  0.66666700  0.33333300  0.61646000  1
  K  K4  1  0.66666700  0.33333300  0.88354000  1
  K  K5  1  0.33333300  0.66666700  0.38354000  1
  Na  Na6  1  0.00000000  0.00000000  0.00000000  1
  Na  Na7  1  0.00000000  0.00000000  0.50000000  1
  Re  Re8  1  0.33333300  0.66666700  0.85085400  1
  Re  Re9  1  0.66666700  0.33333300  0.35085400  1
  Re  Re10  1  0.66666700  0.33333300  0.14914600  1
  Re  Re11  1  0.33333300  0.66666700  0.64914600  1
  O  O12  1  0.53078400  0.06156700  0.25000000  1
  O  O13  1  0.46921600  0.53078400  0.75000000  1
  O  O14  1  0.06156700  0.53078400  0.75000000  1
  O  O15  1  0.93843300  0.46921600  0.25000000  1
  O  O16  1  0.53078400  0.46921600  0.25000000  1
  O  O17  1  0.46921600  0.93843300  0.75000000  1
  O  O18  1  0.36582300  0.18291100  0.09357300  1
  O  O19  1  0.18291100  0.36582300  0.59357300  1
  O  O20  1  0.18291100  0.81708900  0.59357300  1
  O  O21  1  0.81708900  0.18291100  0.09357300  1
  O  O22  1  0.81708900  0.63417700  0.09357300  1
  O  O23  1  0.18291100  0.81708900  0.90642700  1
  O  O24  1  0.63417700  0.81708900  0.90642700  1
  O  O25  1  0.63417700  0.81708900  0.59357300  1
  O  O26  1  0.18291100  0.36582300  0.90642700  1
  O  O27  1  0.81708900  0.63417700  0.40642700  1
  O  O28  1  0.81708900  0.18291100  0.40642700  1
  O  O29  1  0.36582300  0.18291100  0.40642700  1
