# generated using pymatgen
data_Mo6PbCl14
_symmetry_space_group_name_H-M   'P 1'
_cell_length_a   13.08628700
_cell_length_b   13.08628700
_cell_length_c   13.08628700
_cell_angle_alpha   90.00000000
_cell_angle_beta   90.00000000
_cell_angle_gamma   90.00000000
_symmetry_Int_Tables_number   1
_chemical_formula_structural   Mo6PbCl14
_chemical_formula_sum   'Mo24 Pb4 Cl56'
_cell_volume   2241.03852385
_cell_formula_units_Z   4
loop_
 _symmetry_equiv_pos_site_id
 _symmetry_equiv_pos_as_xyz
  1  'x, y, z'
loop_
 _atom_site_type_symbol
 _atom_site_label
 _atom_site_symmetry_multiplicity
 _atom_site_fract_x
 _atom_site_fract_y
 _atom_site_fract_z
 _atom_site_occupancy
  Mo  Mo0  1  0.78733300  0.11538500  0.27901000  1
  Mo  Mo1  1  0.27901000  0.78733300  0.11538500  1
  Mo  Mo2  1  0.61538500  0.22099000  0.28733300  1
  Mo  Mo3  1  0.11538500  0.72099000  0.21266700  1
  Mo  Mo4  1  0.72099000  0.21266700  0.11538500  1
  Mo  Mo5  1  0.88461500  0.72099000  0.78733300  1
  Mo  Mo6  1  0.38461500  0.22099000  0.71266700  1
  Mo  Mo7  1  0.22099000  0.28733300  0.61538500  1
  Mo  Mo8  1  0.72099000  0.78733300  0.88461500  1
  Mo  Mo9  1  0.78733300  0.88461500  0.72099000  1
  Mo  Mo10  1  0.61538500  0.77901000  0.71266700  1
  Mo  Mo11  1  0.77901000  0.71266700  0.61538500  1
  Mo  Mo12  1  0.71266700  0.38461500  0.22099000  1
  Mo  Mo13  1  0.88461500  0.27901000  0.21266700  1
  Mo  Mo14  1  0.77901000  0.28733300  0.38461500  1
  Mo  Mo15  1  0.28733300  0.61538500  0.22099000  1
  Mo  Mo16  1  0.71266700  0.61538500  0.77901000  1
  Mo  Mo17  1  0.22099000  0.71266700  0.38461500  1
  Mo  Mo18  1  0.27901000  0.21266700  0.88461500  1
  Mo  Mo19  1  0.11538500  0.27901000  0.78733300  1
  Mo  Mo20  1  0.28733300  0.38461500  0.77901000  1
  Mo  Mo21  1  0.38461500  0.77901000  0.28733300  1
  Mo  Mo22  1  0.21266700  0.88461500  0.27901000  1
  Mo  Mo23  1  0.21266700  0.11538500  0.72099000  1
  Pb  Pb24  1  0.75000000  0.75000000  0.25000000  1
  Pb  Pb25  1  0.25000000  0.25000000  0.25000000  1
  Pb  Pb26  1  0.25000000  0.75000000  0.75000000  1
  Pb  Pb27  1  0.75000000  0.25000000  0.75000000  1
  Cl  Cl28  1  0.93955200  0.67805500  0.15890800  1
  Cl  Cl29  1  0.93852600  0.81363600  0.62964200  1
  Cl  Cl30  1  0.18636400  0.62964200  0.06147400  1
  Cl  Cl31  1  0.56147400  0.31363600  0.12964200  1
  Cl  Cl32  1  0.17805500  0.65890800  0.56044800  1
  Cl  Cl33  1  0.84109200  0.93955200  0.32194500  1
  Cl  Cl34  1  0.06147400  0.18636400  0.62964200  1
  Cl  Cl35  1  0.56044800  0.82194500  0.34109200  1
  Cl  Cl36  1  0.32194500  0.84109200  0.93955200  1
  Cl  Cl37  1  0.68636400  0.87035800  0.56147400  1
  Cl  Cl38  1  0.43955200  0.82194500  0.65890800  1
  Cl  Cl39  1  0.31363600  0.87035800  0.43852600  1
  Cl  Cl40  1  0.11463500  0.88536500  0.11463500  1
  Cl  Cl41  1  0.62964200  0.06147400  0.18636400  1
  Cl  Cl42  1  0.61463500  0.61463500  0.61463500  1
  Cl  Cl43  1  0.68636400  0.12964200  0.43852600  1
  Cl  Cl44  1  0.37035800  0.93852600  0.18636400  1
  Cl  Cl45  1  0.34109200  0.56044800  0.82194500  1
  Cl  Cl46  1  0.43955200  0.17805500  0.34109200  1
  Cl  Cl47  1  0.88536500  0.11463500  0.11463500  1
  Cl  Cl48  1  0.12964200  0.43852600  0.68636400  1
  Cl  Cl49  1  0.82194500  0.34109200  0.56044800  1
  Cl  Cl50  1  0.43852600  0.68636400  0.12964200  1
  Cl  Cl51  1  0.06044800  0.32194500  0.15890800  1
  Cl  Cl52  1  0.17805500  0.34109200  0.43955200  1
  Cl  Cl53  1  0.43852600  0.31363600  0.87035800  1
  Cl  Cl54  1  0.37035800  0.06147400  0.81363600  1
  Cl  Cl55  1  0.82194500  0.65890800  0.43955200  1
  Cl  Cl56  1  0.11463500  0.11463500  0.88536500  1
  Cl  Cl57  1  0.15890800  0.06044800  0.32194500  1
  Cl  Cl58  1  0.67805500  0.15890800  0.93955200  1
  Cl  Cl59  1  0.18636400  0.37035800  0.93852600  1
  Cl  Cl60  1  0.93955200  0.32194500  0.84109200  1
  Cl  Cl61  1  0.81363600  0.37035800  0.06147400  1
  Cl  Cl62  1  0.88536500  0.88536500  0.88536500  1
  Cl  Cl63  1  0.87035800  0.43852600  0.31363600  1
  Cl  Cl64  1  0.12964200  0.56147400  0.31363600  1
  Cl  Cl65  1  0.56044800  0.17805500  0.65890800  1
  Cl  Cl66  1  0.06147400  0.81363600  0.37035800  1
  Cl  Cl67  1  0.65890800  0.43955200  0.82194500  1
  Cl  Cl68  1  0.56147400  0.68636400  0.87035800  1
  Cl  Cl69  1  0.31363600  0.12964200  0.56147400  1
  Cl  Cl70  1  0.87035800  0.56147400  0.68636400  1
  Cl  Cl71  1  0.15890800  0.93955200  0.67805500  1
  Cl  Cl72  1  0.06044800  0.67805500  0.84109200  1
  Cl  Cl73  1  0.84109200  0.06044800  0.67805500  1
  Cl  Cl74  1  0.34109200  0.43955200  0.17805500  1
  Cl  Cl75  1  0.61463500  0.38536500  0.38536500  1
  Cl  Cl76  1  0.67805500  0.84109200  0.06044800  1
  Cl  Cl77  1  0.32194500  0.15890800  0.06044800  1
  Cl  Cl78  1  0.62964200  0.93852600  0.81363600  1
  Cl  Cl79  1  0.65890800  0.56044800  0.17805500  1
  Cl  Cl80  1  0.38536500  0.38536500  0.61463500  1
  Cl  Cl81  1  0.38536500  0.61463500  0.38536500  1
  Cl  Cl82  1  0.93852600  0.18636400  0.37035800  1
  Cl  Cl83  1  0.81363600  0.62964200  0.93852600  1
