# generated using pymatgen
data_Na4Ni3P4O15
_symmetry_space_group_name_H-M   'P 1'
_cell_length_a   6.56617000
_cell_length_b   10.50862600
_cell_length_c   18.23815700
_cell_angle_alpha   90.00000000
_cell_angle_beta   90.00000000
_cell_angle_gamma   90.00000000
_symmetry_Int_Tables_number   1
_chemical_formula_structural   Na4Ni3P4O15
_chemical_formula_sum   'Na16 Ni12 P16 O60'
_cell_volume   1258.45881841
_cell_formula_units_Z   4
loop_
 _symmetry_equiv_pos_site_id
 _symmetry_equiv_pos_as_xyz
  1  'x, y, z'
loop_
 _atom_site_type_symbol
 _atom_site_label
 _atom_site_symmetry_multiplicity
 _atom_site_fract_x
 _atom_site_fract_y
 _atom_site_fract_z
 _atom_site_occupancy
  Na  Na0  1  0.33741800  0.45866400  0.53854200  1
  Na  Na1  1  0.58948700  0.73616100  0.60948600  1
  Na  Na2  1  0.65364100  0.75087800  0.79742900  1
  Na  Na3  1  0.18995200  0.47546300  0.00647100  1
  Na  Na4  1  0.83741800  0.54133600  0.46145800  1
  Na  Na5  1  0.08948700  0.26383900  0.39051400  1
  Na  Na6  1  0.18995200  0.02453700  0.50647100  1
  Na  Na7  1  0.68995200  0.52453700  0.99352900  1
  Na  Na8  1  0.15364100  0.24912200  0.20257100  1
  Na  Na9  1  0.08948700  0.23616100  0.89051400  1
  Na  Na10  1  0.58948700  0.76383900  0.10948600  1
  Na  Na11  1  0.83741800  0.95866400  0.96145800  1
  Na  Na12  1  0.68995200  0.97546300  0.49352900  1
  Na  Na13  1  0.15364100  0.25087800  0.70257100  1
  Na  Na14  1  0.65364100  0.74912200  0.29742900  1
  Na  Na15  1  0.33741800  0.04133600  0.03854200  1
  Ni  Ni16  1  0.41440900  0.50467800  0.86137400  1
  Ni  Ni17  1  0.90344800  0.00361600  0.16999400  1
  Ni  Ni18  1  0.40344800  0.99638400  0.83000600  1
  Ni  Ni19  1  0.67886100  0.24432100  0.26088600  1
  Ni  Ni20  1  0.91440900  0.49532200  0.13862600  1
  Ni  Ni21  1  0.17886100  0.75567900  0.73911400  1
  Ni  Ni22  1  0.90344800  0.49638400  0.66999400  1
  Ni  Ni23  1  0.17886100  0.74432100  0.23911400  1
  Ni  Ni24  1  0.91440900  0.00467800  0.63862600  1
  Ni  Ni25  1  0.67886100  0.25567900  0.76088600  1
  Ni  Ni26  1  0.40344800  0.50361600  0.33000600  1
  Ni  Ni27  1  0.41440900  0.99532200  0.36137400  1
  P  P28  1  0.42141100  0.01131600  0.67909100  1
  P  P29  1  0.86816000  0.27400000  0.54958200  1
  P  P30  1  0.05651700  0.76551400  0.07066200  1
  P  P31  1  0.55651700  0.26551400  0.42933800  1
  P  P32  1  0.92141100  0.51131600  0.82090900  1
  P  P33  1  0.91077800  0.99742400  0.78965800  1
  P  P34  1  0.86816000  0.22600000  0.04958200  1
  P  P35  1  0.05651700  0.73448600  0.57066200  1
  P  P36  1  0.92141100  0.98868400  0.32090900  1
  P  P37  1  0.41077800  0.49742400  0.71034200  1
  P  P38  1  0.91077800  0.50257600  0.28965800  1
  P  P39  1  0.42141100  0.48868400  0.17909100  1
  P  P40  1  0.36816000  0.72600000  0.45041800  1
  P  P41  1  0.41077800  0.00257600  0.21034200  1
  P  P42  1  0.36816000  0.77400000  0.95041800  1
  P  P43  1  0.55651700  0.23448600  0.92933800  1
  O  O44  1  0.23087500  0.74087700  0.62563400  1
  O  O45  1  0.22291500  0.46282400  0.66341900  1
  O  O46  1  0.44921200  0.11366000  0.26712600  1
  O  O47  1  0.02349500  0.34951800  0.50574400  1
  O  O48  1  0.59238400  0.97524100  0.16026000  1
  O  O49  1  0.09238400  0.47524100  0.33974000  1
  O  O50  1  0.94921200  0.88634000  0.73287400  1
  O  O51  1  0.37904600  0.61488600  0.76314600  1
  O  O52  1  0.59238400  0.52475900  0.66026000  1
  O  O53  1  0.02349500  0.15048200  0.00574400  1
  O  O54  1  0.44677700  0.13742300  0.44084000  1
  O  O55  1  0.87904600  0.38511400  0.23685400  1
  O  O56  1  0.95504400  0.87575900  0.26483700  1
  O  O57  1  0.10118600  0.01637900  0.37301400  1
  O  O58  1  0.40548600  0.12683600  0.91386500  1
  O  O59  1  0.22291500  0.03717600  0.16341900  1
  O  O60  1  0.52349500  0.65048200  0.49425600  1
  O  O61  1  0.95504400  0.62424100  0.76483700  1
  O  O62  1  0.40548600  0.37316400  0.41386500  1
  O  O63  1  0.23087500  0.75912300  0.12563400  1
  O  O64  1  0.73087500  0.25912300  0.37436600  1
  O  O65  1  0.64530900  0.19414600  0.01018900  1
  O  O66  1  0.34384100  0.81853300  0.87132100  1
  O  O67  1  0.37904600  0.88511400  0.26314600  1
  O  O68  1  0.52349500  0.84951800  0.99425600  1
  O  O69  1  0.44921200  0.38634000  0.76712600  1
  O  O70  1  0.73087500  0.24087700  0.87436600  1
  O  O71  1  0.84384100  0.31853300  0.62867900  1
  O  O72  1  0.87904600  0.11488600  0.73685400  1
  O  O73  1  0.39736700  0.87106000  0.45422200  1
  O  O74  1  0.60118600  0.51637900  0.12698600  1
  O  O75  1  0.90548600  0.87316400  0.08613500  1
  O  O76  1  0.64530900  0.30585400  0.51018900  1
  O  O77  1  0.94677700  0.63742300  0.05916000  1
  O  O78  1  0.72291500  0.53717600  0.33658100  1
  O  O79  1  0.34384100  0.68146700  0.37132100  1
  O  O80  1  0.89736700  0.37106000  0.04577800  1
  O  O81  1  0.44677700  0.36257700  0.94084000  1
  O  O82  1  0.22769000  0.04343900  0.63489800  1
  O  O83  1  0.72291500  0.96282400  0.83658100  1
  O  O84  1  0.09238400  0.02475900  0.83974000  1
  O  O85  1  0.45504400  0.12424100  0.73516300  1
  O  O86  1  0.10118600  0.48362100  0.87301400  1
  O  O87  1  0.94677700  0.86257700  0.55916000  1
  O  O88  1  0.84384100  0.18146700  0.12867900  1
  O  O89  1  0.39736700  0.62894000  0.95422200  1
  O  O90  1  0.90548600  0.62683600  0.58613500  1
  O  O91  1  0.39648900  0.89352000  0.73209500  1
  O  O92  1  0.60118600  0.98362100  0.62698600  1
  O  O93  1  0.72769000  0.95656100  0.36510200  1
  O  O94  1  0.94921200  0.61366000  0.23287400  1
  O  O95  1  0.14530900  0.69414600  0.48981100  1
  O  O96  1  0.22769000  0.45656100  0.13489800  1
  O  O97  1  0.89648900  0.10648000  0.26790500  1
  O  O98  1  0.39648900  0.60648000  0.23209500  1
  O  O99  1  0.14530900  0.80585400  0.98981100  1
  O  O100  1  0.89648900  0.39352000  0.76790500  1
  O  O101  1  0.72769000  0.54343900  0.86510200  1
  O  O102  1  0.45504400  0.37575900  0.23516300  1
  O  O103  1  0.89736700  0.12894000  0.54577800  1
