# generated using pymatgen
data_KTi2(PO4)3
_symmetry_space_group_name_H-M   'P 1'
_cell_length_a   9.20171076
_cell_length_b   9.20171076
_cell_length_c   9.20171105
_cell_angle_alpha   54.97645340
_cell_angle_beta   54.97645340
_cell_angle_gamma   54.97645423
_symmetry_Int_Tables_number   1
_chemical_formula_structural   KTi2(PO4)3
_chemical_formula_sum   'K2 Ti4 P6 O24'
_cell_volume   486.52320269
_cell_formula_units_Z   2
loop_
 _symmetry_equiv_pos_site_id
 _symmetry_equiv_pos_as_xyz
  1  'x, y, z'
loop_
 _atom_site_type_symbol
 _atom_site_label
 _atom_site_symmetry_multiplicity
 _atom_site_fract_x
 _atom_site_fract_y
 _atom_site_fract_z
 _atom_site_occupancy
  K  K0  1  0.00000000  0.00000000  0.00000000  1
  K  K1  1  0.50000000  0.50000000  0.50000000  1
  Ti  Ti2  1  0.14950000  0.14950000  0.14950000  1
  Ti  Ti3  1  0.35050000  0.35050000  0.35050000  1
  Ti  Ti4  1  0.85050000  0.85050000  0.85050000  1
  Ti  Ti5  1  0.64950000  0.64950000  0.64950000  1
  P  P6  1  0.53186200  0.96813800  0.25000000  1
  P  P7  1  0.96813800  0.25000000  0.53186200  1
  P  P8  1  0.25000000  0.53186200  0.96813800  1
  P  P9  1  0.46813800  0.03186200  0.75000000  1
  P  P10  1  0.03186200  0.75000000  0.46813800  1
  P  P11  1  0.75000000  0.46813800  0.03186200  1
  O  O12  1  0.24913700  0.51069200  0.14771100  1
  O  O13  1  0.51069200  0.14771100  0.24913700  1
  O  O14  1  0.14771100  0.24913700  0.51069200  1
  O  O15  1  0.98930800  0.25086300  0.35228900  1
  O  O16  1  0.25086300  0.35228900  0.98930800  1
  O  O17  1  0.35228900  0.98930800  0.25086300  1
  O  O18  1  0.75086300  0.48930800  0.85228900  1
  O  O19  1  0.48930800  0.85228900  0.75086300  1
  O  O20  1  0.85228900  0.75086300  0.48930800  1
  O  O21  1  0.01069200  0.74913700  0.64771100  1
  O  O22  1  0.74913700  0.64771100  0.01069200  1
  O  O23  1  0.64771100  0.01069200  0.74913700  1
  O  O24  1  0.06957100  0.70331900  0.93196900  1
  O  O25  1  0.70331900  0.93196900  0.06957100  1
  O  O26  1  0.93196900  0.06957100  0.70331900  1
  O  O27  1  0.79668100  0.43042900  0.56803100  1
  O  O28  1  0.43042900  0.56803100  0.79668100  1
  O  O29  1  0.56803100  0.79668100  0.43042900  1
  O  O30  1  0.93042900  0.29668100  0.06803100  1
  O  O31  1  0.29668100  0.06803100  0.93042900  1
  O  O32  1  0.06803100  0.93042900  0.29668100  1
  O  O33  1  0.20331900  0.56957100  0.43196900  1
  O  O34  1  0.56957100  0.43196900  0.20331900  1
  O  O35  1  0.43196900  0.20331900  0.56957100  1
