# generated using pymatgen
data_RbNaTiO3
_symmetry_space_group_name_H-M   'P 1'
_cell_length_a   6.33650384
_cell_length_b   6.33650384
_cell_length_c   5.58627156
_cell_angle_alpha   88.74027881
_cell_angle_beta   88.74027881
_cell_angle_gamma   123.97108513
_symmetry_Int_Tables_number   1
_chemical_formula_structural   RbNaTiO3
_chemical_formula_sum   'Rb2 Na2 Ti2 O6'
_cell_volume   185.80917960
_cell_formula_units_Z   2
loop_
 _symmetry_equiv_pos_site_id
 _symmetry_equiv_pos_as_xyz
  1  'x, y, z'
loop_
 _atom_site_type_symbol
 _atom_site_label
 _atom_site_symmetry_multiplicity
 _atom_site_fract_x
 _atom_site_fract_y
 _atom_site_fract_z
 _atom_site_occupancy
  Rb  Rb0  1  0.73254300  0.26745700  0.75000000  1
  Rb  Rb1  1  0.26745700  0.73254300  0.25000000  1
  Na  Na2  1  0.42451400  0.57548600  0.75000000  1
  Na  Na3  1  0.57548600  0.42451400  0.25000000  1
  Ti  Ti4  1  0.94835100  0.05164900  0.25000000  1
  Ti  Ti5  1  0.05164900  0.94835100  0.75000000  1
  O  O6  1  0.77738300  0.79516000  0.99788600  1
  O  O7  1  0.20484000  0.22261700  0.50211400  1
  O  O8  1  0.78963500  0.21036500  0.25000000  1
  O  O9  1  0.22261700  0.20484000  0.00211400  1
  O  O10  1  0.79516000  0.77738300  0.49788600  1
  O  O11  1  0.21036500  0.78963500  0.75000000  1
