# generated using pymatgen
data_BaZnSO
_symmetry_space_group_name_H-M   'P 1'
_cell_length_a   6.81844131
_cell_length_b   6.81844131
_cell_length_c   6.19643500
_cell_angle_alpha   90.00000000
_cell_angle_beta   90.00000000
_cell_angle_gamma   145.95893271
_symmetry_Int_Tables_number   1
_chemical_formula_structural   BaZnSO
_chemical_formula_sum   'Ba2 Zn2 S2 O2'
_cell_volume   161.26306332
_cell_formula_units_Z   2
loop_
 _symmetry_equiv_pos_site_id
 _symmetry_equiv_pos_as_xyz
  1  'x, y, z'
loop_
 _atom_site_type_symbol
 _atom_site_label
 _atom_site_symmetry_multiplicity
 _atom_site_fract_x
 _atom_site_fract_y
 _atom_site_fract_z
 _atom_site_occupancy
  Ba  Ba0  1  0.89208800  0.10791200  0.75000000  1
  Ba  Ba1  1  0.10791200  0.89208800  0.25000000  1
  Zn  Zn2  1  0.40151200  0.59848800  0.25000000  1
  Zn  Zn3  1  0.59848800  0.40151200  0.75000000  1
  S  S4  1  0.80650800  0.19349200  0.25000000  1
  S  S5  1  0.19349200  0.80650800  0.75000000  1
  O  O6  1  0.50000000  0.50000000  0.50000000  1
  O  O7  1  0.50000000  0.50000000  0.00000000  1
