# generated using pymatgen
data_Pr3Sb5Pd6
_symmetry_space_group_name_H-M   'P 1'
_cell_length_a   4.50966400
_cell_length_b   10.15906800
_cell_length_c   13.63635900
_cell_angle_alpha   90.00000000
_cell_angle_beta   90.00000000
_cell_angle_gamma   90.00000000
_symmetry_Int_Tables_number   1
_chemical_formula_structural   Pr3Sb5Pd6
_chemical_formula_sum   'Pr6 Sb10 Pd12'
_cell_volume   624.73592259
_cell_formula_units_Z   2
loop_
 _symmetry_equiv_pos_site_id
 _symmetry_equiv_pos_as_xyz
  1  'x, y, z'
loop_
 _atom_site_type_symbol
 _atom_site_label
 _atom_site_symmetry_multiplicity
 _atom_site_fract_x
 _atom_site_fract_y
 _atom_site_fract_z
 _atom_site_occupancy
  Pr  Pr0  1  0.00000000  0.24333100  0.00000000  1
  Pr  Pr1  1  0.50000000  0.75666900  0.50000000  1
  Pr  Pr2  1  0.00000000  0.24565600  0.32410300  1
  Pr  Pr3  1  0.50000000  0.75434400  0.17589700  1
  Pr  Pr4  1  0.00000000  0.24565600  0.67589700  1
  Pr  Pr5  1  0.50000000  0.75434400  0.82410300  1
  Sb  Sb6  1  0.00000000  0.52297900  0.12669400  1
  Sb  Sb7  1  0.50000000  0.47702100  0.37330600  1
  Sb  Sb8  1  0.00000000  0.52297900  0.87330600  1
  Sb  Sb9  1  0.50000000  0.47702100  0.62669400  1
  Sb  Sb10  1  0.00000000  0.86327600  0.33693700  1
  Sb  Sb11  1  0.50000000  0.13672400  0.16306300  1
  Sb  Sb12  1  0.00000000  0.86327600  0.66306300  1
  Sb  Sb13  1  0.50000000  0.13672400  0.83693700  1
  Sb  Sb14  1  0.00000000  0.82962200  0.00000000  1
  Sb  Sb15  1  0.50000000  0.17037800  0.50000000  1
  Pd  Pd16  1  0.00000000  0.99096300  0.16033700  1
  Pd  Pd17  1  0.50000000  0.00903700  0.33966300  1
  Pd  Pd18  1  0.00000000  0.99096300  0.83966300  1
  Pd  Pd19  1  0.50000000  0.00903700  0.66033700  1
  Pd  Pd20  1  0.50000000  0.98249900  0.00000000  1
  Pd  Pd21  1  0.00000000  0.01750100  0.50000000  1
  Pd  Pd22  1  0.00000000  0.60318300  0.31792000  1
  Pd  Pd23  1  0.50000000  0.39681700  0.18208000  1
  Pd  Pd24  1  0.00000000  0.60318300  0.68208000  1
  Pd  Pd25  1  0.50000000  0.39681700  0.81792000  1
  Pd  Pd26  1  0.50000000  0.52510500  0.00000000  1
  Pd  Pd27  1  0.00000000  0.47489500  0.50000000  1
