# generated using pymatgen
data_Ag10Te4Br3
_symmetry_space_group_name_H-M   'P 1'
_cell_length_a   11.18626623
_cell_length_b   11.18626623
_cell_length_c   13.95531300
_cell_angle_alpha   90.00000000
_cell_angle_beta   90.00000000
_cell_angle_gamma   91.31675734
_symmetry_Int_Tables_number   1
_chemical_formula_structural   Ag10Te4Br3
_chemical_formula_sum   'Ag40 Te16 Br12'
_cell_volume   1745.80279741
_cell_formula_units_Z   4
loop_
 _symmetry_equiv_pos_site_id
 _symmetry_equiv_pos_as_xyz
  1  'x, y, z'
loop_
 _atom_site_type_symbol
 _atom_site_label
 _atom_site_symmetry_multiplicity
 _atom_site_fract_x
 _atom_site_fract_y
 _atom_site_fract_z
 _atom_site_occupancy
  Ag  Ag0  1  0.83211100  0.36064800  0.10018200  1
  Ag  Ag1  1  0.37442100  0.62557900  0.25000000  1
  Ag  Ag2  1  0.84861500  0.37083400  0.63455100  1
  Ag  Ag3  1  0.84861500  0.37083400  0.86544900  1
  Ag  Ag4  1  0.39853000  0.32521700  0.64488000  1
  Ag  Ag5  1  0.32521700  0.39853000  0.14488000  1
  Ag  Ag6  1  0.93735300  0.87780000  0.75000000  1
  Ag  Ag7  1  0.16788900  0.63935200  0.89981800  1
  Ag  Ag8  1  0.63935200  0.16788900  0.39981800  1
  Ag  Ag9  1  0.85876800  0.14123200  0.75000000  1
  Ag  Ag10  1  0.36064800  0.83211100  0.60018200  1
  Ag  Ag11  1  0.17977700  0.01817500  0.07382900  1
  Ag  Ag12  1  0.98182500  0.82022300  0.42617100  1
  Ag  Ag13  1  0.39853000  0.32521700  0.85512000  1
  Ag  Ag14  1  0.36064800  0.83211100  0.89981800  1
  Ag  Ag15  1  0.15138500  0.62916600  0.13455100  1
  Ag  Ag16  1  0.62557900  0.37442100  0.75000000  1
  Ag  Ag17  1  0.82022300  0.98182500  0.57382900  1
  Ag  Ag18  1  0.12220000  0.06264700  0.75000000  1
  Ag  Ag19  1  0.14123200  0.85876800  0.25000000  1
  Ag  Ag20  1  0.37083400  0.84861500  0.36544900  1
  Ag  Ag21  1  0.01817500  0.17977700  0.57382900  1
  Ag  Ag22  1  0.62916600  0.15138500  0.86544900  1
  Ag  Ag23  1  0.98182500  0.82022300  0.07382900  1
  Ag  Ag24  1  0.87780000  0.93735300  0.25000000  1
  Ag  Ag25  1  0.37083400  0.84861500  0.13455100  1
  Ag  Ag26  1  0.60147000  0.67478300  0.35512000  1
  Ag  Ag27  1  0.15138500  0.62916600  0.36544900  1
  Ag  Ag28  1  0.32521700  0.39853000  0.35512000  1
  Ag  Ag29  1  0.16788900  0.63935200  0.60018200  1
  Ag  Ag30  1  0.17977700  0.01817500  0.42617100  1
  Ag  Ag31  1  0.62916600  0.15138500  0.63455100  1
  Ag  Ag32  1  0.82022300  0.98182500  0.92617100  1
  Ag  Ag33  1  0.67478300  0.60147000  0.64488000  1
  Ag  Ag34  1  0.63935200  0.16788900  0.10018200  1
  Ag  Ag35  1  0.06264700  0.12220000  0.25000000  1
  Ag  Ag36  1  0.67478300  0.60147000  0.85512000  1
  Ag  Ag37  1  0.01817500  0.17977700  0.92617100  1
  Ag  Ag38  1  0.83211100  0.36064800  0.39981800  1
  Ag  Ag39  1  0.60147000  0.67478300  0.14488000  1
  Te  Te40  1  0.69055600  0.95174600  0.75000000  1
  Te  Te41  1  0.29173100  0.52444200  0.75000000  1
  Te  Te42  1  0.37963000  0.62037000  0.45060500  1
  Te  Te43  1  0.88648200  0.11351800  0.40985500  1
  Te  Te44  1  0.95174600  0.69055600  0.25000000  1
  Te  Te45  1  0.04825400  0.30944400  0.75000000  1
  Te  Te46  1  0.47555800  0.70826900  0.75000000  1
  Te  Te47  1  0.30944400  0.04825400  0.25000000  1
  Te  Te48  1  0.62037000  0.37963000  0.54939500  1
  Te  Te49  1  0.52444200  0.29173100  0.25000000  1
  Te  Te50  1  0.88648200  0.11351800  0.09014500  1
  Te  Te51  1  0.37963000  0.62037000  0.04939500  1
  Te  Te52  1  0.11351800  0.88648200  0.90985500  1
  Te  Te53  1  0.11351800  0.88648200  0.59014500  1
  Te  Te54  1  0.62037000  0.37963000  0.95060500  1
  Te  Te55  1  0.70826900  0.47555800  0.25000000  1
  Br  Br56  1  0.24958300  0.24958300  0.50000000  1
  Br  Br57  1  0.89099800  0.63582800  0.75000000  1
  Br  Br58  1  0.24958300  0.24958300  0.00000000  1
  Br  Br59  1  0.75041700  0.75041700  0.50000000  1
  Br  Br60  1  0.10900200  0.36417200  0.25000000  1
  Br  Br61  1  0.00000000  0.50000000  0.50000000  1
  Br  Br62  1  0.75041700  0.75041700  0.00000000  1
  Br  Br63  1  0.36417200  0.10900200  0.75000000  1
  Br  Br64  1  0.00000000  0.50000000  0.00000000  1
  Br  Br65  1  0.63582800  0.89099800  0.25000000  1
  Br  Br66  1  0.50000000  0.00000000  0.50000000  1
  Br  Br67  1  0.50000000  0.00000000  0.00000000  1
