# generated using pymatgen
data_K3Nd(PS4)2
_symmetry_space_group_name_H-M   'P 1'
_cell_length_a   17.24130200
_cell_length_b   9.24675600
_cell_length_c   9.66927553
_cell_angle_alpha   89.23204345
_cell_angle_beta   90.00000000
_cell_angle_gamma   90.00000000
_symmetry_Int_Tables_number   1
_chemical_formula_structural   K3Nd(PS4)2
_chemical_formula_sum   'K12 Nd4 P8 S32'
_cell_volume   1541.39654417
_cell_formula_units_Z   4
loop_
 _symmetry_equiv_pos_site_id
 _symmetry_equiv_pos_as_xyz
  1  'x, y, z'
loop_
 _atom_site_type_symbol
 _atom_site_label
 _atom_site_symmetry_multiplicity
 _atom_site_fract_x
 _atom_site_fract_y
 _atom_site_fract_z
 _atom_site_occupancy
  K  K0  1  0.70709800  0.12304600  0.87503900  1
  K  K1  1  0.20709800  0.87695400  0.62496100  1
  K  K2  1  0.29290200  0.87695400  0.12496100  1
  K  K3  1  0.79290200  0.12304600  0.37503900  1
  K  K4  1  0.78798900  0.61832400  0.87035900  1
  K  K5  1  0.28798900  0.38167600  0.62964100  1
  K  K6  1  0.21201100  0.38167600  0.12964100  1
  K  K7  1  0.71201100  0.61832400  0.37035900  1
  K  K8  1  0.53030700  0.73250600  0.98609900  1
  K  K9  1  0.03030700  0.26749400  0.51390100  1
  K  K10  1  0.46969300  0.26749400  0.01390100  1
  K  K11  1  0.96969300  0.73250600  0.48609900  1
  Nd  Nd12  1  0.98544900  0.22759000  0.97458300  1
  Nd  Nd13  1  0.48544900  0.77241000  0.52541700  1
  Nd  Nd14  1  0.01455100  0.77241000  0.02541700  1
  Nd  Nd15  1  0.51455100  0.22759000  0.47458300  1
  P  P16  1  0.40039700  0.00449800  0.74347900  1
  P  P17  1  0.90039700  0.99550200  0.75652100  1
  P  P18  1  0.59960300  0.99550200  0.25652100  1
  P  P19  1  0.09960300  0.00449800  0.24347900  1
  P  P20  1  0.59769400  0.47530700  0.71945000  1
  P  P21  1  0.09769400  0.52469300  0.78055000  1
  P  P22  1  0.40230600  0.52469300  0.28055000  1
  P  P23  1  0.90230600  0.47530700  0.21945000  1
  S  S24  1  0.32545700  0.11832700  0.86001800  1
  S  S25  1  0.82545700  0.88167300  0.63998200  1
  S  S26  1  0.67454300  0.88167300  0.13998200  1
  S  S27  1  0.17454300  0.11832700  0.36001800  1
  S  S28  1  0.88694500  0.21395600  0.72656900  1
  S  S29  1  0.38694500  0.78604400  0.77343100  1
  S  S30  1  0.11305500  0.78604400  0.27343100  1
  S  S31  1  0.61305500  0.21395600  0.22656900  1
  S  S32  1  0.51654600  0.05475000  0.75797800  1
  S  S33  1  0.01654600  0.94525000  0.74202200  1
  S  S34  1  0.48345400  0.94525000  0.24202200  1
  S  S35  1  0.98345400  0.05475000  0.25797800  1
  S  S36  1  0.38027600  0.03506700  0.53303700  1
  S  S37  1  0.88027600  0.96493300  0.96696300  1
  S  S38  1  0.61972400  0.96493300  0.46696300  1
  S  S39  1  0.11972400  0.03506700  0.03303700  1
  S  S40  1  0.62532500  0.43477700  0.91954700  1
  S  S41  1  0.12532500  0.56522300  0.58045300  1
  S  S42  1  0.37467500  0.56522300  0.08045300  1
  S  S43  1  0.87467500  0.43477700  0.41954700  1
  S  S44  1  0.65631000  0.33721600  0.59122700  1
  S  S45  1  0.15631000  0.66278400  0.90877300  1
  S  S46  1  0.34369000  0.66278400  0.40877300  1
  S  S47  1  0.84369000  0.33721600  0.09122700  1
  S  S48  1  0.62657800  0.68608600  0.67042700  1
  S  S49  1  0.12657800  0.31391400  0.82957300  1
  S  S50  1  0.37342200  0.31391400  0.32957300  1
  S  S51  1  0.87342200  0.68608600  0.17042700  1
  S  S52  1  0.97971900  0.54223600  0.82193200  1
  S  S53  1  0.47971900  0.45776400  0.67806800  1
  S  S54  1  0.02028100  0.45776400  0.17806800  1
  S  S55  1  0.52028100  0.54223600  0.32193200  1
