# generated using pymatgen
data_Rb2Mo3O10
_symmetry_space_group_name_H-M   'P 1'
_cell_length_a   8.40982970
_cell_length_b   8.40982970
_cell_length_c   9.36844399
_cell_angle_alpha   83.14551352
_cell_angle_beta   83.14551352
_cell_angle_gamma   59.73135547
_symmetry_Int_Tables_number   1
_chemical_formula_structural   Rb2Mo3O10
_chemical_formula_sum   'Rb4 Mo6 O20'
_cell_volume   566.81075306
_cell_formula_units_Z   2
loop_
 _symmetry_equiv_pos_site_id
 _symmetry_equiv_pos_as_xyz
  1  'x, y, z'
loop_
 _atom_site_type_symbol
 _atom_site_label
 _atom_site_symmetry_multiplicity
 _atom_site_fract_x
 _atom_site_fract_y
 _atom_site_fract_z
 _atom_site_occupancy
  Rb  Rb0  1  0.40667700  0.23035200  0.15884600  1
  Rb  Rb1  1  0.76964800  0.59332300  0.34115400  1
  Rb  Rb2  1  0.59332300  0.76964800  0.84115400  1
  Rb  Rb3  1  0.23035200  0.40667700  0.65884600  1
  Mo  Mo4  1  0.17832200  0.03360300  0.47841900  1
  Mo  Mo5  1  0.96639700  0.82167800  0.02158100  1
  Mo  Mo6  1  0.82167800  0.96639700  0.52158100  1
  Mo  Mo7  1  0.03360300  0.17832200  0.97841900  1
  Mo  Mo8  1  0.28552000  0.71448000  0.25000000  1
  Mo  Mo9  1  0.71448000  0.28552000  0.75000000  1
  O  O10  1  0.34373500  0.89161100  0.32096900  1
  O  O11  1  0.10838900  0.65626500  0.17903100  1
  O  O12  1  0.65626500  0.10838900  0.67903100  1
  O  O13  1  0.89161100  0.34373500  0.82096900  1
  O  O14  1  0.94377500  0.10540100  0.59266100  1
  O  O15  1  0.89459900  0.05622500  0.90733900  1
  O  O16  1  0.05622500  0.89459900  0.40733900  1
  O  O17  1  0.10540100  0.94377500  0.09266100  1
  O  O18  1  0.32785200  0.94976500  0.61662200  1
  O  O19  1  0.05023500  0.67214800  0.88337800  1
  O  O20  1  0.67214800  0.05023500  0.38337800  1
  O  O21  1  0.94976500  0.32785200  0.11662200  1
  O  O22  1  0.14249100  0.25491900  0.41972000  1
  O  O23  1  0.74508100  0.85750900  0.08028000  1
  O  O24  1  0.85750900  0.74508100  0.58028000  1
  O  O25  1  0.25491900  0.14249100  0.91972000  1
  O  O26  1  0.46824600  0.63611800  0.11794100  1
  O  O27  1  0.36388200  0.53175400  0.38205900  1
  O  O28  1  0.53175400  0.36388200  0.88205900  1
  O  O29  1  0.63611800  0.46824600  0.61794100  1
