# generated using pymatgen
data_Nd5Si3
_symmetry_space_group_name_H-M   'P 1'
_cell_length_a   8.88965973
_cell_length_b   8.88965973
_cell_length_c   8.88965973
_cell_angle_alpha   127.79026082
_cell_angle_beta   127.79026082
_cell_angle_gamma   76.96504433
_symmetry_Int_Tables_number   1
_chemical_formula_structural   Nd5Si3
_chemical_formula_sum   'Nd10 Si6'
_cell_volume   425.89354290
_cell_formula_units_Z   2
loop_
 _symmetry_equiv_pos_site_id
 _symmetry_equiv_pos_as_xyz
  1  'x, y, z'
loop_
 _atom_site_type_symbol
 _atom_site_label
 _atom_site_symmetry_multiplicity
 _atom_site_fract_x
 _atom_site_fract_y
 _atom_site_fract_z
 _atom_site_occupancy
  Nd  Nd0  1  0.67631800  0.17631800  0.14436500  1
  Nd  Nd1  1  0.53195300  0.67631800  0.50000000  1
  Nd  Nd2  1  0.03195300  0.53195300  0.85563500  1
  Nd  Nd3  1  0.82368200  0.96804700  0.50000000  1
  Nd  Nd4  1  0.32368200  0.82368200  0.85563500  1
  Nd  Nd5  1  0.17631800  0.03195300  0.50000000  1
  Nd  Nd6  1  0.46804700  0.32368200  0.50000000  1
  Nd  Nd7  1  0.50000000  0.50000000  0.00000000  1
  Nd  Nd8  1  0.96804700  0.46804700  0.14436500  1
  Nd  Nd9  1  0.00000000  0.00000000  0.00000000  1
  Si  Si10  1  0.88493700  0.61506300  0.50000000  1
  Si  Si11  1  0.61506300  0.11506300  0.73012600  1
  Si  Si12  1  0.38493700  0.88493700  0.26987400  1
  Si  Si13  1  0.11506300  0.38493700  0.50000000  1
  Si  Si14  1  0.75000000  0.75000000  0.00000000  1
  Si  Si15  1  0.25000000  0.25000000  0.00000000  1
