# generated using pymatgen
data_Ba2CuIO2
_symmetry_space_group_name_H-M   'P 1'
_cell_length_a   4.45088300
_cell_length_b   11.16025700
_cell_length_c   14.24423914
_cell_angle_alpha   88.61122492
_cell_angle_beta   90.00000000
_cell_angle_gamma   90.00000000
_symmetry_Int_Tables_number   1
_chemical_formula_structural   Ba2CuIO2
_chemical_formula_sum   'Ba8 Cu4 I4 O8'
_cell_volume   707.34622577
_cell_formula_units_Z   4
loop_
 _symmetry_equiv_pos_site_id
 _symmetry_equiv_pos_as_xyz
  1  'x, y, z'
loop_
 _atom_site_type_symbol
 _atom_site_label
 _atom_site_symmetry_multiplicity
 _atom_site_fract_x
 _atom_site_fract_y
 _atom_site_fract_z
 _atom_site_occupancy
  Ba  Ba0  1  0.75000000  0.09009300  0.67990600  1
  Ba  Ba1  1  0.25000000  0.29624700  0.89428500  1
  Ba  Ba2  1  0.75000000  0.16995800  0.14349500  1
  Ba  Ba3  1  0.75000000  0.70375300  0.10571500  1
  Ba  Ba4  1  0.25000000  0.90990700  0.32009400  1
  Ba  Ba5  1  0.25000000  0.41957000  0.40510800  1
  Ba  Ba6  1  0.75000000  0.58043000  0.59489200  1
  Ba  Ba7  1  0.25000000  0.83004200  0.85650500  1
  Cu  Cu8  1  0.25000000  0.33164300  0.65383800  1
  Cu  Cu9  1  0.75000000  0.66835700  0.34616200  1
  Cu  Cu10  1  0.25000000  0.93413400  0.09142800  1
  Cu  Cu11  1  0.75000000  0.06586600  0.90857200  1
  I  I12  1  0.75000000  0.15214900  0.41381200  1
  I  I13  1  0.25000000  0.43681200  0.14388800  1
  I  I14  1  0.75000000  0.56318800  0.85611200  1
  I  I15  1  0.25000000  0.84785100  0.58618800  1
  O  O16  1  0.75000000  0.94303700  0.82664100  1
  O  O17  1  0.75000000  0.53385800  0.41882300  1
  O  O18  1  0.75000000  0.80236800  0.27117200  1
  O  O19  1  0.25000000  0.79064200  0.03358800  1
  O  O20  1  0.25000000  0.46614200  0.58117700  1
  O  O21  1  0.25000000  0.19763200  0.72882800  1
  O  O22  1  0.75000000  0.20935800  0.96641200  1
  O  O23  1  0.25000000  0.05696300  0.17335900  1
