# generated using pymatgen
data_K2BeH4(SeO5)2
_symmetry_space_group_name_H-M   'P 1'
_cell_length_a   12.03312600
_cell_length_b   7.61593100
_cell_length_c   11.66110279
_cell_angle_alpha   84.05216474
_cell_angle_beta   90.00000000
_cell_angle_gamma   90.00000000
_symmetry_Int_Tables_number   1
_chemical_formula_structural   K2BeH4(SeO5)2
_chemical_formula_sum   'K8 Be4 H16 Se8 O40'
_cell_volume   1062.91078553
_cell_formula_units_Z   4
loop_
 _symmetry_equiv_pos_site_id
 _symmetry_equiv_pos_as_xyz
  1  'x, y, z'
loop_
 _atom_site_type_symbol
 _atom_site_label
 _atom_site_symmetry_multiplicity
 _atom_site_fract_x
 _atom_site_fract_y
 _atom_site_fract_z
 _atom_site_occupancy
  K  K0  1  0.75900500  0.98124700  0.90555900  1
  K  K1  1  0.25900500  0.51875300  0.09444100  1
  K  K2  1  0.24099500  0.01875300  0.09444100  1
  K  K3  1  0.74099500  0.48124700  0.90555900  1
  K  K4  1  0.90224100  0.32939200  0.61108900  1
  K  K5  1  0.40224100  0.17060800  0.38891100  1
  K  K6  1  0.09775900  0.67060800  0.38891100  1
  K  K7  1  0.59775900  0.82939200  0.61108900  1
  Be  Be8  1  0.91508300  0.08492900  0.23470400  1
  Be  Be9  1  0.41508300  0.41507100  0.76529600  1
  Be  Be10  1  0.08491700  0.91507100  0.76529600  1
  Be  Be11  1  0.58491700  0.58492900  0.23470400  1
  H  H12  1  0.81153500  0.03845500  0.40132100  1
  H  H13  1  0.31153500  0.46154500  0.59867900  1
  H  H14  1  0.18846500  0.96154500  0.59867900  1
  H  H15  1  0.68846500  0.53845500  0.40132100  1
  H  H16  1  0.73042900  0.10353200  0.28981100  1
  H  H17  1  0.23042900  0.39646800  0.71018900  1
  H  H18  1  0.26957100  0.89646800  0.71018900  1
  H  H19  1  0.76957100  0.60353200  0.28981100  1
  H  H20  1  0.91660400  0.39432500  0.19323200  1
  H  H21  1  0.41660400  0.10567500  0.80676800  1
  H  H22  1  0.08339600  0.60567500  0.80676800  1
  H  H23  1  0.58339600  0.89432500  0.19323200  1
  H  H24  1  0.98713100  0.29347000  0.10003200  1
  H  H25  1  0.48713100  0.20653000  0.89996800  1
  H  H26  1  0.01286900  0.70653000  0.89996800  1
  H  H27  1  0.51286900  0.79347000  0.10003200  1
  Se  Se28  1  0.94859600  0.74919800  0.12257800  1
  Se  Se29  1  0.44859600  0.75080200  0.87742200  1
  Se  Se30  1  0.05140400  0.25080200  0.87742200  1
  Se  Se31  1  0.55140400  0.24919800  0.12257800  1
  Se  Se32  1  0.88796700  0.83721800  0.62972500  1
  Se  Se33  1  0.38796700  0.66278200  0.37027500  1
  Se  Se34  1  0.11203300  0.16278200  0.37027500  1
  Se  Se35  1  0.61203300  0.33721800  0.62972500  1
  O  O36  1  0.08576700  0.75237600  0.13063800  1
  O  O37  1  0.58576700  0.74762400  0.86936200  1
  O  O38  1  0.91423300  0.24762400  0.86936200  1
  O  O39  1  0.41423300  0.25237600  0.13063800  1
  O  O40  1  0.90568300  0.69622800  0.99405200  1
  O  O41  1  0.40568300  0.80377200  0.00594800  1
  O  O42  1  0.09431700  0.30377200  0.00594800  1
  O  O43  1  0.59431700  0.19622800  0.99405200  1
  O  O44  1  0.89968600  0.60466600  0.22985100  1
  O  O45  1  0.39968600  0.89533400  0.77014900  1
  O  O46  1  0.10031400  0.39533400  0.77014900  1
  O  O47  1  0.60031400  0.10466600  0.22985100  1
  O  O48  1  0.89185300  0.95081400  0.13399800  1
  O  O49  1  0.39185300  0.54918600  0.86600200  1
  O  O50  1  0.10814700  0.04918600  0.86600200  1
  O  O51  1  0.60814700  0.45081400  0.13399800  1
  O  O52  1  0.95925400  0.68676700  0.56810700  1
  O  O53  1  0.45925400  0.81323300  0.43189300  1
  O  O54  1  0.04074600  0.31323300  0.43189300  1
  O  O55  1  0.54074600  0.18676700  0.56810700  1
  O  O56  1  0.80549600  0.74688000  0.73416500  1
  O  O57  1  0.30549600  0.75312000  0.26583500  1
  O  O58  1  0.19450400  0.25312000  0.26583500  1
  O  O59  1  0.69450400  0.24688000  0.73416500  1
  O  O60  1  0.81014300  0.96888600  0.53821000  1
  O  O61  1  0.31014300  0.53111400  0.46179000  1
  O  O62  1  0.18985700  0.03111400  0.46179000  1
  O  O63  1  0.68985700  0.46888600  0.53821000  1
  O  O64  1  0.97754400  0.97924800  0.68843800  1
  O  O65  1  0.47754400  0.52075200  0.31156200  1
  O  O66  1  0.02245600  0.02075200  0.31156200  1
  O  O67  1  0.52245600  0.47924800  0.68843800  1
  O  O68  1  0.80815100  0.09623500  0.31968700  1
  O  O69  1  0.30815100  0.40376500  0.68031300  1
  O  O70  1  0.19184900  0.90376500  0.68031300  1
  O  O71  1  0.69184900  0.59623500  0.31968700  1
  O  O72  1  0.92637300  0.27955600  0.15941600  1
  O  O73  1  0.42637300  0.22044400  0.84058400  1
  O  O74  1  0.07362700  0.72044400  0.84058400  1
  O  O75  1  0.57362700  0.77955600  0.15941600  1
