# generated using pymatgen
data_RbScAs2O7
_symmetry_space_group_name_H-M   'P 1'
_cell_length_a   10.79834300
_cell_length_b   7.97333400
_cell_length_c   8.93610880
_cell_angle_alpha   73.48259286
_cell_angle_beta   90.00000000
_cell_angle_gamma   90.00000000
_symmetry_Int_Tables_number   1
_chemical_formula_structural   RbScAs2O7
_chemical_formula_sum   'Rb4 Sc4 As8 O28'
_cell_volume   737.63817025
_cell_formula_units_Z   4
loop_
 _symmetry_equiv_pos_site_id
 _symmetry_equiv_pos_as_xyz
  1  'x, y, z'
loop_
 _atom_site_type_symbol
 _atom_site_label
 _atom_site_symmetry_multiplicity
 _atom_site_fract_x
 _atom_site_fract_y
 _atom_site_fract_z
 _atom_site_occupancy
  Rb  Rb0  1  0.18023900  0.82765100  0.55004000  1
  Rb  Rb1  1  0.31976100  0.82765100  0.05004000  1
  Rb  Rb2  1  0.81976100  0.17234900  0.44996000  1
  Rb  Rb3  1  0.68023900  0.17234900  0.94996000  1
  Sc  Sc4  1  0.40032900  0.23564800  0.23571000  1
  Sc  Sc5  1  0.59967100  0.76435200  0.76429000  1
  Sc  Sc6  1  0.09967100  0.23564800  0.73571000  1
  Sc  Sc7  1  0.90032900  0.76435200  0.26429000  1
  As  As8  1  0.09208000  0.13818200  0.16531500  1
  As  As9  1  0.86188300  0.55734000  0.69059700  1
  As  As10  1  0.90792000  0.86181800  0.83468500  1
  As  As11  1  0.59208000  0.86181800  0.33468500  1
  As  As12  1  0.36188300  0.44266000  0.80940300  1
  As  As13  1  0.63811700  0.55734000  0.19059700  1
  As  As14  1  0.13811700  0.44266000  0.30940300  1
  As  As15  1  0.40792000  0.13818200  0.66531500  1
  O  O16  1  0.28818700  0.45231700  0.24817400  1
  O  O17  1  0.95053700  0.64885700  0.82016700  1
  O  O18  1  0.89154500  0.69091400  0.50967200  1
  O  O19  1  0.71181300  0.54768300  0.75182600  1
  O  O20  1  0.23525600  0.08607100  0.24537000  1
  O  O21  1  0.76474400  0.91392900  0.75463000  1
  O  O22  1  0.51313000  0.99970400  0.77829200  1
  O  O23  1  0.01313000  0.00029600  0.72170800  1
  O  O24  1  0.54946300  0.64885700  0.32016700  1
  O  O25  1  0.08731300  0.14854100  0.97504600  1
  O  O26  1  0.10845500  0.30908600  0.49032800  1
  O  O27  1  0.73525600  0.91392900  0.25463000  1
  O  O28  1  0.08079700  0.64810600  0.27797700  1
  O  O29  1  0.58079700  0.35189400  0.22202300  1
  O  O30  1  0.91268700  0.85145900  0.02495400  1
  O  O31  1  0.98687000  0.99970400  0.27829200  1
  O  O32  1  0.78818700  0.54768300  0.25182600  1
  O  O33  1  0.21181300  0.45231700  0.74817400  1
  O  O34  1  0.39154500  0.30908600  0.99032800  1
  O  O35  1  0.60845500  0.69091400  0.00967200  1
  O  O36  1  0.41920300  0.64810600  0.77797700  1
  O  O37  1  0.91920300  0.35189400  0.72202300  1
  O  O38  1  0.26474400  0.08607100  0.74537000  1
  O  O39  1  0.41268700  0.14854100  0.47504600  1
  O  O40  1  0.48687000  0.00029600  0.22170800  1
  O  O41  1  0.45053700  0.35114300  0.67983300  1
  O  O42  1  0.04946300  0.35114300  0.17983300  1
  O  O43  1  0.58731300  0.85145900  0.52495400  1
