# generated using pymatgen
data_Cs3CoI5
_symmetry_space_group_name_H-M   'P 1'
_cell_length_a   10.19380400
_cell_length_b   11.78605500
_cell_length_c   15.06255200
_cell_angle_alpha   90.00000000
_cell_angle_beta   90.00000000
_cell_angle_gamma   90.00000000
_symmetry_Int_Tables_number   1
_chemical_formula_structural   Cs3CoI5
_chemical_formula_sum   'Cs12 Co4 I20'
_cell_volume   1809.68631249
_cell_formula_units_Z   4
loop_
 _symmetry_equiv_pos_site_id
 _symmetry_equiv_pos_as_xyz
  1  'x, y, z'
loop_
 _atom_site_type_symbol
 _atom_site_label
 _atom_site_symmetry_multiplicity
 _atom_site_fract_x
 _atom_site_fract_y
 _atom_site_fract_z
 _atom_site_occupancy
  Cs  Cs0  1  0.58735600  0.75000000  0.04639200  1
  Cs  Cs1  1  0.08241500  0.51582700  0.17266900  1
  Cs  Cs2  1  0.91264400  0.25000000  0.54639200  1
  Cs  Cs3  1  0.08241500  0.98417300  0.17266900  1
  Cs  Cs4  1  0.91758500  0.01582700  0.82733100  1
  Cs  Cs5  1  0.41758500  0.48417300  0.67266900  1
  Cs  Cs6  1  0.08735600  0.75000000  0.45360800  1
  Cs  Cs7  1  0.58241500  0.51582700  0.32733100  1
  Cs  Cs8  1  0.41758500  0.01582700  0.67266900  1
  Cs  Cs9  1  0.41264400  0.25000000  0.95360800  1
  Cs  Cs10  1  0.91758500  0.48417300  0.82733100  1
  Cs  Cs11  1  0.58241500  0.98417300  0.32733100  1
  Co  Co12  1  0.18677700  0.75000000  0.89351300  1
  Co  Co13  1  0.81322300  0.25000000  0.10648700  1
  Co  Co14  1  0.68677700  0.75000000  0.60648700  1
  Co  Co15  1  0.31322300  0.25000000  0.39351300  1
  I  I16  1  0.52757600  0.25000000  0.48629700  1
  I  I17  1  0.69221000  0.43517200  0.06462600  1
  I  I18  1  0.80779000  0.56482800  0.56462600  1
  I  I19  1  0.83311200  0.75000000  0.26272400  1
  I  I20  1  0.19221000  0.43517200  0.43537400  1
  I  I21  1  0.33311200  0.75000000  0.23727600  1
  I  I22  1  0.16688800  0.25000000  0.73727600  1
  I  I23  1  0.30779000  0.56482800  0.93537400  1
  I  I24  1  0.64095700  0.75000000  0.77515100  1
  I  I25  1  0.47242400  0.75000000  0.51370300  1
  I  I26  1  0.97242400  0.75000000  0.98629700  1
  I  I27  1  0.14095700  0.75000000  0.72484900  1
  I  I28  1  0.30779000  0.93517200  0.93537400  1
  I  I29  1  0.69221000  0.06482800  0.06462600  1
  I  I30  1  0.80779000  0.93517200  0.56462600  1
  I  I31  1  0.19221000  0.06482800  0.43537400  1
  I  I32  1  0.02757600  0.25000000  0.01370300  1
  I  I33  1  0.66688800  0.25000000  0.76272400  1
  I  I34  1  0.35904300  0.25000000  0.22484900  1
  I  I35  1  0.85904300  0.25000000  0.27515100  1
