# generated using pymatgen
data_Sc6C2I11
_symmetry_space_group_name_H-M   'P 1'
_cell_length_a   9.32546700
_cell_length_b   10.47131288
_cell_length_c   14.61058951
_cell_angle_alpha   90.85585761
_cell_angle_beta   104.52833350
_cell_angle_gamma   110.47146009
_symmetry_Int_Tables_number   1
_chemical_formula_structural   Sc6C2I11
_chemical_formula_sum   'Sc12 C4 I22'
_cell_volume   1285.56089664
_cell_formula_units_Z   2
loop_
 _symmetry_equiv_pos_site_id
 _symmetry_equiv_pos_as_xyz
  1  'x, y, z'
loop_
 _atom_site_type_symbol
 _atom_site_label
 _atom_site_symmetry_multiplicity
 _atom_site_fract_x
 _atom_site_fract_y
 _atom_site_fract_z
 _atom_site_occupancy
  Sc  Sc0  1  0.38964500  0.48066500  0.12013600  1
  Sc  Sc1  1  0.61035500  0.51933500  0.87986400  1
  Sc  Sc2  1  0.43636500  0.77686800  0.26475200  1
  Sc  Sc3  1  0.56363500  0.22313200  0.73524800  1
  Sc  Sc4  1  0.62369800  0.58655400  0.35332000  1
  Sc  Sc5  1  0.37630200  0.41344600  0.64668000  1
  Sc  Sc6  1  0.82346700  0.65475900  0.20367500  1
  Sc  Sc7  1  0.17653300  0.34524100  0.79632500  1
  Sc  Sc8  1  0.63117200  0.83871900  0.11156100  1
  Sc  Sc9  1  0.36882800  0.16128100  0.88843900  1
  Sc  Sc10  1  0.85665900  0.94364300  0.34791400  1
  Sc  Sc11  1  0.14334100  0.05635700  0.65208600  1
  C  C12  1  0.43236900  0.34616000  0.79869200  1
  C  C13  1  0.56763100  0.65384000  0.20130800  1
  C  C14  1  0.31409500  0.23021700  0.73836600  1
  C  C15  1  0.68590500  0.76978300  0.26163400  1
  I  I16  1  0.38669200  0.31273200  0.26985300  1
  I  I17  1  0.61330800  0.68726800  0.73014700  1
  I  I18  1  0.13366700  0.55557500  0.14980400  1
  I  I19  1  0.86633300  0.44442500  0.85019600  1
  I  I20  1  0.62608200  0.38020500  0.06146400  1
  I  I21  1  0.37391800  0.61979500  0.93853600  1
  I  I22  1  0.12094700  0.20531100  0.48181200  1
  I  I23  1  0.87905300  0.79468900  0.51818800  1
  I  I24  1  0.61841000  0.03111800  0.38997300  1
  I  I25  1  0.38159000  0.96888200  0.61002700  1
  I  I26  1  0.11797300  0.87024100  0.30626000  1
  I  I27  1  0.88202700  0.12975900  0.69374000  1
  I  I28  1  0.13882700  0.52307200  0.65489000  1
  I  I29  1  0.86117300  0.47692800  0.34511000  1
  I  I30  1  0.60955500  0.36593700  0.57035200  1
  I  I31  1  0.39044500  0.63406300  0.42964800  1
  I  I32  1  0.14814300  0.22381400  0.97543200  1
  I  I33  1  0.85185700  0.77618600  0.02456800  1
  I  I34  1  0.61662600  0.06121900  0.89303700  1
  I  I35  1  0.38337400  0.93878100  0.10696300  1
  I  I36  1  0.13033800  0.89479600  0.81310900  1
  I  I37  1  0.86966200  0.10520400  0.18689100  1
