# generated using pymatgen
data_K2Ce(NO3)6
_symmetry_space_group_name_H-M   'P 1'
_cell_length_a   13.97129887
_cell_length_b   13.97129887
_cell_length_c   6.80719000
_cell_angle_alpha   90.00000000
_cell_angle_beta   90.00000000
_cell_angle_gamma   120.00000413
_symmetry_Int_Tables_number   1
_chemical_formula_structural   K2Ce(NO3)6
_chemical_formula_sum   'K6 Ce3 N18 O54'
_cell_volume   1150.72633575
_cell_formula_units_Z   3
loop_
 _symmetry_equiv_pos_site_id
 _symmetry_equiv_pos_as_xyz
  1  'x, y, z'
loop_
 _atom_site_type_symbol
 _atom_site_label
 _atom_site_symmetry_multiplicity
 _atom_site_fract_x
 _atom_site_fract_y
 _atom_site_fract_z
 _atom_site_occupancy
  K  K0  1  0.67404200  0.67979400  0.21878100  1
  K  K1  1  0.99424800  0.67404200  0.78121900  1
  K  K2  1  0.32020600  0.99424800  0.21878100  1
  K  K3  1  0.32595800  0.32020600  0.78121900  1
  K  K4  1  0.00575200  0.32595800  0.21878100  1
  K  K5  1  0.67979400  0.00575200  0.78121900  1
  Ce  Ce6  1  0.66666700  0.33333300  0.48948800  1
  Ce  Ce7  1  0.33333300  0.66666700  0.51051200  1
  Ce  Ce8  1  0.00000000  0.00000000  0.00000000  1
  N  N9  1  0.80083800  0.52610100  0.22345000  1
  N  N10  1  0.61549600  0.47562900  0.74800400  1
  N  N11  1  0.17727600  0.00970700  0.73319000  1
  N  N12  1  0.82272400  0.99029300  0.26681000  1
  N  N13  1  0.13986700  0.61549600  0.25199600  1
  N  N14  1  0.99029300  0.16756900  0.73319000  1
  N  N15  1  0.47389900  0.27473700  0.22345000  1
  N  N16  1  0.83243100  0.82272400  0.73319000  1
  N  N17  1  0.38450400  0.52437100  0.25199600  1
  N  N18  1  0.86013300  0.38450400  0.74800400  1
  N  N19  1  0.27473700  0.80083800  0.77655000  1
  N  N20  1  0.52437100  0.13986700  0.74800400  1
  N  N21  1  0.72526300  0.19916200  0.22345000  1
  N  N22  1  0.47562900  0.86013300  0.25199600  1
  N  N23  1  0.19916200  0.47389900  0.77655000  1
  N  N24  1  0.52610100  0.72526300  0.77655000  1
  N  N25  1  0.16756900  0.17727600  0.26681000  1
  N  N26  1  0.00970700  0.83243100  0.26681000  1
  O  O27  1  0.93680000  0.86191400  0.28477500  1
  O  O28  1  0.79923400  0.92559400  0.11660900  1
  O  O29  1  0.25004300  0.46596600  0.62442700  1
  O  O30  1  0.23020000  0.24852800  0.38246800  1
  O  O31  1  0.21592300  0.74995700  0.62442700  1
  O  O32  1  0.86918700  0.44901900  0.60431100  1
  O  O33  1  0.53345300  0.23514100  0.76797400  1
  O  O34  1  0.42016900  0.86918700  0.39568900  1
  O  O35  1  0.13808600  0.07488600  0.28477500  1
  O  O36  1  0.43384300  0.63690200  0.79935200  1
  O  O37  1  0.79694100  0.43384300  0.20064800  1
  O  O38  1  0.92559400  0.12636000  0.88339100  1
  O  O39  1  0.53403400  0.78407700  0.62442700  1
  O  O40  1  0.24852800  0.01832900  0.61753200  1
  O  O41  1  0.46654700  0.76485900  0.23202600  1
  O  O42  1  0.46742800  0.06178800  0.85761300  1
  O  O43  1  0.86191400  0.92511400  0.71522500  1
  O  O44  1  0.76980000  0.75147200  0.61753200  1
  O  O45  1  0.24445800  0.84857700  0.89197700  1
  O  O46  1  0.57983100  0.13081300  0.60431100  1
  O  O47  1  0.23514100  0.70168800  0.23202600  1
  O  O48  1  0.60411900  0.75554200  0.89197700  1
  O  O49  1  0.15142300  0.39588100  0.89197700  1
  O  O50  1  0.98167100  0.23020000  0.61753200  1
  O  O51  1  0.20305900  0.56615700  0.79935200  1
  O  O52  1  0.53257200  0.93821200  0.14238700  1
  O  O53  1  0.44901900  0.57983100  0.39568900  1
  O  O54  1  0.46596600  0.21592300  0.37557300  1
  O  O55  1  0.92511400  0.06320000  0.28477500  1
  O  O56  1  0.40564000  0.46742800  0.14238700  1
  O  O57  1  0.75554200  0.15142300  0.10802300  1
  O  O58  1  0.01832900  0.76980000  0.38246800  1
  O  O59  1  0.93821200  0.40564000  0.85761300  1
  O  O60  1  0.07488600  0.93680000  0.71522500  1
  O  O61  1  0.39588100  0.24445800  0.10802300  1
  O  O62  1  0.56615700  0.36309800  0.20064800  1
  O  O63  1  0.13081300  0.55098100  0.39568900  1
  O  O64  1  0.84857700  0.60411900  0.10802300  1
  O  O65  1  0.06320000  0.13808600  0.71522500  1
  O  O66  1  0.74995700  0.53403400  0.37557300  1
  O  O67  1  0.29831200  0.53345300  0.23202600  1
  O  O68  1  0.76485900  0.29831200  0.76797400  1
  O  O69  1  0.63690200  0.20305900  0.20064800  1
  O  O70  1  0.55098100  0.42016900  0.60431100  1
  O  O71  1  0.70168800  0.46654700  0.76797400  1
  O  O72  1  0.07440600  0.87364000  0.11660900  1
  O  O73  1  0.78407700  0.25004300  0.37557300  1
  O  O74  1  0.59436000  0.53257200  0.85761300  1
  O  O75  1  0.75147200  0.98167100  0.38246800  1
  O  O76  1  0.36309800  0.79694100  0.79935200  1
  O  O77  1  0.20076600  0.07440600  0.88339100  1
  O  O78  1  0.06178800  0.59436000  0.14238700  1
  O  O79  1  0.87364000  0.79923400  0.88339100  1
  O  O80  1  0.12636000  0.20076600  0.11660900  1
