# generated using pymatgen
data_Ba2U2O7
_symmetry_space_group_name_H-M   'P 1'
_cell_length_a   8.15982372
_cell_length_b   8.15982372
_cell_length_c   8.15982372
_cell_angle_alpha   119.58308585
_cell_angle_beta   118.97306584
_cell_angle_gamma   91.25581889
_symmetry_Int_Tables_number   1
_chemical_formula_structural   Ba2U2O7
_chemical_formula_sum   'Ba4 U4 O14'
_cell_volume   388.25115844
_cell_formula_units_Z   2
loop_
 _symmetry_equiv_pos_site_id
 _symmetry_equiv_pos_as_xyz
  1  'x, y, z'
loop_
 _atom_site_type_symbol
 _atom_site_label
 _atom_site_symmetry_multiplicity
 _atom_site_fract_x
 _atom_site_fract_y
 _atom_site_fract_z
 _atom_site_occupancy
  Ba  Ba0  1  0.00000000  0.00000000  0.00000000  1
  Ba  Ba1  1  0.50000000  0.50000000  0.00000000  1
  Ba  Ba2  1  0.50000000  0.00000000  0.00000000  1
  Ba  Ba3  1  0.50000000  0.50000000  0.50000000  1
  U  U4  1  0.00000000  0.00000000  0.50000000  1
  U  U5  1  0.00000000  0.50000000  0.50000000  1
  U  U6  1  0.00000000  0.50000000  0.00000000  1
  U  U7  1  0.50000000  0.00000000  0.50000000  1
  O  O8  1  0.91285700  0.75000000  0.16285700  1
  O  O9  1  0.68764400  0.91444800  0.36478100  1
  O  O10  1  0.62013100  0.90613500  0.71399600  1
  O  O11  1  0.68764400  0.32286300  0.77319600  1
  O  O12  1  0.31235600  0.67713700  0.22680400  1
  O  O13  1  0.31235600  0.08555200  0.63521900  1
  O  O14  1  0.69214000  0.40613500  0.28600400  1
  O  O15  1  0.04966700  0.82286300  0.63521900  1
  O  O16  1  0.04966700  0.41444800  0.22680400  1
  O  O17  1  0.08714300  0.25000000  0.83714300  1
  O  O18  1  0.37986900  0.09386500  0.28600400  1
  O  O19  1  0.95033300  0.17713700  0.36478100  1
  O  O20  1  0.95033300  0.58555200  0.77319600  1
  O  O21  1  0.30786000  0.59386500  0.71399600  1
