# generated using pymatgen
data_TbRhO3
_symmetry_space_group_name_H-M   'P 1'
_cell_length_a   5.29130200
_cell_length_b   5.83296000
_cell_length_c   7.67887700
_cell_angle_alpha   90.00000000
_cell_angle_beta   90.00000000
_cell_angle_gamma   90.00000000
_symmetry_Int_Tables_number   1
_chemical_formula_structural   TbRhO3
_chemical_formula_sum   'Tb4 Rh4 O12'
_cell_volume   237.00049816
_cell_formula_units_Z   4
loop_
 _symmetry_equiv_pos_site_id
 _symmetry_equiv_pos_as_xyz
  1  'x, y, z'
loop_
 _atom_site_type_symbol
 _atom_site_label
 _atom_site_symmetry_multiplicity
 _atom_site_fract_x
 _atom_site_fract_y
 _atom_site_fract_z
 _atom_site_occupancy
  Tb  Tb0  1  0.46897100  0.58505200  0.75000000  1
  Tb  Tb1  1  0.96897100  0.91494800  0.25000000  1
  Tb  Tb2  1  0.03102900  0.08505200  0.75000000  1
  Tb  Tb3  1  0.53102900  0.41494800  0.25000000  1
  Rh  Rh4  1  0.50000000  0.00000000  0.50000000  1
  Rh  Rh5  1  0.00000000  0.50000000  0.50000000  1
  Rh  Rh6  1  0.00000000  0.50000000  0.00000000  1
  Rh  Rh7  1  0.50000000  0.00000000  0.00000000  1
  O  O8  1  0.82308500  0.19057500  0.43780400  1
  O  O9  1  0.32308500  0.30942500  0.56219600  1
  O  O10  1  0.67691500  0.69057500  0.06219600  1
  O  O11  1  0.17691500  0.80942500  0.93780400  1
  O  O12  1  0.17691500  0.80942500  0.56219600  1
  O  O13  1  0.67691500  0.69057500  0.43780400  1
  O  O14  1  0.32308500  0.30942500  0.93780400  1
  O  O15  1  0.82308500  0.19057500  0.06219600  1
  O  O16  1  0.36618000  0.05100900  0.25000000  1
  O  O17  1  0.86618000  0.44899100  0.75000000  1
  O  O18  1  0.13382000  0.55100900  0.25000000  1
  O  O19  1  0.63382000  0.94899100  0.75000000  1
