# generated using pymatgen
data_BaNi9As5
_symmetry_space_group_name_H-M   'P 1'
_cell_length_a   6.76034208
_cell_length_b   6.76034208
_cell_length_c   11.31774600
_cell_angle_alpha   90.00000000
_cell_angle_beta   90.00000000
_cell_angle_gamma   120.00000076
_symmetry_Int_Tables_number   1
_chemical_formula_structural   BaNi9As5
_chemical_formula_sum   'Ba2 Ni18 As10'
_cell_volume   447.94832350
_cell_formula_units_Z   2
loop_
 _symmetry_equiv_pos_site_id
 _symmetry_equiv_pos_as_xyz
  1  'x, y, z'
loop_
 _atom_site_type_symbol
 _atom_site_label
 _atom_site_symmetry_multiplicity
 _atom_site_fract_x
 _atom_site_fract_y
 _atom_site_fract_z
 _atom_site_occupancy
  Ba  Ba0  1  0.00000000  0.00000000  0.00000000  1
  Ba  Ba1  1  0.00000000  0.00000000  0.50000000  1
  Ni  Ni2  1  0.53561800  0.46438200  0.10653200  1
  Ni  Ni3  1  0.07123600  0.53561800  0.60653200  1
  Ni  Ni4  1  0.46438200  0.92876400  0.60653200  1
  Ni  Ni5  1  0.53561800  0.07123600  0.10653200  1
  Ni  Ni6  1  0.92876400  0.46438200  0.10653200  1
  Ni  Ni7  1  0.07123600  0.53561800  0.89346800  1
  Ni  Ni8  1  0.46438200  0.92876400  0.89346800  1
  Ni  Ni9  1  0.46438200  0.53561800  0.60653200  1
  Ni  Ni10  1  0.46438200  0.53561800  0.89346800  1
  Ni  Ni11  1  0.53561800  0.46438200  0.39346800  1
  Ni  Ni12  1  0.92876400  0.46438200  0.39346800  1
  Ni  Ni13  1  0.53561800  0.07123600  0.39346800  1
  Ni  Ni14  1  0.20891000  0.79109000  0.25000000  1
  Ni  Ni15  1  0.41782000  0.20891000  0.75000000  1
  Ni  Ni16  1  0.79109000  0.58218000  0.75000000  1
  Ni  Ni17  1  0.20891000  0.41782000  0.25000000  1
  Ni  Ni18  1  0.58218000  0.79109000  0.25000000  1
  Ni  Ni19  1  0.79109000  0.20891000  0.75000000  1
  As  As20  1  0.82715100  0.17284900  0.25000000  1
  As  As21  1  0.65430100  0.82715100  0.75000000  1
  As  As22  1  0.17284900  0.34569900  0.75000000  1
  As  As23  1  0.82715100  0.65430100  0.25000000  1
  As  As24  1  0.34569900  0.17284900  0.25000000  1
  As  As25  1  0.17284900  0.82715100  0.75000000  1
  As  As26  1  0.33333300  0.66666700  0.06094000  1
  As  As27  1  0.66666700  0.33333300  0.56094000  1
  As  As28  1  0.66666700  0.33333300  0.93906000  1
  As  As29  1  0.33333300  0.66666700  0.43906000  1
