# generated using pymatgen
data_Nd12C6I17
_symmetry_space_group_name_H-M   'P 1'
_cell_length_a   11.93452325
_cell_length_b   11.93452325
_cell_length_c   19.35605311
_cell_angle_alpha   89.25034217
_cell_angle_beta   89.25034217
_cell_angle_gamma   63.97618236
_symmetry_Int_Tables_number   1
_chemical_formula_structural   Nd12C6I17
_chemical_formula_sum   'Nd24 C12 I34'
_cell_volume   2477.12181606
_cell_formula_units_Z   2
loop_
 _symmetry_equiv_pos_site_id
 _symmetry_equiv_pos_as_xyz
  1  'x, y, z'
loop_
 _atom_site_type_symbol
 _atom_site_label
 _atom_site_symmetry_multiplicity
 _atom_site_fract_x
 _atom_site_fract_y
 _atom_site_fract_z
 _atom_site_occupancy
  Nd  Nd0  1  0.01968200  0.07677700  0.15227200  1
  Nd  Nd1  1  0.19210800  0.66195000  0.71134700  1
  Nd  Nd2  1  0.70964800  0.29704700  0.02098800  1
  Nd  Nd3  1  0.80789200  0.33805000  0.28865300  1
  Nd  Nd4  1  0.89784300  0.42325600  0.11698300  1
  Nd  Nd5  1  0.57674400  0.10215700  0.38301700  1
  Nd  Nd6  1  0.35825400  0.35946900  0.05017300  1
  Nd  Nd7  1  0.64174600  0.64053100  0.94982700  1
  Nd  Nd8  1  0.42325600  0.89784300  0.61698300  1
  Nd  Nd9  1  0.54823300  0.53383300  0.62759600  1
  Nd  Nd10  1  0.53383300  0.54823300  0.12759600  1
  Nd  Nd11  1  0.07677700  0.01968200  0.65227200  1
  Nd  Nd12  1  0.35946900  0.35825400  0.55017300  1
  Nd  Nd13  1  0.33805000  0.80789200  0.78865300  1
  Nd  Nd14  1  0.10215700  0.57674400  0.88301700  1
  Nd  Nd15  1  0.70295300  0.29035200  0.47901200  1
  Nd  Nd16  1  0.29704700  0.70964800  0.52098800  1
  Nd  Nd17  1  0.98031800  0.92322300  0.84772800  1
  Nd  Nd18  1  0.64053100  0.64174600  0.44982700  1
  Nd  Nd19  1  0.45176700  0.46616700  0.37240400  1
  Nd  Nd20  1  0.92322300  0.98031800  0.34772800  1
  Nd  Nd21  1  0.66195000  0.19210800  0.21134700  1
  Nd  Nd22  1  0.29035200  0.70295300  0.97901200  1
  Nd  Nd23  1  0.46616700  0.45176700  0.87240400  1
  C  C24  1  0.46801100  0.46671100  0.51168100  1
  C  C25  1  0.53328900  0.53198900  0.98831900  1
  C  C26  1  0.25615200  0.83124600  0.65295900  1
  C  C27  1  0.53198900  0.53328900  0.48831900  1
  C  C28  1  0.36616700  0.71980700  0.64982600  1
  C  C29  1  0.28019300  0.63383300  0.85017400  1
  C  C30  1  0.16875400  0.74384800  0.84704100  1
  C  C31  1  0.46671100  0.46801100  0.01168100  1
  C  C32  1  0.74384800  0.16875400  0.34704100  1
  C  C33  1  0.83124600  0.25615200  0.15295900  1
  C  C34  1  0.63383300  0.28019300  0.35017400  1
  C  C35  1  0.71980700  0.36616700  0.14982600  1
  I  I36  1  0.09541900  0.60252800  0.04872000  1
  I  I37  1  0.78738500  0.82012100  0.39892400  1
  I  I38  1  0.60246200  0.10516600  0.06011500  1
  I  I39  1  0.00000000  0.00000000  0.00000000  1
  I  I40  1  0.90458100  0.39747200  0.95128000  1
  I  I41  1  0.80666600  0.28353200  0.63750300  1
  I  I42  1  0.03388400  0.50182700  0.74625700  1
  I  I43  1  0.88796500  0.90655800  0.19690700  1
  I  I44  1  0.39747200  0.90458100  0.45128000  1
  I  I45  1  0.19333400  0.71646800  0.36249700  1
  I  I46  1  0.57617300  0.62585900  0.29201700  1
  I  I47  1  0.96611600  0.49817300  0.25374300  1
  I  I48  1  0.60252800  0.09541900  0.54872000  1
  I  I49  1  0.10516600  0.60246200  0.56011500  1
  I  I50  1  0.62585900  0.57617300  0.79201700  1
  I  I51  1  0.09344200  0.11203500  0.30309300  1
  I  I52  1  0.89483400  0.39753800  0.43988500  1
  I  I53  1  0.50182700  0.03388400  0.24625700  1
  I  I54  1  0.82012100  0.78738500  0.89892400  1
  I  I55  1  0.39753800  0.89483400  0.93988500  1
  I  I56  1  0.28353200  0.80666600  0.13750300  1
  I  I57  1  0.31010400  0.29168000  0.89978800  1
  I  I58  1  0.49817300  0.96611600  0.75374300  1
  I  I59  1  0.21261500  0.17987900  0.60107600  1
  I  I60  1  0.68989600  0.70832000  0.10021200  1
  I  I61  1  0.42382700  0.37414100  0.70798300  1
  I  I62  1  0.17987900  0.21261500  0.10107600  1
  I  I63  1  0.29168000  0.31010400  0.39978800  1
  I  I64  1  0.71646800  0.19333400  0.86249700  1
  I  I65  1  0.70832000  0.68989600  0.60021200  1
  I  I66  1  0.11203500  0.09344200  0.80309300  1
  I  I67  1  0.90655800  0.88796500  0.69690700  1
  I  I68  1  0.37414100  0.42382700  0.20798300  1
  I  I69  1  0.00000000  0.00000000  0.50000000  1
