# generated using pymatgen
data_LiB6C
_symmetry_space_group_name_H-M   'P 1'
_cell_length_a   5.32000965
_cell_length_b   5.32000965
_cell_length_c   4.70463500
_cell_angle_alpha   90.00000000
_cell_angle_beta   90.00000000
_cell_angle_gamma   115.83138861
_symmetry_Int_Tables_number   1
_chemical_formula_structural   LiB6C
_chemical_formula_sum   'Li2 B12 C2'
_cell_volume   119.84832907
_cell_formula_units_Z   2
loop_
 _symmetry_equiv_pos_site_id
 _symmetry_equiv_pos_as_xyz
  1  'x, y, z'
loop_
 _atom_site_type_symbol
 _atom_site_label
 _atom_site_symmetry_multiplicity
 _atom_site_fract_x
 _atom_site_fract_y
 _atom_site_fract_z
 _atom_site_occupancy
  Li  Li0  1  0.47202100  0.88722600  0.50000000  1
  Li  Li1  1  0.88722600  0.47202100  0.50000000  1
  B  B2  1  0.74233100  0.74233100  0.18289800  1
  B  B3  1  0.09766100  0.90226900  0.30621200  1
  B  B4  1  0.90226900  0.09766100  0.30621200  1
  B  B5  1  0.25654000  0.25654000  0.81654200  1
  B  B6  1  0.66766600  0.00650100  0.00000000  1
  B  B7  1  0.90226900  0.09766100  0.69378800  1
  B  B8  1  0.99286100  0.33065700  0.00000000  1
  B  B9  1  0.00650100  0.66766600  0.00000000  1
  B  B10  1  0.09766100  0.90226900  0.69378800  1
  B  B11  1  0.74233100  0.74233100  0.81710200  1
  B  B12  1  0.33065700  0.99286100  0.00000000  1
  B  B13  1  0.25654000  0.25654000  0.18345800  1
  C  C14  1  0.49803200  0.49803200  0.35348800  1
  C  C15  1  0.49803200  0.49803200  0.64651200  1
