# generated using pymatgen
data_TePbO3
_symmetry_space_group_name_H-M   'P 1'
_cell_length_a   13.82585132
_cell_length_b   13.82585132
_cell_length_c   18.52876213
_cell_angle_alpha   72.95928081
_cell_angle_beta   72.95928081
_cell_angle_gamma   19.42706633
_symmetry_Int_Tables_number   1
_chemical_formula_structural   TePbO3
_chemical_formula_sum   'Te12 Pb12 O36'
_cell_volume   1124.77168781
_cell_formula_units_Z   12
loop_
 _symmetry_equiv_pos_site_id
 _symmetry_equiv_pos_as_xyz
  1  'x, y, z'
loop_
 _atom_site_type_symbol
 _atom_site_label
 _atom_site_symmetry_multiplicity
 _atom_site_fract_x
 _atom_site_fract_y
 _atom_site_fract_z
 _atom_site_occupancy
  Te  Te0  1  0.18566600  0.71858800  0.37055800  1
  Te  Te1  1  0.28141200  0.81433400  0.12944200  1
  Te  Te2  1  0.81433400  0.28141200  0.62944200  1
  Te  Te3  1  0.71858800  0.18566600  0.87055800  1
  Te  Te4  1  0.18468900  0.67562300  0.70770400  1
  Te  Te5  1  0.32437700  0.81531100  0.79229600  1
  Te  Te6  1  0.81531100  0.32437700  0.29229600  1
  Te  Te7  1  0.67562300  0.18468900  0.20770400  1
  Te  Te8  1  0.09878400  0.48423000  0.59412600  1
  Te  Te9  1  0.51577000  0.90121600  0.90587400  1
  Te  Te10  1  0.90121600  0.51577000  0.40587400  1
  Te  Te11  1  0.48423000  0.09878400  0.09412600  1
  Pb  Pb12  1  0.60926600  0.02217500  0.73453500  1
  Pb  Pb13  1  0.97782500  0.39073400  0.76546500  1
  Pb  Pb14  1  0.39073400  0.97782500  0.26546500  1
  Pb  Pb15  1  0.02217500  0.60926600  0.23453500  1
  Pb  Pb16  1  0.71250200  0.15661900  0.54625300  1
  Pb  Pb17  1  0.84338100  0.28749800  0.95374700  1
  Pb  Pb18  1  0.28749800  0.84338100  0.45374700  1
  Pb  Pb19  1  0.15661900  0.71250200  0.04625300  1
  Pb  Pb20  1  0.08697300  0.59290900  0.91139600  1
  Pb  Pb21  1  0.40709100  0.91302700  0.58860400  1
  Pb  Pb22  1  0.91302700  0.40709100  0.08860400  1
  Pb  Pb23  1  0.59290900  0.08697300  0.41139600  1
  O  O24  1  0.16503100  0.79102500  0.45541400  1
  O  O25  1  0.20897500  0.83496900  0.04458600  1
  O  O26  1  0.83496900  0.20897500  0.54458600  1
  O  O27  1  0.79102500  0.16503100  0.95541400  1
  O  O28  1  0.04742800  0.71701700  0.42658000  1
  O  O29  1  0.28298300  0.95257200  0.07342000  1
  O  O30  1  0.95257200  0.28298300  0.57342000  1
  O  O31  1  0.71701700  0.04742800  0.92658000  1
  O  O32  1  0.58083400  0.30677000  0.37073600  1
  O  O33  1  0.69323000  0.41916600  0.12926400  1
  O  O34  1  0.41916600  0.69323000  0.62926400  1
  O  O35  1  0.30677000  0.58083400  0.87073600  1
  O  O36  1  0.09499500  0.63189600  0.78063800  1
  O  O37  1  0.36810400  0.90500500  0.71936200  1
  O  O38  1  0.90500500  0.36810400  0.21936200  1
  O  O39  1  0.63189600  0.09499500  0.28063800  1
  O  O40  1  0.08181700  0.72905600  0.62386100  1
  O  O41  1  0.27094400  0.91818300  0.87613900  1
  O  O42  1  0.91818300  0.27094400  0.37613900  1
  O  O43  1  0.72905600  0.08181700  0.12386100  1
  O  O44  1  0.59091000  0.27899400  0.69111400  1
  O  O45  1  0.72100600  0.40909000  0.80888600  1
  O  O46  1  0.40909000  0.72100600  0.30888600  1
  O  O47  1  0.27899400  0.59091000  0.19111400  1
  O  O48  1  0.00011900  0.55561200  0.69986100  1
  O  O49  1  0.44438800  0.99988100  0.80013900  1
  O  O50  1  0.99988100  0.44438800  0.30013900  1
  O  O51  1  0.55561200  0.00011900  0.19986100  1
  O  O52  1  0.50243000  0.12779100  0.59921000  1
  O  O53  1  0.87220900  0.49757000  0.90079000  1
  O  O54  1  0.49757000  0.87220900  0.40079000  1
  O  O55  1  0.12779100  0.50243000  0.09921000  1
  O  O56  1  0.09221700  0.35053300  0.60253000  1
  O  O57  1  0.64946700  0.90778300  0.89747000  1
  O  O58  1  0.90778300  0.64946700  0.39747000  1
  O  O59  1  0.35053300  0.09221700  0.10253000  1
