# generated using pymatgen
data_Cs2Cd3Te4
_symmetry_space_group_name_H-M   'P 1'
_cell_length_a   10.92144299
_cell_length_b   10.92144299
_cell_length_c   10.92144299
_cell_angle_alpha   143.23139082
_cell_angle_beta   104.09129505
_cell_angle_gamma   87.44794153
_symmetry_Int_Tables_number   1
_chemical_formula_structural   Cs2Cd3Te4
_chemical_formula_sum   'Cs4 Cd6 Te8'
_cell_volume   730.44974222
_cell_formula_units_Z   2
loop_
 _symmetry_equiv_pos_site_id
 _symmetry_equiv_pos_as_xyz
  1  'x, y, z'
loop_
 _atom_site_type_symbol
 _atom_site_label
 _atom_site_symmetry_multiplicity
 _atom_site_fract_x
 _atom_site_fract_y
 _atom_site_fract_z
 _atom_site_occupancy
  Cs  Cs0  1  0.87727900  0.73151100  0.60879000  1
  Cs  Cs1  1  0.37727900  0.76848900  0.14576800  1
  Cs  Cs2  1  0.62272100  0.23151100  0.85423200  1
  Cs  Cs3  1  0.12272100  0.26848900  0.39121000  1
  Cd  Cd4  1  0.97801700  0.25000000  0.72801700  1
  Cd  Cd5  1  0.75000000  0.75000000  0.00000000  1
  Cd  Cd6  1  0.47801700  0.75000000  0.72801700  1
  Cd  Cd7  1  0.52198300  0.25000000  0.27198300  1
  Cd  Cd8  1  0.25000000  0.25000000  0.00000000  1
  Cd  Cd9  1  0.02198300  0.75000000  0.27198300  1
  Te  Te10  1  0.27370700  0.91825400  0.90724100  1
  Te  Te11  1  0.22629300  0.13353400  0.64454700  1
  Te  Te12  1  0.77370700  0.86646600  0.35545300  1
  Te  Te13  1  0.01101300  0.36646600  0.09275900  1
  Te  Te14  1  0.72629300  0.08174600  0.09275900  1
  Te  Te15  1  0.51101300  0.41825400  0.64454700  1
  Te  Te16  1  0.48898700  0.58174600  0.35545300  1
  Te  Te17  1  0.98898700  0.63353400  0.90724100  1
