# generated using pymatgen
data_MoO2
_symmetry_space_group_name_H-M   'P 1'
_cell_length_a   4.81585600
_cell_length_b   5.75954757
_cell_length_c   6.34500397
_cell_angle_alpha   123.67852275
_cell_angle_beta   90.00000000
_cell_angle_gamma   90.00000000
_symmetry_Int_Tables_number   1
_chemical_formula_structural   MoO2
_chemical_formula_sum   'Mo4 O8'
_cell_volume   146.45414388
_cell_formula_units_Z   4
loop_
 _symmetry_equiv_pos_site_id
 _symmetry_equiv_pos_as_xyz
  1  'x, y, z'
loop_
 _atom_site_type_symbol
 _atom_site_label
 _atom_site_symmetry_multiplicity
 _atom_site_fract_x
 _atom_site_fract_y
 _atom_site_fract_z
 _atom_site_occupancy
  Mo  Mo0  1  0.00962800  0.75016900  0.00019400  1
  Mo  Mo1  1  0.50962800  0.24983100  0.99980600  1
  Mo  Mo2  1  0.51038600  0.25013100  0.50018300  1
  Mo  Mo3  1  0.01038600  0.74986900  0.49981700  1
  O  O4  1  0.70894600  0.04322400  0.64810000  1
  O  O5  1  0.20894600  0.95677600  0.35190000  1
  O  O6  1  0.81109200  0.54334800  0.14813000  1
  O  O7  1  0.31109200  0.45665200  0.85187000  1
  O  O8  1  0.70775200  0.04291600  0.14776300  1
  O  O9  1  0.20775200  0.95708400  0.85223700  1
  O  O10  1  0.81219600  0.54284700  0.64774200  1
  O  O11  1  0.31219600  0.45715300  0.35225800  1
