# generated using pymatgen
data_Zr2P2O9
_symmetry_space_group_name_H-M   'P 1'
_cell_length_a   7.73739405
_cell_length_b   7.73739405
_cell_length_c   10.27343162
_cell_angle_alpha   53.22959733
_cell_angle_beta   53.22959733
_cell_angle_gamma   51.22137115
_symmetry_Int_Tables_number   1
_chemical_formula_structural   Zr2P2O9
_chemical_formula_sum   'Zr4 P4 O18'
_cell_volume   358.58737980
_cell_formula_units_Z   2
loop_
 _symmetry_equiv_pos_site_id
 _symmetry_equiv_pos_as_xyz
  1  'x, y, z'
loop_
 _atom_site_type_symbol
 _atom_site_label
 _atom_site_symmetry_multiplicity
 _atom_site_fract_x
 _atom_site_fract_y
 _atom_site_fract_z
 _atom_site_occupancy
  Zr  Zr0  1  0.05674000  0.05674000  0.09831500  1
  Zr  Zr1  1  0.94326000  0.94326000  0.90168500  1
  Zr  Zr2  1  0.68455600  0.68455600  0.36416100  1
  Zr  Zr3  1  0.31544400  0.31544400  0.63583900  1
  P  P4  1  0.59306700  0.59306700  0.16534400  1
  P  P5  1  0.82975300  0.82975300  0.54138300  1
  P  P6  1  0.40693300  0.40693300  0.83465600  1
  P  P7  1  0.17024700  0.17024700  0.45861700  1
  O  O8  1  0.62631900  0.00348000  0.63987500  1
  O  O9  1  0.61769300  0.24198600  0.89449800  1
  O  O10  1  0.48345300  0.48345300  0.63415600  1
  O  O11  1  0.38230700  0.75801400  0.10550200  1
  O  O12  1  0.00348000  0.62631900  0.63987500  1
  O  O13  1  0.37368100  0.99652000  0.36012500  1
  O  O14  1  0.73251700  0.73251700  0.09791100  1
  O  O15  1  0.26748300  0.26748300  0.90208900  1
  O  O16  1  0.51654700  0.51654700  0.36584400  1
  O  O17  1  0.27208700  0.27208700  0.47666300  1
  O  O18  1  0.96527900  0.96527900  0.35774200  1
  O  O19  1  0.03472100  0.03472100  0.64225800  1
  O  O20  1  0.11363000  0.11363000  0.84447300  1
  O  O21  1  0.99652000  0.37368100  0.36012500  1
  O  O22  1  0.75801400  0.38230700  0.10550200  1
  O  O23  1  0.72791300  0.72791300  0.52333700  1
  O  O24  1  0.24198600  0.61769300  0.89449800  1
  O  O25  1  0.88637000  0.88637000  0.15552700  1
