# generated using pymatgen
data_Cs5In3As4
_symmetry_space_group_name_H-M   'P 1'
_cell_length_a   12.55146800
_cell_length_b   17.35258300
_cell_length_c   18.56816169
_cell_angle_alpha   62.77409554
_cell_angle_beta   90.00000000
_cell_angle_gamma   90.00000000
_symmetry_Int_Tables_number   1
_chemical_formula_structural   Cs5In3As4
_chemical_formula_sum   'Cs40 In24 As32'
_cell_volume   3596.09962968
_cell_formula_units_Z   8
loop_
 _symmetry_equiv_pos_site_id
 _symmetry_equiv_pos_as_xyz
  1  'x, y, z'
loop_
 _atom_site_type_symbol
 _atom_site_label
 _atom_site_symmetry_multiplicity
 _atom_site_fract_x
 _atom_site_fract_y
 _atom_site_fract_z
 _atom_site_occupancy
  Cs  Cs0  1  0.36514000  0.78421600  0.40507500  1
  Cs  Cs1  1  0.63512800  0.44050800  0.13737000  1
  Cs  Cs2  1  0.13512800  0.55949200  0.36263000  1
  Cs  Cs3  1  0.41327800  0.25100300  0.31095500  1
  Cs  Cs4  1  0.38173800  0.20797100  0.10636000  1
  Cs  Cs5  1  0.85466300  0.64683500  0.03736600  1
  Cs  Cs6  1  0.87544500  0.76323700  0.78743100  1
  Cs  Cs7  1  0.61826200  0.79202900  0.89364000  1
  Cs  Cs8  1  0.88173800  0.79202900  0.39364000  1
  Cs  Cs9  1  0.33780700  0.75067600  0.18686700  1
  Cs  Cs10  1  0.86487200  0.44050800  0.63737000  1
  Cs  Cs11  1  0.12776000  0.09876100  0.46146000  1
  Cs  Cs12  1  0.62776000  0.90123900  0.03854000  1
  Cs  Cs13  1  0.37544500  0.23676300  0.71256900  1
  Cs  Cs14  1  0.14533700  0.35316500  0.96263400  1
  Cs  Cs15  1  0.62439900  0.07962100  0.46648900  1
  Cs  Cs16  1  0.39737400  0.64197400  0.03489000  1
  Cs  Cs17  1  0.11826200  0.20797100  0.60636000  1
  Cs  Cs18  1  0.12439900  0.92037900  0.03351100  1
  Cs  Cs19  1  0.83780700  0.24932400  0.31313300  1
  Cs  Cs20  1  0.58672200  0.74899700  0.68904500  1
  Cs  Cs21  1  0.66219300  0.24932400  0.81313300  1
  Cs  Cs22  1  0.64533700  0.64683500  0.53736600  1
  Cs  Cs23  1  0.60262600  0.35802600  0.96511000  1
  Cs  Cs24  1  0.16219300  0.75067600  0.68686700  1
  Cs  Cs25  1  0.87560100  0.07962100  0.96648900  1
  Cs  Cs26  1  0.91327800  0.74899700  0.18904500  1
  Cs  Cs27  1  0.12455500  0.23676300  0.21256900  1
  Cs  Cs28  1  0.37560100  0.92037900  0.53351100  1
  Cs  Cs29  1  0.37224000  0.09876100  0.96146000  1
  Cs  Cs30  1  0.10262600  0.64197400  0.53489000  1
  Cs  Cs31  1  0.13486000  0.78421600  0.90507500  1
  Cs  Cs32  1  0.63486000  0.21578400  0.59492500  1
  Cs  Cs33  1  0.89737400  0.35802600  0.46511000  1
  Cs  Cs34  1  0.36487200  0.55949200  0.86263000  1
  Cs  Cs35  1  0.87224000  0.90123900  0.53854000  1
  Cs  Cs36  1  0.35466300  0.35316500  0.46263400  1
  Cs  Cs37  1  0.86514000  0.21578400  0.09492500  1
  Cs  Cs38  1  0.62455500  0.76323700  0.28743100  1
  Cs  Cs39  1  0.08672200  0.25100300  0.81095500  1
  In  In40  1  0.99391500  0.99624100  0.20091400  1
  In  In41  1  0.50608500  0.99624100  0.70091400  1
  In  In42  1  0.00608500  0.00375900  0.79908600  1
  In  In43  1  0.49391500  0.00375900  0.29908600  1
  In  In44  1  0.12512600  0.91468500  0.39628900  1
  In  In45  1  0.62512600  0.08531500  0.10371100  1
  In  In46  1  0.87658800  0.49505600  0.94814900  1
  In  In47  1  0.76532000  0.53188200  0.27870300  1
  In  In48  1  0.02211500  0.52351100  0.77533100  1
  In  In49  1  0.37487400  0.91468500  0.89628900  1
  In  In50  1  0.97788500  0.47648900  0.22466900  1
  In  In51  1  0.23468000  0.46811800  0.72129700  1
  In  In52  1  0.73468000  0.53188200  0.77870300  1
  In  In53  1  0.74643000  0.00653800  0.79992700  1
  In  In54  1  0.25357000  0.99346200  0.20007300  1
  In  In55  1  0.26532000  0.46811800  0.22129700  1
  In  In56  1  0.37658800  0.50494400  0.55185100  1
  In  In57  1  0.62341200  0.49505600  0.44814900  1
  In  In58  1  0.24643000  0.99346200  0.70007300  1
  In  In59  1  0.87487400  0.08531500  0.60371100  1
  In  In60  1  0.12341200  0.50494400  0.05185100  1
  In  In61  1  0.52211500  0.47648900  0.72466900  1
  In  In62  1  0.47788500  0.52351100  0.27533100  1
  In  In63  1  0.75357000  0.00653800  0.29992700  1
  As  As64  1  0.12729800  0.60936200  0.13174000  1
  As  As65  1  0.81374900  0.57900000  0.39979900  1
  As  As66  1  0.88065500  0.63986000  0.66441700  1
  As  As67  1  0.43766500  0.59022700  0.39022500  1
  As  As68  1  0.62344400  0.15098900  0.22826000  1
  As  As69  1  0.45761400  0.95567800  0.17717600  1
  As  As70  1  0.93766500  0.40977300  0.10977500  1
  As  As71  1  0.31374900  0.42100000  0.10020100  1
  As  As72  1  0.37270200  0.60936200  0.63174000  1
  As  As73  1  0.56233500  0.40977300  0.60977500  1
  As  As74  1  0.62729800  0.39063800  0.36826000  1
  As  As75  1  0.37655600  0.84901100  0.77174000  1
  As  As76  1  0.11934500  0.36014000  0.33558300  1
  As  As77  1  0.12344400  0.84901100  0.27174000  1
  As  As78  1  0.18625100  0.42100000  0.60020100  1
  As  As79  1  0.87655600  0.15098900  0.72826000  1
  As  As80  1  0.04238600  0.95567800  0.67717600  1
  As  As81  1  0.37743300  0.10631600  0.57776900  1
  As  As82  1  0.79054000  0.95505600  0.18017900  1
  As  As83  1  0.95761400  0.04432200  0.32282400  1
  As  As84  1  0.87743300  0.89368400  0.92223100  1
  As  As85  1  0.87270200  0.39063800  0.86826000  1
  As  As86  1  0.61934500  0.63986000  0.16441700  1
  As  As87  1  0.06233500  0.59022700  0.89022500  1
  As  As88  1  0.12256700  0.10631600  0.07776900  1
  As  As89  1  0.70946000  0.95505600  0.68017900  1
  As  As90  1  0.20946000  0.04494400  0.81982100  1
  As  As91  1  0.29054000  0.04494400  0.31982100  1
  As  As92  1  0.38065500  0.36014000  0.83558300  1
  As  As93  1  0.62256700  0.89368400  0.42223100  1
  As  As94  1  0.54238600  0.04432200  0.82282400  1
  As  As95  1  0.68625100  0.57900000  0.89979900  1
