# generated using pymatgen
data_BaCoN
_symmetry_space_group_name_H-M   'P 1'
_cell_length_a   5.47448300
_cell_length_b   9.70885200
_cell_length_c   23.62038700
_cell_angle_alpha   90.00000000
_cell_angle_beta   90.00000000
_cell_angle_gamma   90.00000000
_symmetry_Int_Tables_number   1
_chemical_formula_structural   BaCoN
_chemical_formula_sum   'Ba20 Co20 N20'
_cell_volume   1255.44589560
_cell_formula_units_Z   20
loop_
 _symmetry_equiv_pos_site_id
 _symmetry_equiv_pos_as_xyz
  1  'x, y, z'
loop_
 _atom_site_type_symbol
 _atom_site_label
 _atom_site_symmetry_multiplicity
 _atom_site_fract_x
 _atom_site_fract_y
 _atom_site_fract_z
 _atom_site_occupancy
  Ba  Ba0  1  0.00542600  0.99814800  0.25000000  1
  Ba  Ba1  1  0.50654100  0.15890600  0.45142800  1
  Ba  Ba2  1  0.95984800  0.67193800  0.84898500  1
  Ba  Ba3  1  0.54015200  0.17193800  0.84898500  1
  Ba  Ba4  1  0.49345900  0.84109400  0.54857200  1
  Ba  Ba5  1  0.99345900  0.65890600  0.04857200  1
  Ba  Ba6  1  0.04015200  0.32806200  0.34898500  1
  Ba  Ba7  1  0.45984800  0.82806200  0.15101500  1
  Ba  Ba8  1  0.95984800  0.67193800  0.65101500  1
  Ba  Ba9  1  0.00654100  0.34109400  0.95142800  1
  Ba  Ba10  1  0.45984800  0.82806200  0.34898500  1
  Ba  Ba11  1  0.00654100  0.34109400  0.54857200  1
  Ba  Ba12  1  0.04015200  0.32806200  0.15101500  1
  Ba  Ba13  1  0.99345900  0.65890600  0.45142800  1
  Ba  Ba14  1  0.49345900  0.84109400  0.95142800  1
  Ba  Ba15  1  0.49457400  0.49814800  0.25000000  1
  Ba  Ba16  1  0.54015200  0.17193800  0.65101500  1
  Ba  Ba17  1  0.50542600  0.50185200  0.75000000  1
  Ba  Ba18  1  0.99457400  0.00185200  0.75000000  1
  Ba  Ba19  1  0.50654100  0.15890600  0.04857200  1
  Co  Co20  1  0.45696200  0.84951500  0.80207100  1
  Co  Co21  1  0.54303800  0.15048500  0.30207100  1
  Co  Co22  1  0.04303800  0.34951500  0.80207100  1
  Co  Co23  1  0.04208800  0.99318200  0.89749800  1
  Co  Co24  1  0.95791200  0.00681800  0.39749800  1
  Co  Co25  1  0.45791200  0.49318200  0.89749800  1
  Co  Co26  1  0.95696200  0.65048500  0.19792900  1
  Co  Co27  1  0.45791200  0.49318200  0.60250200  1
  Co  Co28  1  0.54208800  0.50681800  0.39749800  1
  Co  Co29  1  0.04208800  0.99318200  0.60250200  1
  Co  Co30  1  0.04303800  0.34951500  0.69792900  1
  Co  Co31  1  0.00000000  0.00000000  0.50000000  1
  Co  Co32  1  0.54303800  0.15048500  0.19792900  1
  Co  Co33  1  0.95696200  0.65048500  0.30207100  1
  Co  Co34  1  0.45696200  0.84951500  0.69792900  1
  Co  Co35  1  0.00000000  0.00000000  0.00000000  1
  Co  Co36  1  0.54208800  0.50681800  0.10250200  1
  Co  Co37  1  0.95791200  0.00681800  0.10250200  1
  Co  Co38  1  0.50000000  0.50000000  0.50000000  1
  Co  Co39  1  0.50000000  0.50000000  0.00000000  1
  N  N40  1  0.25190300  0.92125400  0.85053200  1
  N  N41  1  0.75190300  0.57874600  0.35053200  1
  N  N42  1  0.68224200  0.57032900  0.55724500  1
  N  N43  1  0.24809700  0.42125400  0.85053200  1
  N  N44  1  0.33735600  0.22328100  0.25000000  1
  N  N45  1  0.81775800  0.07032900  0.55724500  1
  N  N46  1  0.16264400  0.72328100  0.25000000  1
  N  N47  1  0.66264400  0.77671900  0.75000000  1
  N  N48  1  0.68224200  0.57032900  0.94275500  1
  N  N49  1  0.74809700  0.07874600  0.14946800  1
  N  N50  1  0.75190300  0.57874600  0.14946800  1
  N  N51  1  0.31775800  0.42967100  0.44275500  1
  N  N52  1  0.18224200  0.92967100  0.44275500  1
  N  N53  1  0.81775800  0.07032900  0.94275500  1
  N  N54  1  0.74809700  0.07874600  0.35053200  1
  N  N55  1  0.83735600  0.27671900  0.75000000  1
  N  N56  1  0.24809700  0.42125400  0.64946800  1
  N  N57  1  0.18224200  0.92967100  0.05724500  1
  N  N58  1  0.25190300  0.92125400  0.64946800  1
  N  N59  1  0.31775800  0.42967100  0.05724500  1
