# generated using pymatgen
data_KBi(PSe3)2
_symmetry_space_group_name_H-M   'P 1'
_cell_length_a   7.74437100
_cell_length_b   12.64685300
_cell_length_c   12.80256041
_cell_angle_alpha   68.65919293
_cell_angle_beta   90.00000000
_cell_angle_gamma   90.00000000
_symmetry_Int_Tables_number   1
_chemical_formula_structural   KBi(PSe3)2
_chemical_formula_sum   'K4 Bi4 P8 Se24'
_cell_volume   1167.92979563
_cell_formula_units_Z   4
loop_
 _symmetry_equiv_pos_site_id
 _symmetry_equiv_pos_as_xyz
  1  'x, y, z'
loop_
 _atom_site_type_symbol
 _atom_site_label
 _atom_site_symmetry_multiplicity
 _atom_site_fract_x
 _atom_site_fract_y
 _atom_site_fract_z
 _atom_site_occupancy
  K  K0  1  0.58292500  0.59195100  0.13728000  1
  K  K1  1  0.41707500  0.40804900  0.86272000  1
  K  K2  1  0.91707500  0.59195100  0.63728000  1
  K  K3  1  0.08292500  0.40804900  0.36272000  1
  Bi  Bi4  1  0.65473200  0.11851300  0.66858100  1
  Bi  Bi5  1  0.15473200  0.88148700  0.83141900  1
  Bi  Bi6  1  0.34526800  0.88148700  0.33141900  1
  Bi  Bi7  1  0.84526800  0.11851300  0.16858100  1
  P  P8  1  0.09432100  0.76226500  0.18448900  1
  P  P9  1  0.62646700  0.76445200  0.80248600  1
  P  P10  1  0.87353300  0.76445200  0.30248600  1
  P  P11  1  0.12646700  0.23554800  0.69751400  1
  P  P12  1  0.40567900  0.76226500  0.68448900  1
  P  P13  1  0.59432100  0.23773500  0.31551100  1
  P  P14  1  0.37353300  0.23554800  0.19751400  1
  P  P15  1  0.90567900  0.23773500  0.81551100  1
  Se  Se16  1  0.50408500  0.83673000  0.92143700  1
  Se  Se17  1  0.23181800  0.40533500  0.61868300  1
  Se  Se18  1  0.70136500  0.33539800  0.69725300  1
  Se  Se19  1  0.31523500  0.11263500  0.80952000  1
  Se  Se20  1  0.49591500  0.16327000  0.07856300  1
  Se  Se21  1  0.18476500  0.11263500  0.30952000  1
  Se  Se22  1  0.20136500  0.66460200  0.80274700  1
  Se  Se23  1  0.79863500  0.33539800  0.19725300  1
  Se  Se24  1  0.73181800  0.59466500  0.88131700  1
  Se  Se25  1  0.49558100  0.69432400  0.56037600  1
  Se  Se26  1  0.26818200  0.40533500  0.11868300  1
  Se  Se27  1  0.81152700  0.05802400  0.88445600  1
  Se  Se28  1  0.81523500  0.88736500  0.69048000  1
  Se  Se29  1  0.50441900  0.30567600  0.43962400  1
  Se  Se30  1  0.29863500  0.66460200  0.30274700  1
  Se  Se31  1  0.31152700  0.94197600  0.61554400  1
  Se  Se32  1  0.18847300  0.94197600  0.11554400  1
  Se  Se33  1  0.68476500  0.88736500  0.19048000  1
  Se  Se34  1  0.99591500  0.83673000  0.42143700  1
  Se  Se35  1  0.00408500  0.16327000  0.57856300  1
  Se  Se36  1  0.99558100  0.30567600  0.93962400  1
  Se  Se37  1  0.68847300  0.05802400  0.38445600  1
  Se  Se38  1  0.00441900  0.69432400  0.06037600  1
  Se  Se39  1  0.76818200  0.59466500  0.38131700  1
