# generated using pymatgen
data_K8UCr4(NO12)2
_symmetry_space_group_name_H-M   'P 1'
_cell_length_a   7.23612100
_cell_length_b   9.85146379
_cell_length_c   9.88198054
_cell_angle_alpha   105.65623989
_cell_angle_beta   97.42188721
_cell_angle_gamma   93.23657302
_symmetry_Int_Tables_number   1
_chemical_formula_structural   K8UCr4(NO12)2
_chemical_formula_sum   'K8 U1 Cr4 N2 O24'
_cell_volume   669.54799230
_cell_formula_units_Z   1
loop_
 _symmetry_equiv_pos_site_id
 _symmetry_equiv_pos_as_xyz
  1  'x, y, z'
loop_
 _atom_site_type_symbol
 _atom_site_label
 _atom_site_symmetry_multiplicity
 _atom_site_fract_x
 _atom_site_fract_y
 _atom_site_fract_z
 _atom_site_occupancy
  K  K0  1  0.99426100  0.73739200  0.24517200  1
  K  K1  1  0.74807800  0.49064800  0.45901500  1
  K  K2  1  0.25192200  0.50935200  0.54098500  1
  K  K3  1  0.60786000  0.30412900  0.05040500  1
  K  K4  1  0.37875900  0.09094200  0.34809200  1
  K  K5  1  0.00573900  0.26260800  0.75482800  1
  K  K6  1  0.62124100  0.90905800  0.65190800  1
  K  K7  1  0.39214000  0.69587100  0.94959500  1
  U  U8  1  0.00000000  0.00000000  0.00000000  1
  Cr  Cr9  1  0.12949000  0.87530200  0.63883700  1
  Cr  Cr10  1  0.85443200  0.61309800  0.84141500  1
  Cr  Cr11  1  0.87051000  0.12469800  0.36116300  1
  Cr  Cr12  1  0.14556800  0.38690200  0.15858500  1
  N  N13  1  0.49511500  0.70244900  0.29569300  1
  N  N14  1  0.50488500  0.29755100  0.70430700  1
  O  O15  1  0.78150200  0.51104000  0.93376000  1
  O  O16  1  0.32761600  0.34180300  0.24968900  1
  O  O17  1  0.71117900  0.20480400  0.28513300  1
  O  O18  1  0.98310400  0.76240600  0.95966400  1
  O  O19  1  0.52894100  0.31990000  0.58664500  1
  O  O20  1  0.01689600  0.23759400  0.04033600  1
  O  O21  1  0.97478700  0.75431800  0.52592200  1
  O  O22  1  0.21849800  0.48896000  0.06624000  1
  O  O23  1  0.47105900  0.68010000  0.41335500  1
  O  O24  1  0.60171000  0.21256900  0.75200200  1
  O  O25  1  0.67238400  0.65819700  0.75031100  1
  O  O26  1  0.38451500  0.36069200  0.77401600  1
  O  O27  1  0.74389600  0.99412100  0.95550600  1
  O  O28  1  0.23352200  0.97377100  0.55551800  1
  O  O29  1  0.39829000  0.78743100  0.24799800  1
  O  O30  1  0.61548500  0.63930800  0.22598400  1
  O  O31  1  0.01577300  0.98162800  0.76765500  1
  O  O32  1  0.02521300  0.24568200  0.47407800  1
  O  O33  1  0.25610400  0.00587900  0.04449400  1
  O  O34  1  0.76647800  0.02622900  0.44448200  1
  O  O35  1  0.01135900  0.47200600  0.27058500  1
  O  O36  1  0.28882100  0.79519600  0.71486700  1
  O  O37  1  0.98864100  0.52799400  0.72941500  1
  O  O38  1  0.98422700  0.01837200  0.23234500  1
