# generated using pymatgen
data_RbPr(MoO4)2
_symmetry_space_group_name_H-M   'P 1'
_cell_length_a   6.45721000
_cell_length_b   6.45721000
_cell_length_c   9.75163100
_cell_angle_alpha   90.00000000
_cell_angle_beta   90.00000000
_cell_angle_gamma   90.00000000
_symmetry_Int_Tables_number   1
_chemical_formula_structural   RbPr(MoO4)2
_chemical_formula_sum   'Rb2 Pr2 Mo4 O16'
_cell_volume   406.59972505
_cell_formula_units_Z   2
loop_
 _symmetry_equiv_pos_site_id
 _symmetry_equiv_pos_as_xyz
  1  'x, y, z'
loop_
 _atom_site_type_symbol
 _atom_site_label
 _atom_site_symmetry_multiplicity
 _atom_site_fract_x
 _atom_site_fract_y
 _atom_site_fract_z
 _atom_site_occupancy
  Rb  Rb0  1  0.00000000  0.00000000  0.00000000  1
  Rb  Rb1  1  0.50000000  0.50000000  0.50000000  1
  Pr  Pr2  1  0.00000000  0.00000000  0.50000000  1
  Pr  Pr3  1  0.50000000  0.50000000  0.00000000  1
  Mo  Mo4  1  0.50000000  0.00000000  0.25000000  1
  Mo  Mo5  1  0.00000000  0.50000000  0.75000000  1
  Mo  Mo6  1  0.00000000  0.50000000  0.25000000  1
  Mo  Mo7  1  0.50000000  0.00000000  0.75000000  1
  O  O8  1  0.19613600  0.60866600  0.14161100  1
  O  O9  1  0.39133400  0.80386400  0.85838900  1
  O  O10  1  0.69613600  0.89133400  0.64161100  1
  O  O11  1  0.30386400  0.89133400  0.35838900  1
  O  O12  1  0.10866600  0.30386400  0.35838900  1
  O  O13  1  0.80386400  0.60866600  0.85838900  1
  O  O14  1  0.19613600  0.39133400  0.85838900  1
  O  O15  1  0.10866600  0.69613600  0.64161100  1
  O  O16  1  0.30386400  0.10866600  0.64161100  1
  O  O17  1  0.89133400  0.69613600  0.35838900  1
  O  O18  1  0.80386400  0.39133400  0.14161100  1
  O  O19  1  0.60866600  0.19613600  0.85838900  1
  O  O20  1  0.60866600  0.80386400  0.14161100  1
  O  O21  1  0.89133400  0.30386400  0.64161100  1
  O  O22  1  0.69613600  0.10866600  0.35838900  1
  O  O23  1  0.39133400  0.19613600  0.14161100  1
