# generated using pymatgen
data_CsK4TlO4
_symmetry_space_group_name_H-M   'P 1'
_cell_length_a   6.96513300
_cell_length_b   12.24873200
_cell_length_c   21.73200700
_cell_angle_alpha   90.00000000
_cell_angle_beta   90.00000000
_cell_angle_gamma   90.00000000
_symmetry_Int_Tables_number   1
_chemical_formula_structural   CsK4TlO4
_chemical_formula_sum   'Cs8 K32 Tl8 O32'
_cell_volume   1854.04547663
_cell_formula_units_Z   8
loop_
 _symmetry_equiv_pos_site_id
 _symmetry_equiv_pos_as_xyz
  1  'x, y, z'
loop_
 _atom_site_type_symbol
 _atom_site_label
 _atom_site_symmetry_multiplicity
 _atom_site_fract_x
 _atom_site_fract_y
 _atom_site_fract_z
 _atom_site_occupancy
  Cs  Cs0  1  0.41703900  0.66023000  0.99895200  1
  Cs  Cs1  1  0.58296100  0.33977000  0.00104800  1
  Cs  Cs2  1  0.08296100  0.66023000  0.49895200  1
  Cs  Cs3  1  0.91703900  0.83977000  0.99895200  1
  Cs  Cs4  1  0.91703900  0.33977000  0.50104800  1
  Cs  Cs5  1  0.58296100  0.83977000  0.49895200  1
  Cs  Cs6  1  0.08296100  0.16023000  0.00104800  1
  Cs  Cs7  1  0.41703900  0.16023000  0.50104800  1
  K  K8  1  0.41910400  0.57581100  0.74870800  1
  K  K9  1  0.91068500  0.17364200  0.82499300  1
  K  K10  1  0.08931500  0.82635800  0.17500700  1
  K  K11  1  0.91169700  0.05737300  0.43335000  1
  K  K12  1  0.40853800  0.19664200  0.14544600  1
  K  K13  1  0.91169700  0.55737300  0.06665000  1
  K  K14  1  0.41169700  0.44262700  0.43335000  1
  K  K15  1  0.09146200  0.69664200  0.85455400  1
  K  K16  1  0.58089600  0.42418900  0.25129200  1
  K  K17  1  0.91068500  0.67364200  0.67500700  1
  K  K18  1  0.58931500  0.67364200  0.17500700  1
  K  K19  1  0.41068500  0.32635800  0.82499300  1
  K  K20  1  0.41910400  0.07581100  0.75129200  1
  K  K21  1  0.08830300  0.94262700  0.56665000  1
  K  K22  1  0.59146200  0.30335800  0.64544600  1
  K  K23  1  0.08931500  0.32635800  0.32499300  1
  K  K24  1  0.40853800  0.69664200  0.35455400  1
  K  K25  1  0.08830300  0.44262700  0.93335000  1
  K  K26  1  0.08089600  0.07581100  0.25129200  1
  K  K27  1  0.58830300  0.05737300  0.93335000  1
  K  K28  1  0.90853800  0.80335800  0.35455400  1
  K  K29  1  0.09146200  0.19664200  0.64544600  1
  K  K30  1  0.41068500  0.82635800  0.67500700  1
  K  K31  1  0.58089600  0.92418900  0.24870800  1
  K  K32  1  0.59146200  0.80335800  0.85455400  1
  K  K33  1  0.08089600  0.57581100  0.24870800  1
  K  K34  1  0.91910400  0.42418900  0.75129200  1
  K  K35  1  0.91910400  0.92418900  0.74870800  1
  K  K36  1  0.90853800  0.30335800  0.14544600  1
  K  K37  1  0.58830300  0.55737300  0.56665000  1
  K  K38  1  0.58931500  0.17364200  0.32499300  1
  K  K39  1  0.41169700  0.94262700  0.06665000  1
  Tl  Tl40  1  0.80868700  0.03723100  0.12719900  1
  Tl  Tl41  1  0.69131300  0.03723100  0.62719900  1
  Tl  Tl42  1  0.19131300  0.46276900  0.62719900  1
  Tl  Tl43  1  0.80868700  0.53723100  0.37280100  1
  Tl  Tl44  1  0.30868700  0.96276900  0.37280100  1
  Tl  Tl45  1  0.30868700  0.46276900  0.12719900  1
  Tl  Tl46  1  0.69131300  0.53723100  0.87280100  1
  Tl  Tl47  1  0.19131300  0.96276900  0.87280100  1
  O  O48  1  0.33674400  0.88037400  0.95059300  1
  O  O49  1  0.21625700  0.87331300  0.28795200  1
  O  O50  1  0.71511300  0.36407400  0.36567500  1
  O  O51  1  0.37488800  0.04219100  0.62402400  1
  O  O52  1  0.28488700  0.63592600  0.63432500  1
  O  O53  1  0.28374300  0.87331300  0.78795200  1
  O  O54  1  0.78374300  0.12668700  0.71204800  1
  O  O55  1  0.71625700  0.12668700  0.21204800  1
  O  O56  1  0.16325600  0.88037400  0.45059300  1
  O  O57  1  0.16325600  0.38037400  0.04940700  1
  O  O58  1  0.66325600  0.11962600  0.04940700  1
  O  O59  1  0.37488800  0.54219100  0.87597600  1
  O  O60  1  0.21625700  0.37331300  0.21204800  1
  O  O61  1  0.33674400  0.38037400  0.54940700  1
  O  O62  1  0.28488700  0.13592600  0.86567500  1
  O  O63  1  0.87488800  0.95780900  0.87597600  1
  O  O64  1  0.71511300  0.86407400  0.13432500  1
  O  O65  1  0.21511300  0.63592600  0.13432500  1
  O  O66  1  0.83674400  0.11962600  0.54940700  1
  O  O67  1  0.87488800  0.45780900  0.62402400  1
  O  O68  1  0.62511200  0.45780900  0.12402400  1
  O  O69  1  0.66325600  0.61962600  0.45059300  1
  O  O70  1  0.12511200  0.54219100  0.37597600  1
  O  O71  1  0.78488700  0.86407400  0.63432500  1
  O  O72  1  0.62511200  0.95780900  0.37597600  1
  O  O73  1  0.28374300  0.37331300  0.71204800  1
  O  O74  1  0.78488700  0.36407400  0.86567500  1
  O  O75  1  0.78374300  0.62668700  0.78795200  1
  O  O76  1  0.12511200  0.04219100  0.12402400  1
  O  O77  1  0.83674400  0.61962600  0.95059300  1
  O  O78  1  0.71625700  0.62668700  0.28795200  1
  O  O79  1  0.21511300  0.13592600  0.36567500  1
