# generated using pymatgen
data_Ca2GeO4
_symmetry_space_group_name_H-M   'P 1'
_cell_length_a   5.29163100
_cell_length_b   6.84948600
_cell_length_c   11.51964300
_cell_angle_alpha   90.00000000
_cell_angle_beta   90.00000000
_cell_angle_gamma   90.00000000
_symmetry_Int_Tables_number   1
_chemical_formula_structural   Ca2GeO4
_chemical_formula_sum   'Ca8 Ge4 O16'
_cell_volume   417.52891280
_cell_formula_units_Z   4
loop_
 _symmetry_equiv_pos_site_id
 _symmetry_equiv_pos_as_xyz
  1  'x, y, z'
loop_
 _atom_site_type_symbol
 _atom_site_label
 _atom_site_symmetry_multiplicity
 _atom_site_fract_x
 _atom_site_fract_y
 _atom_site_fract_z
 _atom_site_occupancy
  Ca  Ca0  1  0.00677500  0.75000000  0.72014600  1
  Ca  Ca1  1  0.99322500  0.25000000  0.27985400  1
  Ca  Ca2  1  0.50677500  0.25000000  0.77985400  1
  Ca  Ca3  1  0.49322500  0.75000000  0.22014600  1
  Ca  Ca4  1  0.50000000  0.50000000  0.50000000  1
  Ca  Ca5  1  0.00000000  0.00000000  0.00000000  1
  Ca  Ca6  1  0.00000000  0.50000000  0.00000000  1
  Ca  Ca7  1  0.50000000  0.00000000  0.50000000  1
  Ge  Ge8  1  0.43066700  0.25000000  0.09599400  1
  Ge  Ge9  1  0.93066700  0.75000000  0.40400600  1
  Ge  Ge10  1  0.56933300  0.75000000  0.90400600  1
  Ge  Ge11  1  0.06933300  0.25000000  0.59599400  1
  O  O12  1  0.78647000  0.75000000  0.54632200  1
  O  O13  1  0.78370700  0.54362100  0.33626700  1
  O  O14  1  0.71629300  0.54362100  0.83626700  1
  O  O15  1  0.73585500  0.25000000  0.59272400  1
  O  O16  1  0.71353000  0.75000000  0.04632200  1
  O  O17  1  0.28370700  0.45637900  0.16373300  1
  O  O18  1  0.21629300  0.45637900  0.66373300  1
  O  O19  1  0.26414500  0.75000000  0.40727600  1
  O  O20  1  0.78370700  0.95637900  0.33626700  1
  O  O21  1  0.23585500  0.75000000  0.90727600  1
  O  O22  1  0.21353000  0.25000000  0.45367800  1
  O  O23  1  0.71629300  0.95637900  0.83626700  1
  O  O24  1  0.21629300  0.04362100  0.66373300  1
  O  O25  1  0.28647000  0.25000000  0.95367800  1
  O  O26  1  0.28370700  0.04362100  0.16373300  1
  O  O27  1  0.76414500  0.25000000  0.09272400  1
