# generated using pymatgen
data_CaAlAu
_symmetry_space_group_name_H-M   'P 1'
_cell_length_a   4.55689300
_cell_length_b   7.33507000
_cell_length_c   7.80542300
_cell_angle_alpha   90.00000000
_cell_angle_beta   90.00000000
_cell_angle_gamma   90.00000000
_symmetry_Int_Tables_number   1
_chemical_formula_structural   CaAlAu
_chemical_formula_sum   'Ca4 Al4 Au4'
_cell_volume   260.89727175
_cell_formula_units_Z   4
loop_
 _symmetry_equiv_pos_site_id
 _symmetry_equiv_pos_as_xyz
  1  'x, y, z'
loop_
 _atom_site_type_symbol
 _atom_site_label
 _atom_site_symmetry_multiplicity
 _atom_site_fract_x
 _atom_site_fract_y
 _atom_site_fract_z
 _atom_site_occupancy
  Ca  Ca0  1  0.25000000  0.01424800  0.31717800  1
  Ca  Ca1  1  0.25000000  0.51424800  0.18282200  1
  Ca  Ca2  1  0.75000000  0.98575200  0.68282200  1
  Ca  Ca3  1  0.75000000  0.48575200  0.81717800  1
  Al  Al4  1  0.75000000  0.84520500  0.06827600  1
  Al  Al5  1  0.25000000  0.15479500  0.93172400  1
  Al  Al6  1  0.25000000  0.65479500  0.56827600  1
  Al  Al7  1  0.75000000  0.34520500  0.43172400  1
  Au  Au8  1  0.25000000  0.79159200  0.88755900  1
  Au  Au9  1  0.75000000  0.20840800  0.11244100  1
  Au  Au10  1  0.75000000  0.70840800  0.38755900  1
  Au  Au11  1  0.25000000  0.29159200  0.61244100  1
