# generated using pymatgen
data_Rb4(BSe)9
_symmetry_space_group_name_H-M   'P 1'
_cell_length_a   10.60631800
_cell_length_b   10.76849700
_cell_length_c   11.14268116
_cell_angle_alpha   91.85431046
_cell_angle_beta   104.15181237
_cell_angle_gamma   109.59384260
_symmetry_Int_Tables_number   1
_chemical_formula_structural   Rb4(BSe)9
_chemical_formula_sum   'Rb8 B18 Se18'
_cell_volume   1153.42565565
_cell_formula_units_Z   2
loop_
 _symmetry_equiv_pos_site_id
 _symmetry_equiv_pos_as_xyz
  1  'x, y, z'
loop_
 _atom_site_type_symbol
 _atom_site_label
 _atom_site_symmetry_multiplicity
 _atom_site_fract_x
 _atom_site_fract_y
 _atom_site_fract_z
 _atom_site_occupancy
  Rb  Rb0  1  0.35869200  0.99651800  0.63110400  1
  Rb  Rb1  1  0.64130800  0.00348200  0.36889600  1
  Rb  Rb2  1  0.38876600  0.62846300  0.86905100  1
  Rb  Rb3  1  0.61123400  0.37153700  0.13094900  1
  Rb  Rb4  1  0.24831900  0.37067400  0.52608200  1
  Rb  Rb5  1  0.75168100  0.62932600  0.47391800  1
  Rb  Rb6  1  0.17079200  0.61579100  0.25469700  1
  Rb  Rb7  1  0.82920800  0.38420900  0.74530300  1
  B  B8  1  0.87412800  0.86253000  0.91482200  1
  B  B9  1  0.12587200  0.13747000  0.08517800  1
  B  B10  1  0.87979000  0.02361100  0.87856000  1
  B  B11  1  0.12021000  0.97638900  0.12144000  1
  B  B12  1  0.83896200  0.96744100  0.01798100  1
  B  B13  1  0.16103800  0.03255900  0.98201900  1
  B  B14  1  0.94054900  0.86979600  0.07938400  1
  B  B15  1  0.05945100  0.13020400  0.92061600  1
  B  B16  1  0.04717100  0.86617900  0.97774600  1
  B  B17  1  0.95282900  0.13382100  0.02225400  1
  B  B18  1  0.00991300  0.96219200  0.85572700  1
  B  B19  1  0.99008700  0.03780800  0.14427300  1
  B  B20  1  0.63720500  0.82073400  0.68705100  1
  B  B21  1  0.36279500  0.17926600  0.31294900  1
  B  B22  1  0.66767700  0.76098600  0.14334100  1
  B  B23  1  0.33232300  0.23901400  0.85665900  1
  B  B24  1  0.07707600  0.74448700  0.74332500  1
  B  B25  1  0.92292400  0.25551300  0.25667500  1
  Se  Se26  1  0.71806600  0.71138600  0.79957400  1
  Se  Se27  1  0.28193400  0.28861400  0.20042600  1
  Se  Se28  1  0.72574000  0.01839500  0.72756800  1
  Se  Se29  1  0.27426000  0.98160500  0.27243200  1
  Se  Se30  1  0.65154300  0.91260500  0.05201300  1
  Se  Se31  1  0.34845700  0.08739500  0.94798700  1
  Se  Se32  1  0.84412600  0.72378200  0.16989100  1
  Se  Se33  1  0.15587400  0.27621800  0.83010900  1
  Se  Se34  1  0.09466300  0.71128100  0.92151000  1
  Se  Se35  1  0.90533700  0.28871900  0.07849000  1
  Se  Se36  1  0.02648600  0.89975800  0.69031100  1
  Se  Se37  1  0.97351400  0.10024200  0.30968900  1
  Se  Se38  1  0.47936900  0.74103300  0.54568800  1
  Se  Se39  1  0.52063100  0.25896700  0.45431200  1
  Se  Se40  1  0.51853900  0.65104800  0.20406600  1
  Se  Se41  1  0.48146100  0.34895200  0.79593400  1
  Se  Se42  1  0.10180100  0.62825000  0.62502500  1
  Se  Se43  1  0.89819900  0.37175000  0.37497500  1
