# generated using pymatgen
data_KY(WO4)2
_symmetry_space_group_name_H-M   'P 1'
_cell_length_a   7.60339251
_cell_length_b   7.60339251
_cell_length_c   7.49059302
_cell_angle_alpha   62.36365618
_cell_angle_beta   62.36365618
_cell_angle_gamma   88.31258136
_symmetry_Int_Tables_number   1
_chemical_formula_structural   KY(WO4)2
_chemical_formula_sum   'K2 Y2 W4 O16'
_cell_volume   330.21510365
_cell_formula_units_Z   2
loop_
 _symmetry_equiv_pos_site_id
 _symmetry_equiv_pos_as_xyz
  1  'x, y, z'
loop_
 _atom_site_type_symbol
 _atom_site_label
 _atom_site_symmetry_multiplicity
 _atom_site_fract_x
 _atom_site_fract_y
 _atom_site_fract_z
 _atom_site_occupancy
  K  K0  1  0.70558900  0.29441100  0.75000000  1
  K  K1  1  0.29441100  0.70558900  0.25000000  1
  Y  Y2  1  0.27693700  0.72306300  0.75000000  1
  Y  Y3  1  0.72306300  0.27693700  0.25000000  1
  W  W4  1  0.19189400  0.19605000  0.27628800  1
  W  W5  1  0.80395000  0.80810600  0.22371200  1
  W  W6  1  0.80810600  0.80395000  0.72371200  1
  W  W7  1  0.19605000  0.19189400  0.77628800  1
  O  O8  1  0.12019400  0.25526400  0.55343700  1
  O  O9  1  0.74473600  0.87980600  0.94656300  1
  O  O10  1  0.87980600  0.74473600  0.44656300  1
  O  O11  1  0.25526400  0.12019400  0.05343700  1
  O  O12  1  0.55992900  0.86805100  0.37622300  1
  O  O13  1  0.13194900  0.44007100  0.12377700  1
  O  O14  1  0.44007100  0.13194900  0.62377700  1
  O  O15  1  0.86805100  0.55992900  0.87622300  1
  O  O16  1  0.54145400  0.71408200  0.81224300  1
  O  O17  1  0.28591800  0.45854600  0.68775700  1
  O  O18  1  0.45854600  0.28591800  0.18775700  1
  O  O19  1  0.71408200  0.54145400  0.31224300  1
  O  O20  1  0.12910100  0.90560200  0.53209300  1
  O  O21  1  0.87089900  0.09439800  0.46790700  1
  O  O22  1  0.09439800  0.87089900  0.96790700  1
  O  O23  1  0.90560200  0.12910100  0.03209300  1
