# generated using pymatgen
data_TiBr4
_symmetry_space_group_name_H-M   'P 1'
_cell_length_a   12.34337700
_cell_length_b   12.34337700
_cell_length_c   12.34337700
_cell_angle_alpha   90.00000000
_cell_angle_beta   90.00000000
_cell_angle_gamma   90.00000000
_symmetry_Int_Tables_number   1
_chemical_formula_structural   TiBr4
_chemical_formula_sum   'Ti8 Br32'
_cell_volume   1880.62403032
_cell_formula_units_Z   8
loop_
 _symmetry_equiv_pos_site_id
 _symmetry_equiv_pos_as_xyz
  1  'x, y, z'
loop_
 _atom_site_type_symbol
 _atom_site_label
 _atom_site_symmetry_multiplicity
 _atom_site_fract_x
 _atom_site_fract_y
 _atom_site_fract_z
 _atom_site_occupancy
  Ti  Ti0  1  0.13097500  0.13097500  0.13097500  1
  Ti  Ti1  1  0.36902500  0.63097500  0.13097500  1
  Ti  Ti2  1  0.63097500  0.36902500  0.86902500  1
  Ti  Ti3  1  0.13097500  0.36902500  0.63097500  1
  Ti  Ti4  1  0.86902500  0.86902500  0.86902500  1
  Ti  Ti5  1  0.36902500  0.86902500  0.63097500  1
  Ti  Ti6  1  0.86902500  0.63097500  0.36902500  1
  Ti  Ti7  1  0.63097500  0.13097500  0.36902500  1
  Br  Br8  1  0.75973700  0.75973700  0.75973700  1
  Br  Br9  1  0.01903900  0.24015300  0.02409600  1
  Br  Br10  1  0.24026300  0.24026300  0.24026300  1
  Br  Br11  1  0.25984700  0.97590400  0.51903900  1
  Br  Br12  1  0.24015300  0.47590400  0.51903900  1
  Br  Br13  1  0.24015300  0.02409600  0.01903900  1
  Br  Br14  1  0.74015300  0.02409600  0.48096100  1
  Br  Br15  1  0.48096100  0.74015300  0.02409600  1
  Br  Br16  1  0.48096100  0.75984700  0.52409600  1
  Br  Br17  1  0.75984700  0.52409600  0.48096100  1
  Br  Br18  1  0.24026300  0.25973700  0.74026300  1
  Br  Br19  1  0.98096100  0.74015300  0.47590400  1
  Br  Br20  1  0.51903900  0.24015300  0.47590400  1
  Br  Br21  1  0.25984700  0.52409600  0.01903900  1
  Br  Br22  1  0.02409600  0.01903900  0.24015300  1
  Br  Br23  1  0.75984700  0.97590400  0.98096100  1
  Br  Br24  1  0.97590400  0.98096100  0.75984700  1
  Br  Br25  1  0.52409600  0.48096100  0.75984700  1
  Br  Br26  1  0.25973700  0.75973700  0.74026300  1
  Br  Br27  1  0.74026300  0.25973700  0.75973700  1
  Br  Br28  1  0.98096100  0.75984700  0.97590400  1
  Br  Br29  1  0.51903900  0.25984700  0.97590400  1
  Br  Br30  1  0.47590400  0.51903900  0.24015300  1
  Br  Br31  1  0.74026300  0.24026300  0.25973700  1
  Br  Br32  1  0.74015300  0.47590400  0.98096100  1
  Br  Br33  1  0.47590400  0.98096100  0.74015300  1
  Br  Br34  1  0.52409600  0.01903900  0.25984700  1
  Br  Br35  1  0.01903900  0.25984700  0.52409600  1
  Br  Br36  1  0.25973700  0.74026300  0.24026300  1
  Br  Br37  1  0.75973700  0.74026300  0.25973700  1
  Br  Br38  1  0.02409600  0.48096100  0.74015300  1
  Br  Br39  1  0.97590400  0.51903900  0.25984700  1
