# generated using pymatgen
data_CaTeO3
_symmetry_space_group_name_H-M   'P 1'
_cell_length_a   12.27266100
_cell_length_b   12.27266100
_cell_length_c   11.19773000
_cell_angle_alpha   90.00000000
_cell_angle_beta   90.00000000
_cell_angle_gamma   90.00000000
_symmetry_Int_Tables_number   1
_chemical_formula_structural   CaTeO3
_chemical_formula_sum   'Ca20 Te20 O60'
_cell_volume   1686.58202650
_cell_formula_units_Z   20
loop_
 _symmetry_equiv_pos_site_id
 _symmetry_equiv_pos_as_xyz
  1  'x, y, z'
loop_
 _atom_site_type_symbol
 _atom_site_label
 _atom_site_symmetry_multiplicity
 _atom_site_fract_x
 _atom_site_fract_y
 _atom_site_fract_z
 _atom_site_occupancy
  Ca  Ca0  1  0.24244100  0.22746200  0.27368500  1
  Ca  Ca1  1  0.34543900  0.03816700  0.01448400  1
  Ca  Ca2  1  0.26593900  0.74136800  0.03638600  1
  Ca  Ca3  1  0.22746200  0.75755900  0.52368500  1
  Ca  Ca4  1  0.16235700  0.43465100  0.51792700  1
  Ca  Ca5  1  0.96183300  0.34543900  0.76448400  1
  Ca  Ca6  1  0.56534900  0.16235700  0.26792700  1
  Ca  Ca7  1  0.46240300  0.86328600  0.26804100  1
  Ca  Ca8  1  0.65456100  0.96183300  0.51448400  1
  Ca  Ca9  1  0.13671400  0.46240300  0.01804100  1
  Ca  Ca10  1  0.03816700  0.65456100  0.26448400  1
  Ca  Ca11  1  0.75755900  0.77253800  0.77368500  1
  Ca  Ca12  1  0.53759700  0.13671400  0.76804100  1
  Ca  Ca13  1  0.25863200  0.26593900  0.78638600  1
  Ca  Ca14  1  0.43465100  0.83764300  0.76792700  1
  Ca  Ca15  1  0.73406100  0.25863200  0.53638600  1
  Ca  Ca16  1  0.77253800  0.24244100  0.02368500  1
  Ca  Ca17  1  0.74136800  0.73406100  0.28638600  1
  Ca  Ca18  1  0.83764300  0.56534900  0.01792700  1
  Ca  Ca19  1  0.86328600  0.53759700  0.51804100  1
  Te  Te20  1  0.38407900  0.00668000  0.50928700  1
  Te  Te21  1  0.31135100  0.55549800  0.26815800  1
  Te  Te22  1  0.00668000  0.61592100  0.75928700  1
  Te  Te23  1  0.05794500  0.15819700  0.99545900  1
  Te  Te24  1  0.34092100  0.55937600  0.79232500  1
  Te  Te25  1  0.16911200  0.93747200  0.79057200  1
  Te  Te26  1  0.84180300  0.05794500  0.74545900  1
  Te  Te27  1  0.68864900  0.44450200  0.76815800  1
  Te  Te28  1  0.55549800  0.68864900  0.51815800  1
  Te  Te29  1  0.61592100  0.99332000  0.00928700  1
  Te  Te30  1  0.06252800  0.16911200  0.54057200  1
  Te  Te31  1  0.83088800  0.06252800  0.29057200  1
  Te  Te32  1  0.65907900  0.44062400  0.29232500  1
  Te  Te33  1  0.44062400  0.34092100  0.54232500  1
  Te  Te34  1  0.94205500  0.84180300  0.49545900  1
  Te  Te35  1  0.93747200  0.83088800  0.04057200  1
  Te  Te36  1  0.44450200  0.31135100  0.01815800  1
  Te  Te37  1  0.15819700  0.94205500  0.24545900  1
  Te  Te38  1  0.99332000  0.38407900  0.25928700  1
  Te  Te39  1  0.55937600  0.65907900  0.04232500  1
  O  O40  1  0.40881800  0.24125100  0.16421100  1
  O  O41  1  0.02760200  0.50401000  0.64068100  1
  O  O42  1  0.49599000  0.02760200  0.39068100  1
  O  O43  1  0.98421200  0.50897900  0.88315900  1
  O  O44  1  0.13338700  0.81724900  0.34489100  1
  O  O45  1  0.27385000  0.44702400  0.69974200  1
  O  O46  1  0.75874900  0.40881800  0.91421100  1
  O  O47  1  0.60042800  0.80122000  0.41184300  1
  O  O48  1  0.71023300  0.09854800  0.66506400  1
  O  O49  1  0.50897900  0.01578800  0.13315900  1
  O  O50  1  0.39957200  0.19878000  0.91184300  1
  O  O51  1  0.24125100  0.59118200  0.41421100  1
  O  O52  1  0.27503400  0.88388100  0.89847800  1
  O  O53  1  0.18275100  0.13338700  0.09489100  1
  O  O54  1  0.28976700  0.90145200  0.16506400  1
  O  O55  1  0.04436700  0.77794600  0.60133000  1
  O  O56  1  0.49102100  0.98421200  0.63315900  1
  O  O57  1  0.62826600  0.14182900  0.95967500  1
  O  O58  1  0.32058900  0.33434600  0.43530900  1
  O  O59  1  0.08984000  0.25503600  0.40534900  1
  O  O60  1  0.67841000  0.60124200  0.48605500  1
  O  O61  1  0.74496400  0.08984000  0.15534900  1
  O  O62  1  0.32159000  0.39875800  0.98605500  1
  O  O63  1  0.25503600  0.91016000  0.65534900  1
  O  O64  1  0.37173400  0.85817100  0.45967500  1
  O  O65  1  0.39997300  0.22327000  0.64249600  1
  O  O66  1  0.33434600  0.67941100  0.68530900  1
  O  O67  1  0.60002700  0.77673000  0.14249600  1
  O  O68  1  0.01578800  0.49102100  0.38315900  1
  O  O69  1  0.80122000  0.39957200  0.66184300  1
  O  O70  1  0.19878000  0.60042800  0.16184300  1
  O  O71  1  0.55297600  0.27385000  0.44974200  1
  O  O72  1  0.97239800  0.49599000  0.14068100  1
  O  O73  1  0.86661300  0.18275100  0.84489100  1
  O  O74  1  0.59118200  0.75874900  0.66421100  1
  O  O75  1  0.79617300  0.91575100  0.31981300  1
  O  O76  1  0.50401000  0.97239800  0.89068100  1
  O  O77  1  0.91575100  0.20382700  0.56981300  1
  O  O78  1  0.81724900  0.86661300  0.59489100  1
  O  O79  1  0.22327000  0.60002700  0.89249600  1
  O  O80  1  0.90145200  0.71023300  0.41506400  1
  O  O81  1  0.11611900  0.27503400  0.64847800  1
  O  O82  1  0.67941100  0.66565400  0.93530900  1
  O  O83  1  0.08424900  0.79617300  0.06981300  1
  O  O84  1  0.09854800  0.28976700  0.91506400  1
  O  O85  1  0.72615000  0.55297600  0.19974200  1
  O  O86  1  0.95563300  0.22205400  0.10133000  1
  O  O87  1  0.91016000  0.74496400  0.90534900  1
  O  O88  1  0.22205400  0.04436700  0.35133000  1
  O  O89  1  0.77794600  0.95563300  0.85133000  1
  O  O90  1  0.60124200  0.32159000  0.73605500  1
  O  O91  1  0.72496600  0.11611900  0.39847800  1
  O  O92  1  0.66565400  0.32058900  0.18530900  1
  O  O93  1  0.77673000  0.39997300  0.39249600  1
  O  O94  1  0.39875800  0.67841000  0.23605500  1
  O  O95  1  0.20382700  0.08424900  0.81981300  1
  O  O96  1  0.85817100  0.62826600  0.70967500  1
  O  O97  1  0.88388100  0.72496600  0.14847800  1
  O  O98  1  0.44702400  0.72615000  0.94974200  1
  O  O99  1  0.14182900  0.37173400  0.20967500  1
