# generated using pymatgen
data_NClO
_symmetry_space_group_name_H-M   'P 1'
_cell_length_a   4.23503200
_cell_length_b   5.49458600
_cell_length_c   11.52728600
_cell_angle_alpha   90.00000000
_cell_angle_beta   90.00000000
_cell_angle_gamma   90.00000000
_symmetry_Int_Tables_number   1
_chemical_formula_structural   NClO
_chemical_formula_sum   'N4 Cl4 O4'
_cell_volume   268.23703500
_cell_formula_units_Z   4
loop_
 _symmetry_equiv_pos_site_id
 _symmetry_equiv_pos_as_xyz
  1  'x, y, z'
loop_
 _atom_site_type_symbol
 _atom_site_label
 _atom_site_symmetry_multiplicity
 _atom_site_fract_x
 _atom_site_fract_y
 _atom_site_fract_z
 _atom_site_occupancy
  N  N0  1  0.67292900  0.25000000  0.67153400  1
  N  N1  1  0.17292900  0.75000000  0.82846600  1
  N  N2  1  0.32707100  0.75000000  0.32846600  1
  N  N3  1  0.82707100  0.25000000  0.17153400  1
  Cl  Cl4  1  0.55211400  0.25000000  0.84976400  1
  Cl  Cl5  1  0.05211400  0.75000000  0.65023600  1
  Cl  Cl6  1  0.44788600  0.75000000  0.15023600  1
  Cl  Cl7  1  0.94788600  0.25000000  0.34976400  1
  O  O8  1  0.45824600  0.25000000  0.61148300  1
  O  O9  1  0.95824600  0.75000000  0.88851700  1
  O  O10  1  0.54175400  0.75000000  0.38851700  1
  O  O11  1  0.04175400  0.25000000  0.11148300  1
