# generated using pymatgen
data_Pr3BWO9
_symmetry_space_group_name_H-M   'P 1'
_cell_length_a   8.84978644
_cell_length_b   8.84978644
_cell_length_c   5.63099900
_cell_angle_alpha   90.00000000
_cell_angle_beta   90.00000000
_cell_angle_gamma   120.00000328
_symmetry_Int_Tables_number   1
_chemical_formula_structural   Pr3BWO9
_chemical_formula_sum   'Pr6 B2 W2 O18'
_cell_volume   381.92813183
_cell_formula_units_Z   2
loop_
 _symmetry_equiv_pos_site_id
 _symmetry_equiv_pos_as_xyz
  1  'x, y, z'
loop_
 _atom_site_type_symbol
 _atom_site_label
 _atom_site_symmetry_multiplicity
 _atom_site_fract_x
 _atom_site_fract_y
 _atom_site_fract_z
 _atom_site_occupancy
  Pr  Pr0  1  0.72467800  0.64284100  0.20157800  1
  Pr  Pr1  1  0.27532200  0.35715900  0.70157800  1
  Pr  Pr2  1  0.64284100  0.91816300  0.70157800  1
  Pr  Pr3  1  0.91816300  0.27532200  0.20157800  1
  Pr  Pr4  1  0.35715900  0.08183700  0.20157800  1
  Pr  Pr5  1  0.08183700  0.72467800  0.70157800  1
  B  B6  1  0.00000000  0.00000000  0.86458500  1
  B  B7  1  0.00000000  0.00000000  0.36458500  1
  W  W8  1  0.66666700  0.33333300  0.74435800  1
  W  W9  1  0.33333300  0.66666700  0.24435800  1
  O  O10  1  0.87249700  0.82563400  0.85673700  1
  O  O11  1  0.04686300  0.87249700  0.35673700  1
  O  O12  1  0.17436600  0.04686300  0.85673700  1
  O  O13  1  0.46838700  0.26417000  0.54148200  1
  O  O14  1  0.86306600  0.48003900  0.96695500  1
  O  O15  1  0.73583000  0.20421700  0.54148200  1
  O  O16  1  0.12750300  0.17436600  0.35673700  1
  O  O17  1  0.20421700  0.46838700  0.04148200  1
  O  O18  1  0.48003900  0.61697400  0.46695500  1
  O  O19  1  0.79578300  0.53161300  0.54148200  1
  O  O20  1  0.61697400  0.13693400  0.96695500  1
  O  O21  1  0.38302600  0.86306600  0.46695500  1
  O  O22  1  0.82563400  0.95313700  0.35673700  1
  O  O23  1  0.51996100  0.38302600  0.96695500  1
  O  O24  1  0.95313700  0.12750300  0.85673700  1
  O  O25  1  0.26417000  0.79578300  0.04148200  1
  O  O26  1  0.53161300  0.73583000  0.04148200  1
  O  O27  1  0.13693400  0.51996100  0.46695500  1
