# generated using pymatgen
data_K4MnMo4O15
_symmetry_space_group_name_H-M   'P 1'
_cell_length_a   10.56859050
_cell_length_b   10.56859050
_cell_length_c   8.35687000
_cell_angle_alpha   90.00000000
_cell_angle_beta   90.00000000
_cell_angle_gamma   120.00000313
_symmetry_Int_Tables_number   1
_chemical_formula_structural   K4MnMo4O15
_chemical_formula_sum   'K8 Mn2 Mo8 O30'
_cell_volume   808.36668297
_cell_formula_units_Z   2
loop_
 _symmetry_equiv_pos_site_id
 _symmetry_equiv_pos_as_xyz
  1  'x, y, z'
loop_
 _atom_site_type_symbol
 _atom_site_label
 _atom_site_symmetry_multiplicity
 _atom_site_fract_x
 _atom_site_fract_y
 _atom_site_fract_z
 _atom_site_occupancy
  K  K0  1  0.91173500  0.60690700  0.14031000  1
  K  K1  1  0.39309300  0.30482800  0.14031000  1
  K  K2  1  0.08826500  0.39309300  0.85969000  1
  K  K3  1  0.60690700  0.69517200  0.85969000  1
  K  K4  1  0.00000000  0.00000000  0.00000000  1
  K  K5  1  0.30482800  0.91173500  0.85969000  1
  K  K6  1  0.69517200  0.08826500  0.14031000  1
  K  K7  1  0.00000000  0.00000000  0.50000000  1
  Mn  Mn8  1  0.66666700  0.33333300  0.46658500  1
  Mn  Mn9  1  0.33333300  0.66666700  0.53341500  1
  Mo  Mo10  1  0.01711800  0.34201600  0.36021600  1
  Mo  Mo11  1  0.67510200  0.01711800  0.63978400  1
  Mo  Mo12  1  0.33333300  0.66666700  0.14220900  1
  Mo  Mo13  1  0.65798400  0.67510200  0.36021600  1
  Mo  Mo14  1  0.66666700  0.33333300  0.85779100  1
  Mo  Mo15  1  0.34201600  0.32489800  0.63978400  1
  Mo  Mo16  1  0.32489800  0.98288200  0.36021600  1
  Mo  Mo17  1  0.98288200  0.65798400  0.63978400  1
  O  O18  1  0.47986400  0.82249700  0.04963100  1
  O  O19  1  0.21835900  0.21110700  0.79127100  1
  O  O20  1  0.52013600  0.17750300  0.95036900  1
  O  O21  1  0.66570900  0.18650000  0.66226800  1
  O  O22  1  0.18650000  0.52079100  0.33773200  1
  O  O23  1  0.27521900  0.25844500  0.44637800  1
  O  O24  1  0.49407000  0.85734500  0.66043000  1
  O  O25  1  0.78164100  0.78889300  0.20872900  1
  O  O26  1  0.50593000  0.14265500  0.33957000  1
  O  O27  1  0.81350000  0.47920900  0.66226800  1
  O  O28  1  0.98322600  0.72478100  0.44637800  1
  O  O29  1  0.47920900  0.66570900  0.33773200  1
  O  O30  1  0.85734500  0.36327500  0.33957000  1
  O  O31  1  0.65736700  0.47986400  0.95036900  1
  O  O32  1  0.34263300  0.52013600  0.04963100  1
  O  O33  1  0.17750300  0.65736700  0.04963100  1
  O  O34  1  0.36327500  0.50593000  0.66043000  1
  O  O35  1  0.63672500  0.49407000  0.33957000  1
  O  O36  1  0.01677400  0.27521900  0.55362200  1
  O  O37  1  0.21110700  0.99274800  0.20872900  1
  O  O38  1  0.14265500  0.63672500  0.66043000  1
  O  O39  1  0.25844500  0.98322600  0.55362200  1
  O  O40  1  0.00725200  0.21835900  0.20872900  1
  O  O41  1  0.78889300  0.00725200  0.79127100  1
  O  O42  1  0.82249700  0.34263300  0.95036900  1
  O  O43  1  0.52079100  0.33429100  0.66226800  1
  O  O44  1  0.74155500  0.01677400  0.44637800  1
  O  O45  1  0.72478100  0.74155500  0.55362200  1
  O  O46  1  0.33429100  0.81350000  0.33773200  1
  O  O47  1  0.99274800  0.78164100  0.79127100  1
