# generated using pymatgen
data_Er2B2Cl2O5
_symmetry_space_group_name_H-M   'P 1'
_cell_length_a   5.28753500
_cell_length_b   10.08812500
_cell_length_c   14.90061800
_cell_angle_alpha   90.00000000
_cell_angle_beta   90.00000000
_cell_angle_gamma   90.00000000
_symmetry_Int_Tables_number   1
_chemical_formula_structural   Er2B2Cl2O5
_chemical_formula_sum   'Er8 B8 Cl8 O20'
_cell_volume   794.81854386
_cell_formula_units_Z   4
loop_
 _symmetry_equiv_pos_site_id
 _symmetry_equiv_pos_as_xyz
  1  'x, y, z'
loop_
 _atom_site_type_symbol
 _atom_site_label
 _atom_site_symmetry_multiplicity
 _atom_site_fract_x
 _atom_site_fract_y
 _atom_site_fract_z
 _atom_site_occupancy
  Er  Er0  1  0.50000000  0.53088400  0.12089800  1
  Er  Er1  1  0.50000000  0.96911600  0.62089800  1
  Er  Er2  1  0.50000000  0.43079600  0.39081700  1
  Er  Er3  1  0.50000000  0.06920400  0.89081700  1
  Er  Er4  1  0.50000000  0.46911600  0.87910200  1
  Er  Er5  1  0.50000000  0.93079600  0.10918300  1
  Er  Er6  1  0.50000000  0.03088400  0.37910200  1
  Er  Er7  1  0.50000000  0.56920400  0.60918300  1
  B  B8  1  0.50000000  0.30212800  0.73273300  1
  B  B9  1  0.50000000  0.25541000  0.06531500  1
  B  B10  1  0.50000000  0.74459000  0.93468500  1
  B  B11  1  0.50000000  0.19787200  0.23273300  1
  B  B12  1  0.50000000  0.75541000  0.43468500  1
  B  B13  1  0.50000000  0.24459000  0.56531500  1
  B  B14  1  0.50000000  0.69787200  0.26726700  1
  B  B15  1  0.50000000  0.80212800  0.76726700  1
  Cl  Cl16  1  0.00000000  0.41283300  0.38966100  1
  Cl  Cl17  1  0.00000000  0.00736000  0.36892700  1
  Cl  Cl18  1  0.00000000  0.91283300  0.11033900  1
  Cl  Cl19  1  0.00000000  0.50736000  0.13107300  1
  Cl  Cl20  1  0.00000000  0.49264000  0.86892700  1
  Cl  Cl21  1  0.00000000  0.58716700  0.61033900  1
  Cl  Cl22  1  0.00000000  0.08716700  0.88966100  1
  Cl  Cl23  1  0.00000000  0.99264000  0.63107300  1
  O  O24  1  0.50000000  0.86660100  0.48753000  1
  O  O25  1  0.50000000  0.24367000  0.31904200  1
  O  O26  1  0.50000000  0.78725700  0.34062300  1
  O  O27  1  0.50000000  0.56267200  0.27565900  1
  O  O28  1  0.50000000  0.93732800  0.77565900  1
  O  O29  1  0.50000000  0.06267200  0.22434100  1
  O  O30  1  0.50000000  0.71274300  0.84062300  1
  O  O31  1  0.50000000  0.13339900  0.51247000  1
  O  O32  1  0.50000000  0.74367000  0.18095800  1
  O  O33  1  0.50000000  0.21274300  0.65937700  1
  O  O34  1  0.50000000  0.25633000  0.81904200  1
  O  O35  1  0.50000000  0.62836900  0.46406300  1
  O  O36  1  0.50000000  0.75633000  0.68095800  1
  O  O37  1  0.50000000  0.37163100  0.53593700  1
  O  O38  1  0.50000000  0.28725700  0.15937700  1
  O  O39  1  0.50000000  0.12836900  0.03593700  1
  O  O40  1  0.50000000  0.63339900  0.98753000  1
  O  O41  1  0.50000000  0.36660100  0.01247000  1
  O  O42  1  0.50000000  0.87163100  0.96406300  1
  O  O43  1  0.50000000  0.43732800  0.72434100  1
