# generated using pymatgen
data_RbRe3Br10
_symmetry_space_group_name_H-M   'P 1'
_cell_length_a   9.53959952
_cell_length_b   9.53959952
_cell_length_c   10.67065839
_cell_angle_alpha   88.10696269
_cell_angle_beta   88.10696269
_cell_angle_gamma   71.07788584
_symmetry_Int_Tables_number   1
_chemical_formula_structural   RbRe3Br10
_chemical_formula_sum   'Rb2 Re6 Br20'
_cell_volume   917.83843261
_cell_formula_units_Z   2
loop_
 _symmetry_equiv_pos_site_id
 _symmetry_equiv_pos_as_xyz
  1  'x, y, z'
loop_
 _atom_site_type_symbol
 _atom_site_label
 _atom_site_symmetry_multiplicity
 _atom_site_fract_x
 _atom_site_fract_y
 _atom_site_fract_z
 _atom_site_occupancy
  Rb  Rb0  1  0.78905400  0.21094600  0.00000000  1
  Rb  Rb1  1  0.21094600  0.78905400  0.00000000  1
  Re  Re2  1  0.40854200  0.18697300  0.37332800  1
  Re  Re3  1  0.81302700  0.59145800  0.62667200  1
  Re  Re4  1  0.18697300  0.40854200  0.37332800  1
  Re  Re5  1  0.59145800  0.81302700  0.62667200  1
  Re  Re6  1  0.23835300  0.23835300  0.19397500  1
  Re  Re7  1  0.76164700  0.76164700  0.80602500  1
  Br  Br8  1  0.28999200  0.60161100  0.29962800  1
  Br  Br9  1  0.91756400  0.91756400  0.73795800  1
  Br  Br10  1  0.08243600  0.08243600  0.26204200  1
  Br  Br11  1  0.16115300  0.16115300  0.96564600  1
  Br  Br12  1  0.52914000  0.99248200  0.81048500  1
  Br  Br13  1  0.99770400  0.67528200  0.49682200  1
  Br  Br14  1  0.71000800  0.39838900  0.70037200  1
  Br  Br15  1  0.35648200  0.35648200  0.56331400  1
  Br  Br16  1  0.32471800  0.00229600  0.50317800  1
  Br  Br17  1  0.47086000  0.00751800  0.18951500  1
  Br  Br18  1  0.39838900  0.71000800  0.70037200  1
  Br  Br19  1  0.60161100  0.28999200  0.29962800  1
  Br  Br20  1  0.63268300  0.63268300  0.95415500  1
  Br  Br21  1  0.99248200  0.52914000  0.81048500  1
  Br  Br22  1  0.83884700  0.83884700  0.03435400  1
  Br  Br23  1  0.67528100  0.99770400  0.49682200  1
  Br  Br24  1  0.36731700  0.36731700  0.04584500  1
  Br  Br25  1  0.00751800  0.47086000  0.18951500  1
  Br  Br26  1  0.64351800  0.64351800  0.43668600  1
  Br  Br27  1  0.00229600  0.32471900  0.50317800  1
