# generated using pymatgen
data_Ni2W3N
_symmetry_space_group_name_H-M   'P 1'
_cell_length_a   6.67986500
_cell_length_b   6.67986500
_cell_length_c   6.67986500
_cell_angle_alpha   90.00000000
_cell_angle_beta   90.00000000
_cell_angle_gamma   90.00000000
_symmetry_Int_Tables_number   1
_chemical_formula_structural   Ni2W3N
_chemical_formula_sum   'Ni8 W12 N4'
_cell_volume   298.05956029
_cell_formula_units_Z   4
loop_
 _symmetry_equiv_pos_site_id
 _symmetry_equiv_pos_as_xyz
  1  'x, y, z'
loop_
 _atom_site_type_symbol
 _atom_site_label
 _atom_site_symmetry_multiplicity
 _atom_site_fract_x
 _atom_site_fract_y
 _atom_site_fract_z
 _atom_site_occupancy
  Ni  Ni0  1  0.06620700  0.06620700  0.06620700  1
  Ni  Ni1  1  0.31620700  0.18379300  0.81620700  1
  Ni  Ni2  1  0.81620700  0.31620700  0.18379300  1
  Ni  Ni3  1  0.18379300  0.81620700  0.31620700  1
  Ni  Ni4  1  0.43379300  0.93379300  0.56620700  1
  Ni  Ni5  1  0.56620700  0.43379300  0.93379300  1
  Ni  Ni6  1  0.93379300  0.56620700  0.43379300  1
  Ni  Ni7  1  0.68379300  0.68379300  0.68379300  1
  W  W8  1  0.20036200  0.45036200  0.12500000  1
  W  W9  1  0.45036200  0.12500000  0.20036200  1
  W  W10  1  0.95036200  0.37500000  0.79963800  1
  W  W11  1  0.87500000  0.70036200  0.04963800  1
  W  W12  1  0.12500000  0.20036200  0.45036200  1
  W  W13  1  0.79963800  0.95036200  0.37500000  1
  W  W14  1  0.70036200  0.04963800  0.87500000  1
  W  W15  1  0.04963800  0.87500000  0.70036200  1
  W  W16  1  0.62500000  0.29963800  0.54963800  1
  W  W17  1  0.54963800  0.62500000  0.29963800  1
  W  W18  1  0.37500000  0.79963800  0.95036200  1
  W  W19  1  0.29963800  0.54963800  0.62500000  1
  N  N20  1  0.37500000  0.37500000  0.37500000  1
  N  N21  1  0.62500000  0.87500000  0.12500000  1
  N  N22  1  0.12500000  0.62500000  0.87500000  1
  N  N23  1  0.87500000  0.12500000  0.62500000  1
