# generated using pymatgen
data_TbCd3
_symmetry_space_group_name_H-M   'P 1'
_cell_length_a   6.55521217
_cell_length_b   6.55521217
_cell_length_c   4.91444700
_cell_angle_alpha   90.00000000
_cell_angle_beta   90.00000000
_cell_angle_gamma   113.65353805
_symmetry_Int_Tables_number   1
_chemical_formula_structural   TbCd3
_chemical_formula_sum   'Tb2 Cd6'
_cell_volume   193.43633612
_cell_formula_units_Z   2
loop_
 _symmetry_equiv_pos_site_id
 _symmetry_equiv_pos_as_xyz
  1  'x, y, z'
loop_
 _atom_site_type_symbol
 _atom_site_label
 _atom_site_symmetry_multiplicity
 _atom_site_fract_x
 _atom_site_fract_y
 _atom_site_fract_z
 _atom_site_occupancy
  Tb  Tb0  1  0.36477900  0.63522100  0.75000000  1
  Tb  Tb1  1  0.63522100  0.36477900  0.25000000  1
  Cd  Cd2  1  0.88054800  0.68986200  0.75000000  1
  Cd  Cd3  1  0.82377700  0.17622300  0.75000000  1
  Cd  Cd4  1  0.31013800  0.11945200  0.75000000  1
  Cd  Cd5  1  0.11945200  0.31013800  0.25000000  1
  Cd  Cd6  1  0.68986200  0.88054800  0.25000000  1
  Cd  Cd7  1  0.17622300  0.82377700  0.25000000  1
