# generated using pymatgen
data_NaLiCO3
_symmetry_space_group_name_H-M   'P 1'
_cell_length_a   3.35889900
_cell_length_b   14.47471333
_cell_length_c   14.48366291
_cell_angle_alpha   60.07048762
_cell_angle_beta   88.22806028
_cell_angle_gamma   88.33308768
_symmetry_Int_Tables_number   1
_chemical_formula_structural   NaLiCO3
_chemical_formula_sum   'Na9 Li9 C9 O27'
_cell_volume   609.90508334
_cell_formula_units_Z   9
loop_
 _symmetry_equiv_pos_site_id
 _symmetry_equiv_pos_as_xyz
  1  'x, y, z'
loop_
 _atom_site_type_symbol
 _atom_site_label
 _atom_site_symmetry_multiplicity
 _atom_site_fract_x
 _atom_site_fract_y
 _atom_site_fract_z
 _atom_site_occupancy
  Na  Na0  1  0.52647000  0.22491500  0.86850300  1
  Na  Na1  1  0.56694200  0.87761200  0.54423700  1
  Na  Na2  1  0.47927700  0.55116100  0.19303500  1
  Na  Na3  1  0.53016800  0.86753800  0.90699000  1
  Na  Na4  1  0.51573100  0.19171200  0.25701300  1
  Na  Na5  1  0.48127700  0.57594600  0.87910600  1
  Na  Na6  1  0.46930100  0.90771300  0.22567000  1
  Na  Na7  1  0.44186700  0.54564900  0.57743400  1
  Na  Na8  1  0.49313700  0.25599800  0.55181000  1
  Li  Li9  1  0.00381600  0.43139200  0.82212800  1
  Li  Li10  1  0.01123900  0.12453900  0.10121000  1
  Li  Li11  1  0.98666600  0.41911900  0.10617000  1
  Li  Li12  1  0.01114400  0.10082200  0.77452300  1
  Li  Li13  1  0.05508800  0.82057100  0.74690500  1
  Li  Li14  1  0.97073700  0.47516900  0.42001900  1
  Li  Li15  1  0.02856000  0.10503700  0.47551300  1
  Li  Li16  1  0.98334600  0.77438700  0.12518100  1
  Li  Li17  1  0.95061400  0.74758100  0.43257400  1
  C  C18  1  0.99008700  0.34612000  0.66413700  1
  C  C19  1  0.99842500  0.66710000  0.66713200  1
  C  C20  1  0.52937200  0.01282300  0.66843400  1
  C  C21  1  0.00056200  0.66307500  0.99102400  1
  C  C22  1  0.00713200  0.99971500  0.00032300  1
  C  C23  1  0.46762200  0.66849900  0.31921300  1
  C  C24  1  0.01183400  0.99054500  0.34646700  1
  C  C25  1  0.50319100  0.31815900  0.01406400  1
  C  C26  1  0.99664400  0.33308600  0.33395400  1
  O  O27  1  0.07294200  0.74697000  0.89880900  1
  O  O28  1  0.55135600  0.91153800  0.69906200  1
  O  O29  1  0.46794700  0.56727900  0.34965300  1
  O  O30  1  0.51791600  0.08331300  0.56734800  1
  O  O31  1  0.51891900  0.04280600  0.73976600  1
  O  O32  1  0.91937200  0.89958800  0.35539900  1
  O  O33  1  0.46198100  0.69919400  0.38997100  1
  O  O34  1  0.47276400  0.73988900  0.21818100  1
  O  O35  1  0.49841000  0.38878000  0.91287600  1
  O  O36  1  0.91697400  0.65932000  0.58419300  1
  O  O37  1  0.00336400  0.58250500  0.76080000  1
  O  O38  1  0.00650500  0.91325800  0.99377200  1
  O  O39  1  0.05578900  0.35350600  0.74834200  1
  O  O40  1  0.04654500  0.07445900  0.25278000  1
  O  O41  1  0.02998300  0.09241000  0.91404900  1
  O  O42  1  0.98826800  0.41889400  0.24082700  1
  O  O43  1  0.06810600  0.99709800  0.43146600  1
  O  O44  1  0.95350500  0.43223500  0.57182500  1
  O  O45  1  0.51247100  0.21705000  0.04358200  1
  O  O46  1  0.96122400  0.57068300  0.99779900  1
  O  O47  1  0.99944000  0.23974900  0.34137200  1
  O  O48  1  0.00204500  0.34063300  0.41970900  1
  O  O49  1  0.49880400  0.34871600  0.08480600  1
  O  O50  1  0.96846600  0.67171100  0.07593300  1
  O  O51  1  0.07454200  0.75936900  0.65640400  1
  O  O52  1  0.96230700  0.25298900  0.67246900  1
  O  O53  1  0.98480500  0.99347900  0.09313800  1
