# generated using pymatgen
data_KMn6P7O24
_symmetry_space_group_name_H-M   'P 1'
_cell_length_a   27.11762400
_cell_length_b   5.44373100
_cell_length_c   6.66167542
_cell_angle_alpha   72.73828947
_cell_angle_beta   90.00000000
_cell_angle_gamma   90.00000000
_symmetry_Int_Tables_number   1
_chemical_formula_structural   KMn6P7O24
_chemical_formula_sum   'K2 Mn12 P14 O48'
_cell_volume   939.11035533
_cell_formula_units_Z   2
loop_
 _symmetry_equiv_pos_site_id
 _symmetry_equiv_pos_as_xyz
  1  'x, y, z'
loop_
 _atom_site_type_symbol
 _atom_site_label
 _atom_site_symmetry_multiplicity
 _atom_site_fract_x
 _atom_site_fract_y
 _atom_site_fract_z
 _atom_site_occupancy
  K  K0  1  0.75000000  0.22618300  0.37543300  1
  K  K1  1  0.25000000  0.77381700  0.62456700  1
  Mn  Mn2  1  0.04485300  0.31280800  0.68597200  1
  Mn  Mn3  1  0.54485300  0.68719200  0.31402800  1
  Mn  Mn4  1  0.95514700  0.68719200  0.31402800  1
  Mn  Mn5  1  0.45514700  0.31280800  0.68597200  1
  Mn  Mn6  1  0.09751900  0.70670400  0.91286300  1
  Mn  Mn7  1  0.59751900  0.29329600  0.08713700  1
  Mn  Mn8  1  0.90248100  0.29329600  0.08713700  1
  Mn  Mn9  1  0.40248100  0.70670400  0.91286300  1
  Mn  Mn10  1  0.18267000  0.37863500  0.27814700  1
  Mn  Mn11  1  0.68267000  0.62136500  0.72185300  1
  Mn  Mn12  1  0.81733000  0.62136500  0.72185300  1
  Mn  Mn13  1  0.31733000  0.37863500  0.27814700  1
  P  P14  1  0.16781200  0.24790800  0.80830600  1
  P  P15  1  0.66781200  0.75209200  0.19169400  1
  P  P16  1  0.83218800  0.75209200  0.19169400  1
  P  P17  1  0.33218800  0.24790800  0.80830600  1
  P  P18  1  0.75000000  0.03955400  0.90774100  1
  P  P19  1  0.25000000  0.96044600  0.09225900  1
  P  P20  1  0.02437600  0.20767400  0.20527700  1
  P  P21  1  0.52437600  0.79232600  0.79472300  1
  P  P22  1  0.97562400  0.79232600  0.79472300  1
  P  P23  1  0.47562400  0.20767400  0.20527700  1
  P  P24  1  0.10901800  0.81686700  0.38135000  1
  P  P25  1  0.60901800  0.18313300  0.61865000  1
  P  P26  1  0.89098200  0.18313300  0.61865000  1
  P  P27  1  0.39098200  0.81686700  0.38135000  1
  O  O28  1  0.11942200  0.10770000  0.79867300  1
  O  O29  1  0.61942200  0.89230000  0.20132700  1
  O  O30  1  0.88057800  0.89230000  0.20132700  1
  O  O31  1  0.38057800  0.10770000  0.79867300  1
  O  O32  1  0.16571900  0.43490500  0.94205600  1
  O  O33  1  0.66571900  0.56509500  0.05794400  1
  O  O34  1  0.83428100  0.56509500  0.05794400  1
  O  O35  1  0.33428100  0.43490500  0.94205600  1
  O  O36  1  0.19384000  0.36212700  0.59979600  1
  O  O37  1  0.69384000  0.63787300  0.40020400  1
  O  O38  1  0.80616000  0.63787300  0.40020400  1
  O  O39  1  0.30616000  0.36212700  0.59979600  1
  O  O40  1  0.20364200  0.00394100  0.93940200  1
  O  O41  1  0.70364200  0.99605900  0.06059800  1
  O  O42  1  0.79635800  0.99605900  0.06059800  1
  O  O43  1  0.29635800  0.00394100  0.93940200  1
  O  O44  1  0.75000000  0.84893900  0.78045000  1
  O  O45  1  0.25000000  0.15106100  0.21955000  1
  O  O46  1  0.04768300  0.36920000  0.99796800  1
  O  O47  1  0.75000000  0.32357200  0.78612200  1
  O  O48  1  0.97430000  0.09001500  0.17502800  1
  O  O49  1  0.47430000  0.90998500  0.82497200  1
  O  O50  1  0.02570000  0.90998500  0.82497200  1
  O  O51  1  0.52570000  0.09001500  0.17502800  1
  O  O52  1  0.02214200  0.35450600  0.36917900  1
  O  O53  1  0.52214200  0.64549400  0.63082100  1
  O  O54  1  0.97785800  0.64549400  0.63082100  1
  O  O55  1  0.47785800  0.35450600  0.36917900  1
  O  O56  1  0.35225700  0.01470700  0.38388700  1
  O  O57  1  0.85225700  0.98529300  0.61611300  1
  O  O58  1  0.64774300  0.98529300  0.61611300  1
  O  O59  1  0.14774300  0.01470700  0.38388700  1
  O  O60  1  0.37785800  0.65531900  0.23295700  1
  O  O61  1  0.87785800  0.34468100  0.76704300  1
  O  O62  1  0.62214200  0.34468100  0.76704300  1
  O  O63  1  0.12214200  0.65531900  0.23295700  1
  O  O64  1  0.40476300  0.64228100  0.60185500  1
  O  O65  1  0.90476300  0.35771900  0.39814500  1
  O  O66  1  0.59523700  0.35771900  0.39814500  1
  O  O67  1  0.09523700  0.64228100  0.60185500  1
  O  O68  1  0.44262000  0.95204300  0.28999400  1
  O  O69  1  0.94262000  0.04795700  0.71000600  1
  O  O70  1  0.55738000  0.04795700  0.71000600  1
  O  O71  1  0.05738000  0.95204300  0.28999400  1
  O  O72  1  0.45231700  0.36920000  0.99796800  1
  O  O73  1  0.95231700  0.63080000  0.00203200  1
  O  O74  1  0.54768300  0.63080000  0.00203200  1
  O  O75  1  0.25000000  0.67642800  0.21387800  1
