# generated using pymatgen
data_DyZn2
_symmetry_space_group_name_H-M   'P 1'
_cell_length_a   5.64096898
_cell_length_b   5.64096898
_cell_length_c   5.64096898
_cell_angle_alpha   132.87889547
_cell_angle_beta   101.29860395
_cell_angle_gamma   97.10145946
_symmetry_Int_Tables_number   1
_chemical_formula_structural   DyZn2
_chemical_formula_sum   'Dy2 Zn4'
_cell_volume   120.45877568
_cell_formula_units_Z   2
loop_
 _symmetry_equiv_pos_site_id
 _symmetry_equiv_pos_as_xyz
  1  'x, y, z'
loop_
 _atom_site_type_symbol
 _atom_site_label
 _atom_site_symmetry_multiplicity
 _atom_site_fract_x
 _atom_site_fract_y
 _atom_site_fract_z
 _atom_site_occupancy
  Dy  Dy0  1  0.71410300  0.46410300  0.25000000  1
  Dy  Dy1  1  0.28589700  0.53589700  0.75000000  1
  Zn  Zn2  1  0.88234800  0.83373400  0.04861400  1
  Zn  Zn3  1  0.11765200  0.16626600  0.95138600  1
  Zn  Zn4  1  0.71488000  0.16626600  0.54861400  1
  Zn  Zn5  1  0.28512000  0.83373400  0.45138600  1
