# generated using pymatgen
data_CaGaBO4
_symmetry_space_group_name_H-M   'P 1'
_cell_length_a   8.84907395
_cell_length_b   8.84907395
_cell_length_c   5.90388200
_cell_angle_alpha   90.00000000
_cell_angle_beta   90.00000000
_cell_angle_gamma   122.66409593
_symmetry_Int_Tables_number   1
_chemical_formula_structural   CaGaBO4
_chemical_formula_sum   'Ca4 Ga4 B4 O16'
_cell_volume   389.19531007
_cell_formula_units_Z   4
loop_
 _symmetry_equiv_pos_site_id
 _symmetry_equiv_pos_as_xyz
  1  'x, y, z'
loop_
 _atom_site_type_symbol
 _atom_site_label
 _atom_site_symmetry_multiplicity
 _atom_site_fract_x
 _atom_site_fract_y
 _atom_site_fract_z
 _atom_site_occupancy
  Ca  Ca0  1  0.26788900  0.45202400  0.89767200  1
  Ca  Ca1  1  0.54797600  0.73211100  0.39767200  1
  Ca  Ca2  1  0.73211100  0.54797600  0.89767200  1
  Ca  Ca3  1  0.45202400  0.26788900  0.39767200  1
  Ga  Ga4  1  0.81316700  0.21682000  0.62550500  1
  Ga  Ga5  1  0.21682000  0.81316700  0.12550500  1
  Ga  Ga6  1  0.78318000  0.18683300  0.12550500  1
  Ga  Ga7  1  0.18683300  0.78318000  0.62550500  1
  B  B8  1  0.65427300  0.86595600  0.86019400  1
  B  B9  1  0.13404400  0.34572700  0.36019400  1
  B  B10  1  0.34572700  0.13404400  0.86019400  1
  B  B11  1  0.86595600  0.65427300  0.36019400  1
  O  O12  1  0.02940900  0.28411100  0.16506000  1
  O  O13  1  0.31581900  0.42986900  0.32885100  1
  O  O14  1  0.23102800  0.69480000  0.87964000  1
  O  O15  1  0.42986900  0.31581900  0.82885100  1
  O  O16  1  0.68418100  0.57013100  0.32885100  1
  O  O17  1  0.67678100  0.93822000  0.07707800  1
  O  O18  1  0.30520000  0.76897200  0.37964000  1
  O  O19  1  0.69480000  0.23102800  0.37964000  1
  O  O20  1  0.06178000  0.32321900  0.57707800  1
  O  O21  1  0.71588900  0.97059100  0.66506000  1
  O  O22  1  0.32321900  0.06178000  0.07707800  1
  O  O23  1  0.76897200  0.30520000  0.87964000  1
  O  O24  1  0.28411100  0.02940900  0.66506000  1
  O  O25  1  0.97059100  0.71588900  0.16506000  1
  O  O26  1  0.57013100  0.68418100  0.82885100  1
  O  O27  1  0.93822000  0.67678100  0.57707800  1
