# generated using pymatgen
data_KMo2P3O13
_symmetry_space_group_name_H-M   'P 1'
_cell_length_a   9.02633731
_cell_length_b   9.02633731
_cell_length_c   9.02546592
_cell_angle_alpha   68.98362688
_cell_angle_beta   68.98362688
_cell_angle_gamma   105.44874329
_symmetry_Int_Tables_number   1
_chemical_formula_structural   KMo2P3O13
_chemical_formula_sum   'K2 Mo4 P6 O26'
_cell_volume   571.15455704
_cell_formula_units_Z   2
loop_
 _symmetry_equiv_pos_site_id
 _symmetry_equiv_pos_as_xyz
  1  'x, y, z'
loop_
 _atom_site_type_symbol
 _atom_site_label
 _atom_site_symmetry_multiplicity
 _atom_site_fract_x
 _atom_site_fract_y
 _atom_site_fract_z
 _atom_site_occupancy
  K  K0  1  0.50000000  0.00000000  0.00000000  1
  K  K1  1  0.00000000  0.50000000  0.50000000  1
  Mo  Mo2  1  0.16134000  0.32670900  0.83178000  1
  Mo  Mo3  1  0.32670900  0.16134000  0.33178000  1
  Mo  Mo4  1  0.67329100  0.83866000  0.66822000  1
  Mo  Mo5  1  0.83866000  0.67329100  0.16822000  1
  P  P6  1  0.98832700  0.01167300  0.75000000  1
  P  P7  1  0.64978500  0.23948400  0.43714900  1
  P  P8  1  0.23948400  0.64978500  0.93714900  1
  P  P9  1  0.76051600  0.35021500  0.06285100  1
  P  P10  1  0.01167300  0.98832700  0.25000000  1
  P  P11  1  0.35021500  0.76051600  0.56285100  1
  O  O12  1  0.99633600  0.89619600  0.91755400  1
  O  O13  1  0.94344500  0.79325000  0.28894600  1
  O  O14  1  0.80168400  0.53844300  0.03391900  1
  O  O15  1  0.79325000  0.94344500  0.78894600  1
  O  O16  1  0.10379800  0.65305600  0.09211400  1
  O  O17  1  0.35130500  0.30308200  0.76991700  1
  O  O18  1  0.43010000  0.74710100  0.89960900  1
  O  O19  1  0.00366400  0.10380400  0.08244600  1
  O  O20  1  0.30308200  0.35130500  0.26991700  1
  O  O21  1  0.64869500  0.69691800  0.23008300  1
  O  O22  1  0.10380400  0.00366400  0.58244600  1
  O  O23  1  0.65305600  0.10379800  0.59211400  1
  O  O24  1  0.56990000  0.25289900  0.10039100  1
  O  O25  1  0.05655500  0.20675000  0.71105400  1
  O  O26  1  0.25289900  0.56990000  0.60039100  1
  O  O27  1  0.20675000  0.05655500  0.21105400  1
  O  O28  1  0.53844300  0.80168400  0.53391900  1
  O  O29  1  0.89620200  0.34694400  0.90788600  1
  O  O30  1  0.89619600  0.99633600  0.41755400  1
  O  O31  1  0.46155700  0.19831600  0.46608100  1
  O  O32  1  0.34694400  0.89620200  0.40788600  1
  O  O33  1  0.19831600  0.46155700  0.96608100  1
  O  O34  1  0.76060700  0.23939300  0.25000000  1
  O  O35  1  0.74710100  0.43010000  0.39960900  1
  O  O36  1  0.69691800  0.64869500  0.73008300  1
  O  O37  1  0.23939300  0.76060700  0.75000000  1
