# generated using pymatgen
data_Ba5Os3ClO15
_symmetry_space_group_name_H-M   'P 1'
_cell_length_a   11.11547635
_cell_length_b   11.11547635
_cell_length_c   7.97483500
_cell_angle_alpha   90.00000000
_cell_angle_beta   90.00000000
_cell_angle_gamma   120.00000211
_symmetry_Int_Tables_number   1
_chemical_formula_structural   Ba5Os3ClO15
_chemical_formula_sum   'Ba10 Os6 Cl2 O30'
_cell_volume   853.31324547
_cell_formula_units_Z   2
loop_
 _symmetry_equiv_pos_site_id
 _symmetry_equiv_pos_as_xyz
  1  'x, y, z'
loop_
 _atom_site_type_symbol
 _atom_site_label
 _atom_site_symmetry_multiplicity
 _atom_site_fract_x
 _atom_site_fract_y
 _atom_site_fract_z
 _atom_site_occupancy
  Ba  Ba0  1  0.00000000  0.26485700  0.76772700  1
  Ba  Ba1  1  0.00000000  0.73514300  0.26772700  1
  Ba  Ba2  1  0.26485700  0.26485700  0.26772700  1
  Ba  Ba3  1  0.73514300  0.00000000  0.26772700  1
  Ba  Ba4  1  0.26485700  0.00000000  0.76772700  1
  Ba  Ba5  1  0.66666700  0.33333300  0.50389800  1
  Ba  Ba6  1  0.73514300  0.73514300  0.76772700  1
  Ba  Ba7  1  0.33333300  0.66666700  0.50389800  1
  Ba  Ba8  1  0.66666700  0.33333300  0.00389800  1
  Ba  Ba9  1  0.33333300  0.66666700  0.00389800  1
  Os  Os10  1  0.38787900  0.00000000  0.21515200  1
  Os  Os11  1  0.00000000  0.61212100  0.71515200  1
  Os  Os12  1  0.61212100  0.61212100  0.21515200  1
  Os  Os13  1  0.38787900  0.38787900  0.71515200  1
  Os  Os14  1  0.00000000  0.38787900  0.21515200  1
  Os  Os15  1  0.61212100  0.00000000  0.71515200  1
  Cl  Cl16  1  0.00000000  0.00000000  0.03915400  1
  Cl  Cl17  1  0.00000000  0.00000000  0.53915400  1
  O  O18  1  0.25727600  0.86875300  0.06851200  1
  O  O19  1  0.55377000  0.42381500  0.24732800  1
  O  O20  1  0.38852400  0.13124700  0.06851200  1
  O  O21  1  0.87004600  0.42381500  0.74732800  1
  O  O22  1  0.44623000  0.57618500  0.74732800  1
  O  O23  1  0.55377000  0.12995400  0.74732800  1
  O  O24  1  0.57618500  0.44623000  0.74732800  1
  O  O25  1  0.29364700  0.00000000  0.39035800  1
  O  O26  1  0.13124700  0.38852400  0.06851200  1
  O  O27  1  0.29364700  0.29364700  0.89035800  1
  O  O28  1  0.00000000  0.70635300  0.89035800  1
  O  O29  1  0.70635300  0.00000000  0.89035800  1
  O  O30  1  0.42381500  0.55377000  0.24732800  1
  O  O31  1  0.70635300  0.70635300  0.39035800  1
  O  O32  1  0.00000000  0.29364700  0.39035800  1
  O  O33  1  0.12995400  0.55377000  0.74732800  1
  O  O34  1  0.61147600  0.86875300  0.56851200  1
  O  O35  1  0.38852400  0.25727600  0.56851200  1
  O  O36  1  0.74272400  0.13124700  0.56851200  1
  O  O37  1  0.86875300  0.25727600  0.06851200  1
  O  O38  1  0.25727600  0.38852400  0.56851200  1
  O  O39  1  0.87004600  0.44623000  0.24732800  1
  O  O40  1  0.61147600  0.74272400  0.06851200  1
  O  O41  1  0.12995400  0.57618500  0.24732800  1
  O  O42  1  0.44623000  0.87004600  0.24732800  1
  O  O43  1  0.74272400  0.61147600  0.06851200  1
  O  O44  1  0.13124700  0.74272400  0.56851200  1
  O  O45  1  0.57618500  0.12995400  0.24732800  1
  O  O46  1  0.42381500  0.87004600  0.74732800  1
  O  O47  1  0.86875300  0.61147600  0.56851200  1
