# generated using pymatgen
data_BaBeSiO4
_symmetry_space_group_name_H-M   'P 1'
_cell_length_a   5.18227714
_cell_length_b   5.18227714
_cell_length_c   5.09332408
_cell_angle_alpha   60.80142570
_cell_angle_beta   60.80142570
_cell_angle_gamma   61.39059085
_symmetry_Int_Tables_number   1
_chemical_formula_structural   BaBeSiO4
_chemical_formula_sum   'Ba1 Be1 Si1 O4'
_cell_volume   98.88965481
_cell_formula_units_Z   1
loop_
 _symmetry_equiv_pos_site_id
 _symmetry_equiv_pos_as_xyz
  1  'x, y, z'
loop_
 _atom_site_type_symbol
 _atom_site_label
 _atom_site_symmetry_multiplicity
 _atom_site_fract_x
 _atom_site_fract_y
 _atom_site_fract_z
 _atom_site_occupancy
  Ba  Ba0  1  0.01722300  0.01722300  0.96865300  1
  Be  Be1  1  0.74718200  0.74718200  0.73710500  1
  Si  Si2  1  0.49874400  0.49874400  0.48548800  1
  O  O3  1  0.62392300  0.12162000  0.55600500  1
  O  O4  1  0.67444400  0.67444400  0.11235500  1
  O  O5  1  0.12162000  0.62392300  0.55600500  1
  O  O6  1  0.56786500  0.56786500  0.72368700  1
