# generated using pymatgen
data_CaB4O7
_symmetry_space_group_name_H-M   'P 1'
_cell_length_a   9.97107300
_cell_length_b   7.91491700
_cell_length_c   14.55210179
_cell_angle_alpha   59.04248605
_cell_angle_beta   90.00000000
_cell_angle_gamma   90.00000000
_symmetry_Int_Tables_number   1
_chemical_formula_structural   CaB4O7
_chemical_formula_sum   'Ca8 B32 O56'
_cell_volume   984.85641426
_cell_formula_units_Z   8
loop_
 _symmetry_equiv_pos_site_id
 _symmetry_equiv_pos_as_xyz
  1  'x, y, z'
loop_
 _atom_site_type_symbol
 _atom_site_label
 _atom_site_symmetry_multiplicity
 _atom_site_fract_x
 _atom_site_fract_y
 _atom_site_fract_z
 _atom_site_occupancy
  Ca  Ca0  1  0.11501000  0.48859500  0.84488200  1
  Ca  Ca1  1  0.91728700  0.85771200  0.43750000  1
  Ca  Ca2  1  0.88499000  0.51140500  0.15511800  1
  Ca  Ca3  1  0.41728700  0.14228800  0.06250000  1
  Ca  Ca4  1  0.58271300  0.85771200  0.93750000  1
  Ca  Ca5  1  0.38499000  0.48859500  0.34488200  1
  Ca  Ca6  1  0.61501000  0.51140500  0.65511800  1
  Ca  Ca7  1  0.08271300  0.14228800  0.56250000  1
  B  B8  1  0.67149300  0.22459200  0.36894900  1
  B  B9  1  0.56942100  0.41616500  0.18207800  1
  B  B10  1  0.17149300  0.77540800  0.13105100  1
  B  B11  1  0.70861600  0.36930600  0.05260500  1
  B  B12  1  0.20861600  0.63069400  0.44739500  1
  B  B13  1  0.29138400  0.63069400  0.94739500  1
  B  B14  1  0.43057900  0.58383500  0.81792200  1
  B  B15  1  0.91448900  0.20907800  0.03563200  1
  B  B16  1  0.41448900  0.79092200  0.46436800  1
  B  B17  1  0.39230200  0.19919000  0.65360900  1
  B  B18  1  0.06942100  0.58383500  0.31792200  1
  B  B19  1  0.10976100  0.27521000  0.30294600  1
  B  B20  1  0.32087400  0.27646300  0.20890000  1
  B  B21  1  0.39023900  0.27521000  0.80294600  1
  B  B22  1  0.60976100  0.72479000  0.19705400  1
  B  B23  1  0.08551100  0.79092200  0.96436800  1
  B  B24  1  0.32850700  0.77540800  0.63105100  1
  B  B25  1  0.89023900  0.72479000  0.69705400  1
  B  B26  1  0.10769800  0.19919000  0.15360900  1
  B  B27  1  0.67912600  0.72353700  0.79110000  1
  B  B28  1  0.82087400  0.72353700  0.29110000  1
  B  B29  1  0.93057900  0.41616500  0.68207800  1
  B  B30  1  0.79138400  0.36930600  0.55260500  1
  B  B31  1  0.82850700  0.22459200  0.86894900  1
  B  B32  1  0.60769800  0.80081000  0.34639100  1
  B  B33  1  0.70844200  0.06238000  0.04163900  1
  B  B34  1  0.20844200  0.93762000  0.45836100  1
  B  B35  1  0.17912600  0.27646300  0.70890000  1
  B  B36  1  0.58551100  0.20907800  0.53563200  1
  B  B37  1  0.79155800  0.06238000  0.54163900  1
  B  B38  1  0.89230200  0.80081000  0.84639100  1
  B  B39  1  0.29155800  0.93762000  0.95836100  1
  O  O40  1  0.55336800  0.80951900  0.42889600  1
  O  O41  1  0.42353900  0.71822000  0.58293600  1
  O  O42  1  0.72020300  0.11171800  0.92758400  1
  O  O43  1  0.02665800  0.42668000  0.30226900  1
  O  O44  1  0.05336800  0.19048100  0.07110400  1
  O  O45  1  0.74823400  0.81267900  0.33852200  1
  O  O46  1  0.66840400  0.28208800  0.26236700  1
  O  O47  1  0.33618400  0.96692200  0.40842700  1
  O  O48  1  0.65363400  0.37448800  0.54534800  1
  O  O49  1  0.14781600  0.49669800  0.42377600  1
  O  O50  1  0.52665800  0.57332000  0.19773100  1
  O  O51  1  0.03878800  0.22933700  0.22594200  1
  O  O52  1  0.04780700  0.30358200  0.67873200  1
  O  O53  1  0.38803200  0.10129700  0.91084800  1
  O  O54  1  0.74809300  0.65489200  0.73518500  1
  O  O55  1  0.16381600  0.96692200  0.90842700  1
  O  O56  1  0.15363400  0.62551200  0.95465200  1
  O  O57  1  0.25176600  0.18732100  0.66147800  1
  O  O58  1  0.35218400  0.49669800  0.92377600  1
  O  O59  1  0.46121200  0.22933700  0.72594200  1
  O  O60  1  0.47334200  0.42668000  0.80226900  1
  O  O61  1  0.95219300  0.69641800  0.32126800  1
  O  O62  1  0.36374600  0.76362300  0.95991800  1
  O  O63  1  0.24823400  0.18732100  0.16147800  1
  O  O64  1  0.33159600  0.71791200  0.73763300  1
  O  O65  1  0.88803200  0.89870300  0.58915200  1
  O  O66  1  0.77979700  0.11171800  0.42758400  1
  O  O67  1  0.63625400  0.23637700  0.04008200  1
  O  O68  1  0.07646100  0.71822000  0.08293600  1
  O  O69  1  0.45219300  0.30358200  0.17873200  1
  O  O70  1  0.97334200  0.57332000  0.69773100  1
  O  O71  1  0.75190700  0.65489200  0.23518500  1
  O  O72  1  0.83618400  0.03307800  0.09157300  1
  O  O73  1  0.83159600  0.28208800  0.76236700  1
  O  O74  1  0.66381600  0.03307800  0.59157300  1
  O  O75  1  0.96121200  0.77066300  0.77405800  1
  O  O76  1  0.25190700  0.34510800  0.26481500  1
  O  O77  1  0.16840400  0.71791200  0.23763300  1
  O  O78  1  0.57646100  0.28178000  0.41706400  1
  O  O79  1  0.44663200  0.19048100  0.57110400  1
  O  O80  1  0.61196800  0.89870300  0.08915200  1
  O  O81  1  0.11196800  0.10129700  0.41084800  1
  O  O82  1  0.54780700  0.69641800  0.82126800  1
  O  O83  1  0.94663200  0.80951900  0.92889600  1
  O  O84  1  0.92353900  0.28178000  0.91706400  1
  O  O85  1  0.75176600  0.81267900  0.83852200  1
  O  O86  1  0.53878800  0.77066300  0.27405800  1
  O  O87  1  0.34636600  0.62551200  0.45465200  1
  O  O88  1  0.64781600  0.50330200  0.07622400  1
  O  O89  1  0.22020300  0.88828200  0.57241600  1
  O  O90  1  0.85218400  0.50330200  0.57622400  1
  O  O91  1  0.86374600  0.23637700  0.54008200  1
  O  O92  1  0.24809300  0.34510800  0.76481500  1
  O  O93  1  0.13625400  0.76362300  0.45991800  1
  O  O94  1  0.27979700  0.88828200  0.07241600  1
  O  O95  1  0.84636600  0.37448800  0.04534800  1
