# generated using pymatgen
data_Ba(BrO3)2
_symmetry_space_group_name_H-M   'P 1'
_cell_length_a   7.49282439
_cell_length_b   7.49282439
_cell_length_c   8.68961012
_cell_angle_alpha   57.76600525
_cell_angle_beta   57.76600525
_cell_angle_gamma   65.96071356
_symmetry_Int_Tables_number   1
_chemical_formula_structural   Ba(BrO3)2
_chemical_formula_sum   'Ba2 Br4 O12'
_cell_volume   343.87911360
_cell_formula_units_Z   2
loop_
 _symmetry_equiv_pos_site_id
 _symmetry_equiv_pos_as_xyz
  1  'x, y, z'
loop_
 _atom_site_type_symbol
 _atom_site_label
 _atom_site_symmetry_multiplicity
 _atom_site_fract_x
 _atom_site_fract_y
 _atom_site_fract_z
 _atom_site_occupancy
  Ba  Ba0  1  0.14839300  0.85160700  0.25000000  1
  Ba  Ba1  1  0.85160700  0.14839300  0.75000000  1
  Br  Br2  1  0.31821000  0.29946700  0.18414700  1
  Br  Br3  1  0.68179000  0.70053300  0.81585300  1
  Br  Br4  1  0.29946700  0.31821000  0.68414700  1
  Br  Br5  1  0.70053300  0.68179000  0.31585300  1
  O  O6  1  0.91139700  0.80340700  0.65220000  1
  O  O7  1  0.19659300  0.08860300  0.84780000  1
  O  O8  1  0.08860300  0.19659300  0.34780000  1
  O  O9  1  0.78062000  0.59625900  0.49732000  1
  O  O10  1  0.56579100  0.23886500  0.58516500  1
  O  O11  1  0.80340700  0.91139700  0.15220000  1
  O  O12  1  0.21938000  0.40374100  0.50268000  1
  O  O13  1  0.40374100  0.21938000  0.00268000  1
  O  O14  1  0.59625900  0.78062000  0.99732000  1
  O  O15  1  0.23886500  0.56579100  0.08516500  1
  O  O16  1  0.43420900  0.76113500  0.41483500  1
  O  O17  1  0.76113500  0.43420900  0.91483500  1
