# generated using pymatgen
data_SrNi9P5
_symmetry_space_group_name_H-M   'P 1'
_cell_length_a   6.50898580
_cell_length_b   6.50898580
_cell_length_c   10.76869500
_cell_angle_alpha   90.00000000
_cell_angle_beta   90.00000000
_cell_angle_gamma   119.99999799
_symmetry_Int_Tables_number   1
_chemical_formula_structural   SrNi9P5
_chemical_formula_sum   'Sr2 Ni18 P10'
_cell_volume   395.11213256
_cell_formula_units_Z   2
loop_
 _symmetry_equiv_pos_site_id
 _symmetry_equiv_pos_as_xyz
  1  'x, y, z'
loop_
 _atom_site_type_symbol
 _atom_site_label
 _atom_site_symmetry_multiplicity
 _atom_site_fract_x
 _atom_site_fract_y
 _atom_site_fract_z
 _atom_site_occupancy
  Sr  Sr0  1  0.00000000  0.00000000  0.00000000  1
  Sr  Sr1  1  0.00000000  0.00000000  0.50000000  1
  Ni  Ni2  1  0.53589400  0.07178900  0.10746600  1
  Ni  Ni3  1  0.46410600  0.53589400  0.60746600  1
  Ni  Ni4  1  0.07178900  0.53589400  0.60746600  1
  Ni  Ni5  1  0.92821100  0.46410600  0.10746600  1
  Ni  Ni6  1  0.53589400  0.46410600  0.10746600  1
  Ni  Ni7  1  0.46410600  0.92821100  0.89253400  1
  Ni  Ni8  1  0.46410600  0.53589400  0.89253400  1
  Ni  Ni9  1  0.46410600  0.92821100  0.60746600  1
  Ni  Ni10  1  0.07178900  0.53589400  0.89253400  1
  Ni  Ni11  1  0.92821100  0.46410600  0.39253400  1
  Ni  Ni12  1  0.53589400  0.07178900  0.39253400  1
  Ni  Ni13  1  0.53589400  0.46410600  0.39253400  1
  Ni  Ni14  1  0.20258500  0.40516900  0.25000000  1
  Ni  Ni15  1  0.79741500  0.20258500  0.75000000  1
  Ni  Ni16  1  0.40516900  0.20258500  0.75000000  1
  Ni  Ni17  1  0.59483100  0.79741500  0.25000000  1
  Ni  Ni18  1  0.20258500  0.79741500  0.25000000  1
  Ni  Ni19  1  0.79741500  0.59483100  0.75000000  1
  P  P20  1  0.82620400  0.65240800  0.25000000  1
  P  P21  1  0.17379600  0.82620400  0.75000000  1
  P  P22  1  0.65240800  0.82620400  0.75000000  1
  P  P23  1  0.34759200  0.17379600  0.25000000  1
  P  P24  1  0.82620400  0.17379600  0.25000000  1
  P  P25  1  0.17379600  0.34759200  0.75000000  1
  P  P26  1  0.33333300  0.66666700  0.06165600  1
  P  P27  1  0.66666700  0.33333300  0.56165600  1
  P  P28  1  0.66666700  0.33333300  0.93834400  1
  P  P29  1  0.33333300  0.66666700  0.43834400  1
