# generated using pymatgen
data_EuCd11
_symmetry_space_group_name_H-M   'P 1'
_cell_length_a   9.43733661
_cell_length_b   9.43733661
_cell_length_c   9.43733661
_cell_angle_alpha   99.88885764
_cell_angle_beta   99.88885764
_cell_angle_gamma   131.03538159
_symmetry_Int_Tables_number   1
_chemical_formula_structural   EuCd11
_chemical_formula_sum   'Eu2 Cd22'
_cell_volume   577.00412228
_cell_formula_units_Z   2
loop_
 _symmetry_equiv_pos_site_id
 _symmetry_equiv_pos_as_xyz
  1  'x, y, z'
loop_
 _atom_site_type_symbol
 _atom_site_label
 _atom_site_symmetry_multiplicity
 _atom_site_fract_x
 _atom_site_fract_y
 _atom_site_fract_z
 _atom_site_occupancy
  Eu  Eu0  1  0.50000000  0.50000000  0.00000000  1
  Eu  Eu1  1  0.75000000  0.25000000  0.50000000  1
  Cd  Cd2  1  0.99558600  0.32051600  0.91505800  1
  Cd  Cd3  1  0.12500000  0.87500000  0.75000000  1
  Cd  Cd4  1  0.57051600  0.15545800  0.82493100  1
  Cd  Cd5  1  0.99558600  0.08052700  0.67506900  1
  Cd  Cd6  1  0.57051600  0.74558600  0.41505800  1
  Cd  Cd7  1  0.91947300  0.59454200  0.91505800  1
  Cd  Cd8  1  0.91947300  0.00441400  0.32493100  1
  Cd  Cd9  1  0.84454200  0.42948400  0.17506900  1
  Cd  Cd10  1  0.25441400  0.66947300  0.82493100  1
  Cd  Cd11  1  0.25000000  0.75000000  0.50000000  1
  Cd  Cd12  1  0.67948400  0.00441400  0.08494200  1
  Cd  Cd13  1  0.00000000  0.00000000  0.00000000  1
  Cd  Cd14  1  0.62500000  0.87500000  0.75000000  1
  Cd  Cd15  1  0.67948400  0.59454200  0.67506900  1
  Cd  Cd16  1  0.40545800  0.08052700  0.08494200  1
  Cd  Cd17  1  0.25441400  0.42948400  0.58494200  1
  Cd  Cd18  1  0.33052700  0.74558600  0.17506900  1
  Cd  Cd19  1  0.33052700  0.15545800  0.58494200  1
  Cd  Cd20  1  0.84454200  0.66947300  0.41505800  1
  Cd  Cd21  1  0.40545800  0.32051600  0.32493100  1
  Cd  Cd22  1  0.12500000  0.87500000  0.25000000  1
  Cd  Cd23  1  0.12500000  0.37500000  0.25000000  1
