# generated using pymatgen
data_Rb2Na3InO4
_symmetry_space_group_name_H-M   'P 1'
_cell_length_a   7.55826100
_cell_length_b   9.78400500
_cell_length_c   9.90869100
_cell_angle_alpha   90.00000000
_cell_angle_beta   90.00000000
_cell_angle_gamma   90.00000000
_symmetry_Int_Tables_number   1
_chemical_formula_structural   Rb2Na3InO4
_chemical_formula_sum   'Rb8 Na12 In4 O16'
_cell_volume   732.74832781
_cell_formula_units_Z   4
loop_
 _symmetry_equiv_pos_site_id
 _symmetry_equiv_pos_as_xyz
  1  'x, y, z'
loop_
 _atom_site_type_symbol
 _atom_site_label
 _atom_site_symmetry_multiplicity
 _atom_site_fract_x
 _atom_site_fract_y
 _atom_site_fract_z
 _atom_site_occupancy
  Rb  Rb0  1  0.00000000  0.23177300  0.25895200  1
  Rb  Rb1  1  0.00000000  0.76822700  0.74104800  1
  Rb  Rb2  1  0.50000000  0.73177300  0.24104800  1
  Rb  Rb3  1  0.50000000  0.26822700  0.75895200  1
  Rb  Rb4  1  0.74508200  0.00000000  0.50000000  1
  Rb  Rb5  1  0.75491800  0.50000000  0.00000000  1
  Rb  Rb6  1  0.25491800  0.00000000  0.50000000  1
  Rb  Rb7  1  0.24508200  0.50000000  0.00000000  1
  Na  Na8  1  0.75264200  0.48197800  0.35348100  1
  Na  Na9  1  0.75264200  0.51802300  0.64651900  1
  Na  Na10  1  0.74735800  0.98197700  0.14651900  1
  Na  Na11  1  0.74735800  0.01802200  0.85348100  1
  Na  Na12  1  0.24735800  0.51802300  0.64651900  1
  Na  Na13  1  0.24735800  0.48197800  0.35348100  1
  Na  Na14  1  0.25264200  0.01802200  0.85348100  1
  Na  Na15  1  0.25264200  0.98197700  0.14651900  1
  Na  Na16  1  0.00000000  0.23427900  0.91900500  1
  Na  Na17  1  0.00000000  0.76572100  0.08099500  1
  Na  Na18  1  0.50000000  0.73427900  0.58099500  1
  Na  Na19  1  0.50000000  0.26572100  0.41900500  1
  In  In20  1  0.50000000  0.77565200  0.87208700  1
  In  In21  1  0.50000000  0.22434800  0.12791300  1
  In  In22  1  0.00000000  0.27565200  0.62791300  1
  In  In23  1  0.00000000  0.72434800  0.37208700  1
  O  O24  1  0.50000000  0.58218100  0.77447800  1
  O  O25  1  0.50000000  0.41781900  0.22552200  1
  O  O26  1  0.00000000  0.08218100  0.72552200  1
  O  O27  1  0.00000000  0.91781900  0.27447800  1
  O  O28  1  0.76571800  0.30674800  0.51830300  1
  O  O29  1  0.76571800  0.69325200  0.48169700  1
  O  O30  1  0.73428200  0.80674800  0.98169700  1
  O  O31  1  0.73428200  0.19325200  0.01830300  1
  O  O32  1  0.23428200  0.69325200  0.48169700  1
  O  O33  1  0.23428200  0.30674800  0.51830300  1
  O  O34  1  0.26571800  0.19325200  0.01830300  1
  O  O35  1  0.26571800  0.80674800  0.98169700  1
  O  O36  1  0.00000000  0.43559600  0.77475600  1
  O  O37  1  0.00000000  0.56440400  0.22524400  1
  O  O38  1  0.50000000  0.93559600  0.72524400  1
  O  O39  1  0.50000000  0.06440400  0.27475600  1
