# generated using pymatgen
data_BaMnF5
_symmetry_space_group_name_H-M   'P 1'
_cell_length_a   5.02580400
_cell_length_b   5.90829900
_cell_length_c   14.36256300
_cell_angle_alpha   90.00000000
_cell_angle_beta   90.00000000
_cell_angle_gamma   90.00000000
_symmetry_Int_Tables_number   1
_chemical_formula_structural   BaMnF5
_chemical_formula_sum   'Ba4 Mn4 F20'
_cell_volume   426.48126705
_cell_formula_units_Z   4
loop_
 _symmetry_equiv_pos_site_id
 _symmetry_equiv_pos_as_xyz
  1  'x, y, z'
loop_
 _atom_site_type_symbol
 _atom_site_label
 _atom_site_symmetry_multiplicity
 _atom_site_fract_x
 _atom_site_fract_y
 _atom_site_fract_z
 _atom_site_occupancy
  Ba  Ba0  1  0.74508500  0.63557600  0.66082100  1
  Ba  Ba1  1  0.24508500  0.86442400  0.33917900  1
  Ba  Ba2  1  0.25491500  0.13557600  0.83917900  1
  Ba  Ba3  1  0.75491500  0.36442400  0.16082100  1
  Mn  Mn4  1  0.33886900  0.11853700  0.58495000  1
  Mn  Mn5  1  0.83886900  0.38146300  0.41505000  1
  Mn  Mn6  1  0.66113100  0.61853700  0.91505000  1
  Mn  Mn7  1  0.16113100  0.88146300  0.08495000  1
  F  F8  1  0.99422800  0.61509500  0.48436400  1
  F  F9  1  0.49422800  0.88490500  0.51563600  1
  F  F10  1  0.00577200  0.11509500  0.01563600  1
  F  F11  1  0.50577200  0.38490500  0.98436400  1
  F  F12  1  0.68098500  0.61744900  0.32229000  1
  F  F13  1  0.18098500  0.88255100  0.67771000  1
  F  F14  1  0.31901500  0.11744900  0.17771000  1
  F  F15  1  0.81901500  0.38255100  0.82229000  1
  F  F16  1  0.20108100  0.36069800  0.65720700  1
  F  F17  1  0.70108100  0.13930200  0.34279300  1
  F  F18  1  0.79891900  0.86069800  0.84279300  1
  F  F19  1  0.29891900  0.63930200  0.15720700  1
  F  F20  1  0.63103400  0.11875100  0.66822000  1
  F  F21  1  0.13103400  0.38124900  0.33178000  1
  F  F22  1  0.36896600  0.61875100  0.83178000  1
  F  F23  1  0.86896600  0.88124900  0.16822000  1
  F  F24  1  0.55946300  0.37145200  0.50459100  1
  F  F25  1  0.05946300  0.12854800  0.49540900  1
  F  F26  1  0.44053700  0.87145200  0.99540900  1
  F  F27  1  0.94053700  0.62854800  0.00459100  1
