# generated using pymatgen
data_KZr6CCl15
_symmetry_space_group_name_H-M   'P 1'
_cell_length_a   9.91430900
_cell_length_b   14.13258300
_cell_length_c   18.88891600
_cell_angle_alpha   90.00000000
_cell_angle_beta   90.00000000
_cell_angle_gamma   90.00000000
_symmetry_Int_Tables_number   1
_chemical_formula_structural   KZr6CCl15
_chemical_formula_sum   'K4 Zr24 C4 Cl60'
_cell_volume   2646.61658990
_cell_formula_units_Z   4
loop_
 _symmetry_equiv_pos_site_id
 _symmetry_equiv_pos_as_xyz
  1  'x, y, z'
loop_
 _atom_site_type_symbol
 _atom_site_label
 _atom_site_symmetry_multiplicity
 _atom_site_fract_x
 _atom_site_fract_y
 _atom_site_fract_z
 _atom_site_occupancy
  K  K0  1  0.66899600  0.25258800  0.75000000  1
  K  K1  1  0.66899600  0.74741200  0.75000000  1
  K  K2  1  0.33100400  0.25258800  0.25000000  1
  K  K3  1  0.33100400  0.74741200  0.25000000  1
  Zr  Zr4  1  0.34519000  0.38473200  0.97025000  1
  Zr  Zr5  1  0.15839100  0.11555100  0.83649800  1
  Zr  Zr6  1  0.84160900  0.88444900  0.16350200  1
  Zr  Zr7  1  0.65481000  0.61526800  0.47025000  1
  Zr  Zr8  1  0.65481000  0.38473200  0.47025000  1
  Zr  Zr9  1  0.65481000  0.38473200  0.02975000  1
  Zr  Zr10  1  0.58022900  0.50000000  0.61285400  1
  Zr  Zr11  1  0.34519000  0.38473200  0.52975000  1
  Zr  Zr12  1  0.34519000  0.61526800  0.52975000  1
  Zr  Zr13  1  0.65481000  0.61526800  0.02975000  1
  Zr  Zr14  1  0.84160900  0.88444900  0.33649800  1
  Zr  Zr15  1  0.15839100  0.11555100  0.66350200  1
  Zr  Zr16  1  0.58022900  0.50000000  0.88714600  1
  Zr  Zr17  1  0.92847900  0.00000000  0.75000000  1
  Zr  Zr18  1  0.84160900  0.11555100  0.16350200  1
  Zr  Zr19  1  0.41977100  0.50000000  0.11285400  1
  Zr  Zr20  1  0.34519000  0.61526800  0.97025000  1
  Zr  Zr21  1  0.15839100  0.88444900  0.66350200  1
  Zr  Zr22  1  0.07152100  0.00000000  0.25000000  1
  Zr  Zr23  1  0.61433700  0.00000000  0.25000000  1
  Zr  Zr24  1  0.41977100  0.50000000  0.38714600  1
  Zr  Zr25  1  0.84160900  0.11555100  0.33649800  1
  Zr  Zr26  1  0.38566300  0.00000000  0.75000000  1
  Zr  Zr27  1  0.15839100  0.88444900  0.83649800  1
  C  C28  1  0.15664700  0.00000000  0.75000000  1
  C  C29  1  0.50000000  0.50000000  0.50000000  1
  C  C30  1  0.50000000  0.50000000  0.00000000  1
  C  C31  1  0.84335300  0.00000000  0.25000000  1
  Cl  Cl32  1  0.41534000  0.12571100  0.65550600  1
  Cl  Cl33  1  0.50000000  0.24687800  0.50000000  1
  Cl  Cl34  1  0.16421500  0.25068400  0.93605000  1
  Cl  Cl35  1  0.50000000  0.75312200  0.50000000  1
  Cl  Cl36  1  0.58466000  0.87428900  0.34449400  1
  Cl  Cl37  1  0.58056300  0.62531800  0.15886000  1
  Cl  Cl38  1  0.83990400  0.50000000  0.06546000  1
  Cl  Cl39  1  0.09982900  0.12677700  0.34568900  1
  Cl  Cl40  1  0.75948900  0.62750700  0.59453900  1
  Cl  Cl41  1  0.90017100  0.12677700  0.84568900  1
  Cl  Cl42  1  0.84206200  0.00000000  0.06018200  1
  Cl  Cl43  1  0.24051100  0.37249300  0.40546100  1
  Cl  Cl44  1  0.50000000  0.24687800  0.00000000  1
  Cl  Cl45  1  0.16009600  0.50000000  0.93454000  1
  Cl  Cl46  1  0.32017300  0.50000000  0.25000000  1
  Cl  Cl47  1  0.50000000  0.75312200  0.00000000  1
  Cl  Cl48  1  0.15793800  0.00000000  0.56018200  1
  Cl  Cl49  1  0.41943700  0.37468200  0.65886000  1
  Cl  Cl50  1  0.41534000  0.87428900  0.84449400  1
  Cl  Cl51  1  0.24051100  0.37249300  0.09453900  1
  Cl  Cl52  1  0.84206200  0.00000000  0.43981800  1
  Cl  Cl53  1  0.90017100  0.87322300  0.84568900  1
  Cl  Cl54  1  0.09982900  0.12677700  0.15431100  1
  Cl  Cl55  1  0.83990400  0.50000000  0.43454000  1
  Cl  Cl56  1  0.58056300  0.62531800  0.34114000  1
  Cl  Cl57  1  0.16421500  0.74931600  0.56395000  1
  Cl  Cl58  1  0.58466000  0.87428900  0.15550600  1
  Cl  Cl59  1  0.65777100  0.00000000  0.75000000  1
  Cl  Cl60  1  0.84943800  0.74631200  0.25000000  1
  Cl  Cl61  1  0.41943700  0.62531800  0.84114000  1
  Cl  Cl62  1  0.83578500  0.25068400  0.06395000  1
  Cl  Cl63  1  0.75948900  0.37249300  0.90546100  1
  Cl  Cl64  1  0.58466000  0.12571100  0.34449400  1
  Cl  Cl65  1  0.83578500  0.74931600  0.06395000  1
  Cl  Cl66  1  0.34222900  0.00000000  0.25000000  1
  Cl  Cl67  1  0.58056300  0.37468200  0.34114000  1
  Cl  Cl68  1  0.75948900  0.37249300  0.59453900  1
  Cl  Cl69  1  0.84943800  0.25368800  0.25000000  1
  Cl  Cl70  1  0.67982700  0.50000000  0.75000000  1
  Cl  Cl71  1  0.16421500  0.25068400  0.56395000  1
  Cl  Cl72  1  0.16009600  0.50000000  0.56546000  1
  Cl  Cl73  1  0.09982900  0.87322300  0.34568900  1
  Cl  Cl74  1  0.24051100  0.62750700  0.40546100  1
  Cl  Cl75  1  0.90017100  0.87322300  0.65431100  1
  Cl  Cl76  1  0.41534000  0.12571100  0.84449400  1
  Cl  Cl77  1  0.24051100  0.62750700  0.09453900  1
  Cl  Cl78  1  0.41943700  0.62531800  0.65886000  1
  Cl  Cl79  1  0.09982900  0.87322300  0.15431100  1
  Cl  Cl80  1  0.16421500  0.74931600  0.93605000  1
  Cl  Cl81  1  0.41534000  0.87428900  0.65550600  1
  Cl  Cl82  1  0.15793800  0.00000000  0.93981800  1
  Cl  Cl83  1  0.15056200  0.74631200  0.75000000  1
  Cl  Cl84  1  0.75948900  0.62750700  0.90546100  1
  Cl  Cl85  1  0.58056300  0.37468200  0.15886000  1
  Cl  Cl86  1  0.90017100  0.12677700  0.65431100  1
  Cl  Cl87  1  0.83578500  0.74931600  0.43605000  1
  Cl  Cl88  1  0.41943700  0.37468200  0.84114000  1
  Cl  Cl89  1  0.58466000  0.12571100  0.15550600  1
  Cl  Cl90  1  0.15056200  0.25368800  0.75000000  1
  Cl  Cl91  1  0.83578500  0.25068400  0.43605000  1
