# generated using pymatgen
data_La2B3Br
_symmetry_space_group_name_H-M   'P 1'
_cell_length_a   7.84123774
_cell_length_b   7.84123774
_cell_length_c   8.56859900
_cell_angle_alpha   90.00000000
_cell_angle_beta   90.00000000
_cell_angle_gamma   119.99999777
_symmetry_Int_Tables_number   1
_chemical_formula_structural   La2B3Br
_chemical_formula_sum   'La8 B12 Br4'
_cell_volume   456.25717051
_cell_formula_units_Z   4
loop_
 _symmetry_equiv_pos_site_id
 _symmetry_equiv_pos_as_xyz
  1  'x, y, z'
loop_
 _atom_site_type_symbol
 _atom_site_label
 _atom_site_symmetry_multiplicity
 _atom_site_fract_x
 _atom_site_fract_y
 _atom_site_fract_z
 _atom_site_occupancy
  La  La0  1  0.16700000  0.33400100  0.21691400  1
  La  La1  1  0.16700000  0.83300000  0.21691400  1
  La  La2  1  0.66666700  0.33333300  0.76867900  1
  La  La3  1  0.66599900  0.83300000  0.21691400  1
  La  La4  1  0.16700000  0.83300000  0.78308600  1
  La  La5  1  0.66666700  0.33333300  0.23132100  1
  La  La6  1  0.16700000  0.33400100  0.78308600  1
  La  La7  1  0.66599900  0.83300000  0.78308600  1
  B  B8  1  0.40411000  0.80822100  0.00000000  1
  B  B9  1  0.19177900  0.59589000  0.00000000  1
  B  B10  1  0.52790400  0.47209600  0.00000000  1
  B  B11  1  0.14133400  0.07066700  0.00000000  1
  B  B12  1  0.38852800  0.19426400  0.00000000  1
  B  B13  1  0.52790400  0.05580800  0.00000000  1
  B  B14  1  0.40411000  0.59589000  0.00000000  1
  B  B15  1  0.80573600  0.19426400  0.00000000  1
  B  B16  1  0.80573600  0.61147200  0.00000000  1
  B  B17  1  0.92933300  0.07066700  0.00000000  1
  B  B18  1  0.94419200  0.47209600  0.00000000  1
  B  B19  1  0.92933300  0.85866600  0.00000000  1
  Br  Br20  1  0.00570800  0.50285400  0.50000000  1
  Br  Br21  1  0.49714600  0.99429200  0.50000000  1
  Br  Br22  1  0.49714600  0.50285400  0.50000000  1
  Br  Br23  1  0.00000000  0.00000000  0.50000000  1
