# generated using pymatgen
data_Ce16Ru9
_symmetry_space_group_name_H-M   'P 1'
_cell_length_a   10.83083800
_cell_length_b   10.83083800
_cell_length_c   10.83083741
_cell_angle_alpha   77.11614331
_cell_angle_beta   77.11614331
_cell_angle_gamma   77.11614597
_symmetry_Int_Tables_number   1
_chemical_formula_structural   Ce16Ru9
_chemical_formula_sum   'Ce32 Ru18'
_cell_volume   1187.12833267
_cell_formula_units_Z   2
loop_
 _symmetry_equiv_pos_site_id
 _symmetry_equiv_pos_as_xyz
  1  'x, y, z'
loop_
 _atom_site_type_symbol
 _atom_site_label
 _atom_site_symmetry_multiplicity
 _atom_site_fract_x
 _atom_site_fract_y
 _atom_site_fract_z
 _atom_site_occupancy
  Ce  Ce0  1  0.50000000  0.79454600  0.20545400  1
  Ce  Ce1  1  0.04975700  0.79667400  0.79667400  1
  Ce  Ce2  1  0.53156800  0.80395200  0.53156800  1
  Ce  Ce3  1  0.79667400  0.79667400  0.04975700  1
  Ce  Ce4  1  0.00000000  0.28067800  0.71932200  1
  Ce  Ce5  1  0.71932200  0.28067800  0.00000000  1
  Ce  Ce6  1  0.79454600  0.50000000  0.20545400  1
  Ce  Ce7  1  0.28067800  0.00000000  0.71932200  1
  Ce  Ce8  1  0.46843200  0.19604800  0.46843200  1
  Ce  Ce9  1  0.53156800  0.53156800  0.80395200  1
  Ce  Ce10  1  0.79667400  0.04975700  0.79667400  1
  Ce  Ce11  1  0.71932200  0.00000000  0.28067800  1
  Ce  Ce12  1  0.79454600  0.20545400  0.50000000  1
  Ce  Ce13  1  0.00000000  0.71932200  0.28067800  1
  Ce  Ce14  1  0.46843200  0.46843200  0.19604800  1
  Ce  Ce15  1  0.20545400  0.79454600  0.50000000  1
  Ce  Ce16  1  0.84250800  0.56785600  0.84250800  1
  Ce  Ce17  1  0.20545400  0.50000000  0.79454600  1
  Ce  Ce18  1  0.28067800  0.71932200  0.00000000  1
  Ce  Ce19  1  0.15749200  0.15749200  0.43214400  1
  Ce  Ce20  1  0.80395200  0.53156800  0.53156800  1
  Ce  Ce21  1  0.20332700  0.95024300  0.20332600  1
  Ce  Ce22  1  0.84250800  0.84250800  0.56785600  1
  Ce  Ce23  1  0.15749200  0.43214400  0.15749200  1
  Ce  Ce24  1  0.50000000  0.20545400  0.79454600  1
  Ce  Ce25  1  0.95024300  0.20332600  0.20332600  1
  Ce  Ce26  1  0.19604800  0.46843200  0.46843200  1
  Ce  Ce27  1  0.50000000  0.50000000  0.50000000  1
  Ce  Ce28  1  0.43214400  0.15749200  0.15749200  1
  Ce  Ce29  1  0.20332700  0.20332600  0.95024300  1
  Ce  Ce30  1  0.00000000  0.00000000  0.00000000  1
  Ce  Ce31  1  0.56785600  0.84250800  0.84250800  1
  Ru  Ru32  1  0.36360500  0.98768100  0.98768100  1
  Ru  Ru33  1  0.72830800  0.35085900  0.72830800  1
  Ru  Ru34  1  0.62390300  0.00419400  0.62390300  1
  Ru  Ru35  1  0.99580600  0.37609700  0.37609700  1
  Ru  Ru36  1  0.64914000  0.27169200  0.27169200  1
  Ru  Ru37  1  0.35085900  0.72830800  0.72830800  1
  Ru  Ru38  1  0.27169200  0.27169200  0.64914100  1
  Ru  Ru39  1  0.37609700  0.99580600  0.37609700  1
  Ru  Ru40  1  0.27169200  0.64914000  0.27169200  1
  Ru  Ru41  1  0.63639500  0.01231900  0.01231900  1
  Ru  Ru42  1  0.62390300  0.62390300  0.00419400  1
  Ru  Ru43  1  0.37609700  0.37609700  0.99580600  1
  Ru  Ru44  1  0.98768100  0.36360500  0.98768100  1
  Ru  Ru45  1  0.72830800  0.72830800  0.35085900  1
  Ru  Ru46  1  0.98768100  0.98768100  0.36360500  1
  Ru  Ru47  1  0.01231900  0.01231900  0.63639500  1
  Ru  Ru48  1  0.01231900  0.63639500  0.01231900  1
  Ru  Ru49  1  0.00419400  0.62390300  0.62390300  1
