# generated using pymatgen
data_Cs2Np(SO5)2
_symmetry_space_group_name_H-M   'P 1'
_cell_length_a   9.15760000
_cell_length_b   11.04592300
_cell_length_c   13.22795920
_cell_angle_alpha   58.64865851
_cell_angle_beta   90.00000000
_cell_angle_gamma   90.00000000
_symmetry_Int_Tables_number   1
_chemical_formula_structural   Cs2Np(SO5)2
_chemical_formula_sum   'Cs8 Np4 S8 O40'
_cell_volume   1142.69628989
_cell_formula_units_Z   4
loop_
 _symmetry_equiv_pos_site_id
 _symmetry_equiv_pos_as_xyz
  1  'x, y, z'
loop_
 _atom_site_type_symbol
 _atom_site_label
 _atom_site_symmetry_multiplicity
 _atom_site_fract_x
 _atom_site_fract_y
 _atom_site_fract_z
 _atom_site_occupancy
  Cs  Cs0  1  0.92332100  0.73043600  0.80125200  1
  Cs  Cs1  1  0.42332100  0.26956400  0.69874800  1
  Cs  Cs2  1  0.59995000  0.21174800  0.06750100  1
  Cs  Cs3  1  0.09995000  0.78825200  0.43249900  1
  Cs  Cs4  1  0.07667900  0.26956400  0.19874800  1
  Cs  Cs5  1  0.40005000  0.78825200  0.93249900  1
  Cs  Cs6  1  0.90005000  0.21174800  0.56750100  1
  Cs  Cs7  1  0.57667900  0.73043600  0.30125200  1
  Np  Np8  1  0.49160100  0.71748500  0.64254100  1
  Np  Np9  1  0.00839900  0.71748500  0.14254100  1
  Np  Np10  1  0.99160100  0.28251500  0.85745900  1
  Np  Np11  1  0.50839900  0.28251500  0.35745900  1
  S  S12  1  0.74105300  0.97722100  0.43795100  1
  S  S13  1  0.18985200  0.48550500  0.36000100  1
  S  S14  1  0.25894700  0.02277900  0.56204900  1
  S  S15  1  0.75894700  0.97722100  0.93795100  1
  S  S16  1  0.81014800  0.51449500  0.63999900  1
  S  S17  1  0.68985200  0.51449500  0.13999900  1
  S  S18  1  0.31014800  0.48550500  0.86000100  1
  S  S19  1  0.24105300  0.02277900  0.06204900  1
  O  O20  1  0.35418500  0.08802500  0.97108300  1
  O  O21  1  0.85418500  0.91197500  0.52891700  1
  O  O22  1  0.20980100  0.40237900  0.82765000  1
  O  O23  1  0.20943200  0.98280700  0.68077000  1
  O  O24  1  0.96218400  0.52755100  0.67659600  1
  O  O25  1  0.29984000  0.43501400  0.98564800  1
  O  O26  1  0.77426200  0.35959000  0.71755400  1
  O  O27  1  0.43046400  0.20787200  0.27717100  1
  O  O28  1  0.11156200  0.12379000  0.02946300  1
  O  O29  1  0.41438800  0.64306200  0.56102400  1
  O  O30  1  0.91438800  0.35693800  0.93897600  1
  O  O31  1  0.79984000  0.56498600  0.51435200  1
  O  O32  1  0.46218400  0.47244900  0.82340400  1
  O  O33  1  0.70016000  0.56498600  0.01435200  1
  O  O34  1  0.03781600  0.47244900  0.32340400  1
  O  O35  1  0.20016000  0.43501400  0.48564800  1
  O  O36  1  0.79019900  0.59762100  0.17235000  1
  O  O37  1  0.58561200  0.35693800  0.43897600  1
  O  O38  1  0.72573800  0.35959000  0.21755400  1
  O  O39  1  0.81679200  0.10690100  0.93776600  1
  O  O40  1  0.14581500  0.08802500  0.47108300  1
  O  O41  1  0.31679200  0.89309900  0.56223400  1
  O  O42  1  0.22573800  0.64041000  0.28244600  1
  O  O43  1  0.27426200  0.64041000  0.78244600  1
  O  O44  1  0.29056800  0.98280700  0.18077000  1
  O  O45  1  0.93046400  0.79212800  0.22282900  1
  O  O46  1  0.79056800  0.01719300  0.31923000  1
  O  O47  1  0.38843800  0.12379000  0.52946300  1
  O  O48  1  0.18320800  0.89309900  0.06223400  1
  O  O49  1  0.56953600  0.79212800  0.72282900  1
  O  O50  1  0.70943200  0.01719300  0.81923000  1
  O  O51  1  0.70980100  0.59762100  0.67235000  1
  O  O52  1  0.06953600  0.20787200  0.77717100  1
  O  O53  1  0.88843800  0.87621000  0.97053700  1
  O  O54  1  0.29019900  0.40237900  0.32765000  1
  O  O55  1  0.64581500  0.91197500  0.02891700  1
  O  O56  1  0.61156200  0.87621000  0.47053700  1
  O  O57  1  0.53781600  0.52755100  0.17659600  1
  O  O58  1  0.08561200  0.64306200  0.06102400  1
  O  O59  1  0.68320800  0.10690100  0.43776600  1
