# generated using pymatgen
data_Ce2O3
_symmetry_space_group_name_H-M   'P 1'
_cell_length_a   9.61775771
_cell_length_b   9.61775771
_cell_length_c   9.61775771
_cell_angle_alpha   109.47122063
_cell_angle_beta   109.47122063
_cell_angle_gamma   109.47122063
_symmetry_Int_Tables_number   1
_chemical_formula_structural   Ce2O3
_chemical_formula_sum   'Ce16 O24'
_cell_volume   684.85653629
_cell_formula_units_Z   8
loop_
 _symmetry_equiv_pos_site_id
 _symmetry_equiv_pos_as_xyz
  1  'x, y, z'
loop_
 _atom_site_type_symbol
 _atom_site_label
 _atom_site_symmetry_multiplicity
 _atom_site_fract_x
 _atom_site_fract_y
 _atom_site_fract_z
 _atom_site_occupancy
  Ce  Ce0  1  0.50000000  0.50000000  0.50000000  1
  Ce  Ce1  1  0.00000000  0.50000000  0.00000000  1
  Ce  Ce2  1  0.00000000  0.00000000  0.50000000  1
  Ce  Ce3  1  0.50000000  0.00000000  0.00000000  1
  Ce  Ce4  1  0.22856300  0.97856300  0.25000000  1
  Ce  Ce5  1  0.52143700  0.75000000  0.27143700  1
  Ce  Ce6  1  0.75000000  0.27143700  0.52143700  1
  Ce  Ce7  1  0.97856300  0.25000000  0.22856300  1
  Ce  Ce8  1  0.25000000  0.22856300  0.97856300  1
  Ce  Ce9  1  0.27143700  0.52143700  0.75000000  1
  Ce  Ce10  1  0.77143700  0.02143700  0.75000000  1
  Ce  Ce11  1  0.47856300  0.25000000  0.72856300  1
  Ce  Ce12  1  0.25000000  0.72856300  0.47856300  1
  Ce  Ce13  1  0.02143700  0.75000000  0.77143700  1
  Ce  Ce14  1  0.75000000  0.77143700  0.02143700  1
  Ce  Ce15  1  0.72856300  0.47856300  0.25000000  1
  O  O16  1  0.76464000  0.53228500  0.52308500  1
  O  O17  1  0.96771500  0.73235400  0.99080000  1
  O  O18  1  0.76764600  0.73536000  0.25844500  1
  O  O19  1  0.24155500  0.97691500  0.50920000  1
  O  O20  1  0.73235400  0.99080000  0.96771500  1
  O  O21  1  0.25844500  0.76764600  0.73536000  1
  O  O22  1  0.97691500  0.50920000  0.24155500  1
  O  O23  1  0.52308500  0.76464000  0.53228500  1
  O  O24  1  0.53228500  0.52308500  0.76464000  1
  O  O25  1  0.99080000  0.96771500  0.73235400  1
  O  O26  1  0.73536000  0.25844500  0.76764600  1
  O  O27  1  0.50920000  0.24155500  0.97691500  1
  O  O28  1  0.23536000  0.46771500  0.47691500  1
  O  O29  1  0.03228500  0.26764600  0.00920000  1
  O  O30  1  0.23235400  0.26464000  0.74155500  1
  O  O31  1  0.75844500  0.02308500  0.49080000  1
  O  O32  1  0.26764600  0.00920000  0.03228500  1
  O  O33  1  0.74155500  0.23235400  0.26464000  1
  O  O34  1  0.02308500  0.49080000  0.75844500  1
  O  O35  1  0.47691500  0.23536000  0.46771500  1
  O  O36  1  0.46771500  0.47691500  0.23536000  1
  O  O37  1  0.00920000  0.03228500  0.26764600  1
  O  O38  1  0.26464000  0.74155500  0.23235400  1
  O  O39  1  0.49080000  0.75844500  0.02308500  1
