# generated using pymatgen
data_K3Bi2(AsO4)3
_symmetry_space_group_name_H-M   'P 1'
_cell_length_a   9.99835894
_cell_length_b   9.99835894
_cell_length_c   7.17743707
_cell_angle_alpha   72.68308221
_cell_angle_beta   72.68308221
_cell_angle_gamma   89.28425876
_symmetry_Int_Tables_number   1
_chemical_formula_structural   K3Bi2(AsO4)3
_chemical_formula_sum   'K6 Bi4 As6 O24'
_cell_volume   651.65320147
_cell_formula_units_Z   2
loop_
 _symmetry_equiv_pos_site_id
 _symmetry_equiv_pos_as_xyz
  1  'x, y, z'
loop_
 _atom_site_type_symbol
 _atom_site_label
 _atom_site_symmetry_multiplicity
 _atom_site_fract_x
 _atom_site_fract_y
 _atom_site_fract_z
 _atom_site_occupancy
  K  K0  1  0.98614500  0.01385500  0.25000000  1
  K  K1  1  0.27588200  0.72411800  0.75000000  1
  K  K2  1  0.72411800  0.27588200  0.25000000  1
  K  K3  1  0.50000000  0.50000000  0.00000000  1
  K  K4  1  0.01385500  0.98614500  0.75000000  1
  K  K5  1  0.50000000  0.50000000  0.50000000  1
  Bi  Bi6  1  0.61597300  0.91207400  0.16567100  1
  Bi  Bi7  1  0.91207400  0.61597300  0.66567100  1
  Bi  Bi8  1  0.08792600  0.38402700  0.33432900  1
  Bi  Bi9  1  0.38402700  0.08792600  0.83432900  1
  As  As10  1  0.86134600  0.64979700  0.13926000  1
  As  As11  1  0.13865400  0.35020300  0.86074000  1
  As  As12  1  0.24619600  0.75380400  0.25000000  1
  As  As13  1  0.35020300  0.13865400  0.36074000  1
  As  As14  1  0.64979700  0.86134600  0.63926000  1
  As  As15  1  0.75380400  0.24619600  0.75000000  1
  O  O16  1  0.42463100  0.29054700  0.36052500  1
  O  O17  1  0.54822900  0.91634500  0.84428100  1
  O  O18  1  0.45177100  0.08365500  0.15571900  1
  O  O19  1  0.39228400  0.75764700  0.32741000  1
  O  O20  1  0.57536900  0.70945300  0.63947500  1
  O  O21  1  0.91634500  0.54822900  0.34428100  1
  O  O22  1  0.66303500  0.99186600  0.40901100  1
  O  O23  1  0.99186600  0.66303500  0.90901100  1
  O  O24  1  0.76492800  0.10128100  0.95198800  1
  O  O25  1  0.15696800  0.18388800  0.83754500  1
  O  O26  1  0.24235300  0.60771600  0.17259000  1
  O  O27  1  0.10128100  0.76492800  0.45198800  1
  O  O28  1  0.84303200  0.81611200  0.16245500  1
  O  O29  1  0.81611200  0.84303200  0.66245500  1
  O  O30  1  0.29054700  0.42463100  0.86052500  1
  O  O31  1  0.00813400  0.33696500  0.09098900  1
  O  O32  1  0.33696500  0.00813400  0.59098900  1
  O  O33  1  0.08365500  0.45177100  0.65571900  1
  O  O34  1  0.75764700  0.39228400  0.82741000  1
  O  O35  1  0.89871900  0.23507200  0.54801200  1
  O  O36  1  0.23507200  0.89871900  0.04801200  1
  O  O37  1  0.60771600  0.24235300  0.67259000  1
  O  O38  1  0.18388800  0.15696800  0.33754500  1
  O  O39  1  0.70945300  0.57536900  0.13947500  1
