# generated using pymatgen
data_Ba6Pr3I19
_symmetry_space_group_name_H-M   'P 1'
_cell_length_a   10.34407480
_cell_length_b   10.34407480
_cell_length_c   22.99510422
_cell_angle_alpha   86.06054477
_cell_angle_beta   86.06054477
_cell_angle_gamma   76.07272195
_symmetry_Int_Tables_number   1
_chemical_formula_structural   Ba6Pr3I19
_chemical_formula_sum   'Ba12 Pr6 I38'
_cell_volume   2379.03783013
_cell_formula_units_Z   2
loop_
 _symmetry_equiv_pos_site_id
 _symmetry_equiv_pos_as_xyz
  1  'x, y, z'
loop_
 _atom_site_type_symbol
 _atom_site_label
 _atom_site_symmetry_multiplicity
 _atom_site_fract_x
 _atom_site_fract_y
 _atom_site_fract_z
 _atom_site_occupancy
  Ba  Ba0  1  0.73425300  0.58695800  0.03860000  1
  Ba  Ba1  1  0.58163900  0.78372500  0.28413800  1
  Ba  Ba2  1  0.91390000  0.14673000  0.60561100  1
  Ba  Ba3  1  0.41836100  0.21627500  0.71586200  1
  Ba  Ba4  1  0.26574700  0.41304200  0.96140000  1
  Ba  Ba5  1  0.85327000  0.08610000  0.89438900  1
  Ba  Ba6  1  0.78372500  0.58163900  0.78413800  1
  Ba  Ba7  1  0.58695800  0.73425300  0.53860000  1
  Ba  Ba8  1  0.21627500  0.41836100  0.21586200  1
  Ba  Ba9  1  0.14673000  0.91390000  0.10561100  1
  Ba  Ba10  1  0.08610000  0.85327000  0.39438900  1
  Ba  Ba11  1  0.41304200  0.26574700  0.46140000  1
  Pr  Pr12  1  0.63520100  0.12655800  0.12499000  1
  Pr  Pr13  1  0.75349000  0.24651000  0.25000000  1
  Pr  Pr14  1  0.24651000  0.75349000  0.75000000  1
  Pr  Pr15  1  0.36479900  0.87344200  0.87501000  1
  Pr  Pr16  1  0.87344200  0.36479900  0.37501000  1
  Pr  Pr17  1  0.12655800  0.63520100  0.62499000  1
  I  I18  1  0.61415500  0.30172400  0.99601800  1
  I  I19  1  0.53864300  0.83988700  0.13357300  1
  I  I20  1  0.06905400  0.15477700  0.28531400  1
  I  I21  1  0.52211400  0.86379800  0.74371600  1
  I  I22  1  0.45835000  0.55626900  0.84141000  1
  I  I23  1  0.09602000  0.75587200  0.88358400  1
  I  I24  1  0.30172400  0.61415500  0.49601800  1
  I  I25  1  0.24412800  0.90398000  0.61641600  1
  I  I26  1  0.07381000  0.15999700  0.46512000  1
  I  I27  1  0.86379800  0.52211400  0.24371600  1
  I  I28  1  0.92831000  0.41733200  0.91399400  1
  I  I29  1  0.31123000  0.20129700  0.09859500  1
  I  I30  1  0.16011300  0.46135700  0.36642700  1
  I  I31  1  0.79870300  0.68877000  0.40140500  1
  I  I32  1  0.41733200  0.92831000  0.41399400  1
  I  I33  1  0.15477700  0.06905400  0.78531400  1
  I  I34  1  0.55626900  0.45835000  0.34141000  1
  I  I35  1  0.69827600  0.38584500  0.50398200  1
  I  I36  1  0.46135700  0.16011300  0.86642700  1
  I  I37  1  0.93094600  0.84522300  0.71468600  1
  I  I38  1  0.84522300  0.93094600  0.21468600  1
  I  I39  1  0.24571300  0.75428700  0.25000000  1
  I  I40  1  0.68877000  0.79870300  0.90140500  1
  I  I41  1  0.58266800  0.07169000  0.58600600  1
  I  I42  1  0.15999700  0.07381000  0.96512000  1
  I  I43  1  0.47788600  0.13620200  0.25628400  1
  I  I44  1  0.92619000  0.84000300  0.53488000  1
  I  I45  1  0.20129700  0.31123000  0.59859500  1
  I  I46  1  0.44373100  0.54165000  0.65859000  1
  I  I47  1  0.90398000  0.24412800  0.11641600  1
  I  I48  1  0.75587200  0.09602000  0.38358400  1
  I  I49  1  0.75428700  0.24571300  0.75000000  1
  I  I50  1  0.84000300  0.92619000  0.03488000  1
  I  I51  1  0.07169000  0.58266800  0.08600600  1
  I  I52  1  0.38584500  0.69827600  0.00398200  1
  I  I53  1  0.83988700  0.53864300  0.63357300  1
  I  I54  1  0.13620200  0.47788600  0.75628400  1
  I  I55  1  0.54165000  0.44373100  0.15859000  1
