# generated using pymatgen
data_Ba5Cu4ClF17
_symmetry_space_group_name_H-M   'P 1'
_cell_length_a   10.88786639
_cell_length_b   10.88786639
_cell_length_c   13.02938700
_cell_angle_alpha   90.00000000
_cell_angle_beta   90.00000000
_cell_angle_gamma   120.00000237
_symmetry_Int_Tables_number   1
_chemical_formula_structural   Ba5Cu4ClF17
_chemical_formula_sum   'Ba15 Cu12 Cl3 F51'
_cell_volume   1337.64284444
_cell_formula_units_Z   3
loop_
 _symmetry_equiv_pos_site_id
 _symmetry_equiv_pos_as_xyz
  1  'x, y, z'
loop_
 _atom_site_type_symbol
 _atom_site_label
 _atom_site_symmetry_multiplicity
 _atom_site_fract_x
 _atom_site_fract_y
 _atom_site_fract_z
 _atom_site_occupancy
  Ba  Ba0  1  0.00000000  0.26856900  0.30854100  1
  Ba  Ba1  1  0.66666700  0.33333300  0.83959900  1
  Ba  Ba2  1  0.73143100  0.73143100  0.30854100  1
  Ba  Ba3  1  0.33333300  0.66666700  0.83959900  1
  Ba  Ba4  1  0.33333300  0.66666700  0.16040100  1
  Ba  Ba5  1  0.73143100  0.73143100  0.69145900  1
  Ba  Ba6  1  0.00000000  0.26856900  0.69145900  1
  Ba  Ba7  1  0.66666700  0.33333300  0.16040100  1
  Ba  Ba8  1  0.00000000  0.75593800  0.00000000  1
  Ba  Ba9  1  0.26856900  0.00000000  0.69145900  1
  Ba  Ba10  1  0.24406200  0.24406200  0.00000000  1
  Ba  Ba11  1  0.75593800  0.00000000  0.00000000  1
  Ba  Ba12  1  0.66666700  0.33333300  0.50000000  1
  Ba  Ba13  1  0.33333300  0.66666700  0.50000000  1
  Ba  Ba14  1  0.26856900  0.00000000  0.30854100  1
  Cu  Cu15  1  0.00000000  0.76210600  0.50000000  1
  Cu  Cu16  1  0.42112800  0.00000000  0.00000000  1
  Cu  Cu17  1  0.76210600  0.00000000  0.50000000  1
  Cu  Cu18  1  0.59596500  0.00000000  0.73456000  1
  Cu  Cu19  1  0.00000000  0.42112800  0.00000000  1
  Cu  Cu20  1  0.40403500  0.40403500  0.26544000  1
  Cu  Cu21  1  0.00000000  0.59596500  0.73456000  1
  Cu  Cu22  1  0.57887200  0.57887200  0.00000000  1
  Cu  Cu23  1  0.23789400  0.23789400  0.50000000  1
  Cu  Cu24  1  0.00000000  0.59596500  0.26544000  1
  Cu  Cu25  1  0.59596500  0.00000000  0.26544000  1
  Cu  Cu26  1  0.40403500  0.40403500  0.73456000  1
  Cl  Cl27  1  0.00000000  0.00000000  0.16576700  1
  Cl  Cl28  1  0.00000000  0.00000000  0.83423300  1
  Cl  Cl29  1  0.00000000  0.00000000  0.50000000  1
  F  F30  1  0.75822200  0.14454200  0.19013200  1
  F  F31  1  0.36887800  0.16298300  0.50000000  1
  F  F32  1  0.57005800  0.14394100  0.66507600  1
  F  F33  1  0.24380600  0.00000000  0.00000000  1
  F  F34  1  0.85545800  0.61368000  0.80986800  1
  F  F35  1  0.14394100  0.57005800  0.66507600  1
  F  F36  1  0.57388400  0.42994200  0.66507600  1
  F  F37  1  0.85605900  0.42611600  0.66507600  1
  F  F38  1  0.14394100  0.57005800  0.33492400  1
  F  F39  1  0.63320600  0.16145900  0.00000000  1
  F  F40  1  0.20589500  0.83701700  0.50000000  1
  F  F41  1  0.00000000  0.24380600  0.00000000  1
  F  F42  1  0.42994200  0.57388400  0.66507600  1
  F  F43  1  0.85545800  0.61368000  0.19013200  1
  F  F44  1  0.83701700  0.20589500  0.50000000  1
  F  F45  1  0.75822200  0.14454200  0.80986800  1
  F  F46  1  0.52825300  0.36679400  0.00000000  1
  F  F47  1  0.22782400  0.22782400  0.35567200  1
  F  F48  1  0.42962400  0.00000000  0.85240700  1
  F  F49  1  0.38632000  0.24177800  0.80986800  1
  F  F50  1  0.42611600  0.85605900  0.33492400  1
  F  F51  1  0.42611600  0.85605900  0.66507600  1
  F  F52  1  0.61368000  0.85545800  0.80986800  1
  F  F53  1  0.57388400  0.42994200  0.33492400  1
  F  F54  1  0.14454200  0.75822200  0.19013200  1
  F  F55  1  0.42994200  0.57388400  0.33492400  1
  F  F56  1  0.61368000  0.85545800  0.19013200  1
  F  F57  1  0.00000000  0.77217600  0.64432800  1
  F  F58  1  0.36679400  0.52825300  0.00000000  1
  F  F59  1  0.00000000  0.42962400  0.85240700  1
  F  F60  1  0.16145900  0.63320600  0.00000000  1
  F  F61  1  0.16298300  0.36887800  0.50000000  1
  F  F62  1  0.42962400  0.00000000  0.14759300  1
  F  F63  1  0.24177800  0.38632000  0.19013200  1
  F  F64  1  0.77217600  0.00000000  0.35567200  1
  F  F65  1  0.24177800  0.38632000  0.80986800  1
  F  F66  1  0.00000000  0.42962400  0.14759300  1
  F  F67  1  0.38632000  0.24177800  0.19013200  1
  F  F68  1  0.57037600  0.57037600  0.14759300  1
  F  F69  1  0.22782400  0.22782400  0.64432800  1
  F  F70  1  0.79410500  0.63112200  0.50000000  1
  F  F71  1  0.85605900  0.42611600  0.33492400  1
  F  F72  1  0.57037600  0.57037600  0.85240700  1
  F  F73  1  0.63112200  0.79410500  0.50000000  1
  F  F74  1  0.00000000  0.77217600  0.35567200  1
  F  F75  1  0.14454200  0.75822200  0.80986800  1
  F  F76  1  0.47174700  0.83854100  0.00000000  1
  F  F77  1  0.77217600  0.00000000  0.64432800  1
  F  F78  1  0.83854100  0.47174700  0.00000000  1
  F  F79  1  0.57005800  0.14394100  0.33492400  1
  F  F80  1  0.75619400  0.75619400  0.00000000  1
