# generated using pymatgen
data_Mn3Si(O2F)2
_symmetry_space_group_name_H-M   'P 1'
_cell_length_a   4.92629400
_cell_length_b   9.32330300
_cell_length_c   10.96064100
_cell_angle_alpha   90.00000000
_cell_angle_beta   90.00000000
_cell_angle_gamma   90.00000000
_symmetry_Int_Tables_number   1
_chemical_formula_structural   Mn3Si(O2F)2
_chemical_formula_sum   'Mn12 Si4 O16 F8'
_cell_volume   503.41491536
_cell_formula_units_Z   4
loop_
 _symmetry_equiv_pos_site_id
 _symmetry_equiv_pos_as_xyz
  1  'x, y, z'
loop_
 _atom_site_type_symbol
 _atom_site_label
 _atom_site_symmetry_multiplicity
 _atom_site_fract_x
 _atom_site_fract_y
 _atom_site_fract_z
 _atom_site_occupancy
  Mn  Mn0  1  0.99348900  0.75000000  0.91187700  1
  Mn  Mn1  1  0.98550500  0.42994200  0.36246600  1
  Mn  Mn2  1  0.48550500  0.92994200  0.13753400  1
  Mn  Mn3  1  0.98550500  0.07005800  0.36246600  1
  Mn  Mn4  1  0.01449500  0.92994200  0.63753400  1
  Mn  Mn5  1  0.00651100  0.25000000  0.08812300  1
  Mn  Mn6  1  0.51449500  0.42994200  0.86246600  1
  Mn  Mn7  1  0.48550500  0.57005800  0.13753400  1
  Mn  Mn8  1  0.01449500  0.57005800  0.63753400  1
  Mn  Mn9  1  0.50651100  0.75000000  0.41187700  1
  Mn  Mn10  1  0.51449500  0.07005800  0.86246600  1
  Mn  Mn11  1  0.49348900  0.25000000  0.58812300  1
  Si  Si12  1  0.42141600  0.25000000  0.27880400  1
  Si  Si13  1  0.57858400  0.75000000  0.72119600  1
  Si  Si14  1  0.07858400  0.25000000  0.77880400  1
  Si  Si15  1  0.92141600  0.75000000  0.22119600  1
  O  O16  1  0.24660100  0.75000000  0.72299200  1
  O  O17  1  0.75339900  0.25000000  0.27700800  1
  O  O18  1  0.21537100  0.25000000  0.91720900  1
  O  O19  1  0.22096700  0.11013200  0.70941500  1
  O  O20  1  0.27903300  0.38986800  0.20941500  1
  O  O21  1  0.28462900  0.25000000  0.41720900  1
  O  O22  1  0.22096700  0.38986800  0.70941500  1
  O  O23  1  0.77903300  0.88986800  0.29058500  1
  O  O24  1  0.72096700  0.88986800  0.79058500  1
  O  O25  1  0.71537100  0.75000000  0.58279100  1
  O  O26  1  0.72096700  0.61013200  0.79058500  1
  O  O27  1  0.74660100  0.25000000  0.77700800  1
  O  O28  1  0.25339900  0.75000000  0.22299200  1
  O  O29  1  0.27903300  0.11013200  0.20941500  1
  O  O30  1  0.78462900  0.75000000  0.08279100  1
  O  O31  1  0.77903300  0.61013200  0.29058500  1
  F  F32  1  0.76842800  0.41717100  0.53220600  1
  F  F33  1  0.26842800  0.58282900  0.96779400  1
  F  F34  1  0.26842800  0.91717100  0.96779400  1
  F  F35  1  0.73157200  0.41717100  0.03220600  1
  F  F36  1  0.76842800  0.08282900  0.53220600  1
  F  F37  1  0.23157200  0.58282900  0.46779400  1
  F  F38  1  0.23157200  0.91717100  0.46779400  1
  F  F39  1  0.73157200  0.08282900  0.03220600  1
