# generated using pymatgen
data_Mg(AlCl4)2
_symmetry_space_group_name_H-M   'P 1'
_cell_length_a   9.80948916
_cell_length_b   9.80948916
_cell_length_c   11.69648376
_cell_angle_alpha   55.69390799
_cell_angle_beta   55.69390799
_cell_angle_gamma   49.47347529
_symmetry_Int_Tables_number   1
_chemical_formula_structural   Mg(AlCl4)2
_chemical_formula_sum   'Mg2 Al4 Cl16'
_cell_volume   670.85345340
_cell_formula_units_Z   2
loop_
 _symmetry_equiv_pos_site_id
 _symmetry_equiv_pos_as_xyz
  1  'x, y, z'
loop_
 _atom_site_type_symbol
 _atom_site_label
 _atom_site_symmetry_multiplicity
 _atom_site_fract_x
 _atom_site_fract_y
 _atom_site_fract_z
 _atom_site_occupancy
  Mg  Mg0  1  0.00183700  0.99816300  0.75000000  1
  Mg  Mg1  1  0.99816300  0.00183700  0.25000000  1
  Al  Al2  1  0.15922000  0.66878600  0.53181100  1
  Al  Al3  1  0.33121400  0.84078000  0.96818900  1
  Al  Al4  1  0.84078000  0.33121400  0.46818900  1
  Al  Al5  1  0.66878600  0.15922000  0.03181100  1
  Cl  Cl6  1  0.30681800  0.38322400  0.54897800  1
  Cl  Cl7  1  0.61677600  0.69318200  0.95102200  1
  Cl  Cl8  1  0.69318200  0.61677600  0.45102200  1
  Cl  Cl9  1  0.38322400  0.30681800  0.04897800  1
  Cl  Cl10  1  0.87821700  0.82425500  0.51287100  1
  Cl  Cl11  1  0.17574500  0.12178300  0.98712900  1
  Cl  Cl12  1  0.12178300  0.17574500  0.48712900  1
  Cl  Cl13  1  0.82425500  0.87821700  0.01287100  1
  Cl  Cl14  1  0.14187600  0.68894600  0.71731800  1
  Cl  Cl15  1  0.31105400  0.85812400  0.78268200  1
  Cl  Cl16  1  0.85812400  0.31105400  0.28268200  1
  Cl  Cl17  1  0.68894600  0.14187600  0.21731800  1
  Cl  Cl18  1  0.28061700  0.83912200  0.32846500  1
  Cl  Cl19  1  0.16087800  0.71938300  0.17153500  1
  Cl  Cl20  1  0.71938300  0.16087800  0.67153500  1
  Cl  Cl21  1  0.83912200  0.28061700  0.82846500  1
