# generated using pymatgen
data_SrLi2Ta2O7
_symmetry_space_group_name_H-M   'P 1'
_cell_length_a   9.62729228
_cell_length_b   9.62729228
_cell_length_c   5.63089300
_cell_angle_alpha   90.00000000
_cell_angle_beta   90.00000000
_cell_angle_gamma   145.95226230
_symmetry_Int_Tables_number   1
_chemical_formula_structural   SrLi2Ta2O7
_chemical_formula_sum   'Sr2 Li4 Ta4 O14'
_cell_volume   292.20202174
_cell_formula_units_Z   2
loop_
 _symmetry_equiv_pos_site_id
 _symmetry_equiv_pos_as_xyz
  1  'x, y, z'
loop_
 _atom_site_type_symbol
 _atom_site_label
 _atom_site_symmetry_multiplicity
 _atom_site_fract_x
 _atom_site_fract_y
 _atom_site_fract_z
 _atom_site_occupancy
  Sr  Sr0  1  0.25480100  0.25480100  0.25000000  1
  Sr  Sr1  1  0.74519900  0.74519900  0.75000000  1
  Li  Li2  1  0.74170200  0.25829800  0.50000000  1
  Li  Li3  1  0.25829800  0.74170200  0.50000000  1
  Li  Li4  1  0.25829800  0.74170200  0.00000000  1
  Li  Li5  1  0.74170200  0.25829800  0.00000000  1
  Ta  Ta6  1  0.13272600  0.36200200  0.75000000  1
  Ta  Ta7  1  0.36200200  0.13272600  0.75000000  1
  Ta  Ta8  1  0.63799800  0.86727400  0.25000000  1
  Ta  Ta9  1  0.86727400  0.63799800  0.25000000  1
  O  O10  1  0.90308500  0.09691500  0.00000000  1
  O  O11  1  0.98979500  0.55582400  0.25000000  1
  O  O12  1  0.61238000  0.38762000  0.00000000  1
  O  O13  1  0.90308500  0.09691500  0.50000000  1
  O  O14  1  0.55582400  0.98979500  0.25000000  1
  O  O15  1  0.09691500  0.90308500  0.00000000  1
  O  O16  1  0.61238000  0.38762000  0.50000000  1
  O  O17  1  0.38762000  0.61238000  0.50000000  1
  O  O18  1  0.09691500  0.90308500  0.50000000  1
  O  O19  1  0.44417600  0.01020500  0.75000000  1
  O  O20  1  0.28479100  0.28479100  0.75000000  1
  O  O21  1  0.01020500  0.44417600  0.75000000  1
  O  O22  1  0.38762000  0.61238000  0.00000000  1
  O  O23  1  0.71520900  0.71520900  0.25000000  1
