# generated using pymatgen
data_SbOF
_symmetry_space_group_name_H-M   'P 1'
_cell_length_a   5.75161800
_cell_length_b   11.78647700
_cell_length_c   12.61048600
_cell_angle_alpha   90.00000000
_cell_angle_beta   90.00000000
_cell_angle_gamma   90.00000000
_symmetry_Int_Tables_number   1
_chemical_formula_structural   SbOF
_chemical_formula_sum   'Sb16 O16 F16'
_cell_volume   854.88140691
_cell_formula_units_Z   16
loop_
 _symmetry_equiv_pos_site_id
 _symmetry_equiv_pos_as_xyz
  1  'x, y, z'
loop_
 _atom_site_type_symbol
 _atom_site_label
 _atom_site_symmetry_multiplicity
 _atom_site_fract_x
 _atom_site_fract_y
 _atom_site_fract_z
 _atom_site_occupancy
  Sb  Sb0  1  0.69660500  0.64346900  0.20488300  1
  Sb  Sb1  1  0.79393000  0.38483600  0.48997900  1
  Sb  Sb2  1  0.79393000  0.88483600  0.01002100  1
  Sb  Sb3  1  0.80339500  0.64346900  0.70488300  1
  Sb  Sb4  1  0.20607000  0.61516400  0.51002100  1
  Sb  Sb5  1  0.19660500  0.85653100  0.20488300  1
  Sb  Sb6  1  0.70607000  0.88483600  0.51002100  1
  Sb  Sb7  1  0.30339500  0.85653100  0.70488300  1
  Sb  Sb8  1  0.29393000  0.11516400  0.48997900  1
  Sb  Sb9  1  0.69660500  0.14346900  0.29511700  1
  Sb  Sb10  1  0.70607000  0.38483600  0.98997900  1
  Sb  Sb11  1  0.80339500  0.14346900  0.79511700  1
  Sb  Sb12  1  0.30339500  0.35653100  0.79511700  1
  Sb  Sb13  1  0.29393000  0.61516400  0.01002100  1
  Sb  Sb14  1  0.20607000  0.11516400  0.98997900  1
  Sb  Sb15  1  0.19660500  0.35653100  0.29511700  1
  O  O16  1  0.91933500  0.54901400  0.58055700  1
  O  O17  1  0.11552200  0.73699800  0.62597600  1
  O  O18  1  0.38447800  0.23699800  0.37402400  1
  O  O19  1  0.58066500  0.04901400  0.41944300  1
  O  O20  1  0.08066500  0.45098600  0.41944300  1
  O  O21  1  0.41933500  0.95098600  0.58055700  1
  O  O22  1  0.08066500  0.95098600  0.08055700  1
  O  O23  1  0.11552200  0.23699800  0.87402400  1
  O  O24  1  0.61552200  0.26300200  0.87402400  1
  O  O25  1  0.41933500  0.45098600  0.91944300  1
  O  O26  1  0.88447800  0.26300200  0.37402400  1
  O  O27  1  0.91933500  0.04901400  0.91944300  1
  O  O28  1  0.58066500  0.54901400  0.08055700  1
  O  O29  1  0.61552200  0.76300200  0.62597600  1
  O  O30  1  0.38447800  0.73699800  0.12597600  1
  O  O31  1  0.88447800  0.76300200  0.12597600  1
  F  F32  1  0.49179000  0.95534700  0.18558800  1
  F  F33  1  0.50821000  0.04465300  0.81441200  1
  F  F34  1  0.50909400  0.29952400  0.09263200  1
  F  F35  1  0.99090600  0.29952400  0.59263200  1
  F  F36  1  0.49179000  0.45534700  0.31441200  1
  F  F37  1  0.99179000  0.54465300  0.18558800  1
  F  F38  1  0.00821000  0.95534700  0.68558800  1
  F  F39  1  0.00909400  0.20047600  0.09263200  1
  F  F40  1  0.49090600  0.20047600  0.59263200  1
  F  F41  1  0.50821000  0.54465300  0.68558800  1
  F  F42  1  0.49090600  0.70047600  0.90736800  1
  F  F43  1  0.00821000  0.45534700  0.81441200  1
  F  F44  1  0.99179000  0.04465300  0.31441200  1
  F  F45  1  0.50909400  0.79952400  0.40736800  1
  F  F46  1  0.00909400  0.70047600  0.40736800  1
  F  F47  1  0.99090600  0.79952400  0.90736800  1
