# generated using pymatgen
data_Ho10Si17
_symmetry_space_group_name_H-M   'P 1'
_cell_length_a   10.93591374
_cell_length_b   10.93591374
_cell_length_c   10.93591374
_cell_angle_alpha   144.43624394
_cell_angle_beta   135.77781114
_cell_angle_gamma   57.98715322
_symmetry_Int_Tables_number   1
_chemical_formula_structural   Ho10Si17
_chemical_formula_sum   'Ho10 Si17'
_cell_volume   526.00031984
_cell_formula_units_Z   1
loop_
 _symmetry_equiv_pos_site_id
 _symmetry_equiv_pos_as_xyz
  1  'x, y, z'
loop_
 _atom_site_type_symbol
 _atom_site_label
 _atom_site_symmetry_multiplicity
 _atom_site_fract_x
 _atom_site_fract_y
 _atom_site_fract_z
 _atom_site_occupancy
  Ho  Ho0  1  0.05224100  0.56384600  0.01570600  1
  Ho  Ho1  1  0.35262200  0.36884700  0.52064500  1
  Ho  Ho2  1  0.15179800  0.16802200  0.52064500  1
  Ho  Ho3  1  0.45186000  0.96346600  0.01570600  1
  Ho  Ho4  1  0.64737800  0.16802200  0.01622500  1
  Ho  Ho5  1  0.94775900  0.96346600  0.51160500  1
  Ho  Ho6  1  0.84820200  0.36884700  0.01622500  1
  Ho  Ho7  1  0.54814000  0.56384600  0.51160500  1
  Ho  Ho8  1  0.24459100  0.76106600  0.00565700  1
  Ho  Ho9  1  0.75540900  0.76106600  0.51647500  1
  Si  Si10  1  0.89556100  0.50619700  0.61063600  1
  Si  Si11  1  0.12152300  0.08844500  0.96692100  1
  Si  Si12  1  0.80089000  0.17876500  0.37787500  1
  Si  Si13  1  0.30057500  0.89759800  0.59702300  1
  Si  Si14  1  0.39981600  0.50186000  0.10204400  1
  Si  Si15  1  0.87847700  0.84539800  0.96692100  1
  Si  Si16  1  0.10443900  0.71507500  0.61063600  1
  Si  Si17  1  0.19911000  0.57698600  0.37787500  1
  Si  Si18  1  0.69942500  0.29644700  0.59702300  1
  Si  Si19  1  0.00000000  0.43179500  0.43179500  1
  Si  Si20  1  0.71515300  0.67184200  0.95668900  1
  Si  Si21  1  0.60018400  0.70222900  0.10204400  1
  Si  Si22  1  0.00000000  0.08108600  0.08108600  1
  Si  Si23  1  0.50000000  0.38822400  0.88822400  1
  Si  Si24  1  0.28484700  0.24153600  0.95668900  1
  Si  Si25  1  0.58183600  0.03930800  0.45747100  1
  Si  Si26  1  0.41816400  0.87563500  0.45747100  1
