# generated using pymatgen
data_La7Sb11Br4
_symmetry_space_group_name_H-M   'P 1'
_cell_length_a   4.34952200
_cell_length_b   19.87974200
_cell_length_c   31.25885400
_cell_angle_alpha   90.00000000
_cell_angle_beta   90.00000000
_cell_angle_gamma   90.00000000
_symmetry_Int_Tables_number   1
_chemical_formula_structural   La7Sb11Br4
_chemical_formula_sum   'La28 Sb44 Br16'
_cell_volume   2702.87105662
_cell_formula_units_Z   4
loop_
 _symmetry_equiv_pos_site_id
 _symmetry_equiv_pos_as_xyz
  1  'x, y, z'
loop_
 _atom_site_type_symbol
 _atom_site_label
 _atom_site_symmetry_multiplicity
 _atom_site_fract_x
 _atom_site_fract_y
 _atom_site_fract_z
 _atom_site_occupancy
  La  La0  1  0.75000000  0.19321000  0.11346500  1
  La  La1  1  0.25000000  0.02813400  0.63847200  1
  La  La2  1  0.25000000  0.80679000  0.88653500  1
  La  La3  1  0.75000000  0.47019600  0.42243900  1
  La  La4  1  0.25000000  0.36419700  0.25784200  1
  La  La5  1  0.25000000  0.14103800  0.51207300  1
  La  La6  1  0.25000000  0.25324000  0.38614200  1
  La  La7  1  0.25000000  0.97019600  0.07756100  1
  La  La8  1  0.25000000  0.13580300  0.75784200  1
  La  La9  1  0.75000000  0.08030700  0.24146800  1
  La  La10  1  0.25000000  0.69321000  0.38653500  1
  La  La11  1  0.75000000  0.41969300  0.74146800  1
  La  La12  1  0.75000000  0.74676000  0.61385800  1
  La  La13  1  0.25000000  0.52980400  0.57756100  1
  La  La14  1  0.75000000  0.86419700  0.24215800  1
  La  La15  1  0.25000000  0.24676000  0.88614200  1
  La  La16  1  0.75000000  0.75324000  0.11385800  1
  La  La17  1  0.25000000  0.35896200  0.01207300  1
  La  La18  1  0.75000000  0.97186600  0.36152800  1
  La  La19  1  0.75000000  0.52813400  0.86152800  1
  La  La20  1  0.75000000  0.63580300  0.74215800  1
  La  La21  1  0.75000000  0.64103800  0.98792700  1
  La  La22  1  0.75000000  0.02980400  0.92243900  1
  La  La23  1  0.75000000  0.85896200  0.48792700  1
  La  La24  1  0.75000000  0.30679000  0.61346500  1
  La  La25  1  0.25000000  0.58030700  0.25853200  1
  La  La26  1  0.25000000  0.91969300  0.75853200  1
  La  La27  1  0.25000000  0.47186600  0.13847200  1
  Sb  Sb28  1  0.75000000  0.35858700  0.33993800  1
  Sb  Sb29  1  0.75000000  0.52735500  0.65844800  1
  Sb  Sb30  1  0.75000000  0.97264500  0.15844800  1
  Sb  Sb31  1  0.25000000  0.97269600  0.28188000  1
  Sb  Sb32  1  0.75000000  0.69576700  0.21640600  1
  Sb  Sb33  1  0.25000000  0.30423300  0.78359400  1
  Sb  Sb34  1  0.75000000  0.14285000  0.34247700  1
  Sb  Sb35  1  0.75000000  0.91494300  0.84157300  1
  Sb  Sb36  1  0.75000000  0.36610400  0.09280300  1
  Sb  Sb37  1  0.25000000  0.75124800  0.78388400  1
  Sb  Sb38  1  0.75000000  0.80423300  0.71640600  1
  Sb  Sb39  1  0.75000000  0.02730400  0.71812000  1
  Sb  Sb40  1  0.25000000  0.19589300  0.65640000  1
  Sb  Sb41  1  0.25000000  0.19576700  0.28359400  1
  Sb  Sb42  1  0.75000000  0.24875200  0.21611600  1
  Sb  Sb43  1  0.25000000  0.41494300  0.65842700  1
  Sb  Sb44  1  0.75000000  0.02830400  0.46689000  1
  Sb  Sb45  1  0.75000000  0.47169600  0.96689000  1
  Sb  Sb46  1  0.25000000  0.97169600  0.53311000  1
  Sb  Sb47  1  0.75000000  0.25124800  0.71611600  1
  Sb  Sb48  1  0.25000000  0.52730400  0.78188000  1
  Sb  Sb49  1  0.25000000  0.85858700  0.16006200  1
  Sb  Sb50  1  0.25000000  0.52830400  0.03311000  1
  Sb  Sb51  1  0.75000000  0.14141300  0.83993800  1
  Sb  Sb52  1  0.25000000  0.64141300  0.66006200  1
  Sb  Sb53  1  0.75000000  0.58240500  0.09143900  1
  Sb  Sb54  1  0.75000000  0.58505700  0.34157300  1
  Sb  Sb55  1  0.25000000  0.41759500  0.90856100  1
  Sb  Sb56  1  0.75000000  0.80410700  0.34360000  1
  Sb  Sb57  1  0.25000000  0.86610400  0.40719700  1
  Sb  Sb58  1  0.25000000  0.47264500  0.34155200  1
  Sb  Sb59  1  0.75000000  0.47269600  0.21812000  1
  Sb  Sb60  1  0.25000000  0.63389600  0.90719700  1
  Sb  Sb61  1  0.75000000  0.13389600  0.59280300  1
  Sb  Sb62  1  0.25000000  0.08505700  0.15842700  1
  Sb  Sb63  1  0.25000000  0.85715000  0.65752300  1
  Sb  Sb64  1  0.25000000  0.08240500  0.40856100  1
  Sb  Sb65  1  0.75000000  0.91759500  0.59143900  1
  Sb  Sb66  1  0.25000000  0.74875200  0.28388400  1
  Sb  Sb67  1  0.75000000  0.35715000  0.84247700  1
  Sb  Sb68  1  0.75000000  0.69589300  0.84360000  1
  Sb  Sb69  1  0.25000000  0.30410700  0.15640000  1
  Sb  Sb70  1  0.25000000  0.64285000  0.15752300  1
  Sb  Sb71  1  0.25000000  0.02735500  0.84155200  1
  Br  Br72  1  0.25000000  0.21221500  0.04705900  1
  Br  Br73  1  0.25000000  0.77223200  0.53984600  1
  Br  Br74  1  0.75000000  0.43917900  0.53975100  1
  Br  Br75  1  0.75000000  0.27223200  0.96015400  1
  Br  Br76  1  0.75000000  0.71221500  0.45294100  1
  Br  Br77  1  0.75000000  0.06082100  0.03975100  1
  Br  Br78  1  0.25000000  0.72776800  0.03984600  1
  Br  Br79  1  0.25000000  0.56082100  0.46024900  1
  Br  Br80  1  0.25000000  0.28778500  0.54705900  1
  Br  Br81  1  0.25000000  0.37378700  0.44928400  1
  Br  Br82  1  0.75000000  0.62621300  0.55071600  1
  Br  Br83  1  0.25000000  0.93917900  0.96024900  1
  Br  Br84  1  0.25000000  0.12621300  0.94928400  1
  Br  Br85  1  0.75000000  0.87378700  0.05071600  1
  Br  Br86  1  0.75000000  0.22776800  0.46015400  1
  Br  Br87  1  0.75000000  0.78778500  0.95294100  1
