# generated using pymatgen
data_Ca3(B3Rh4)2
_symmetry_space_group_name_H-M   'P 1'
_cell_length_a   9.87282491
_cell_length_b   9.00537526
_cell_length_c   5.63805389
_cell_angle_alpha   81.27037665
_cell_angle_beta   64.36534679
_cell_angle_gamma   34.36427656
_symmetry_Int_Tables_number   1
_chemical_formula_structural   Ca3(B3Rh4)2
_chemical_formula_sum   'Ca3 B6 Rh8'
_cell_volume   233.40302451
_cell_formula_units_Z   1
loop_
 _symmetry_equiv_pos_site_id
 _symmetry_equiv_pos_as_xyz
  1  'x, y, z'
loop_
 _atom_site_type_symbol
 _atom_site_label
 _atom_site_symmetry_multiplicity
 _atom_site_fract_x
 _atom_site_fract_y
 _atom_site_fract_z
 _atom_site_occupancy
  Ca  Ca0  1  0.31794100  0.31794100  0.68205900  1
  Ca  Ca1  1  0.68205900  0.68205900  0.31794100  1
  Ca  Ca2  1  0.50000000  0.50000000  0.50000000  1
  B  B3  1  0.66873100  0.98902100  0.01097900  1
  B  B4  1  0.98902100  0.66873100  0.33126900  1
  B  B5  1  0.33126900  0.01097900  0.98902100  1
  B  B6  1  0.01097900  0.33126900  0.66873100  1
  B  B7  1  0.16635700  0.83364300  0.16635700  1
  B  B8  1  0.83364300  0.16635700  0.83364300  1
  Rh  Rh9  1  0.58476400  0.58476400  0.91523600  1
  Rh  Rh10  1  0.91346800  0.91346800  0.08653200  1
  Rh  Rh11  1  0.41523600  0.41523600  0.08476400  1
  Rh  Rh12  1  0.08476400  0.08476400  0.41523600  1
  Rh  Rh13  1  0.91523600  0.91523600  0.58476400  1
  Rh  Rh14  1  0.25000000  0.25000000  0.25000000  1
  Rh  Rh15  1  0.08653200  0.08653200  0.91346800  1
  Rh  Rh16  1  0.75000000  0.75000000  0.75000000  1
