# generated using pymatgen
data_Tm2Te5O13
_symmetry_space_group_name_H-M   'P 1'
_cell_length_a   6.95121100
_cell_length_b   8.73573703
_cell_length_c   10.69560570
_cell_angle_alpha   89.00120903
_cell_angle_beta   87.11704145
_cell_angle_gamma   74.73381650
_symmetry_Int_Tables_number   1
_chemical_formula_structural   Tm2Te5O13
_chemical_formula_sum   'Tm4 Te10 O26'
_cell_volume   625.76234066
_cell_formula_units_Z   2
loop_
 _symmetry_equiv_pos_site_id
 _symmetry_equiv_pos_as_xyz
  1  'x, y, z'
loop_
 _atom_site_type_symbol
 _atom_site_label
 _atom_site_symmetry_multiplicity
 _atom_site_fract_x
 _atom_site_fract_y
 _atom_site_fract_z
 _atom_site_occupancy
  Tm  Tm0  1  0.44789900  0.47084300  0.82029900  1
  Tm  Tm1  1  0.55210100  0.52915700  0.17970100  1
  Tm  Tm2  1  0.00009400  0.25986800  0.76004400  1
  Tm  Tm3  1  0.99990600  0.74013200  0.23995600  1
  Te  Te4  1  0.27258300  0.39424200  0.48701400  1
  Te  Te5  1  0.43888400  0.90275700  0.30073500  1
  Te  Te6  1  0.29003900  0.87601100  0.97607000  1
  Te  Te7  1  0.72741700  0.60575800  0.51298600  1
  Te  Te8  1  0.84251800  0.19695500  0.35938600  1
  Te  Te9  1  0.70996100  0.12398900  0.02393000  1
  Te  Te10  1  0.15748200  0.80304500  0.64061400  1
  Te  Te11  1  0.12383200  0.35148300  0.10744200  1
  Te  Te12  1  0.56111600  0.09724300  0.69926500  1
  Te  Te13  1  0.87616800  0.64851700  0.89255800  1
  O  O14  1  0.31405500  0.73592800  0.28473600  1
  O  O15  1  0.65106000  0.01517000  0.87648600  1
  O  O16  1  0.33946400  0.51226000  0.61890100  1
  O  O17  1  0.05622800  0.81956400  0.04074100  1
  O  O18  1  0.32513500  0.22666600  0.77719800  1
  O  O19  1  0.46277900  0.19256900  0.51890500  1
  O  O20  1  0.93365500  0.98234600  0.31075200  1
  O  O21  1  0.46797200  0.66930500  0.00071200  1
  O  O22  1  0.06634500  0.01765400  0.68924800  1
  O  O23  1  0.12779800  0.49059800  0.89529300  1
  O  O24  1  0.67486500  0.77333400  0.22280200  1
  O  O25  1  0.95757600  0.64972900  0.43248100  1
  O  O26  1  0.94377200  0.18043600  0.95925900  1
  O  O27  1  0.93296300  0.73463300  0.72213400  1
  O  O28  1  0.53202800  0.33069500  0.99928800  1
  O  O29  1  0.87220200  0.50940200  0.10470700  1
  O  O30  1  0.04242400  0.35027100  0.56751900  1
  O  O31  1  0.66053600  0.48774000  0.38109900  1
  O  O32  1  0.34894000  0.98483000  0.12351400  1
  O  O33  1  0.66656800  0.26179200  0.22639300  1
  O  O34  1  0.06703700  0.26536700  0.27786600  1
  O  O35  1  0.76564800  0.50110200  0.81246300  1
  O  O36  1  0.23435200  0.49889800  0.18753700  1
  O  O37  1  0.53722100  0.80743100  0.48109500  1
  O  O38  1  0.68594500  0.26407200  0.71526400  1
  O  O39  1  0.33343200  0.73820800  0.77360700  1
