# generated using pymatgen
data_Nd2Si3Rh
_symmetry_space_group_name_H-M   'P 1'
_cell_length_a   8.27759787
_cell_length_b   8.27759787
_cell_length_c   8.33580000
_cell_angle_alpha   90.00000000
_cell_angle_beta   90.00000000
_cell_angle_gamma   119.99999896
_symmetry_Int_Tables_number   1
_chemical_formula_structural   Nd2Si3Rh
_chemical_formula_sum   'Nd8 Si12 Rh4'
_cell_volume   494.63696754
_cell_formula_units_Z   4
loop_
 _symmetry_equiv_pos_site_id
 _symmetry_equiv_pos_as_xyz
  1  'x, y, z'
loop_
 _atom_site_type_symbol
 _atom_site_label
 _atom_site_symmetry_multiplicity
 _atom_site_fract_x
 _atom_site_fract_y
 _atom_site_fract_z
 _atom_site_occupancy
  Nd  Nd0  1  0.00000000  0.00000000  0.25000000  1
  Nd  Nd1  1  0.00000000  0.00000000  0.75000000  1
  Nd  Nd2  1  0.50546900  0.49453100  0.25000000  1
  Nd  Nd3  1  0.50546900  0.01093800  0.25000000  1
  Nd  Nd4  1  0.98906200  0.49453100  0.25000000  1
  Nd  Nd5  1  0.49453100  0.50546900  0.75000000  1
  Nd  Nd6  1  0.49453100  0.98906200  0.75000000  1
  Nd  Nd7  1  0.01093800  0.50546900  0.75000000  1
  Si  Si8  1  0.16677200  0.83322800  0.50244900  1
  Si  Si9  1  0.16677200  0.33354400  0.50244900  1
  Si  Si10  1  0.66645600  0.83322800  0.50244900  1
  Si  Si11  1  0.83322800  0.16677200  0.49755100  1
  Si  Si12  1  0.83322800  0.66645600  0.49755100  1
  Si  Si13  1  0.33354400  0.16677200  0.49755100  1
  Si  Si14  1  0.83322800  0.16677200  0.00244900  1
  Si  Si15  1  0.83322800  0.66645600  0.00244900  1
  Si  Si16  1  0.33354400  0.16677200  0.00244900  1
  Si  Si17  1  0.16677200  0.83322800  0.99755100  1
  Si  Si18  1  0.16677200  0.33354400  0.99755100  1
  Si  Si19  1  0.66645600  0.83322800  0.99755100  1
  Rh  Rh20  1  0.33333300  0.66666700  0.47594400  1
  Rh  Rh21  1  0.66666700  0.33333300  0.52405600  1
  Rh  Rh22  1  0.66666700  0.33333300  0.97594400  1
  Rh  Rh23  1  0.33333300  0.66666700  0.02405600  1
