# generated using pymatgen
data_Cs2Pd3S4
_symmetry_space_group_name_H-M   'P 1'
_cell_length_a   8.98801749
_cell_length_b   7.86075849
_cell_length_c   6.29968796
_cell_angle_alpha   77.94000746
_cell_angle_beta   58.79061995
_cell_angle_gamma   43.26937258
_symmetry_Int_Tables_number   1
_chemical_formula_structural   Cs2Pd3S4
_chemical_formula_sum   'Cs2 Pd3 S4'
_cell_volume   249.93432385
_cell_formula_units_Z   1
loop_
 _symmetry_equiv_pos_site_id
 _symmetry_equiv_pos_as_xyz
  1  'x, y, z'
loop_
 _atom_site_type_symbol
 _atom_site_label
 _atom_site_symmetry_multiplicity
 _atom_site_fract_x
 _atom_site_fract_y
 _atom_site_fract_z
 _atom_site_occupancy
  Cs  Cs0  1  0.16126800  0.16126800  0.83873200  1
  Cs  Cs1  1  0.83873200  0.83873200  0.16126800  1
  Pd  Pd2  1  0.50000000  0.50000000  0.50000000  1
  Pd  Pd3  1  0.00000000  0.00000000  0.50000000  1
  Pd  Pd4  1  0.50000000  0.50000000  0.00000000  1
  S  S5  1  0.77422900  0.43724100  0.56275900  1
  S  S6  1  0.56275900  0.22577100  0.77422900  1
  S  S7  1  0.22577100  0.56275900  0.43724100  1
  S  S8  1  0.43724100  0.77422900  0.22577100  1
