# generated using pymatgen
data_Sr5(ReO6)2
_symmetry_space_group_name_H-M   'P 1'
_cell_length_a   20.01019380
_cell_length_b   20.01019380
_cell_length_c   20.01019414
_cell_angle_alpha   29.20252479
_cell_angle_beta   29.20252479
_cell_angle_gamma   29.20252268
_symmetry_Int_Tables_number   1
_chemical_formula_structural   Sr5(ReO6)2
_chemical_formula_sum   'Sr30 Re12 O72'
_cell_volume   1687.45417704
_cell_formula_units_Z   6
loop_
 _symmetry_equiv_pos_site_id
 _symmetry_equiv_pos_as_xyz
  1  'x, y, z'
loop_
 _atom_site_type_symbol
 _atom_site_label
 _atom_site_symmetry_multiplicity
 _atom_site_fract_x
 _atom_site_fract_y
 _atom_site_fract_z
 _atom_site_occupancy
  Sr  Sr0  1  0.69678200  0.03488200  0.32946100  1
  Sr  Sr1  1  0.77807700  0.49001200  0.08432300  1
  Sr  Sr2  1  0.96511800  0.67053900  0.30321900  1
  Sr  Sr3  1  0.67053900  0.30321800  0.96511800  1
  Sr  Sr4  1  0.91567700  0.22192300  0.50998800  1
  Sr  Sr5  1  0.22192300  0.50998800  0.91567700  1
  Sr  Sr6  1  0.46511800  0.80321800  0.17053900  1
  Sr  Sr7  1  0.58432300  0.99001200  0.27807700  1
  Sr  Sr8  1  0.08432300  0.77807700  0.49001200  1
  Sr  Sr9  1  0.39618200  0.39618200  0.39618200  1
  Sr  Sr10  1  0.19678100  0.82946100  0.53488200  1
  Sr  Sr11  1  0.03488200  0.32946100  0.69678100  1
  Sr  Sr12  1  0.17053900  0.46511800  0.80321800  1
  Sr  Sr13  1  0.60381800  0.60381800  0.60381800  1
  Sr  Sr14  1  0.49001200  0.08432300  0.77807700  1
  Sr  Sr15  1  0.75000000  0.75000000  0.75000000  1
  Sr  Sr16  1  0.30321900  0.96511800  0.67053900  1
  Sr  Sr17  1  0.32946100  0.69678100  0.03488200  1
  Sr  Sr18  1  0.50998800  0.91567700  0.22192300  1
  Sr  Sr19  1  0.99001200  0.27807700  0.58432300  1
  Sr  Sr20  1  0.82946100  0.53488200  0.19678100  1
  Sr  Sr21  1  0.00998800  0.72192300  0.41567700  1
  Sr  Sr22  1  0.53488200  0.19678100  0.82946100  1
  Sr  Sr23  1  0.72192300  0.41567700  0.00998800  1
  Sr  Sr24  1  0.89618200  0.89618200  0.89618200  1
  Sr  Sr25  1  0.80321800  0.17053900  0.46511800  1
  Sr  Sr26  1  0.41567700  0.00998800  0.72192300  1
  Sr  Sr27  1  0.25000000  0.25000000  0.25000000  1
  Sr  Sr28  1  0.10381800  0.10381800  0.10381800  1
  Sr  Sr29  1  0.27807700  0.58432300  0.99001200  1
  Re  Re30  1  0.66173300  0.66173300  0.66173300  1
  Re  Re31  1  0.08211800  0.41788200  0.75000000  1
  Re  Re32  1  0.58211800  0.25000000  0.91788200  1
  Re  Re33  1  0.33826700  0.33826700  0.33826700  1
  Re  Re34  1  0.91788200  0.58211800  0.25000000  1
  Re  Re35  1  0.16173300  0.16173300  0.16173300  1
  Re  Re36  1  0.75000000  0.08211800  0.41788200  1
  Re  Re37  1  0.00000000  0.00000000  0.00000000  1
  Re  Re38  1  0.50000000  0.50000000  0.50000000  1
  Re  Re39  1  0.25000000  0.91788200  0.58211800  1
  Re  Re40  1  0.83826700  0.83826700  0.83826700  1
  Re  Re41  1  0.41788200  0.75000000  0.08211800  1
  O  O42  1  0.79117100  0.22445900  0.30306300  1
  O  O43  1  0.47683400  0.41480100  0.18499200  1
  O  O44  1  0.16283400  0.55290700  0.53606000  1
  O  O45  1  0.00105200  0.23166900  0.30345400  1
  O  O46  1  0.96394000  0.94709300  0.33716600  1
  O  O47  1  0.29117100  0.80306300  0.72445900  1
  O  O48  1  0.02123700  0.86018700  0.17440500  1
  O  O49  1  0.47876300  0.32559500  0.63981300  1
  O  O50  1  0.08519900  0.02316600  0.31500800  1
  O  O51  1  0.31500800  0.08519900  0.02316600  1
  O  O52  1  0.44709300  0.46394000  0.83716600  1
  O  O53  1  0.58519900  0.81500800  0.52316600  1
  O  O54  1  0.18499200  0.47683400  0.41480100  1
  O  O55  1  0.49894800  0.19654600  0.26833100  1
  O  O56  1  0.41480100  0.18499200  0.47683400  1
  O  O57  1  0.55290700  0.53606000  0.16283400  1
  O  O58  1  0.52316600  0.58519900  0.81500800  1
  O  O59  1  0.92191300  0.52707500  0.72573600  1
  O  O60  1  0.47292500  0.27426400  0.07808700  1
  O  O61  1  0.66283400  0.03606000  0.05290700  1
  O  O62  1  0.69654600  0.99894800  0.76833100  1
  O  O63  1  0.22573600  0.02707500  0.42191300  1
  O  O64  1  0.33716600  0.96394000  0.94709300  1
  O  O65  1  0.69693700  0.20882900  0.77554100  1
  O  O66  1  0.97292500  0.57808700  0.77426400  1
  O  O67  1  0.80345400  0.73166900  0.50105200  1
  O  O68  1  0.82559500  0.97876300  0.13981300  1
  O  O69  1  0.53606000  0.16283400  0.55290700  1
  O  O70  1  0.36018700  0.52123700  0.67440500  1
  O  O71  1  0.68499200  0.91480100  0.97683400  1
  O  O72  1  0.27426400  0.07808700  0.47292500  1
  O  O73  1  0.77554100  0.69693700  0.20882900  1
  O  O74  1  0.76833100  0.69654600  0.99894800  1
  O  O75  1  0.91480100  0.97683400  0.68499200  1
  O  O76  1  0.13981300  0.82559500  0.97876300  1
  O  O77  1  0.02707500  0.42191300  0.22573600  1
  O  O78  1  0.23166900  0.30345400  0.00105200  1
  O  O79  1  0.63981300  0.47876300  0.32559500  1
  O  O80  1  0.22445900  0.30306300  0.79117100  1
  O  O81  1  0.19654600  0.26833100  0.49894800  1
  O  O82  1  0.17440500  0.02123700  0.86018700  1
  O  O83  1  0.26833100  0.49894800  0.19654600  1
  O  O84  1  0.32559500  0.63981300  0.47876300  1
  O  O85  1  0.50105200  0.80345400  0.73166900  1
  O  O86  1  0.07808700  0.47292500  0.27426400  1
  O  O87  1  0.72445900  0.29117100  0.80306300  1
  O  O88  1  0.73166900  0.50105200  0.80345400  1
  O  O89  1  0.30345400  0.00105200  0.23166900  1
  O  O90  1  0.97876300  0.13981300  0.82559500  1
  O  O91  1  0.52707500  0.72573600  0.92191300  1
  O  O92  1  0.77426400  0.97292500  0.57808700  1
  O  O93  1  0.83716600  0.44709300  0.46394000  1
  O  O94  1  0.94709300  0.33716600  0.96394000  1
  O  O95  1  0.27554100  0.70882900  0.19693700  1
  O  O96  1  0.46394000  0.83716600  0.44709300  1
  O  O97  1  0.19693700  0.27554100  0.70882900  1
  O  O98  1  0.72573600  0.92191300  0.52707500  1
  O  O99  1  0.05290700  0.66283400  0.03606000  1
  O  O100  1  0.57808700  0.77426400  0.97292500  1
  O  O101  1  0.02316600  0.31500800  0.08519900  1
  O  O102  1  0.70882900  0.19693700  0.27554100  1
  O  O103  1  0.97683400  0.68499200  0.91480100  1
  O  O104  1  0.42191300  0.22573600  0.02707500  1
  O  O105  1  0.80306300  0.72445900  0.29117100  1
  O  O106  1  0.67440500  0.36018700  0.52123700  1
  O  O107  1  0.30306300  0.79117100  0.22445900  1
  O  O108  1  0.86018700  0.17440500  0.02123700  1
  O  O109  1  0.20882900  0.77554100  0.69693700  1
  O  O110  1  0.99894800  0.76833100  0.69654600  1
  O  O111  1  0.03606000  0.05290700  0.66283400  1
  O  O112  1  0.81500800  0.52316600  0.58519900  1
  O  O113  1  0.52123700  0.67440500  0.36018700  1
