# generated using pymatgen
data_ZnFe2(SeO3)4
_symmetry_space_group_name_H-M   'P 1'
_cell_length_a   8.18854000
_cell_length_b   8.19255000
_cell_length_c   8.33685524
_cell_angle_alpha   87.75967992
_cell_angle_beta   90.00000000
_cell_angle_gamma   90.00000000
_symmetry_Int_Tables_number   1
_chemical_formula_structural   ZnFe2(SeO3)4
_chemical_formula_sum   'Zn2 Fe4 Se8 O24'
_cell_volume   558.85064680
_cell_formula_units_Z   2
loop_
 _symmetry_equiv_pos_site_id
 _symmetry_equiv_pos_as_xyz
  1  'x, y, z'
loop_
 _atom_site_type_symbol
 _atom_site_label
 _atom_site_symmetry_multiplicity
 _atom_site_fract_x
 _atom_site_fract_y
 _atom_site_fract_z
 _atom_site_occupancy
  Zn  Zn0  1  0.60154100  0.34449700  0.16313900  1
  Zn  Zn1  1  0.39845900  0.84449700  0.16313900  1
  Fe  Fe2  1  0.76060800  0.75042200  0.00021700  1
  Fe  Fe3  1  0.73992200  0.24389400  0.50852500  1
  Fe  Fe4  1  0.23939200  0.25042200  0.00021700  1
  Fe  Fe5  1  0.26007800  0.74389400  0.50852500  1
  Se  Se6  1  0.09548600  0.54976800  0.19122500  1
  Se  Se7  1  0.90451400  0.04976800  0.19122500  1
  Se  Se8  1  0.57193000  0.45069600  0.82063400  1
  Se  Se9  1  0.32451900  0.16710900  0.41456200  1
  Se  Se10  1  0.05704500  0.41924000  0.68005900  1
  Se  Se11  1  0.42807000  0.95069600  0.82063400  1
  Se  Se12  1  0.67548100  0.66710900  0.41456200  1
  Se  Se13  1  0.94295500  0.91924000  0.68005900  1
  O  O14  1  0.96338400  0.69834100  0.11949500  1
  O  O15  1  0.30972600  0.00939200  0.98772700  1
  O  O16  1  0.16179200  0.25698100  0.77604800  1
  O  O17  1  0.66651200  0.45959500  0.36686900  1
  O  O18  1  0.75173400  0.17683200  0.26900400  1
  O  O19  1  0.19253400  0.49101400  0.01975600  1
  O  O20  1  0.21887900  0.51261000  0.57863900  1
  O  O21  1  0.62653700  0.75831200  0.22627200  1
  O  O22  1  0.71925300  0.34844800  0.72154400  1
  O  O23  1  0.33348800  0.95959500  0.36686900  1
  O  O24  1  0.97255900  0.31567400  0.52106400  1
  O  O25  1  0.48241600  0.29372400  0.93847600  1
  O  O26  1  0.83820800  0.75698100  0.77604800  1
  O  O27  1  0.50297800  0.69415100  0.52264600  1
  O  O28  1  0.28074700  0.84844800  0.72154400  1
  O  O29  1  0.24826600  0.67683200  0.26900400  1
  O  O30  1  0.37346300  0.25831200  0.22627200  1
  O  O31  1  0.03661600  0.19834100  0.11949500  1
  O  O32  1  0.02744100  0.81567400  0.52106400  1
  O  O33  1  0.51758400  0.79372400  0.93847600  1
  O  O34  1  0.69027400  0.50939100  0.98772700  1
  O  O35  1  0.78112100  0.01261000  0.57863900  1
  O  O36  1  0.49702200  0.19415100  0.52264600  1
  O  O37  1  0.80746600  0.99101400  0.01975600  1
