# generated using pymatgen
data_Ba2Mn2Si2O9
_symmetry_space_group_name_H-M   'P 1'
_cell_length_a   8.72292100
_cell_length_b   10.92765300
_cell_length_c   18.60846000
_cell_angle_alpha   90.00000000
_cell_angle_beta   90.00000000
_cell_angle_gamma   90.00000000
_symmetry_Int_Tables_number   1
_chemical_formula_structural   Ba2Mn2Si2O9
_chemical_formula_sum   'Ba16 Mn16 Si16 O72'
_cell_volume   1773.77801744
_cell_formula_units_Z   8
loop_
 _symmetry_equiv_pos_site_id
 _symmetry_equiv_pos_as_xyz
  1  'x, y, z'
loop_
 _atom_site_type_symbol
 _atom_site_label
 _atom_site_symmetry_multiplicity
 _atom_site_fract_x
 _atom_site_fract_y
 _atom_site_fract_z
 _atom_site_occupancy
  Ba  Ba0  1  0.26242700  0.49470700  0.00593600  1
  Ba  Ba1  1  0.26242700  0.00529300  0.50593600  1
  Ba  Ba2  1  0.76242700  0.49470700  0.49406400  1
  Ba  Ba3  1  0.24422200  0.29187000  0.24092300  1
  Ba  Ba4  1  0.73757300  0.50529300  0.99406400  1
  Ba  Ba5  1  0.74422200  0.29187000  0.25907700  1
  Ba  Ba6  1  0.24422200  0.20813000  0.74092300  1
  Ba  Ba7  1  0.75577800  0.70813000  0.75907700  1
  Ba  Ba8  1  0.75577800  0.79187000  0.25907700  1
  Ba  Ba9  1  0.25577800  0.70813000  0.74092300  1
  Ba  Ba10  1  0.23757300  0.50529300  0.50593600  1
  Ba  Ba11  1  0.76242700  0.00529300  0.99406400  1
  Ba  Ba12  1  0.25577800  0.79187000  0.24092300  1
  Ba  Ba13  1  0.73757300  0.99470700  0.49406400  1
  Ba  Ba14  1  0.74422200  0.20813000  0.75907700  1
  Ba  Ba15  1  0.23757300  0.99470700  0.00593600  1
  Mn  Mn16  1  0.46807700  0.46210100  0.65513500  1
  Mn  Mn17  1  0.03192300  0.53789900  0.15513500  1
  Mn  Mn18  1  0.96807700  0.46210100  0.84486500  1
  Mn  Mn19  1  0.53192300  0.96210100  0.84486500  1
  Mn  Mn20  1  0.03192300  0.96210100  0.65513500  1
  Mn  Mn21  1  0.46041000  0.76462900  0.41771300  1
  Mn  Mn22  1  0.03959000  0.26462900  0.41771300  1
  Mn  Mn23  1  0.46041000  0.73537100  0.91771300  1
  Mn  Mn24  1  0.03959000  0.23537100  0.91771300  1
  Mn  Mn25  1  0.53959000  0.23537100  0.58228700  1
  Mn  Mn26  1  0.96041000  0.73537100  0.58228700  1
  Mn  Mn27  1  0.96807700  0.03789900  0.34486500  1
  Mn  Mn28  1  0.46807700  0.03789900  0.15513500  1
  Mn  Mn29  1  0.53959000  0.26462900  0.08228700  1
  Mn  Mn30  1  0.96041000  0.76462900  0.08228700  1
  Mn  Mn31  1  0.53192300  0.53789900  0.34486500  1
  Si  Si32  1  0.04649800  0.76261300  0.40896600  1
  Si  Si33  1  0.04723000  0.03169100  0.17081500  1
  Si  Si34  1  0.95350200  0.26261300  0.09103400  1
  Si  Si35  1  0.95277000  0.96830900  0.82918500  1
  Si  Si36  1  0.45277000  0.96830900  0.67081500  1
  Si  Si37  1  0.95350200  0.23738700  0.59103400  1
  Si  Si38  1  0.04723000  0.46830900  0.67081500  1
  Si  Si39  1  0.45277000  0.53169100  0.17081500  1
  Si  Si40  1  0.54723000  0.46830900  0.82918500  1
  Si  Si41  1  0.45350200  0.26261300  0.40896600  1
  Si  Si42  1  0.54723000  0.03169100  0.32918500  1
  Si  Si43  1  0.04649800  0.73738700  0.90896600  1
  Si  Si44  1  0.45350200  0.23738700  0.90896600  1
  Si  Si45  1  0.54649800  0.76261300  0.09103400  1
  Si  Si46  1  0.95277000  0.53169100  0.32918500  1
  Si  Si47  1  0.54649800  0.73738700  0.59103400  1
  O  O48  1  0.98302800  0.79566100  0.67883500  1
  O  O49  1  0.55484700  0.84002400  0.65938300  1
  O  O50  1  0.27919100  0.31314700  0.41558500  1
  O  O51  1  0.27242900  0.93026000  0.66734100  1
  O  O52  1  0.50250300  0.53152100  0.75177200  1
  O  O53  1  0.00250300  0.96847900  0.24822800  1
  O  O54  1  0.42459700  0.86967600  0.11650900  1
  O  O55  1  0.49749700  0.46847900  0.24822800  1
  O  O56  1  0.92459700  0.86967600  0.38349100  1
  O  O57  1  0.01697200  0.20433900  0.32116500  1
  O  O58  1  0.00820600  0.93688800  0.10522600  1
  O  O59  1  0.22757100  0.06974000  0.16734100  1
  O  O60  1  0.50250300  0.96847900  0.25177200  1
  O  O61  1  0.92459700  0.63032400  0.88349100  1
  O  O62  1  0.44515300  0.15997600  0.34061700  1
  O  O63  1  0.00858700  0.40343400  0.94009600  1
  O  O64  1  0.22757100  0.43026000  0.66734100  1
  O  O65  1  0.00250300  0.53152100  0.74822800  1
  O  O66  1  0.99749700  0.03152100  0.75177200  1
  O  O67  1  0.49179400  0.06311200  0.60522600  1
  O  O68  1  0.99141300  0.59656600  0.05990400  1
  O  O69  1  0.94515300  0.34002400  0.65938300  1
  O  O70  1  0.49141300  0.90343400  0.94009600  1
  O  O71  1  0.72757100  0.43026000  0.83265900  1
  O  O72  1  0.50858700  0.09656600  0.05990400  1
  O  O73  1  0.00858700  0.09656600  0.44009600  1
  O  O74  1  0.49749700  0.03152100  0.74822800  1
  O  O75  1  0.72757100  0.06974000  0.33265900  1
  O  O76  1  0.98302800  0.70433900  0.17883500  1
  O  O77  1  0.57540300  0.36967600  0.38349100  1
  O  O78  1  0.50820600  0.93688800  0.39477400  1
  O  O79  1  0.01697200  0.29566100  0.82116500  1
  O  O80  1  0.48727300  0.68633700  0.02007100  1
  O  O81  1  0.07540300  0.36967600  0.11650900  1
  O  O82  1  0.42459700  0.63032400  0.61650900  1
  O  O83  1  0.57540300  0.13032400  0.88349100  1
  O  O84  1  0.99141300  0.90343400  0.55990400  1
  O  O85  1  0.51272700  0.31366300  0.97992900  1
  O  O86  1  0.50820600  0.56311200  0.89477400  1
  O  O87  1  0.00820600  0.56311200  0.60522600  1
  O  O88  1  0.01272700  0.18633700  0.02007100  1
  O  O89  1  0.77919100  0.18685300  0.58441500  1
  O  O90  1  0.98727300  0.81366300  0.97992900  1
  O  O91  1  0.99179400  0.43688800  0.39477400  1
  O  O92  1  0.51697200  0.20433900  0.17883500  1
  O  O93  1  0.01272700  0.31366300  0.52007100  1
  O  O94  1  0.22080900  0.81314700  0.41558500  1
  O  O95  1  0.99749700  0.46847900  0.25177200  1
  O  O96  1  0.48302800  0.70433900  0.32116500  1
  O  O97  1  0.27242900  0.56974000  0.16734100  1
  O  O98  1  0.07540300  0.13032400  0.61650900  1
  O  O99  1  0.48302800  0.79566100  0.82116500  1
  O  O100  1  0.55484700  0.65997600  0.15938300  1
  O  O101  1  0.51697200  0.29566100  0.67883500  1
  O  O102  1  0.05484700  0.84002400  0.84061700  1
  O  O103  1  0.72080900  0.68685300  0.58441500  1
  O  O104  1  0.22080900  0.68685300  0.91558500  1
  O  O105  1  0.49179400  0.43688800  0.10522600  1
  O  O106  1  0.48727300  0.81366300  0.52007100  1
  O  O107  1  0.72080900  0.81314700  0.08441500  1
  O  O108  1  0.99179400  0.06311200  0.89477400  1
  O  O109  1  0.98727300  0.68633700  0.47992900  1
  O  O110  1  0.27919100  0.18685300  0.91558500  1
  O  O111  1  0.77242900  0.93026000  0.83265900  1
  O  O112  1  0.77242900  0.56974000  0.33265900  1
  O  O113  1  0.77919100  0.31314700  0.08441500  1
  O  O114  1  0.94515300  0.15997600  0.15938300  1
  O  O115  1  0.49141300  0.59656600  0.44009600  1
  O  O116  1  0.44515300  0.34002400  0.84061700  1
  O  O117  1  0.05484700  0.65997600  0.34061700  1
  O  O118  1  0.50858700  0.40343400  0.55990400  1
  O  O119  1  0.51272700  0.18633700  0.47992900  1
