# generated using pymatgen
data_K5B19O31
_symmetry_space_group_name_H-M   'P 1'
_cell_length_a   10.76395076
_cell_length_b   10.76395076
_cell_length_c   13.13938220
_cell_angle_alpha   85.35800128
_cell_angle_beta   85.35800128
_cell_angle_gamma   65.64317420
_symmetry_Int_Tables_number   1
_chemical_formula_structural   K5B19O31
_chemical_formula_sum   'K10 B38 O62'
_cell_volume   1380.41894564
_cell_formula_units_Z   2
loop_
 _symmetry_equiv_pos_site_id
 _symmetry_equiv_pos_as_xyz
  1  'x, y, z'
loop_
 _atom_site_type_symbol
 _atom_site_label
 _atom_site_symmetry_multiplicity
 _atom_site_fract_x
 _atom_site_fract_y
 _atom_site_fract_z
 _atom_site_occupancy
  K  K0  1  0.94472900  0.40519600  0.83252300  1
  K  K1  1  0.29174600  0.38079500  0.69620600  1
  K  K2  1  0.40519600  0.94472900  0.33252300  1
  K  K3  1  0.61920500  0.70825400  0.80379400  1
  K  K4  1  0.00000000  0.00000000  0.50000000  1
  K  K5  1  0.59480400  0.05527100  0.66747700  1
  K  K6  1  0.00000000  0.00000000  0.00000000  1
  K  K7  1  0.38079500  0.29174600  0.19620600  1
  K  K8  1  0.70825400  0.61920500  0.30379400  1
  K  K9  1  0.05527100  0.59480400  0.16747700  1
  B  B10  1  0.46575900  0.56630500  0.61874300  1
  B  B11  1  0.11118600  0.24083800  0.35631700  1
  B  B12  1  0.90651600  0.95884200  0.24087800  1
  B  B13  1  0.71671000  0.76075200  0.52472500  1
  B  B14  1  0.31131600  0.71819200  0.49650400  1
  B  B15  1  0.95884200  0.90651600  0.74087800  1
  B  B16  1  0.67607300  0.17243100  0.86532200  1
  B  B17  1  0.23924800  0.28329000  0.97527500  1
  B  B18  1  0.32735900  0.98050000  0.69870800  1
  B  B19  1  0.79390300  0.47063400  0.07210700  1
  B  B20  1  0.88881400  0.75916200  0.64368300  1
  B  B21  1  0.68868400  0.28180800  0.50349600  1
  B  B22  1  0.24083800  0.11118600  0.85631700  1
  B  B23  1  0.01950000  0.67264100  0.80129200  1
  B  B24  1  0.17243100  0.67607300  0.36532200  1
  B  B25  1  0.71819200  0.31131600  0.99650400  1
  B  B26  1  0.04115800  0.09348400  0.25912200  1
  B  B27  1  0.47063400  0.79390300  0.57210700  1
  B  B28  1  0.28329000  0.23924800  0.47527500  1
  B  B29  1  0.53424100  0.43369500  0.38125700  1
  B  B30  1  0.28180800  0.68868400  0.00349600  1
  B  B31  1  0.32392700  0.82756900  0.13467800  1
  B  B32  1  0.09348400  0.04115800  0.75912200  1
  B  B33  1  0.76075200  0.71671000  0.02472500  1
  B  B34  1  0.60894800  0.39105200  0.75000000  1
  B  B35  1  0.04882600  0.29740400  0.53905000  1
  B  B36  1  0.70259600  0.95117400  0.96095000  1
  B  B37  1  0.43369500  0.53424100  0.88125700  1
  B  B38  1  0.52936600  0.20609700  0.42789300  1
  B  B39  1  0.56630500  0.46575900  0.11874300  1
  B  B40  1  0.67264100  0.01950000  0.30129200  1
  B  B41  1  0.98050000  0.32735900  0.19870800  1
  B  B42  1  0.29740400  0.04882600  0.03905000  1
  B  B43  1  0.20609700  0.52936600  0.92789300  1
  B  B44  1  0.75916200  0.88881400  0.14368300  1
  B  B45  1  0.39105200  0.60894800  0.25000000  1
  B  B46  1  0.95117400  0.70259600  0.46095000  1
  B  B47  1  0.82756900  0.32392700  0.63467800  1
  O  O48  1  0.33446200  0.49173100  0.86406400  1
  O  O49  1  0.98720100  0.71457900  0.55475500  1
  O  O50  1  0.81770200  0.35534700  0.00806800  1
  O  O51  1  0.01279900  0.28542100  0.44524500  1
  O  O52  1  0.78353800  0.58865600  0.00015100  1
  O  O53  1  0.35534700  0.81770200  0.50806800  1
  O  O54  1  0.11828100  0.10338300  0.33234700  1
  O  O55  1  0.20133400  0.97238400  0.69102100  1
  O  O56  1  0.20603000  0.74835000  0.43240200  1
  O  O57  1  0.28542100  0.01279900  0.94524500  1
  O  O58  1  0.43952700  0.90778100  0.63944700  1
  O  O59  1  0.79397000  0.25165000  0.56759800  1
  O  O60  1  0.33967400  0.06273100  0.76885200  1
  O  O61  1  0.25165000  0.79397000  0.06759800  1
  O  O62  1  0.50826900  0.66553800  0.63593600  1
  O  O63  1  0.56110900  0.48517700  0.83391600  1
  O  O64  1  0.58865600  0.78353800  0.50015100  1
  O  O65  1  0.51482300  0.43889100  0.66608400  1
  O  O66  1  0.71457900  0.98720100  0.05475500  1
  O  O67  1  0.27903700  0.18168500  0.05609000  1
  O  O68  1  0.02761600  0.79866600  0.80897900  1
  O  O69  1  0.24919800  0.22360000  0.37994700  1
  O  O70  1  0.93726900  0.66032600  0.73114800  1
  O  O71  1  0.10338300  0.11828100  0.83234700  1
  O  O72  1  0.22360000  0.24919800  0.87994700  1
  O  O73  1  0.32610600  0.95753100  0.12393500  1
  O  O74  1  0.64465300  0.18229800  0.49193200  1
  O  O75  1  0.38494500  0.74731700  0.21654100  1
  O  O76  1  0.40646800  0.63950700  0.94809400  1
  O  O77  1  0.61505500  0.25268300  0.78345900  1
  O  O78  1  0.97168200  0.02831800  0.75000000  1
  O  O79  1  0.74731700  0.38494500  0.71654100  1
  O  O80  1  0.04246900  0.67389400  0.37606500  1
  O  O81  1  0.77640000  0.75080200  0.12005300  1
  O  O82  1  0.66553800  0.50826900  0.13593600  1
  O  O83  1  0.59353200  0.36049300  0.05190600  1
  O  O84  1  0.49173100  0.33446200  0.36406400  1
  O  O85  1  0.74835000  0.20603000  0.93240200  1
  O  O86  1  0.67389400  0.04246900  0.87606500  1
  O  O87  1  0.89661700  0.88171900  0.16765300  1
  O  O88  1  0.75080200  0.77640000  0.62005300  1
  O  O89  1  0.97238400  0.20133400  0.19102100  1
  O  O90  1  0.63950700  0.40646800  0.44809400  1
  O  O91  1  0.90778100  0.43952700  0.13944700  1
  O  O92  1  0.95753100  0.32610600  0.62393500  1
  O  O93  1  0.09221900  0.56047300  0.86055300  1
  O  O94  1  0.41134400  0.21646200  0.49984900  1
  O  O95  1  0.25268300  0.61505500  0.28345900  1
  O  O96  1  0.02831800  0.97168200  0.25000000  1
  O  O97  1  0.18229800  0.64465300  0.99193200  1
  O  O98  1  0.79866600  0.02761600  0.30897900  1
  O  O99  1  0.43889100  0.51482300  0.16608400  1
  O  O100  1  0.66032600  0.93726900  0.23114800  1
  O  O101  1  0.21646200  0.41134400  0.99984900  1
  O  O102  1  0.06273100  0.33967400  0.26885200  1
  O  O103  1  0.36049300  0.59353200  0.55190600  1
  O  O104  1  0.18168500  0.27903700  0.55609000  1
  O  O105  1  0.56047300  0.09221900  0.36055300  1
  O  O106  1  0.72096300  0.81831500  0.94391000  1
  O  O107  1  0.48517700  0.56110900  0.33391600  1
  O  O108  1  0.88171900  0.89661700  0.66765300  1
  O  O109  1  0.81831500  0.72096300  0.44391000  1
