# generated using pymatgen
data_U6Co30Si19
_symmetry_space_group_name_H-M   'P 1'
_cell_length_a   20.95042588
_cell_length_b   20.95042588
_cell_length_c   3.64389000
_cell_angle_alpha   90.00000000
_cell_angle_beta   90.00000000
_cell_angle_gamma   119.99999963
_symmetry_Int_Tables_number   1
_chemical_formula_structural   U6Co30Si19
_chemical_formula_sum   'U12 Co60 Si38'
_cell_volume   1385.10151115
_cell_formula_units_Z   2
loop_
 _symmetry_equiv_pos_site_id
 _symmetry_equiv_pos_as_xyz
  1  'x, y, z'
loop_
 _atom_site_type_symbol
 _atom_site_label
 _atom_site_symmetry_multiplicity
 _atom_site_fract_x
 _atom_site_fract_y
 _atom_site_fract_z
 _atom_site_occupancy
  U  U0  1  0.77490900  0.03712800  0.25000000  1
  U  U1  1  0.51840700  0.13369100  0.25000000  1
  U  U2  1  0.38471600  0.51840700  0.75000000  1
  U  U3  1  0.61528400  0.48159300  0.25000000  1
  U  U4  1  0.73778100  0.77490900  0.75000000  1
  U  U5  1  0.26221900  0.22509100  0.25000000  1
  U  U6  1  0.13369100  0.61528400  0.75000000  1
  U  U7  1  0.22509100  0.96287200  0.75000000  1
  U  U8  1  0.48159300  0.86630900  0.75000000  1
  U  U9  1  0.03712800  0.26221900  0.75000000  1
  U  U10  1  0.86630900  0.38471600  0.25000000  1
  U  U11  1  0.96287200  0.73778100  0.25000000  1
  Co  Co12  1  0.39446500  0.10099800  0.75000000  1
  Co  Co13  1  0.94801400  0.14453300  0.25000000  1
  Co  Co14  1  0.00407900  0.35630100  0.25000000  1
  Co  Co15  1  0.91355400  0.92588300  0.75000000  1
  Co  Co16  1  0.79544700  0.59375100  0.25000000  1
  Co  Co17  1  0.86208200  0.15594000  0.75000000  1
  Co  Co18  1  0.55449100  0.65984000  0.75000000  1
  Co  Co19  1  0.85546700  0.80348100  0.25000000  1
  Co  Co20  1  0.35630100  0.35222200  0.75000000  1
  Co  Co21  1  0.13791800  0.84406000  0.25000000  1
  Co  Co22  1  0.30183700  0.75547600  0.75000000  1
  Co  Co23  1  0.29385800  0.13791800  0.75000000  1
  Co  Co24  1  0.54894200  0.04217900  0.75000000  1
  Co  Co25  1  0.01232900  0.08644600  0.75000000  1
  Co  Co26  1  0.60553500  0.89900200  0.25000000  1
  Co  Co27  1  0.25350600  0.64613600  0.25000000  1
  Co  Co28  1  0.54636100  0.30183700  0.25000000  1
  Co  Co29  1  0.92588300  0.01232900  0.25000000  1
  Co  Co30  1  0.05198600  0.85546700  0.75000000  1
  Co  Co31  1  0.39262900  0.74649400  0.25000000  1
  Co  Co32  1  0.74649400  0.35386400  0.75000000  1
  Co  Co33  1  0.44550900  0.34016000  0.25000000  1
  Co  Co34  1  0.50676300  0.54894200  0.25000000  1
  Co  Co35  1  0.14453300  0.19651900  0.75000000  1
  Co  Co36  1  0.35386400  0.60737100  0.25000000  1
  Co  Co37  1  0.19651900  0.05198600  0.25000000  1
  Co  Co38  1  0.49323700  0.45105800  0.75000000  1
  Co  Co39  1  0.10534900  0.44550900  0.75000000  1
  Co  Co40  1  0.98767100  0.91355400  0.25000000  1
  Co  Co41  1  0.15594000  0.29385800  0.25000000  1
  Co  Co42  1  0.64777800  0.00407900  0.75000000  1
  Co  Co43  1  0.70653300  0.60553500  0.75000000  1
  Co  Co44  1  0.40624900  0.20169600  0.25000000  1
  Co  Co45  1  0.89465100  0.55449100  0.25000000  1
  Co  Co46  1  0.80348100  0.94801400  0.75000000  1
  Co  Co47  1  0.10099800  0.70653300  0.25000000  1
  Co  Co48  1  0.08644600  0.07411700  0.25000000  1
  Co  Co49  1  0.04217900  0.49323700  0.25000000  1
  Co  Co50  1  0.95782100  0.50676300  0.75000000  1
  Co  Co51  1  0.70614200  0.86208200  0.25000000  1
  Co  Co52  1  0.79830400  0.20455300  0.25000000  1
  Co  Co53  1  0.69816300  0.24452400  0.25000000  1
  Co  Co54  1  0.75547600  0.45363900  0.25000000  1
  Co  Co55  1  0.45105800  0.95782100  0.25000000  1
  Co  Co56  1  0.24452400  0.54636100  0.75000000  1
  Co  Co57  1  0.34016000  0.89465100  0.75000000  1
  Co  Co58  1  0.89900200  0.29346700  0.75000000  1
  Co  Co59  1  0.64613600  0.39262900  0.75000000  1
  Co  Co60  1  0.45363900  0.69816300  0.75000000  1
  Co  Co61  1  0.20169600  0.79544700  0.75000000  1
  Co  Co62  1  0.29346700  0.39446500  0.25000000  1
  Co  Co63  1  0.59375100  0.79830400  0.75000000  1
  Co  Co64  1  0.65984000  0.10534900  0.25000000  1
  Co  Co65  1  0.84406000  0.70614200  0.75000000  1
  Co  Co66  1  0.35222200  0.99592100  0.25000000  1
  Co  Co67  1  0.60737100  0.25350600  0.75000000  1
  Co  Co68  1  0.99592100  0.64369900  0.75000000  1
  Co  Co69  1  0.64369900  0.64777800  0.25000000  1
  Co  Co70  1  0.07411700  0.98767100  0.75000000  1
  Co  Co71  1  0.20455300  0.40624900  0.75000000  1
  Si  Si72  1  0.10325000  0.93268900  0.25000000  1
  Si  Si73  1  0.61543100  0.73966700  0.25000000  1
  Si  Si74  1  0.57170400  0.98658200  0.25000000  1
  Si  Si75  1  0.42829600  0.01341800  0.75000000  1
  Si  Si76  1  0.06731100  0.17056100  0.25000000  1
  Si  Si77  1  0.33333300  0.66666700  0.75000000  1
  Si  Si78  1  0.77795200  0.26365500  0.75000000  1
  Si  Si79  1  0.82943900  0.89675000  0.25000000  1
  Si  Si80  1  0.16403700  0.52477600  0.25000000  1
  Si  Si81  1  0.58512100  0.57170400  0.75000000  1
  Si  Si82  1  0.08257300  0.76478700  0.75000000  1
  Si  Si83  1  0.23521300  0.31778700  0.75000000  1
  Si  Si84  1  0.66666700  0.33333300  0.25000000  1
  Si  Si85  1  0.26365500  0.48570300  0.25000000  1
  Si  Si86  1  0.31778700  0.08257300  0.25000000  1
  Si  Si87  1  0.26033300  0.87576400  0.25000000  1
  Si  Si88  1  0.01341800  0.58512100  0.25000000  1
  Si  Si89  1  0.76478700  0.68221300  0.25000000  1
  Si  Si90  1  0.22204800  0.73634500  0.25000000  1
  Si  Si91  1  0.68221300  0.91742700  0.75000000  1
  Si  Si92  1  0.38456900  0.26033300  0.75000000  1
  Si  Si93  1  0.87576400  0.61543100  0.75000000  1
  Si  Si94  1  0.51429700  0.77795200  0.25000000  1
  Si  Si95  1  0.93268900  0.82943900  0.75000000  1
  Si  Si96  1  0.36073900  0.83596300  0.25000000  1
  Si  Si97  1  0.91742700  0.23521300  0.25000000  1
  Si  Si98  1  0.47522400  0.63926100  0.25000000  1
  Si  Si99  1  0.17056100  0.10325000  0.75000000  1
  Si  Si100  1  0.83596300  0.47522400  0.75000000  1
  Si  Si101  1  0.41487900  0.42829600  0.25000000  1
  Si  Si102  1  0.52477600  0.36073900  0.75000000  1
  Si  Si103  1  0.89675000  0.06731100  0.75000000  1
  Si  Si104  1  0.73966700  0.12423600  0.75000000  1
  Si  Si105  1  0.48570300  0.22204800  0.75000000  1
  Si  Si106  1  0.63926100  0.16403700  0.75000000  1
  Si  Si107  1  0.98658200  0.41487900  0.75000000  1
  Si  Si108  1  0.73634500  0.51429700  0.75000000  1
  Si  Si109  1  0.12423600  0.38456900  0.25000000  1
