# generated using pymatgen
data_BF3
_symmetry_space_group_name_H-M   'P 1'
_cell_length_a   14.27171500
_cell_length_b   4.84553400
_cell_length_c   7.52756362
_cell_angle_alpha   72.44437329
_cell_angle_beta   90.00000000
_cell_angle_gamma   90.00000000
_symmetry_Int_Tables_number   1
_chemical_formula_structural   BF3
_chemical_formula_sum   'B8 F24'
_cell_volume   496.31634456
_cell_formula_units_Z   8
loop_
 _symmetry_equiv_pos_site_id
 _symmetry_equiv_pos_as_xyz
  1  'x, y, z'
loop_
 _atom_site_type_symbol
 _atom_site_label
 _atom_site_symmetry_multiplicity
 _atom_site_fract_x
 _atom_site_fract_y
 _atom_site_fract_z
 _atom_site_occupancy
  B  B0  1  0.13583600  0.13684100  0.23342200  1
  B  B1  1  0.63583600  0.86315900  0.26657800  1
  B  B2  1  0.88387300  0.47628100  0.27889600  1
  B  B3  1  0.61612700  0.47628100  0.77889600  1
  B  B4  1  0.38387300  0.52371900  0.22110400  1
  B  B5  1  0.36416400  0.13684100  0.73342200  1
  B  B6  1  0.11612700  0.52371900  0.72110400  1
  B  B7  1  0.86416400  0.86315900  0.76657800  1
  F  F8  1  0.28410300  0.25057200  0.76980700  1
  F  F9  1  0.36304000  0.92906100  0.65277200  1
  F  F10  1  0.86304000  0.07093900  0.84722800  1
  F  F11  1  0.44488700  0.23344900  0.78014000  1
  F  F12  1  0.78410300  0.74942800  0.73019300  1
  F  F13  1  0.85370000  0.26068900  0.42314400  1
  F  F14  1  0.35370000  0.73931100  0.07685600  1
  F  F15  1  0.57497000  0.70486300  0.80633100  1
  F  F16  1  0.07497000  0.29513700  0.69366900  1
  F  F17  1  0.21589700  0.25057200  0.26980700  1
  F  F18  1  0.62823000  0.46009000  0.60684900  1
  F  F19  1  0.05511300  0.23344900  0.28014000  1
  F  F20  1  0.94488700  0.76655100  0.71986000  1
  F  F21  1  0.14630000  0.73931100  0.57685600  1
  F  F22  1  0.63696000  0.07093900  0.34722800  1
  F  F23  1  0.37177000  0.53991000  0.39315100  1
  F  F24  1  0.55511300  0.76655100  0.21986000  1
  F  F25  1  0.13696000  0.92906100  0.15277200  1
  F  F26  1  0.12823000  0.53991000  0.89315100  1
  F  F27  1  0.71589700  0.74942800  0.23019300  1
  F  F28  1  0.42503000  0.29513700  0.19366900  1
  F  F29  1  0.87177000  0.46009000  0.10684900  1
  F  F30  1  0.64630000  0.26068900  0.92314400  1
  F  F31  1  0.92503000  0.70486300  0.30633100  1
