# generated using pymatgen
data_Nd2Ge2O7
_symmetry_space_group_name_H-M   'P 1'
_cell_length_a   7.00172500
_cell_length_b   7.00797748
_cell_length_c   38.14567806
_cell_angle_alpha   88.87324484
_cell_angle_beta   84.74399716
_cell_angle_gamma   88.58683427
_symmetry_Int_Tables_number   1
_chemical_formula_structural   Nd2Ge2O7
_chemical_formula_sum   'Nd24 Ge24 O84'
_cell_volume   1863.00779961
_cell_formula_units_Z   12
loop_
 _symmetry_equiv_pos_site_id
 _symmetry_equiv_pos_as_xyz
  1  'x, y, z'
loop_
 _atom_site_type_symbol
 _atom_site_label
 _atom_site_symmetry_multiplicity
 _atom_site_fract_x
 _atom_site_fract_y
 _atom_site_fract_z
 _atom_site_occupancy
  Nd  Nd0  1  0.67788400  0.37785200  0.95361100  1
  Nd  Nd1  1  0.38467800  0.55657300  0.79394900  1
  Nd  Nd2  1  0.12721200  0.14345500  0.70055100  1
  Nd  Nd3  1  0.38454700  0.88876500  0.95521000  1
  Nd  Nd4  1  0.96958400  0.45549700  0.37063000  1
  Nd  Nd5  1  0.52737100  0.80563600  0.63170700  1
  Nd  Nd6  1  0.66163400  0.38154200  0.45332500  1
  Nd  Nd7  1  0.87278800  0.85654500  0.29944900  1
  Nd  Nd8  1  0.51348800  0.80825000  0.13057600  1
  Nd  Nd9  1  0.47262900  0.19436400  0.36829300  1
  Nd  Nd10  1  0.61532200  0.44342700  0.20605100  1
  Nd  Nd11  1  0.63533200  0.10885400  0.54423300  1
  Nd  Nd12  1  0.61865500  0.40738800  0.70646300  1
  Nd  Nd13  1  0.09093800  0.11958600  0.19716000  1
  Nd  Nd14  1  0.90906200  0.88041400  0.80284000  1
  Nd  Nd15  1  0.36466800  0.89114600  0.45576700  1
  Nd  Nd16  1  0.02282200  0.54918800  0.13080300  1
  Nd  Nd17  1  0.61545300  0.11123500  0.04479000  1
  Nd  Nd18  1  0.03041600  0.54450300  0.62937000  1
  Nd  Nd19  1  0.48651200  0.19175000  0.86942400  1
  Nd  Nd20  1  0.38134500  0.59261200  0.29353700  1
  Nd  Nd21  1  0.97717800  0.45081200  0.86919700  1
  Nd  Nd22  1  0.33836600  0.61845800  0.54667500  1
  Nd  Nd23  1  0.32211600  0.62214800  0.04638900  1
  Ge  Ge24  1  0.87301500  0.34881000  0.78929500  1
  Ge  Ge25  1  0.50563500  0.33377000  0.62751900  1
  Ge  Ge26  1  0.97408500  0.99573000  0.89373600  1
  Ge  Ge27  1  0.96071100  0.99669400  0.39213600  1
  Ge  Ge28  1  0.84026600  0.86723500  0.96947600  1
  Ge  Ge29  1  0.81026600  0.62200800  0.04101300  1
  Ge  Ge30  1  0.81948700  0.62654200  0.54025200  1
  Ge  Ge31  1  0.02591500  0.00427000  0.10626400  1
  Ge  Ge32  1  0.49436500  0.66623000  0.37248100  1
  Ge  Ge33  1  0.50689000  0.66550800  0.87048500  1
  Ge  Ge34  1  0.86605400  0.34952500  0.29062600  1
  Ge  Ge35  1  0.39816700  0.04756900  0.77651300  1
  Ge  Ge36  1  0.12698500  0.65119000  0.21070500  1
  Ge  Ge37  1  0.17225500  0.12715400  0.53180000  1
  Ge  Ge38  1  0.60183300  0.95243100  0.22348700  1
  Ge  Ge39  1  0.18051300  0.37345800  0.45974800  1
  Ge  Ge40  1  0.27519300  0.09684600  0.27936000  1
  Ge  Ge41  1  0.49311000  0.33449200  0.12951500  1
  Ge  Ge42  1  0.15973400  0.13276500  0.03052400  1
  Ge  Ge43  1  0.18973400  0.37799200  0.95898700  1
  Ge  Ge44  1  0.82774500  0.87284600  0.46820000  1
  Ge  Ge45  1  0.03928900  0.00330600  0.60786400  1
  Ge  Ge46  1  0.72480700  0.90315400  0.72064000  1
  Ge  Ge47  1  0.13394600  0.65047500  0.70937400  1
  O  O48  1  0.37569000  0.25170700  0.30677500  1
  O  O49  1  0.63055300  0.48661100  0.39333700  1
  O  O50  1  0.43157700  0.86870300  0.89429100  1
  O  O51  1  0.32732200  0.28595900  0.04479900  1
  O  O52  1  0.97105500  0.08762300  0.56317800  1
  O  O53  1  0.96661400  0.81461800  0.73355000  1
  O  O54  1  0.20940400  0.88264800  0.30022700  1
  O  O55  1  0.68087500  0.48874600  0.14049900  1
  O  O56  1  0.02894500  0.91237700  0.43682200  1
  O  O57  1  0.01740600  0.53302600  0.80553000  1
  O  O58  1  0.00186800  0.17026100  0.76503100  1
  O  O59  1  0.31552600  0.55428300  0.47730400  1
  O  O60  1  0.79972600  0.22374400  0.83041100  1
  O  O61  1  0.61304800  0.72500400  0.82840300  1
  O  O62  1  0.42163700  0.87366900  0.39486700  1
  O  O63  1  0.99441300  0.46706300  0.69294800  1
  O  O64  1  0.04159600  0.90876200  0.93800700  1
  O  O65  1  0.20027400  0.77625600  0.16958900  1
  O  O66  1  0.99264100  0.44734700  0.43529600  1
  O  O67  1  0.37849700  0.22717900  0.93923800  1
  O  O68  1  0.21670700  0.79147300  0.67185400  1
  O  O69  1  0.36688000  0.22644300  0.43818500  1
  O  O70  1  0.36944700  0.51338900  0.60666300  1
  O  O71  1  0.34257300  0.28043400  0.54498900  1
  O  O72  1  0.00735900  0.55265300  0.56470400  1
  O  O73  1  0.95840400  0.09123800  0.06199300  1
  O  O74  1  0.41001600  0.21654900  0.80924500  1
  O  O75  1  0.23586500  0.86472500  0.09415800  1
  O  O76  1  0.38695200  0.27499600  0.17159700  1
  O  O77  1  0.00558700  0.53293700  0.30705200  1
  O  O78  1  0.94149400  0.76923100  0.00729200  1
  O  O79  1  0.35892900  0.51184500  0.10715500  1
  O  O80  1  0.30838900  0.54977900  0.73436600  1
  O  O81  1  0.92985800  0.79991000  0.36650900  1
  O  O82  1  0.57836300  0.12633100  0.60513300  1
  O  O83  1  0.00513200  0.44994100  0.93356100  1
  O  O84  1  0.32144300  0.55911100  0.97715700  1
  O  O85  1  0.79059600  0.11735200  0.69977300  1
  O  O86  1  0.98259400  0.46697400  0.19447000  1
  O  O87  1  0.67267800  0.71404100  0.95520100  1
  O  O88  1  0.39560500  0.28133900  0.66949600  1
  O  O89  1  0.07014200  0.20009000  0.63349100  1
  O  O90  1  0.31591400  0.93717400  0.01760800  1
  O  O91  1  0.78329300  0.20852700  0.32814600  1
  O  O92  1  0.05286400  0.19478900  0.13411600  1
  O  O93  1  0.60439500  0.71866100  0.33050400  1
  O  O94  1  0.68920400  0.45412700  0.76563300  1
  O  O95  1  0.64107100  0.48815500  0.89284500  1
  O  O96  1  0.24449300  0.86476600  0.79217300  1
  O  O97  1  0.67647500  0.07094800  0.48140700  1
  O  O98  1  0.06573100  0.21728500  0.49381500  1
  O  O99  1  0.31079600  0.54587300  0.23436700  1
  O  O100  1  0.05850600  0.23076900  0.99270800  1
  O  O101  1  0.14613500  0.15797300  0.87679200  1
  O  O102  1  0.63092500  0.90923000  0.76658200  1
  O  O103  1  0.75415700  0.14125900  0.40419100  1
  O  O104  1  0.62150300  0.77282100  0.06076200  1
  O  O105  1  0.32352500  0.92905200  0.51859300  1
  O  O106  1  0.13546600  0.15829600  0.37569400  1
  O  O107  1  0.99813200  0.82973900  0.23496900  1
  O  O108  1  0.60304100  0.86419800  0.26654700  1
  O  O109  1  0.56842300  0.13129700  0.10570900  1
  O  O110  1  0.30654200  0.51604300  0.36118200  1
  O  O111  1  0.69161100  0.45022100  0.26563400  1
  O  O112  1  0.86453400  0.84170400  0.62430600  1
  O  O113  1  0.03338600  0.18538200  0.26645000  1
  O  O114  1  0.69345800  0.48395700  0.63881800  1
  O  O115  1  0.76413500  0.13527500  0.90584200  1
  O  O116  1  0.63312000  0.77355700  0.56181500  1
  O  O117  1  0.58998400  0.78345100  0.19075500  1
  O  O118  1  0.67855700  0.44088900  0.02284300  1
  O  O119  1  0.36907500  0.09077000  0.23341800  1
  O  O120  1  0.99486800  0.55005900  0.06643900  1
  O  O121  1  0.31912500  0.51125400  0.85950100  1
  O  O122  1  0.24584300  0.85874100  0.59580900  1
  O  O123  1  0.68447400  0.44571700  0.52269600  1
  O  O124  1  0.62431000  0.74829300  0.69322500  1
  O  O125  1  0.68408600  0.06282600  0.98239200  1
  O  O126  1  0.65742700  0.71956600  0.45501100  1
  O  O127  1  0.93426900  0.78271500  0.50618500  1
  O  O128  1  0.75550700  0.13523400  0.20782700  1
  O  O129  1  0.39695900  0.13580200  0.73345300  1
  O  O130  1  0.85386500  0.84202700  0.12320800  1
  O  O131  1  0.94713600  0.80521100  0.86588400  1
