# generated using pymatgen
data_Tl2TeO3
_symmetry_space_group_name_H-M   'P 1'
_cell_length_a   5.44089000
_cell_length_b   11.47296500
_cell_length_c   17.07386400
_cell_angle_alpha   90.00000000
_cell_angle_beta   90.00000000
_cell_angle_gamma   90.00000000
_symmetry_Int_Tables_number   1
_chemical_formula_structural   Tl2TeO3
_chemical_formula_sum   'Tl16 Te8 O24'
_cell_volume   1065.80421201
_cell_formula_units_Z   8
loop_
 _symmetry_equiv_pos_site_id
 _symmetry_equiv_pos_as_xyz
  1  'x, y, z'
loop_
 _atom_site_type_symbol
 _atom_site_label
 _atom_site_symmetry_multiplicity
 _atom_site_fract_x
 _atom_site_fract_y
 _atom_site_fract_z
 _atom_site_occupancy
  Tl  Tl0  1  0.25126000  0.63349100  0.42058100  1
  Tl  Tl1  1  0.25126000  0.36650900  0.57941900  1
  Tl  Tl2  1  0.74874000  0.63349100  0.57941900  1
  Tl  Tl3  1  0.74874000  0.36650900  0.42058100  1
  Tl  Tl4  1  0.74874000  0.86650900  0.07941900  1
  Tl  Tl5  1  0.74874000  0.13349100  0.92058100  1
  Tl  Tl6  1  0.25126000  0.86650900  0.92058100  1
  Tl  Tl7  1  0.25126000  0.13349100  0.07941900  1
  Tl  Tl8  1  0.75270500  0.61580800  0.25091900  1
  Tl  Tl9  1  0.75270500  0.38419200  0.74908100  1
  Tl  Tl10  1  0.24729500  0.61580800  0.74908100  1
  Tl  Tl11  1  0.24729500  0.38419200  0.25091900  1
  Tl  Tl12  1  0.24729500  0.88419200  0.24908100  1
  Tl  Tl13  1  0.24729500  0.11580800  0.75091900  1
  Tl  Tl14  1  0.75270500  0.88419200  0.75091900  1
  Tl  Tl15  1  0.75270500  0.11580800  0.24908100  1
  Te  Te16  1  0.23099300  0.64035000  0.08876900  1
  Te  Te17  1  0.23099300  0.35965000  0.91123100  1
  Te  Te18  1  0.76900700  0.64035000  0.91123100  1
  Te  Te19  1  0.76900700  0.35965000  0.08876900  1
  Te  Te20  1  0.76900700  0.85965000  0.41123100  1
  Te  Te21  1  0.76900700  0.14035000  0.58876900  1
  Te  Te22  1  0.23099300  0.85965000  0.58876900  1
  Te  Te23  1  0.23099300  0.14035000  0.41123100  1
  O  O24  1  0.71550100  0.69992900  0.43679500  1
  O  O25  1  0.71550100  0.30007100  0.56320500  1
  O  O26  1  0.28449900  0.69992900  0.56320500  1
  O  O27  1  0.28449900  0.30007100  0.43679500  1
  O  O28  1  0.28449900  0.80007100  0.06320500  1
  O  O29  1  0.28449900  0.19992900  0.93679500  1
  O  O30  1  0.71550100  0.80007100  0.93679500  1
  O  O31  1  0.71550100  0.19992900  0.06320500  1
  O  O32  1  0.68924600  0.85204100  0.30307400  1
  O  O33  1  0.68924600  0.14795900  0.69692600  1
  O  O34  1  0.31075400  0.85204100  0.69692600  1
  O  O35  1  0.31075400  0.14795900  0.30307400  1
  O  O36  1  0.31075400  0.64795900  0.19692600  1
  O  O37  1  0.31075400  0.35204100  0.80307400  1
  O  O38  1  0.68924600  0.64795900  0.80307400  1
  O  O39  1  0.68924600  0.35204100  0.19692600  1
  O  O40  1  0.11796200  0.85342200  0.40305000  1
  O  O41  1  0.11796200  0.14657800  0.59695000  1
  O  O42  1  0.88203800  0.85342200  0.59695000  1
  O  O43  1  0.88203800  0.14657800  0.40305000  1
  O  O44  1  0.88203800  0.64657800  0.09695000  1
  O  O45  1  0.88203800  0.35342200  0.90305000  1
  O  O46  1  0.11796200  0.64657800  0.90305000  1
  O  O47  1  0.11796200  0.35342200  0.09695000  1
