# generated using pymatgen
data_CsUP3O11
_symmetry_space_group_name_H-M   'P 1'
_cell_length_a   11.13989900
_cell_length_b   7.12839800
_cell_length_c   13.66072565
_cell_angle_alpha   73.85116858
_cell_angle_beta   90.00000000
_cell_angle_gamma   90.00000000
_symmetry_Int_Tables_number   1
_chemical_formula_structural   CsUP3O11
_chemical_formula_sum   'Cs4 U4 P12 O44'
_cell_volume   1041.98994707
_cell_formula_units_Z   4
loop_
 _symmetry_equiv_pos_site_id
 _symmetry_equiv_pos_as_xyz
  1  'x, y, z'
loop_
 _atom_site_type_symbol
 _atom_site_label
 _atom_site_symmetry_multiplicity
 _atom_site_fract_x
 _atom_site_fract_y
 _atom_site_fract_z
 _atom_site_occupancy
  Cs  Cs0  1  0.49474500  0.33563200  0.88916000  1
  Cs  Cs1  1  0.99474500  0.66436800  0.61084000  1
  Cs  Cs2  1  0.50525500  0.66436800  0.11084000  1
  Cs  Cs3  1  0.00525500  0.33563200  0.38916000  1
  U  U4  1  0.73106300  0.15589800  0.67327700  1
  U  U5  1  0.23106300  0.84410200  0.82672300  1
  U  U6  1  0.76893700  0.15589800  0.17327700  1
  U  U7  1  0.26893700  0.84410200  0.32672300  1
  P  P8  1  0.79959800  0.71606200  0.88629500  1
  P  P9  1  0.20040200  0.28393800  0.11370500  1
  P  P10  1  0.12812700  0.68032600  0.10844600  1
  P  P11  1  0.70040200  0.71606200  0.38629500  1
  P  P12  1  0.87187300  0.31967400  0.89155400  1
  P  P13  1  0.37187300  0.68032600  0.60844600  1
  P  P14  1  0.62812700  0.31967400  0.39155400  1
  P  P15  1  0.13886600  0.29063600  0.90456500  1
  P  P16  1  0.29959800  0.28393800  0.61370500  1
  P  P17  1  0.86113400  0.70936400  0.09543500  1
  P  P18  1  0.36113400  0.29063600  0.40456500  1
  P  P19  1  0.63886600  0.70936400  0.59543500  1
  O  O20  1  0.68051500  0.63593500  0.92587800  1
  O  O21  1  0.71826700  0.86324400  0.61753800  1
  O  O22  1  0.71366500  0.26101800  0.32045400  1
  O  O23  1  0.38305600  0.23934100  0.52499700  1
  O  O24  1  0.61694400  0.76065900  0.47500300  1
  O  O25  1  0.68825000  0.89377800  0.29670900  1
  O  O26  1  0.11694400  0.23934100  0.02499700  1
  O  O27  1  0.38421400  0.44594600  0.64451200  1
  O  O28  1  0.50525600  0.74082800  0.63459000  1
  O  O29  1  0.88305600  0.76065900  0.97500300  1
  O  O30  1  0.37834600  0.78427200  0.88359000  1
  O  O31  1  0.81948500  0.63593500  0.42587800  1
  O  O32  1  0.28173300  0.13675600  0.38246200  1
  O  O33  1  0.11578600  0.44594600  0.14451200  1
  O  O34  1  0.28633500  0.73898200  0.67954600  1
  O  O35  1  0.78173300  0.86324400  0.11753800  1
  O  O36  1  0.78633500  0.26101800  0.82045400  1
  O  O37  1  0.18051500  0.36406500  0.57412200  1
  O  O38  1  0.15190300  0.75179400  0.99621000  1
  O  O39  1  0.81175000  0.89377800  0.79670900  1
  O  O40  1  0.88421400  0.55405400  0.85548800  1
  O  O41  1  0.31948500  0.36406500  0.07412200  1
  O  O42  1  0.91487400  0.10243800  0.23075800  1
  O  O43  1  0.62165400  0.21572800  0.11641000  1
  O  O44  1  0.41487400  0.89756200  0.26924200  1
  O  O45  1  0.32229300  0.49918900  0.36082500  1
  O  O46  1  0.82229300  0.50081100  0.13917500  1
  O  O47  1  0.99474400  0.74082800  0.13459000  1
  O  O48  1  0.84809700  0.24820600  0.00379000  1
  O  O49  1  0.17770700  0.49918900  0.86082500  1
  O  O50  1  0.18825000  0.10622200  0.20329100  1
  O  O51  1  0.08512600  0.89756200  0.76924200  1
  O  O52  1  0.67770700  0.50081100  0.63917500  1
  O  O53  1  0.87834600  0.21572800  0.61641000  1
  O  O54  1  0.12165400  0.78427200  0.38359000  1
  O  O55  1  0.58512600  0.10243800  0.73075800  1
  O  O56  1  0.00525600  0.25917200  0.86541000  1
  O  O57  1  0.21366500  0.73898200  0.17954600  1
  O  O58  1  0.65190300  0.24820600  0.50379000  1
  O  O59  1  0.21826700  0.13675600  0.88246200  1
  O  O60  1  0.34809700  0.75179400  0.49621000  1
  O  O61  1  0.61578600  0.55405400  0.35548800  1
  O  O62  1  0.49474400  0.25917200  0.36541000  1
  O  O63  1  0.31175000  0.10622200  0.70329100  1
