# generated using pymatgen
data_SmMoO4F
_symmetry_space_group_name_H-M   'P 1'
_cell_length_a   12.64376600
_cell_length_b   5.35258900
_cell_length_c   6.86824596
_cell_angle_alpha   67.23990440
_cell_angle_beta   90.00000000
_cell_angle_gamma   90.00000000
_symmetry_Int_Tables_number   1
_chemical_formula_structural   SmMoO4F
_chemical_formula_sum   'Sm4 Mo4 O16 F4'
_cell_volume   428.62713828
_cell_formula_units_Z   4
loop_
 _symmetry_equiv_pos_site_id
 _symmetry_equiv_pos_as_xyz
  1  'x, y, z'
loop_
 _atom_site_type_symbol
 _atom_site_label
 _atom_site_symmetry_multiplicity
 _atom_site_fract_x
 _atom_site_fract_y
 _atom_site_fract_z
 _atom_site_occupancy
  Sm  Sm0  1  0.05269300  0.36173400  0.79960200  1
  Sm  Sm1  1  0.44730700  0.36173400  0.29960200  1
  Sm  Sm2  1  0.55269300  0.63826600  0.70039800  1
  Sm  Sm3  1  0.94730700  0.63826600  0.20039800  1
  Mo  Mo4  1  0.35728500  0.07750900  0.86998700  1
  Mo  Mo5  1  0.64271500  0.92249100  0.13001300  1
  Mo  Mo6  1  0.85728500  0.92249100  0.63001300  1
  Mo  Mo7  1  0.14271500  0.07750900  0.36998700  1
  O  O8  1  0.56619700  0.69503500  0.04008500  1
  O  O9  1  0.43380300  0.30496500  0.95991500  1
  O  O10  1  0.72598300  0.80745100  0.70585600  1
  O  O11  1  0.34727600  0.76605600  0.08727200  1
  O  O12  1  0.27401700  0.19254900  0.29414400  1
  O  O13  1  0.77401700  0.80745100  0.20585600  1
  O  O14  1  0.84727600  0.23394400  0.41272800  1
  O  O15  1  0.65272400  0.23394400  0.91272800  1
  O  O16  1  0.06930900  0.00788900  0.16513600  1
  O  O17  1  0.06619700  0.30496500  0.45991500  1
  O  O18  1  0.43069100  0.00788900  0.66513600  1
  O  O19  1  0.22598300  0.19254900  0.79414400  1
  O  O20  1  0.15272400  0.76605600  0.58727200  1
  O  O21  1  0.93069100  0.99211100  0.83486400  1
  O  O22  1  0.56930900  0.99211100  0.33486400  1
  O  O23  1  0.93380300  0.69503500  0.54008500  1
  F  F24  1  0.59764200  0.44833100  0.46532500  1
  F  F25  1  0.40235800  0.55166900  0.53467500  1
  F  F26  1  0.09764200  0.55166900  0.03467500  1
  F  F27  1  0.90235800  0.44833100  0.96532500  1
