# generated using pymatgen
data_Na3Ca2BiO6
_symmetry_space_group_name_H-M   'P 1'
_cell_length_a   11.20859652
_cell_length_b   10.64879257
_cell_length_c   5.94066965
_cell_angle_alpha   79.50049970
_cell_angle_beta   69.09102403
_cell_angle_gamma   31.40847627
_symmetry_Int_Tables_number   1
_chemical_formula_structural   Na3Ca2BiO6
_chemical_formula_sum   'Na6 Ca4 Bi2 O12'
_cell_volume   334.10434933
_cell_formula_units_Z   2
loop_
 _symmetry_equiv_pos_site_id
 _symmetry_equiv_pos_as_xyz
  1  'x, y, z'
loop_
 _atom_site_type_symbol
 _atom_site_label
 _atom_site_symmetry_multiplicity
 _atom_site_fract_x
 _atom_site_fract_y
 _atom_site_fract_z
 _atom_site_occupancy
  Na  Na0  1  0.58673300  0.58673300  0.91326700  1
  Na  Na1  1  0.91326700  0.91326700  0.58673300  1
  Na  Na2  1  0.66326700  0.66326700  0.33673300  1
  Na  Na3  1  0.33673300  0.33673300  0.66326700  1
  Na  Na4  1  0.50000000  0.50000000  0.50000000  1
  Na  Na5  1  0.75000000  0.75000000  0.75000000  1
  Ca  Ca6  1  0.08053700  0.08053700  0.41946300  1
  Ca  Ca7  1  0.83053700  0.83053700  0.16946300  1
  Ca  Ca8  1  0.41946300  0.41946300  0.08053700  1
  Ca  Ca9  1  0.16946300  0.16946300  0.83053700  1
  Bi  Bi10  1  0.25000000  0.25000000  0.25000000  1
  Bi  Bi11  1  0.00000000  0.00000000  0.00000000  1
  O  O12  1  0.39260800  0.95255700  0.09769100  1
  O  O13  1  0.09769100  0.55714300  0.39260800  1
  O  O14  1  0.55714300  0.09769100  0.95255700  1
  O  O15  1  0.15230900  0.69285700  0.85739200  1
  O  O16  1  0.22289500  0.77710500  0.22289500  1
  O  O17  1  0.29744300  0.85739200  0.69285700  1
  O  O18  1  0.02710500  0.47289500  0.02710500  1
  O  O19  1  0.47289500  0.02710500  0.47289500  1
  O  O20  1  0.69285700  0.15230900  0.29744300  1
  O  O21  1  0.85739200  0.29744300  0.15230900  1
  O  O22  1  0.95255700  0.39260800  0.55714300  1
  O  O23  1  0.77710500  0.22289500  0.77710500  1
