# generated using pymatgen
data_Rb3Ti3Te11
_symmetry_space_group_name_H-M   'P 1'
_cell_length_a   15.67103700
_cell_length_b   10.81737400
_cell_length_c   18.26410529
_cell_angle_alpha   55.41386731
_cell_angle_beta   90.00000000
_cell_angle_gamma   90.00000000
_symmetry_Int_Tables_number   1
_chemical_formula_structural   Rb3Ti3Te11
_chemical_formula_sum   'Rb12 Ti12 Te44'
_cell_volume   2548.95558130
_cell_formula_units_Z   4
loop_
 _symmetry_equiv_pos_site_id
 _symmetry_equiv_pos_as_xyz
  1  'x, y, z'
loop_
 _atom_site_type_symbol
 _atom_site_label
 _atom_site_symmetry_multiplicity
 _atom_site_fract_x
 _atom_site_fract_y
 _atom_site_fract_z
 _atom_site_occupancy
  Rb  Rb0  1  0.47417400  0.42713900  0.14836900  1
  Rb  Rb1  1  0.52582600  0.57286100  0.85163100  1
  Rb  Rb2  1  0.37792300  0.71088900  0.55709900  1
  Rb  Rb3  1  0.38934500  0.07358000  0.87625600  1
  Rb  Rb4  1  0.88934500  0.92642000  0.62374400  1
  Rb  Rb5  1  0.02582600  0.42713900  0.64836900  1
  Rb  Rb6  1  0.61065500  0.92642000  0.12374400  1
  Rb  Rb7  1  0.87792300  0.28911100  0.94290100  1
  Rb  Rb8  1  0.12207700  0.71088900  0.05709900  1
  Rb  Rb9  1  0.97417400  0.57286100  0.35163100  1
  Rb  Rb10  1  0.62207700  0.28911100  0.44290100  1
  Rb  Rb11  1  0.11065500  0.07358000  0.37625600  1
  Ti  Ti12  1  0.81142000  0.95335000  0.32400100  1
  Ti  Ti13  1  0.28485200  0.34221300  0.97789500  1
  Ti  Ti14  1  0.70105500  0.34953600  0.68079400  1
  Ti  Ti15  1  0.21514800  0.34221300  0.47789500  1
  Ti  Ti16  1  0.78485200  0.65778700  0.52210500  1
  Ti  Ti17  1  0.79894500  0.34953600  0.18079400  1
  Ti  Ti18  1  0.68858000  0.95335000  0.82400100  1
  Ti  Ti19  1  0.18858000  0.04665000  0.67599900  1
  Ti  Ti20  1  0.20105500  0.65046400  0.81920600  1
  Ti  Ti21  1  0.31142000  0.04665000  0.17599900  1
  Ti  Ti22  1  0.29894500  0.65046400  0.31920600  1
  Ti  Ti23  1  0.71514800  0.65778700  0.02210500  1
  Te  Te24  1  0.92877400  0.14545900  0.19109900  1
  Te  Te25  1  0.78146400  0.68871500  0.86935700  1
  Te  Te26  1  0.56425400  0.78326100  0.95442400  1
  Te  Te27  1  0.21853600  0.31128500  0.13064300  1
  Te  Te28  1  0.29033400  0.44635500  0.80611200  1
  Te  Te29  1  0.33501000  0.83228900  0.13212200  1
  Te  Te30  1  0.42877400  0.85454100  0.30890100  1
  Te  Te31  1  0.34670100  0.08720300  0.31132700  1
  Te  Te32  1  0.61034700  0.58495300  0.52626600  1
  Te  Te33  1  0.57122600  0.14545900  0.69109900  1
  Te  Te34  1  0.38965300  0.41504700  0.47373400  1
  Te  Te35  1  0.65329900  0.91279700  0.68867300  1
  Te  Te36  1  0.69625900  0.36354300  0.05095800  1
  Te  Te37  1  0.83501000  0.16771100  0.36787800  1
  Te  Te38  1  0.80374100  0.36354300  0.55095800  1
  Te  Te39  1  0.46273200  0.59585800  0.27809400  1
  Te  Te40  1  0.71853600  0.68871500  0.36935700  1
  Te  Te41  1  0.03726800  0.59585800  0.77809400  1
  Te  Te42  1  0.28146400  0.31128500  0.63064300  1
  Te  Te43  1  0.15329900  0.08720300  0.81132700  1
  Te  Te44  1  0.30374100  0.63645700  0.94904200  1
  Te  Te45  1  0.29574700  0.06368200  0.54358500  1
  Te  Te46  1  0.33608200  0.85822100  0.76375000  1
  Te  Te47  1  0.83608200  0.14177900  0.73625000  1
  Te  Te48  1  0.70966600  0.55364500  0.19388800  1
  Te  Te49  1  0.16391800  0.85822100  0.26375000  1
  Te  Te50  1  0.79033400  0.55364500  0.69388800  1
  Te  Te51  1  0.93574600  0.78326100  0.45442400  1
  Te  Te52  1  0.79574700  0.93631800  0.95641500  1
  Te  Te53  1  0.06425400  0.21673900  0.54557600  1
  Te  Te54  1  0.07122600  0.85454100  0.80890100  1
  Te  Te55  1  0.53726800  0.40414200  0.72190600  1
  Te  Te56  1  0.70425300  0.93631800  0.45641500  1
  Te  Te57  1  0.20425300  0.06368200  0.04358500  1
  Te  Te58  1  0.11034700  0.41504700  0.97373400  1
  Te  Te59  1  0.66499000  0.16771100  0.86787800  1
  Te  Te60  1  0.88965300  0.58495300  0.02626600  1
  Te  Te61  1  0.43574600  0.21673900  0.04557600  1
  Te  Te62  1  0.96273200  0.40414200  0.22190600  1
  Te  Te63  1  0.19625900  0.63645700  0.44904200  1
  Te  Te64  1  0.20966600  0.44635500  0.30611200  1
  Te  Te65  1  0.66391800  0.14177900  0.23625000  1
  Te  Te66  1  0.16499000  0.83228900  0.63212200  1
  Te  Te67  1  0.84670100  0.91279700  0.18867300  1
