# generated using pymatgen
data_Rb2ZnO2
_symmetry_space_group_name_H-M   'P 1'
_cell_length_a   6.43856100
_cell_length_b   9.73424000
_cell_length_c   16.14964916
_cell_angle_alpha   61.18448392
_cell_angle_beta   90.00000000
_cell_angle_gamma   90.00000000
_symmetry_Int_Tables_number   1
_chemical_formula_structural   Rb2ZnO2
_chemical_formula_sum   'Rb16 Zn8 O16'
_cell_volume   886.84026129
_cell_formula_units_Z   8
loop_
 _symmetry_equiv_pos_site_id
 _symmetry_equiv_pos_as_xyz
  1  'x, y, z'
loop_
 _atom_site_type_symbol
 _atom_site_label
 _atom_site_symmetry_multiplicity
 _atom_site_fract_x
 _atom_site_fract_y
 _atom_site_fract_z
 _atom_site_occupancy
  Rb  Rb0  1  0.58201000  0.67768500  0.23884100  1
  Rb  Rb1  1  0.37001400  0.91957100  0.33661500  1
  Rb  Rb2  1  0.62998600  0.08042900  0.66338500  1
  Rb  Rb3  1  0.87001400  0.08042900  0.16338500  1
  Rb  Rb4  1  0.32433800  0.14459300  0.02770100  1
  Rb  Rb5  1  0.41799000  0.32231500  0.76115900  1
  Rb  Rb6  1  0.56628500  0.43291400  0.12096100  1
  Rb  Rb7  1  0.17566200  0.14459300  0.52770100  1
  Rb  Rb8  1  0.06628500  0.56708600  0.37903900  1
  Rb  Rb9  1  0.93371500  0.43291400  0.62096100  1
  Rb  Rb10  1  0.67566200  0.85540700  0.97229900  1
  Rb  Rb11  1  0.08201000  0.32231500  0.26115900  1
  Rb  Rb12  1  0.12998600  0.91957100  0.83661500  1
  Rb  Rb13  1  0.82433800  0.85540700  0.47229900  1
  Rb  Rb14  1  0.43371500  0.56708600  0.87903900  1
  Rb  Rb15  1  0.91799000  0.67768500  0.73884100  1
  Zn  Zn16  1  0.55301800  0.41256100  0.45994500  1
  Zn  Zn17  1  0.87274400  0.23993600  0.87134100  1
  Zn  Zn18  1  0.44698200  0.58743900  0.54005500  1
  Zn  Zn19  1  0.12725600  0.76006400  0.12865900  1
  Zn  Zn20  1  0.62725600  0.23993600  0.37134100  1
  Zn  Zn21  1  0.94698200  0.41256100  0.95994500  1
  Zn  Zn22  1  0.05301800  0.58743900  0.04005500  1
  Zn  Zn23  1  0.37274400  0.76006400  0.62865900  1
  O  O24  1  0.86686400  0.63353800  0.92740600  1
  O  O25  1  0.22119900  0.74207300  0.52755300  1
  O  O26  1  0.19540100  0.86145700  0.19792400  1
  O  O27  1  0.30459900  0.86145700  0.69792400  1
  O  O28  1  0.72119900  0.25792700  0.97244700  1
  O  O29  1  0.39870200  0.38169700  0.35811500  1
  O  O30  1  0.60129800  0.61830300  0.64188500  1
  O  O31  1  0.13313600  0.36646200  0.07259400  1
  O  O32  1  0.27880100  0.74207300  0.02755300  1
  O  O33  1  0.80459900  0.13854300  0.80207600  1
  O  O34  1  0.89870200  0.61830300  0.14188500  1
  O  O35  1  0.69540100  0.13854300  0.30207600  1
  O  O36  1  0.10129800  0.38169700  0.85811500  1
  O  O37  1  0.77880100  0.25792700  0.47244700  1
  O  O38  1  0.36686400  0.36646200  0.57259400  1
  O  O39  1  0.63313600  0.63353800  0.42740600  1
