# generated using pymatgen
data_Cs2SiO3
_symmetry_space_group_name_H-M   'P 1'
_cell_length_a   14.08238400
_cell_length_b   6.95645900
_cell_length_c   17.36277166
_cell_angle_alpha   71.82149351
_cell_angle_beta   90.00000000
_cell_angle_gamma   90.00000000
_symmetry_Int_Tables_number   1
_chemical_formula_structural   Cs2SiO3
_chemical_formula_sum   'Cs24 Si12 O36'
_cell_volume   1616.02407144
_cell_formula_units_Z   12
loop_
 _symmetry_equiv_pos_site_id
 _symmetry_equiv_pos_as_xyz
  1  'x, y, z'
loop_
 _atom_site_type_symbol
 _atom_site_label
 _atom_site_symmetry_multiplicity
 _atom_site_fract_x
 _atom_site_fract_y
 _atom_site_fract_z
 _atom_site_occupancy
  Cs  Cs0  1  0.65611600  0.45397700  0.50798800  1
  Cs  Cs1  1  0.15611600  0.54602300  0.99201200  1
  Cs  Cs2  1  0.19150200  0.86476300  0.30829700  1
  Cs  Cs3  1  0.58568500  0.28124500  0.96703400  1
  Cs  Cs4  1  0.89406400  0.01609500  0.91447500  1
  Cs  Cs5  1  0.60593600  0.01609500  0.41447500  1
  Cs  Cs6  1  0.69150200  0.13523700  0.19170300  1
  Cs  Cs7  1  0.62268600  0.87779700  0.86424100  1
  Cs  Cs8  1  0.41431500  0.71875500  0.03296600  1
  Cs  Cs9  1  0.87731400  0.87779700  0.36424100  1
  Cs  Cs10  1  0.30849800  0.86476300  0.80829700  1
  Cs  Cs11  1  0.98802900  0.34540800  0.21834900  1
  Cs  Cs12  1  0.91431500  0.28124500  0.46703400  1
  Cs  Cs13  1  0.01197100  0.65459200  0.78165100  1
  Cs  Cs14  1  0.12268600  0.12220300  0.63575900  1
  Cs  Cs15  1  0.10593600  0.98390500  0.08552500  1
  Cs  Cs16  1  0.39406400  0.98390500  0.58552500  1
  Cs  Cs17  1  0.37731400  0.12220300  0.13575900  1
  Cs  Cs18  1  0.84388400  0.45397700  0.00798800  1
  Cs  Cs19  1  0.08568500  0.71875500  0.53296600  1
  Cs  Cs20  1  0.51197100  0.34540800  0.71834900  1
  Cs  Cs21  1  0.48802900  0.65459200  0.28165100  1
  Cs  Cs22  1  0.80849800  0.13523700  0.69170300  1
  Cs  Cs23  1  0.34388400  0.54602300  0.49201200  1
  Si  Si24  1  0.65500900  0.72339200  0.10642100  1
  Si  Si25  1  0.25350000  0.45139400  0.72183500  1
  Si  Si26  1  0.15500900  0.27660800  0.39357900  1
  Si  Si27  1  0.86571200  0.82975600  0.13446300  1
  Si  Si28  1  0.75350000  0.54860600  0.77816500  1
  Si  Si29  1  0.74650000  0.54860600  0.27816500  1
  Si  Si30  1  0.24650000  0.45139400  0.22183500  1
  Si  Si31  1  0.84499100  0.72339200  0.60642100  1
  Si  Si32  1  0.63428800  0.82975600  0.63446300  1
  Si  Si33  1  0.13428800  0.17024400  0.86553700  1
  Si  Si34  1  0.34499100  0.27660800  0.89357900  1
  Si  Si35  1  0.36571200  0.17024400  0.36553700  1
  O  O36  1  0.22683100  0.68629200  0.67523200  1
  O  O37  1  0.29725100  0.32241900  0.66637700  1
  O  O38  1  0.86125600  0.59388800  0.54417400  1
  O  O39  1  0.84465600  0.67158100  0.22947100  1
  O  O40  1  0.27316900  0.68629200  0.17523200  1
  O  O41  1  0.34465600  0.32841900  0.27052900  1
  O  O42  1  0.75917000  0.85289700  0.08633500  1
  O  O43  1  0.65534400  0.67158100  0.72947100  1
  O  O44  1  0.15534400  0.32841900  0.77052900  1
  O  O45  1  0.17107800  0.44174900  0.29913100  1
  O  O46  1  0.57113100  0.88280200  0.10818000  1
  O  O47  1  0.07113100  0.11719800  0.39182000  1
  O  O48  1  0.44040100  0.27405500  0.41204500  1
  O  O49  1  0.10279300  0.95054300  0.85986500  1
  O  O50  1  0.82892200  0.55825100  0.70086900  1
  O  O51  1  0.77316900  0.31370800  0.32476800  1
  O  O52  1  0.74083000  0.85289700  0.58633500  1
  O  O53  1  0.24083000  0.14710300  0.91366500  1
  O  O54  1  0.13874400  0.40611200  0.45582600  1
  O  O55  1  0.20274900  0.32241900  0.16637700  1
  O  O56  1  0.60279300  0.04945700  0.64013500  1
  O  O57  1  0.32892200  0.44174900  0.79913100  1
  O  O58  1  0.39720700  0.95054300  0.35986500  1
  O  O59  1  0.72683100  0.31370800  0.82476800  1
  O  O60  1  0.25917000  0.14710300  0.41366500  1
  O  O61  1  0.79725100  0.67758100  0.83362300  1
  O  O62  1  0.67107800  0.55825100  0.20086900  1
  O  O63  1  0.70274900  0.67758100  0.33362300  1
  O  O64  1  0.36125600  0.40611200  0.95582600  1
  O  O65  1  0.55959900  0.72594500  0.58795500  1
  O  O66  1  0.63874400  0.59388800  0.04417400  1
  O  O67  1  0.89720700  0.04945700  0.14013500  1
  O  O68  1  0.92886900  0.88280200  0.60818000  1
  O  O69  1  0.05959900  0.27405500  0.91204500  1
  O  O70  1  0.94040100  0.72594500  0.08795500  1
  O  O71  1  0.42886900  0.11719800  0.89182000  1
