# generated using pymatgen
data_YB7Mo3
_symmetry_space_group_name_H-M   'P 1'
_cell_length_a   3.11051800
_cell_length_b   11.04284400
_cell_length_c   12.91901900
_cell_angle_alpha   90.00000000
_cell_angle_beta   90.00000000
_cell_angle_gamma   90.00000000
_symmetry_Int_Tables_number   1
_chemical_formula_structural   YB7Mo3
_chemical_formula_sum   'Y4 B28 Mo12'
_cell_volume   443.75493189
_cell_formula_units_Z   4
loop_
 _symmetry_equiv_pos_site_id
 _symmetry_equiv_pos_as_xyz
  1  'x, y, z'
loop_
 _atom_site_type_symbol
 _atom_site_label
 _atom_site_symmetry_multiplicity
 _atom_site_fract_x
 _atom_site_fract_y
 _atom_site_fract_z
 _atom_site_occupancy
  Y  Y0  1  0.75000000  0.94892200  0.30824400  1
  Y  Y1  1  0.25000000  0.05107800  0.69175600  1
  Y  Y2  1  0.75000000  0.44892200  0.19175600  1
  Y  Y3  1  0.25000000  0.55107800  0.80824400  1
  B  B4  1  0.75000000  0.51055000  0.63723200  1
  B  B5  1  0.25000000  0.48945000  0.36276800  1
  B  B6  1  0.75000000  0.01055000  0.86276800  1
  B  B7  1  0.25000000  0.98945000  0.13723200  1
  B  B8  1  0.75000000  0.66628200  0.66683700  1
  B  B9  1  0.25000000  0.33371800  0.33316300  1
  B  B10  1  0.75000000  0.16628200  0.83316300  1
  B  B11  1  0.25000000  0.83371800  0.16683700  1
  B  B12  1  0.75000000  0.68645700  0.93339000  1
  B  B13  1  0.25000000  0.31354300  0.06661000  1
  B  B14  1  0.75000000  0.18645700  0.56661000  1
  B  B15  1  0.25000000  0.81354300  0.43339000  1
  B  B16  1  0.75000000  0.56793700  0.38390700  1
  B  B17  1  0.25000000  0.43206300  0.61609300  1
  B  B18  1  0.75000000  0.06793700  0.11609300  1
  B  B19  1  0.25000000  0.93206300  0.88390700  1
  B  B20  1  0.75000000  0.53745500  0.98198000  1
  B  B21  1  0.25000000  0.46254500  0.01802000  1
  B  B22  1  0.75000000  0.03745500  0.51802000  1
  B  B23  1  0.25000000  0.96254500  0.48198000  1
  B  B24  1  0.75000000  0.74917100  0.17348400  1
  B  B25  1  0.25000000  0.25082900  0.82651600  1
  B  B26  1  0.75000000  0.24917100  0.32651600  1
  B  B27  1  0.25000000  0.75082900  0.67348400  1
  B  B28  1  0.75000000  0.73027600  0.41814000  1
  B  B29  1  0.25000000  0.26972400  0.58186000  1
  B  B30  1  0.75000000  0.23027600  0.08186000  1
  B  B31  1  0.25000000  0.76972400  0.91814000  1
  Mo  Mo32  1  0.75000000  0.81537500  0.79786300  1
  Mo  Mo33  1  0.25000000  0.18462500  0.20213700  1
  Mo  Mo34  1  0.75000000  0.31537500  0.70213700  1
  Mo  Mo35  1  0.25000000  0.68462500  0.29786300  1
  Mo  Mo36  1  0.75000000  0.83982300  0.56386600  1
  Mo  Mo37  1  0.25000000  0.16017700  0.43613400  1
  Mo  Mo38  1  0.75000000  0.33982300  0.93613400  1
  Mo  Mo39  1  0.25000000  0.66017700  0.06386600  1
  Mo  Mo40  1  0.75000000  0.88245100  0.02698300  1
  Mo  Mo41  1  0.25000000  0.11754900  0.97301700  1
  Mo  Mo42  1  0.75000000  0.38245100  0.47301700  1
  Mo  Mo43  1  0.25000000  0.61754900  0.52698300  1
