# generated using pymatgen
data_K3Sn5Cl3F10
_symmetry_space_group_name_H-M   'P 1'
_cell_length_a   10.11677672
_cell_length_b   10.11677672
_cell_length_c   20.90941600
_cell_angle_alpha   90.00000000
_cell_angle_beta   90.00000000
_cell_angle_gamma   155.00462041
_symmetry_Int_Tables_number   1
_chemical_formula_structural   K3Sn5Cl3F10
_chemical_formula_sum   'K6 Sn10 Cl6 F20'
_cell_volume   904.27261711
_cell_formula_units_Z   2
loop_
 _symmetry_equiv_pos_site_id
 _symmetry_equiv_pos_as_xyz
  1  'x, y, z'
loop_
 _atom_site_type_symbol
 _atom_site_label
 _atom_site_symmetry_multiplicity
 _atom_site_fract_x
 _atom_site_fract_y
 _atom_site_fract_z
 _atom_site_occupancy
  K  K0  1  0.00000000  0.00000000  0.00000000  1
  K  K1  1  0.55948700  0.44051300  0.16266400  1
  K  K2  1  0.55948700  0.44051300  0.33733600  1
  K  K3  1  0.44051300  0.55948700  0.66266400  1
  K  K4  1  0.44051300  0.55948700  0.83733600  1
  K  K5  1  0.00000000  0.00000000  0.50000000  1
  Sn  Sn6  1  0.20235600  0.79764400  0.25000000  1
  Sn  Sn7  1  0.79764400  0.20235600  0.75000000  1
  Sn  Sn8  1  0.87322700  0.12677300  0.14931400  1
  Sn  Sn9  1  0.12677300  0.87322700  0.85068600  1
  Sn  Sn10  1  0.67153200  0.32846800  0.50035700  1
  Sn  Sn11  1  0.32846800  0.67153200  0.00035700  1
  Sn  Sn12  1  0.87322700  0.12677300  0.35068600  1
  Sn  Sn13  1  0.67153200  0.32846800  0.99964300  1
  Sn  Sn14  1  0.12677300  0.87322700  0.64931400  1
  Sn  Sn15  1  0.32846800  0.67153200  0.49964300  1
  Cl  Cl16  1  0.81561900  0.18438100  0.88706400  1
  Cl  Cl17  1  0.57938200  0.42061700  0.75000000  1
  Cl  Cl18  1  0.42061700  0.57938200  0.25000000  1
  Cl  Cl19  1  0.18438100  0.81561900  0.11293600  1
  Cl  Cl20  1  0.18438100  0.81561900  0.38706400  1
  Cl  Cl21  1  0.81561900  0.18438100  0.61293600  1
  F  F22  1  0.85685900  0.14314100  0.03819300  1
  F  F23  1  0.97525700  0.02474300  0.12769100  1
  F  F24  1  0.62552800  0.37447200  0.60150800  1
  F  F25  1  0.90415200  0.09584800  0.75000000  1
  F  F26  1  0.14314100  0.85685900  0.96180700  1
  F  F27  1  0.97525700  0.02474300  0.37230900  1
  F  F28  1  0.02474300  0.97525700  0.87230900  1
  F  F29  1  0.02474300  0.97525700  0.62769100  1
  F  F30  1  0.32640200  0.67359800  0.75000000  1
  F  F31  1  0.42696800  0.57303200  0.53330300  1
  F  F32  1  0.37447200  0.62552800  0.10150800  1
  F  F33  1  0.67359800  0.32640200  0.25000000  1
  F  F34  1  0.57303200  0.42696800  0.46669700  1
  F  F35  1  0.37447200  0.62552800  0.39849200  1
  F  F36  1  0.14314100  0.85685900  0.53819300  1
  F  F37  1  0.57303200  0.42696800  0.03330300  1
  F  F38  1  0.62552800  0.37447200  0.89849200  1
  F  F39  1  0.85685900  0.14314100  0.46180700  1
  F  F40  1  0.09584800  0.90415200  0.25000000  1
  F  F41  1  0.42696800  0.57303200  0.96669700  1
