# generated using pymatgen
data_Ba7B4S13
_symmetry_space_group_name_H-M   'P 1'
_cell_length_a   13.18921890
_cell_length_b   13.18921890
_cell_length_c   10.28688689
_cell_angle_alpha   89.98055019
_cell_angle_beta   89.98055019
_cell_angle_gamma   134.04816449
_symmetry_Int_Tables_number   1
_chemical_formula_structural   Ba7B4S13
_chemical_formula_sum   'Ba14 B8 S26'
_cell_volume   1286.18426395
_cell_formula_units_Z   2
loop_
 _symmetry_equiv_pos_site_id
 _symmetry_equiv_pos_as_xyz
  1  'x, y, z'
loop_
 _atom_site_type_symbol
 _atom_site_label
 _atom_site_symmetry_multiplicity
 _atom_site_fract_x
 _atom_site_fract_y
 _atom_site_fract_z
 _atom_site_occupancy
  Ba  Ba0  1  0.00844700  0.99155300  0.25000000  1
  Ba  Ba1  1  0.99155300  0.00844700  0.75000000  1
  Ba  Ba2  1  0.10478500  0.45396000  0.85581800  1
  Ba  Ba3  1  0.49764400  0.50235600  0.75000000  1
  Ba  Ba4  1  0.89521500  0.54604000  0.14418200  1
  Ba  Ba5  1  0.50235600  0.49764400  0.25000000  1
  Ba  Ba6  1  0.06603100  0.72239900  0.52980800  1
  Ba  Ba7  1  0.27760100  0.93396900  0.97019200  1
  Ba  Ba8  1  0.33139500  0.66860500  0.25000000  1
  Ba  Ba9  1  0.93396900  0.27760100  0.47019200  1
  Ba  Ba10  1  0.66860500  0.33139500  0.75000000  1
  Ba  Ba11  1  0.72239900  0.06603100  0.02980800  1
  Ba  Ba12  1  0.45396000  0.10478500  0.35581800  1
  Ba  Ba13  1  0.54604000  0.89521500  0.64418200  1
  B  B14  1  0.06783300  0.29183300  0.15008300  1
  B  B15  1  0.71614700  0.48184900  0.43240500  1
  B  B16  1  0.51815100  0.28385300  0.06759500  1
  B  B17  1  0.28385300  0.51815100  0.56759500  1
  B  B18  1  0.70816700  0.93216700  0.34991700  1
  B  B19  1  0.29183300  0.06783300  0.65008300  1
  B  B20  1  0.48184900  0.71614700  0.93240500  1
  B  B21  1  0.93216700  0.70816700  0.84991700  1
  S  S22  1  0.99870400  0.37597300  0.15199500  1
  S  S23  1  0.62402700  0.00129600  0.34800500  1
  S  S24  1  0.16482100  0.31854400  0.29271800  1
  S  S25  1  0.37479100  0.53969300  0.99794500  1
  S  S26  1  0.00129600  0.62402700  0.84800500  1
  S  S27  1  0.62520900  0.46030700  0.00205500  1
  S  S28  1  0.31854400  0.16482100  0.79271800  1
  S  S29  1  0.79582500  0.20417500  0.75000000  1
  S  S30  1  0.82352700  0.97552500  0.48350900  1
  S  S31  1  0.97552500  0.82352700  0.98350900  1
  S  S32  1  0.18693700  0.34874200  0.64725200  1
  S  S33  1  0.37597300  0.99870400  0.65199500  1
  S  S34  1  0.53969300  0.37479100  0.49794500  1
  S  S35  1  0.68145600  0.83517900  0.20728200  1
  S  S36  1  0.83517900  0.68145600  0.70728200  1
  S  S37  1  0.02447500  0.17647300  0.01649100  1
  S  S38  1  0.65125800  0.81306300  0.85274800  1
  S  S39  1  0.20417500  0.79582500  0.25000000  1
  S  S40  1  0.81306300  0.65125800  0.35274800  1
  S  S41  1  0.20791000  0.59482300  0.56122800  1
  S  S42  1  0.40517700  0.79209000  0.93877200  1
  S  S43  1  0.59482300  0.20791000  0.06122800  1
  S  S44  1  0.17647300  0.02447500  0.51649100  1
  S  S45  1  0.34874200  0.18693700  0.14725200  1
  S  S46  1  0.79209000  0.40517700  0.43877200  1
  S  S47  1  0.46030700  0.62520900  0.50205500  1
