# generated using pymatgen
data_BiBPbO4
_symmetry_space_group_name_H-M   'P 1'
_cell_length_a   7.58627200
_cell_length_b   7.64159100
_cell_length_c   10.59933167
_cell_angle_alpha   47.00702733
_cell_angle_beta   90.00000000
_cell_angle_gamma   90.00000000
_symmetry_Int_Tables_number   1
_chemical_formula_structural   BiBPbO4
_chemical_formula_sum   'Bi4 B4 Pb4 O16'
_cell_volume   449.43595260
_cell_formula_units_Z   4
loop_
 _symmetry_equiv_pos_site_id
 _symmetry_equiv_pos_as_xyz
  1  'x, y, z'
loop_
 _atom_site_type_symbol
 _atom_site_label
 _atom_site_symmetry_multiplicity
 _atom_site_fract_x
 _atom_site_fract_y
 _atom_site_fract_z
 _atom_site_occupancy
  Bi  Bi0  1  0.99914300  0.81671700  0.34320300  1
  Bi  Bi1  1  0.50085700  0.81671700  0.84320300  1
  Bi  Bi2  1  0.00085700  0.18328300  0.65679700  1
  Bi  Bi3  1  0.49914300  0.18328300  0.15679700  1
  B  B4  1  0.24292300  0.00051200  0.01152900  1
  B  B5  1  0.75707700  0.99948800  0.98847100  1
  B  B6  1  0.25707700  0.00051200  0.51152900  1
  B  B7  1  0.74292300  0.99948800  0.48847100  1
  Pb  Pb8  1  0.89021300  0.49965900  0.81642700  1
  Pb  Pb9  1  0.60978700  0.49965900  0.31642700  1
  Pb  Pb10  1  0.39021300  0.50034100  0.68357300  1
  Pb  Pb11  1  0.10978700  0.50034100  0.18357300  1
  O  O12  1  0.89732400  0.50100200  0.39631200  1
  O  O13  1  0.78958400  0.79034600  0.52780300  1
  O  O14  1  0.39732400  0.49899800  0.10368800  1
  O  O15  1  0.71041600  0.79034600  0.02780300  1
  O  O16  1  0.70338600  0.20538000  0.31761000  1
  O  O17  1  0.26296700  0.99217000  0.38568400  1
  O  O18  1  0.76296700  0.00783000  0.11431600  1
  O  O19  1  0.10267600  0.49899800  0.60368800  1
  O  O20  1  0.28958400  0.20965400  0.97219700  1
  O  O21  1  0.21041600  0.20965400  0.47219700  1
  O  O22  1  0.23703300  0.99217000  0.88568400  1
  O  O23  1  0.20338600  0.79462000  0.18239000  1
  O  O24  1  0.29661400  0.79462000  0.68239000  1
  O  O25  1  0.73703300  0.00783000  0.61431600  1
  O  O26  1  0.79661400  0.20538000  0.81761000  1
  O  O27  1  0.60267600  0.50100200  0.89631200  1
