# generated using pymatgen
data_BaBi6(PO5)4
_symmetry_space_group_name_H-M   'P 1'
_cell_length_a   7.14766400
_cell_length_b   7.80564199
_cell_length_c   9.27921530
_cell_angle_alpha   107.35319609
_cell_angle_beta   92.37456184
_cell_angle_gamma   111.75213622
_symmetry_Int_Tables_number   1
_chemical_formula_structural   BaBi6(PO5)4
_chemical_formula_sum   'Ba1 Bi6 P4 O20'
_cell_volume   452.16478030
_cell_formula_units_Z   1
loop_
 _symmetry_equiv_pos_site_id
 _symmetry_equiv_pos_as_xyz
  1  'x, y, z'
loop_
 _atom_site_type_symbol
 _atom_site_label
 _atom_site_symmetry_multiplicity
 _atom_site_fract_x
 _atom_site_fract_y
 _atom_site_fract_z
 _atom_site_occupancy
  Ba  Ba0  1  0.00000000  0.50000000  0.00000000  1
  Bi  Bi1  1  0.44178000  0.29658300  0.09017800  1
  Bi  Bi2  1  0.55822000  0.70341700  0.90982200  1
  Bi  Bi3  1  0.79837300  0.80646400  0.32715500  1
  Bi  Bi4  1  0.20162700  0.19353600  0.67284500  1
  Bi  Bi5  1  0.67356300  0.38012200  0.49068200  1
  Bi  Bi6  1  0.32643700  0.61987800  0.50931800  1
  P  P7  1  0.64640500  0.09501400  0.73818100  1
  P  P8  1  0.95869100  0.23028800  0.24900700  1
  P  P9  1  0.04130900  0.76971200  0.75099300  1
  P  P10  1  0.35359500  0.90498600  0.26181900  1
  O  O11  1  0.63622600  0.16778600  0.91108100  1
  O  O12  1  0.86731500  0.67965200  0.83557400  1
  O  O13  1  0.95457000  0.71343400  0.57806400  1
  O  O14  1  0.19760600  0.67317700  0.75650300  1
  O  O15  1  0.36377400  0.83221400  0.08891900  1
  O  O16  1  0.51272100  0.87026400  0.35780500  1
  O  O17  1  0.80239400  0.32682300  0.24349700  1
  O  O18  1  0.85468900  0.00345000  0.17364800  1
  O  O19  1  0.44480300  0.47260800  0.63683700  1
  O  O20  1  0.67181900  0.59745900  0.09852300  1
  O  O21  1  0.60337900  0.87254200  0.68452300  1
  O  O22  1  0.86204000  0.21375900  0.71144700  1
  O  O23  1  0.04543000  0.28656600  0.42193600  1
  O  O24  1  0.13268500  0.32034800  0.16442600  1
  O  O25  1  0.14531100  0.99655000  0.82635200  1
  O  O26  1  0.13796000  0.78624100  0.28855300  1
  O  O27  1  0.32818100  0.40254100  0.90147700  1
  O  O28  1  0.39662100  0.12745800  0.31547700  1
  O  O29  1  0.48727900  0.12973600  0.64219500  1
  O  O30  1  0.55519700  0.52739200  0.36316300  1
