# generated using pymatgen
data_LiEu2CBr3N2
_symmetry_space_group_name_H-M   'P 1'
_cell_length_a   10.33667785
_cell_length_b   10.33667785
_cell_length_c   10.33667785
_cell_angle_alpha   60.00000000
_cell_angle_beta   60.00000000
_cell_angle_gamma   60.00000000
_symmetry_Int_Tables_number   1
_chemical_formula_structural   LiEu2CBr3N2
_chemical_formula_sum   'Li4 Eu8 C4 Br12 N8'
_cell_volume   780.95848146
_cell_formula_units_Z   4
loop_
 _symmetry_equiv_pos_site_id
 _symmetry_equiv_pos_as_xyz
  1  'x, y, z'
loop_
 _atom_site_type_symbol
 _atom_site_label
 _atom_site_symmetry_multiplicity
 _atom_site_fract_x
 _atom_site_fract_y
 _atom_site_fract_z
 _atom_site_occupancy
  Li  Li0  1  0.12500000  0.62500000  0.12500000  1
  Li  Li1  1  0.62500000  0.12500000  0.12500000  1
  Li  Li2  1  0.12500000  0.12500000  0.12500000  1
  Li  Li3  1  0.12500000  0.12500000  0.62500000  1
  Eu  Eu4  1  0.46100600  0.84633100  0.84633100  1
  Eu  Eu5  1  0.40366900  0.40366900  0.78899400  1
  Eu  Eu6  1  0.78899400  0.40366900  0.40366900  1
  Eu  Eu7  1  0.84633100  0.84633100  0.84633100  1
  Eu  Eu8  1  0.40366900  0.40366900  0.40366900  1
  Eu  Eu9  1  0.84633100  0.46100600  0.84633100  1
  Eu  Eu10  1  0.84633100  0.84633100  0.46100600  1
  Eu  Eu11  1  0.40366900  0.78899400  0.40366900  1
  C  C12  1  0.12500000  0.62500000  0.62500000  1
  C  C13  1  0.62500000  0.12500000  0.62500000  1
  C  C14  1  0.62500000  0.62500000  0.12500000  1
  C  C15  1  0.62500000  0.62500000  0.62500000  1
  Br  Br16  1  0.44747300  0.05252700  0.44747300  1
  Br  Br17  1  0.05252700  0.05252700  0.44747300  1
  Br  Br18  1  0.80252700  0.19747300  0.80252700  1
  Br  Br19  1  0.19747300  0.80252700  0.80252700  1
  Br  Br20  1  0.05252700  0.44747300  0.05252700  1
  Br  Br21  1  0.19747300  0.19747300  0.80252700  1
  Br  Br22  1  0.80252700  0.80252700  0.19747300  1
  Br  Br23  1  0.44747300  0.05252700  0.05252700  1
  Br  Br24  1  0.80252700  0.19747300  0.19747300  1
  Br  Br25  1  0.05252700  0.44747300  0.44747300  1
  Br  Br26  1  0.19747300  0.80252700  0.19747300  1
  Br  Br27  1  0.44747300  0.44747300  0.05252700  1
  N  N28  1  0.57621000  0.57621000  0.27137000  1
  N  N29  1  0.67379000  0.67379000  0.97863000  1
  N  N30  1  0.57621000  0.57621000  0.57621000  1
  N  N31  1  0.57621000  0.27137000  0.57621000  1
  N  N32  1  0.67379000  0.97863000  0.67379000  1
  N  N33  1  0.67379000  0.67379000  0.67379000  1
  N  N34  1  0.97863000  0.67379000  0.67379000  1
  N  N35  1  0.27137000  0.57621000  0.57621000  1
