# generated using pymatgen
data_Yb11InSb9
_symmetry_space_group_name_H-M   'P 1'
_cell_length_a   12.03995466
_cell_length_b   12.03995466
_cell_length_c   12.03995466
_cell_angle_alpha   120.92600188
_cell_angle_beta   117.49198983
_cell_angle_gamma   91.40072305
_symmetry_Int_Tables_number   1
_chemical_formula_structural   Yb11InSb9
_chemical_formula_sum   'Yb22 In2 Sb18'
_cell_volume   1247.11705806
_cell_formula_units_Z   2
loop_
 _symmetry_equiv_pos_site_id
 _symmetry_equiv_pos_as_xyz
  1  'x, y, z'
loop_
 _atom_site_type_symbol
 _atom_site_label
 _atom_site_symmetry_multiplicity
 _atom_site_fract_x
 _atom_site_fract_y
 _atom_site_fract_z
 _atom_site_occupancy
  Yb  Yb0  1  0.56306700  0.91149700  0.79186300  1
  Yb  Yb1  1  0.32614200  0.66544000  0.99002800  1
  Yb  Yb2  1  0.11963500  0.77120500  0.20813700  1
  Yb  Yb3  1  0.32620600  0.32620600  0.00000000  1
  Yb  Yb4  1  0.31656900  0.05314100  0.62931900  1
  Yb  Yb5  1  0.06968500  0.44355200  0.25560100  1
  Yb  Yb6  1  0.93124900  0.74491300  0.35820500  1
  Yb  Yb7  1  0.06306700  0.27120500  0.65157000  1
  Yb  Yb8  1  0.38670800  0.57304400  0.64179500  1
  Yb  Yb9  1  0.56968500  0.31408400  0.62613300  1
  Yb  Yb10  1  0.61963500  0.41149700  0.34843000  1
  Yb  Yb11  1  0.68795100  0.94355200  0.37386700  1
  Yb  Yb12  1  0.17541100  0.16544000  0.33929800  1
  Yb  Yb13  1  0.42382200  0.68725000  0.37068100  1
  Yb  Yb14  1  0.92382200  0.55314100  0.73657200  1
  Yb  Yb15  1  0.67541100  0.33611400  0.00997200  1
  Yb  Yb16  1  0.82620600  0.82620600  0.00000000  1
  Yb  Yb17  1  0.43124900  0.07304400  0.18633600  1
  Yb  Yb18  1  0.82614200  0.83611400  0.66070200  1
  Yb  Yb19  1  0.81656900  0.18725000  0.26342800  1
  Yb  Yb20  1  0.88670800  0.24491300  0.81366400  1
  Yb  Yb21  1  0.18795100  0.81408400  0.74439900  1
  In  In22  1  0.61016100  0.61016100  0.00000000  1
  In  In23  1  0.11016100  0.11016100  0.00000000  1
  Sb  Sb24  1  0.99366300  0.99457800  0.35426000  1
  Sb  Sb25  1  0.89290800  0.53813500  0.42567300  1
  Sb  Sb26  1  0.11246300  0.46723500  0.57432700  1
  Sb  Sb27  1  0.37493300  0.36001000  0.74756400  1
  Sb  Sb28  1  0.87493300  0.12736900  0.01492300  1
  Sb  Sb29  1  0.61244600  0.62736900  0.25243600  1
  Sb  Sb30  1  0.74773700  0.24773700  0.50000000  1
  Sb  Sb31  1  0.64031700  0.63940200  0.64574000  1
  Sb  Sb32  1  0.83766300  0.53770000  0.99038500  1
  Sb  Sb33  1  0.11244600  0.86001000  0.98507700  1
  Sb  Sb34  1  0.49366300  0.13940200  0.99908500  1
  Sb  Sb35  1  0.61246300  0.03813500  0.64522800  1
  Sb  Sb36  1  0.14031700  0.49457800  0.00091500  1
  Sb  Sb37  1  0.24773700  0.74773700  0.50000000  1
  Sb  Sb38  1  0.39290800  0.96723500  0.35477200  1
  Sb  Sb39  1  0.33766300  0.34727800  0.29996300  1
  Sb  Sb40  1  0.54731500  0.84727800  0.00961500  1
  Sb  Sb41  1  0.04731500  0.03770000  0.70003700  1
