# generated using pymatgen
data_KFeO2
_symmetry_space_group_name_H-M   'P 1'
_cell_length_a   5.71202300
_cell_length_b   11.43356700
_cell_length_c   16.27039400
_cell_angle_alpha   90.00000000
_cell_angle_beta   90.00000000
_cell_angle_gamma   90.00000000
_symmetry_Int_Tables_number   1
_chemical_formula_structural   KFeO2
_chemical_formula_sum   'K16 Fe16 O32'
_cell_volume   1062.59986986
_cell_formula_units_Z   16
loop_
 _symmetry_equiv_pos_site_id
 _symmetry_equiv_pos_as_xyz
  1  'x, y, z'
loop_
 _atom_site_type_symbol
 _atom_site_label
 _atom_site_symmetry_multiplicity
 _atom_site_fract_x
 _atom_site_fract_y
 _atom_site_fract_z
 _atom_site_occupancy
  K  K0  1  0.19187500  0.73343800  0.81596600  1
  K  K1  1  0.75216800  0.49136400  0.56132400  1
  K  K2  1  0.80812500  0.23343800  0.68403400  1
  K  K3  1  0.24783200  0.99136400  0.93867600  1
  K  K4  1  0.25216800  0.49136400  0.93867600  1
  K  K5  1  0.30812500  0.26656200  0.31596600  1
  K  K6  1  0.19187500  0.76656200  0.31596600  1
  K  K7  1  0.25216800  0.00863600  0.43867600  1
  K  K8  1  0.30812500  0.23343800  0.81596600  1
  K  K9  1  0.24783200  0.50863600  0.43867600  1
  K  K10  1  0.75216800  0.00863600  0.06132400  1
  K  K11  1  0.69187500  0.76656200  0.18403400  1
  K  K12  1  0.80812500  0.26656200  0.18403400  1
  K  K13  1  0.69187500  0.73343800  0.68403400  1
  K  K14  1  0.74783200  0.50863600  0.06132400  1
  K  K15  1  0.74783200  0.99136400  0.56132400  1
  Fe  Fe16  1  0.25317400  0.98958700  0.68920000  1
  Fe  Fe17  1  0.21184700  0.73375300  0.56453300  1
  Fe  Fe18  1  0.74682600  0.01041300  0.31080000  1
  Fe  Fe19  1  0.78815300  0.26624700  0.43546700  1
  Fe  Fe20  1  0.74682600  0.48958700  0.81080000  1
  Fe  Fe21  1  0.75317400  0.51041300  0.31080000  1
  Fe  Fe22  1  0.75317400  0.98958700  0.81080000  1
  Fe  Fe23  1  0.71184700  0.73375300  0.93546700  1
  Fe  Fe24  1  0.28815300  0.23375300  0.56453300  1
  Fe  Fe25  1  0.25317400  0.51041300  0.18920000  1
  Fe  Fe26  1  0.21184700  0.76624700  0.06453300  1
  Fe  Fe27  1  0.78815300  0.23375300  0.93546700  1
  Fe  Fe28  1  0.71184700  0.76624700  0.43546700  1
  Fe  Fe29  1  0.28815300  0.26624700  0.06453300  1
  Fe  Fe30  1  0.24682600  0.01041300  0.18920000  1
  Fe  Fe31  1  0.24682600  0.48958700  0.68920000  1
  O  O32  1  0.16340000  0.08528700  0.59794900  1
  O  O33  1  0.33660000  0.91471300  0.09794900  1
  O  O34  1  0.07323900  0.02321600  0.78535300  1
  O  O35  1  0.79349900  0.17061200  0.33971500  1
  O  O36  1  0.90417500  0.79199800  0.02216800  1
  O  O37  1  0.70650100  0.67061200  0.33971500  1
  O  O38  1  0.66340000  0.41471300  0.40205100  1
  O  O39  1  0.42676100  0.52321600  0.78535300  1
  O  O40  1  0.59582500  0.29199800  0.02216800  1
  O  O41  1  0.42676100  0.97678400  0.28535300  1
  O  O42  1  0.57323900  0.47678400  0.21464700  1
  O  O43  1  0.92676100  0.52321600  0.71464700  1
  O  O44  1  0.92676100  0.97678400  0.21464700  1
  O  O45  1  0.29349900  0.17061200  0.16028500  1
  O  O46  1  0.79349900  0.32938800  0.83971500  1
  O  O47  1  0.20650100  0.67061200  0.16028500  1
  O  O48  1  0.07323900  0.47678400  0.28535300  1
  O  O49  1  0.09582500  0.29199800  0.47783200  1
  O  O50  1  0.59582500  0.20800200  0.52216800  1
  O  O51  1  0.33660000  0.58528700  0.59794900  1
  O  O52  1  0.66340000  0.08528700  0.90205100  1
  O  O53  1  0.20650100  0.82938800  0.66028500  1
  O  O54  1  0.83660000  0.58528700  0.90205100  1
  O  O55  1  0.90417500  0.70800200  0.52216800  1
  O  O56  1  0.70650100  0.82938800  0.83971500  1
  O  O57  1  0.83660000  0.91471300  0.40205100  1
  O  O58  1  0.57323900  0.02321600  0.71464700  1
  O  O59  1  0.40417500  0.70800200  0.97783200  1
  O  O60  1  0.29349900  0.32938800  0.66028500  1
  O  O61  1  0.40417500  0.79199800  0.47783200  1
  O  O62  1  0.09582500  0.20800200  0.97783200  1
  O  O63  1  0.16340000  0.41471300  0.09794900  1
