# generated using pymatgen
data_V5Si3
_symmetry_space_group_name_H-M   'P 1'
_cell_length_a   7.06247593
_cell_length_b   7.06247593
_cell_length_c   7.06247593
_cell_angle_alpha   96.42225356
_cell_angle_beta   96.42225356
_cell_angle_gamma   140.92215321
_symmetry_Int_Tables_number   1
_chemical_formula_structural   V5Si3
_chemical_formula_sum   'V10 Si6'
_cell_volume   209.27260026
_cell_formula_units_Z   2
loop_
 _symmetry_equiv_pos_site_id
 _symmetry_equiv_pos_as_xyz
  1  'x, y, z'
loop_
 _atom_site_type_symbol
 _atom_site_label
 _atom_site_symmetry_multiplicity
 _atom_site_fract_x
 _atom_site_fract_y
 _atom_site_fract_z
 _atom_site_occupancy
  V  V0  1  0.57440800  0.27497900  0.84938800  1
  V  V1  1  0.25000000  0.75000000  0.50000000  1
  V  V2  1  0.07440800  0.22502100  0.29942900  1
  V  V3  1  0.92559200  0.77497900  0.70057100  1
  V  V4  1  0.75000000  0.25000000  0.50000000  1
  V  V5  1  0.72502100  0.57440800  0.29942900  1
  V  V6  1  0.42559200  0.72502100  0.15061200  1
  V  V7  1  0.77497900  0.07440800  0.84938800  1
  V  V8  1  0.27497900  0.42559200  0.70057100  1
  V  V9  1  0.22502100  0.92559200  0.15061200  1
  Si  Si10  1  0.16583600  0.66583600  0.83167200  1
  Si  Si11  1  0.25000000  0.25000000  0.00000000  1
  Si  Si12  1  0.66583600  0.83416400  0.50000000  1
  Si  Si13  1  0.83416400  0.33416400  0.16832800  1
  Si  Si14  1  0.75000000  0.75000000  0.00000000  1
  Si  Si15  1  0.33416400  0.16583600  0.50000000  1
