# generated using pymatgen
data_CsCuO2
_symmetry_space_group_name_H-M   'P 1'
_cell_length_a   6.65662230
_cell_length_b   6.65662230
_cell_length_c   5.51505200
_cell_angle_alpha   90.00000000
_cell_angle_beta   90.00000000
_cell_angle_gamma   132.37351919
_symmetry_Int_Tables_number   1
_chemical_formula_structural   CsCuO2
_chemical_formula_sum   'Cs2 Cu2 O4'
_cell_volume   180.53644083
_cell_formula_units_Z   2
loop_
 _symmetry_equiv_pos_site_id
 _symmetry_equiv_pos_as_xyz
  1  'x, y, z'
loop_
 _atom_site_type_symbol
 _atom_site_label
 _atom_site_symmetry_multiplicity
 _atom_site_fract_x
 _atom_site_fract_y
 _atom_site_fract_z
 _atom_site_occupancy
  Cs  Cs0  1  0.31702300  0.68297700  0.75000000  1
  Cs  Cs1  1  0.68297700  0.31702300  0.25000000  1
  Cu  Cu2  1  0.00188600  0.99811400  0.75000000  1
  Cu  Cu3  1  0.99811400  0.00188600  0.25000000  1
  O  O4  1  0.10078100  0.89921900  0.00329300  1
  O  O5  1  0.89921900  0.10078100  0.99670700  1
  O  O6  1  0.89921900  0.10078100  0.50329300  1
  O  O7  1  0.10078100  0.89921900  0.49670700  1
