# generated using pymatgen
data_Ti5Si4
_symmetry_space_group_name_H-M   'P 1'
_cell_length_a   6.70858500
_cell_length_b   6.70858500
_cell_length_c   12.19884300
_cell_angle_alpha   90.00000000
_cell_angle_beta   90.00000000
_cell_angle_gamma   90.00000000
_symmetry_Int_Tables_number   1
_chemical_formula_structural   Ti5Si4
_chemical_formula_sum   'Ti20 Si16'
_cell_volume   549.01030405
_cell_formula_units_Z   4
loop_
 _symmetry_equiv_pos_site_id
 _symmetry_equiv_pos_as_xyz
  1  'x, y, z'
loop_
 _atom_site_type_symbol
 _atom_site_label
 _atom_site_symmetry_multiplicity
 _atom_site_fract_x
 _atom_site_fract_y
 _atom_site_fract_z
 _atom_site_occupancy
  Ti  Ti0  1  0.99607600  0.14849300  0.62207400  1
  Ti  Ti1  1  0.35150700  0.49607600  0.87207400  1
  Ti  Ti2  1  0.64849300  0.50392400  0.37207400  1
  Ti  Ti3  1  0.49607600  0.35150700  0.12792600  1
  Ti  Ti4  1  0.50392400  0.64849300  0.62792600  1
  Ti  Ti5  1  0.00392400  0.85150700  0.12207400  1
  Ti  Ti6  1  0.14849300  0.99607600  0.37792600  1
  Ti  Ti7  1  0.85150700  0.00392400  0.87792600  1
  Ti  Ti8  1  0.00157400  0.34651500  0.21804300  1
  Ti  Ti9  1  0.15348500  0.50157400  0.46804300  1
  Ti  Ti10  1  0.84651500  0.49842600  0.96804300  1
  Ti  Ti11  1  0.50157400  0.15348500  0.53195700  1
  Ti  Ti12  1  0.49842600  0.84651500  0.03195700  1
  Ti  Ti13  1  0.99842600  0.65348500  0.71804300  1
  Ti  Ti14  1  0.34651500  0.00157400  0.78195700  1
  Ti  Ti15  1  0.65348500  0.99842600  0.28195700  1
  Ti  Ti16  1  0.17173800  0.17173800  0.00000000  1
  Ti  Ti17  1  0.32826200  0.67173800  0.25000000  1
  Ti  Ti18  1  0.67173800  0.32826200  0.75000000  1
  Ti  Ti19  1  0.82826200  0.82826200  0.50000000  1
  Si  Si20  1  0.04517100  0.30108000  0.81345700  1
  Si  Si21  1  0.19892000  0.54517100  0.06345700  1
  Si  Si22  1  0.80108000  0.45482900  0.56345700  1
  Si  Si23  1  0.54517100  0.19892000  0.93654300  1
  Si  Si24  1  0.45482900  0.80108000  0.43654300  1
  Si  Si25  1  0.95482900  0.69892000  0.31345700  1
  Si  Si26  1  0.30108000  0.04517100  0.18654300  1
  Si  Si27  1  0.69892000  0.95482900  0.68654300  1
  Si  Si28  1  0.29542600  0.35607100  0.67286700  1
  Si  Si29  1  0.14392900  0.79542600  0.92286700  1
  Si  Si30  1  0.85607100  0.20457400  0.42286700  1
  Si  Si31  1  0.79542600  0.14392900  0.07713300  1
  Si  Si32  1  0.20457400  0.85607100  0.57713300  1
  Si  Si33  1  0.70457400  0.64392900  0.17286700  1
  Si  Si34  1  0.35607100  0.29542600  0.32713300  1
  Si  Si35  1  0.64392900  0.70457400  0.82713300  1
