# generated using pymatgen
data_Sr14MnAs11
_symmetry_space_group_name_H-M   'P 1'
_cell_length_a   16.18146322
_cell_length_b   16.18146323
_cell_length_c   16.18146360
_cell_angle_alpha   93.57391612
_cell_angle_beta   117.97324909
_cell_angle_gamma   117.94375276
_symmetry_Int_Tables_number   1
_chemical_formula_structural   Sr14MnAs11
_chemical_formula_sum   'Sr56 Mn4 As44'
_cell_volume   3081.93802411
_cell_formula_units_Z   4
loop_
 _symmetry_equiv_pos_site_id
 _symmetry_equiv_pos_as_xyz
  1  'x, y, z'
loop_
 _atom_site_type_symbol
 _atom_site_label
 _atom_site_symmetry_multiplicity
 _atom_site_fract_x
 _atom_site_fract_y
 _atom_site_fract_z
 _atom_site_occupancy
  As  As0  1  0.12162372  0.93170182  0.81822403  1
  As  As1  1  0.15686471  0.58467395  0.98011154  1
  As  As2  1  0.24998143  0.86198132  0.63789240  1
  As  As3  1  0.25005389  0.74493306  0.75460718  1
  As  As4  1  0.10229055  0.42722555  0.58274355  1
  As  As5  1  0.11543867  0.18376431  0.80573715  1
  As  As6  1  0.12197284  0.69029848  0.30573715  1
  As  As7  1  0.00967412  0.75506694  0.00512083  1
  As  As8  1  0.34319155  0.52151891  0.91524395  1
  As  As9  1  0.11357485  0.43116830  0.30998904  1
  As  As10  1  0.10371820  0.17617603  0.52109574  1
  As  As11  1  0.39372504  0.97848109  0.32167264  1
  As  As12  1  0.37937592  0.68070100  0.56884986  1
  As  As13  1  0.61543867  0.80970152  0.93167436  1
  As  As14  1  0.47894807  0.48924705  0.73914359  1
  As  As15  1  0.37882074  0.19641419  0.80998904  1
  As  As16  1  0.38652221  0.69660031  0.31822403  1
  As  As17  1  0.39543759  0.91532605  0.07219076  1
  As  As18  1  0.34491972  0.32382397  0.42754217  1
  As  As19  1  0.24989654  0.01075295  0.48970102  1
  As  As20  1  0.84319155  0.92794760  0.82167264  1
  As  As21  1  0.27591109  0.38791098  0.13789240  1
  As  As22  1  0.15551800  0.07277445  0.17506499  1
  As  As23  1  0.75005389  0.99544671  0.50512083  1
  As  As24  1  0.77591109  0.63801868  0.88800011  1
  As  As25  1  0.65686471  0.67675317  0.57219076  1
  As  As26  1  0.60371820  0.08262245  0.92754217  1
  As  As27  1  0.61357485  0.30358581  0.68240655  1
  As  As28  1  0.62162372  0.80339969  0.18992190  1
  As  As29  1  0.50967412  0.50455329  0.25460718  1
  As  As30  1  0.38814886  0.18947394  0.06884986  1
  As  As31  1  0.62197284  0.31623569  0.43167436  1
  As  As32  1  0.60229055  0.01954699  0.67506499  1
  As  As33  1  0.89543759  0.82324683  0.48011154  1
  As  As34  1  0.88652221  0.56829818  0.68992190  1
  As  As35  1  0.65551800  0.48045301  0.08274355  1
  As  As36  1  0.97894807  0.23980448  0.98970102  1
  As  As37  1  0.87937592  0.31052606  0.69867492  1
  As  As38  1  0.88814886  0.81929900  0.19867492  1
  As  As39  1  0.89372504  0.57205240  0.41524395  1
  As  As40  1  0.74998143  0.11208902  0.38800011  1
  As  As41  1  0.74989654  0.26019552  0.23914359  1
  As  As42  1  0.84491972  0.41737755  0.02109574  1
  As  As43  1  0.87882074  0.06883170  0.18240655  1
  Mn  Mn44  1  0.25089839  0.12529880  0.87562866  1
  Mn  Mn45  1  0.25032986  0.62473027  0.37562866  1
  Mn  Mn46  1  0.75032986  0.37470120  0.62559959  1
  Mn  Mn47  1  0.75089839  0.87526973  0.12559959  1
  Sr  Sr48  1  0.14832835  0.75000000  0.89832835  1
  Sr  Sr49  1  0.02408865  0.74204214  0.62723485  1
  Sr  Sr50  1  0.03453735  0.78736492  0.40650076  1
  Sr  Sr51  1  0.08379870  0.52163927  0.74898039  1
  Sr  Sr52  1  0.35539037  0.97504935  0.87634824  1
  Sr  Sr53  1  0.11913584  0.37196341  0.90650076  1
  Sr  Sr54  1  0.10044377  0.12828135  0.98106452  1
  Sr  Sr55  1  0.14501062  0.62407928  0.52534132  1
  Sr  Sr56  1  0.41998774  0.75356364  0.97606695  1
  Sr  Sr57  1  0.14909539  0.90104265  0.25323822  1
  Sr  Sr58  1  0.47551355  0.87156103  0.75695842  1
  Sr  Sr59  1  0.35278317  0.88062075  0.48106452  1
  Sr  Sr60  1  0.35219557  0.59895735  0.74805274  1
  Sr  Sr61  1  0.22734112  0.97836073  0.06215944  1
  Sr  Sr62  1  0.27548575  0.33472750  0.75152387  1
  Sr  Sr63  1  0.22250332  0.74643636  0.16642410  1
  Sr  Sr64  1  0.27090221  0.43490390  0.52160037  1
  Sr  Sr65  1  0.10041508  0.47171922  0.11934188  1
  Sr  Sr66  1  0.14762266  0.01892680  0.61934188  1
  Sr  Sr67  1  0.60044377  0.61937925  0.97216242  1
  Sr  Sr68  1  0.08669647  0.06509610  0.33599831  1
  Sr  Sr69  1  0.11911603  0.24801495  0.21322144  1
  Sr  Sr70  1  0.58379870  0.83481831  0.56215944  1
  Sr  Sr71  1  0.61913584  0.71263508  0.74717243  1
  Sr  Sr72  1  0.35161788  0.25000000  0.60161788  1
  Sr  Sr73  1  0.52408865  0.89685380  0.28204651  1
  Sr  Sr74  1  0.40129889  0.52095787  0.37634824  1
  Sr  Sr75  1  0.61911603  0.40589459  0.87110108  1
  Sr  Sr76  1  0.38519271  0.60314620  0.12723485  1
  Sr  Sr77  1  0.60041508  0.48107320  0.62869586  1
  Sr  Sr78  1  0.46520648  0.09410541  0.71322144  1
  Sr  Sr79  1  0.64832835  0.75000000  0.39832835  1
  Sr  Sr80  1  0.38539739  0.28144487  0.25695842  1
  Sr  Sr81  1  0.41679637  0.16527250  0.44075825  1
  Sr  Sr82  1  0.88519271  0.75795786  0.78204651  1
  Sr  Sr83  1  0.91998774  0.94392079  0.66642410  1
  Sr  Sr84  1  0.40126204  0.38033070  0.02534132  1
  Sr  Sr85  1  0.85539037  0.97904213  0.38034102  1
  Sr  Sr86  1  0.90129889  0.52495065  0.88034102  1
  Sr  Sr87  1  0.72250332  0.55607921  0.47606695  1
  Sr  Sr88  1  0.77090221  0.24930184  0.83599831  1
  Sr  Sr89  1  0.72734112  0.66518169  0.24898039  1
  Sr  Sr90  1  0.77548575  0.02396188  0.94075825  1
  Sr  Sr91  1  0.64909539  0.39585717  0.24805274  1
  Sr  Sr92  1  0.64501062  0.11966930  0.52093134  1
  Sr  Sr93  1  0.53453735  0.12803659  0.24717243  1
  Sr  Sr94  1  0.85219557  0.10414283  0.75323822  1
  Sr  Sr95  1  0.58669647  0.25069816  0.02160037  1
  Sr  Sr96  1  0.85278317  0.37171865  0.47216242  1
  Sr  Sr97  1  0.90126204  0.87592072  0.02093134  1
  Sr  Sr98  1  0.88539739  0.62843897  0.10395252  1
  Sr  Sr99  1  0.64762266  0.02828078  0.12869586  1
  Sr  Sr100  1  0.91679637  0.47603812  0.25152387  1
  Sr  Sr101  1  0.97551355  0.21855513  0.60395252  1
  Sr  Sr102  1  0.96520648  0.25198505  0.37110108  1
  Sr  Sr103  1  0.85161788  0.25000000  0.10161788  1
