# generated using pymatgen
data_Pr9(SbO)5
_symmetry_space_group_name_H-M   'P 1'
_cell_length_a   10.34106500
_cell_length_b   10.34106500
_cell_length_c   9.31961700
_cell_angle_alpha   90.00000000
_cell_angle_beta   90.00000000
_cell_angle_gamma   90.00000000
_symmetry_Int_Tables_number   1
_chemical_formula_structural   Pr9(SbO)5
_chemical_formula_sum   'Pr18 Sb10 O10'
_cell_volume   996.61771100
_cell_formula_units_Z   2
loop_
 _symmetry_equiv_pos_site_id
 _symmetry_equiv_pos_as_xyz
  1  'x, y, z'
loop_
 _atom_site_type_symbol
 _atom_site_label
 _atom_site_symmetry_multiplicity
 _atom_site_fract_x
 _atom_site_fract_y
 _atom_site_fract_z
 _atom_site_occupancy
  Pr  Pr0  1  0.72662600  0.91860800  0.00121200  1
  Pr  Pr1  1  0.58139200  0.22662600  0.00121200  1
  Pr  Pr2  1  0.00000000  0.50000000  0.33174300  1
  Pr  Pr3  1  0.77337400  0.58139200  0.99878800  1
  Pr  Pr4  1  0.22662600  0.41860800  0.99878800  1
  Pr  Pr5  1  0.20436300  0.89615000  0.34448800  1
  Pr  Pr6  1  0.27337400  0.08139200  0.00121200  1
  Pr  Pr7  1  0.89615000  0.79563700  0.65551200  1
  Pr  Pr8  1  0.91860800  0.27337400  0.99878800  1
  Pr  Pr9  1  0.29563700  0.60385000  0.65551200  1
  Pr  Pr10  1  0.41860800  0.77337400  0.00121200  1
  Pr  Pr11  1  0.10385000  0.20436300  0.65551200  1
  Pr  Pr12  1  0.79563700  0.10385000  0.34448800  1
  Pr  Pr13  1  0.50000000  0.00000000  0.66825700  1
  Pr  Pr14  1  0.08139200  0.72662600  0.99878800  1
  Pr  Pr15  1  0.39615000  0.29563700  0.34448800  1
  Pr  Pr16  1  0.70436300  0.39615000  0.65551200  1
  Pr  Pr17  1  0.60385000  0.70436300  0.34448800  1
  Sb  Sb18  1  0.50000000  0.00000000  0.31452600  1
  Sb  Sb19  1  0.19667100  0.90330700  0.70032100  1
  Sb  Sb20  1  0.40330700  0.30332900  0.70032100  1
  Sb  Sb21  1  0.00000000  0.50000000  0.68547400  1
  Sb  Sb22  1  0.69667100  0.40330700  0.29967900  1
  Sb  Sb23  1  0.09669300  0.19667100  0.29967900  1
  Sb  Sb24  1  0.59669300  0.69667100  0.70032100  1
  Sb  Sb25  1  0.30332900  0.59669300  0.29967900  1
  Sb  Sb26  1  0.80332900  0.09669300  0.70032100  1
  Sb  Sb27  1  0.90330700  0.80332900  0.29967900  1
  O  O28  1  0.50000000  0.00000000  0.93260300  1
  O  O29  1  0.72473500  0.37909500  0.91021400  1
  O  O30  1  0.62090500  0.72473500  0.08978600  1
  O  O31  1  0.37909500  0.27526500  0.08978600  1
  O  O32  1  0.12090500  0.22473500  0.91021400  1
  O  O33  1  0.27526500  0.62090500  0.91021400  1
  O  O34  1  0.00000000  0.50000000  0.06739700  1
  O  O35  1  0.22473500  0.87909500  0.08978600  1
  O  O36  1  0.87909500  0.77526500  0.91021400  1
  O  O37  1  0.77526500  0.12090500  0.08978600  1
