# generated using pymatgen
data_K6Pb2O5
_symmetry_space_group_name_H-M   'P 1'
_cell_length_a   6.51689900
_cell_length_b   7.74330490
_cell_length_c   12.65902410
_cell_angle_alpha   79.02983291
_cell_angle_beta   84.25758348
_cell_angle_gamma   88.05244432
_symmetry_Int_Tables_number   1
_chemical_formula_structural   K6Pb2O5
_chemical_formula_sum   'K12 Pb4 O10'
_cell_volume   623.91056433
_cell_formula_units_Z   2
loop_
 _symmetry_equiv_pos_site_id
 _symmetry_equiv_pos_as_xyz
  1  'x, y, z'
loop_
 _atom_site_type_symbol
 _atom_site_label
 _atom_site_symmetry_multiplicity
 _atom_site_fract_x
 _atom_site_fract_y
 _atom_site_fract_z
 _atom_site_occupancy
  K  K0  1  0.43316700  0.60663400  0.36516500  1
  K  K1  1  0.56683300  0.39336600  0.63483500  1
  K  K2  1  0.92066700  0.41012300  0.38326300  1
  K  K3  1  0.07933300  0.58987700  0.61673700  1
  K  K4  1  0.31723900  0.94958800  0.12232400  1
  K  K5  1  0.68276100  0.05041200  0.87767600  1
  K  K6  1  0.30845400  0.48538400  0.12164800  1
  K  K7  1  0.69154600  0.51461600  0.87835200  1
  K  K8  1  0.77994600  0.70103900  0.12624800  1
  K  K9  1  0.22005400  0.29896100  0.87375200  1
  K  K10  1  0.41174300  0.13373000  0.37410200  1
  K  K11  1  0.58825700  0.86627000  0.62589800  1
  Pb  Pb12  1  0.91159800  0.86908300  0.35381600  1
  Pb  Pb13  1  0.08840200  0.13091700  0.64618400  1
  Pb  Pb14  1  0.75656900  0.21106900  0.13713100  1
  Pb  Pb15  1  0.24343100  0.78893100  0.86286900  1
  O  O16  1  0.64767600  0.94799600  0.24412700  1
  O  O17  1  0.35232400  0.05200400  0.75587300  1
  O  O18  1  0.51765900  0.24216700  0.02555800  1
  O  O19  1  0.48234100  0.75783300  0.97444200  1
  O  O20  1  0.74562300  0.67557600  0.47849000  1
  O  O21  1  0.25437700  0.32442400  0.52151000  1
  O  O22  1  0.61816000  0.38363700  0.24338400  1
  O  O23  1  0.38184000  0.61636300  0.75661600  1
  O  O24  1  0.08149200  0.69324600  0.25814200  1
  O  O25  1  0.91850800  0.30675400  0.74185800  1
