# generated using pymatgen
data_Rb2(ReS2)3
_symmetry_space_group_name_H-M   'P 1'
_cell_length_a   9.92231786
_cell_length_b   9.92231786
_cell_length_c   12.18340687
_cell_angle_alpha   88.83229557
_cell_angle_beta   88.83229557
_cell_angle_gamma   60.27057592
_symmetry_Int_Tables_number   1
_chemical_formula_structural   Rb2(ReS2)3
_chemical_formula_sum   'Rb8 Re12 S24'
_cell_volume   1041.31639604
_cell_formula_units_Z   4
loop_
 _symmetry_equiv_pos_site_id
 _symmetry_equiv_pos_as_xyz
  1  'x, y, z'
loop_
 _atom_site_type_symbol
 _atom_site_label
 _atom_site_symmetry_multiplicity
 _atom_site_fract_x
 _atom_site_fract_y
 _atom_site_fract_z
 _atom_site_occupancy
  Rb  Rb0  1  0.61844100  0.38155900  0.25000000  1
  Rb  Rb1  1  0.86360000  0.36692300  0.48062900  1
  Rb  Rb2  1  0.21374400  0.78625600  0.25000000  1
  Rb  Rb3  1  0.13640000  0.63307700  0.51937100  1
  Rb  Rb4  1  0.78625600  0.21374400  0.75000000  1
  Rb  Rb5  1  0.36692300  0.86360000  0.98062900  1
  Rb  Rb6  1  0.38155900  0.61844100  0.75000000  1
  Rb  Rb7  1  0.63307700  0.13640000  0.01937100  1
  Re  Re8  1  0.99722500  0.68813900  0.97812400  1
  Re  Re9  1  0.53828500  0.88063600  0.37324300  1
  Re  Re10  1  0.11936400  0.46171500  0.12675700  1
  Re  Re11  1  0.88063600  0.53828500  0.87324300  1
  Re  Re12  1  0.00277500  0.31186100  0.02187600  1
  Re  Re13  1  0.39903700  0.18179500  0.41378400  1
  Re  Re14  1  0.18179500  0.39903700  0.91378400  1
  Re  Re15  1  0.81820500  0.60096300  0.08621600  1
  Re  Re16  1  0.31186100  0.00277500  0.52187600  1
  Re  Re17  1  0.68813900  0.99722500  0.47812400  1
  Re  Re18  1  0.46171500  0.11936400  0.62675700  1
  Re  Re19  1  0.60096300  0.81820500  0.58621600  1
  S  S20  1  0.73120500  0.93658000  0.67117700  1
  S  S21  1  0.06342000  0.26879500  0.82882300  1
  S  S22  1  0.94904100  0.38303500  0.21311000  1
  S  S23  1  0.20259900  0.27678400  0.55962900  1
  S  S24  1  0.72741600  0.57717100  0.70303000  1
  S  S25  1  0.57717100  0.72741600  0.20303000  1
  S  S26  1  0.72321600  0.79740100  0.94037100  1
  S  S27  1  0.54514500  0.27525900  0.51772100  1
  S  S28  1  0.27678500  0.20259900  0.05962900  1
  S  S29  1  0.93389700  0.00260200  0.43032800  1
  S  S30  1  0.99739800  0.06610300  0.06967200  1
  S  S31  1  0.61696500  0.05095900  0.28689000  1
  S  S32  1  0.79740100  0.72321600  0.44037100  1
  S  S33  1  0.38303500  0.94904100  0.71311000  1
  S  S34  1  0.26879600  0.06342000  0.32882300  1
  S  S35  1  0.06610300  0.99739800  0.56967200  1
  S  S36  1  0.00260200  0.93389700  0.93032800  1
  S  S37  1  0.27258400  0.42282900  0.29697000  1
  S  S38  1  0.42282900  0.27258400  0.79697000  1
  S  S39  1  0.27525900  0.54514500  0.01772100  1
  S  S40  1  0.05095900  0.61696500  0.78689000  1
  S  S41  1  0.93658000  0.73120400  0.17117700  1
  S  S42  1  0.72474100  0.45485500  0.98227900  1
  S  S43  1  0.45485500  0.72474100  0.48227900  1
