# generated using pymatgen
data_Ba17Er16Zn8Pt4O57
_symmetry_space_group_name_H-M   'P 1'
_cell_length_a   16.53423761
_cell_length_b   16.53423761
_cell_length_c   16.53423761
_cell_angle_alpha   91.72715706
_cell_angle_beta   91.72715706
_cell_angle_gamma   160.00458300
_symmetry_Int_Tables_number   1
_chemical_formula_structural   Ba17Er16Zn8Pt4O57
_chemical_formula_sum   'Ba17 Er16 Zn8 Pt4 O57'
_cell_volume   1522.17040611
_cell_formula_units_Z   1
loop_
 _symmetry_equiv_pos_site_id
 _symmetry_equiv_pos_as_xyz
  1  'x, y, z'
loop_
 _atom_site_type_symbol
 _atom_site_label
 _atom_site_symmetry_multiplicity
 _atom_site_fract_x
 _atom_site_fract_y
 _atom_site_fract_z
 _atom_site_occupancy
  Ba  Ba0  1  0.73210400  0.81092000  0.54302400  1
  Ba  Ba1  1  0.26789600  0.18908000  0.45697600  1
  Ba  Ba2  1  0.81092000  0.26789600  0.07881500  1
  Ba  Ba3  1  0.93239500  0.55816800  0.49056300  1
  Ba  Ba4  1  0.06760500  0.44183200  0.50943700  1
  Ba  Ba5  1  0.11166900  0.27589300  0.38756200  1
  Ba  Ba6  1  0.65722900  0.35035100  0.00758100  1
  Ba  Ba7  1  0.35035100  0.34277100  0.69312200  1
  Ba  Ba8  1  0.72410700  0.11166900  0.83577600  1
  Ba  Ba9  1  0.44183200  0.93239500  0.37422700  1
  Ba  Ba10  1  0.27589300  0.88833100  0.16422400  1
  Ba  Ba11  1  0.64964900  0.65722900  0.30687800  1
  Ba  Ba12  1  0.55816800  0.06760500  0.62577300  1
  Ba  Ba13  1  0.34277100  0.64964900  0.99241900  1
  Ba  Ba14  1  0.00000000  0.00000000  0.00000000  1
  Ba  Ba15  1  0.18908000  0.73210400  0.92118500  1
  Ba  Ba16  1  0.88833100  0.72410700  0.61243800  1
  Er  Er17  1  0.74897300  0.49368900  0.24266200  1
  Er  Er18  1  0.40063100  0.51163400  0.91226500  1
  Er  Er19  1  0.50631100  0.74897300  0.25528300  1
  Er  Er20  1  0.67439200  0.95035600  0.62474800  1
  Er  Er21  1  0.04964400  0.67439200  0.72403600  1
  Er  Er22  1  0.48836600  0.40063100  0.88899700  1
  Er  Er23  1  0.49368900  0.25102700  0.74471700  1
  Er  Er24  1  0.94801700  0.17187200  0.11988900  1
  Er  Er25  1  0.95035600  0.32560800  0.27596400  1
  Er  Er26  1  0.25102700  0.50631100  0.75733800  1
  Er  Er27  1  0.05198300  0.82812800  0.88011100  1
  Er  Er28  1  0.32560800  0.04964400  0.37525200  1
  Er  Er29  1  0.17187200  0.05198300  0.22385500  1
  Er  Er30  1  0.59936900  0.48836600  0.08773500  1
  Er  Er31  1  0.51163400  0.59936900  0.11100300  1
  Er  Er32  1  0.82812800  0.94801700  0.77614500  1
  Zn  Zn33  1  0.21206600  0.37965000  0.59171600  1
  Zn  Zn34  1  0.92448500  0.86713800  0.79162300  1
  Zn  Zn35  1  0.13286200  0.92448500  0.05734700  1
  Zn  Zn36  1  0.07551500  0.13286200  0.20837700  1
  Zn  Zn37  1  0.78793400  0.62035000  0.40828400  1
  Zn  Zn38  1  0.86713800  0.07551500  0.94265300  1
  Zn  Zn39  1  0.37965000  0.78793400  0.16758400  1
  Zn  Zn40  1  0.62035000  0.21206600  0.83241600  1
  Pt  Pt41  1  0.14438200  0.58259000  0.72697200  1
  Pt  Pt42  1  0.41741000  0.14438200  0.56179200  1
  Pt  Pt43  1  0.58259000  0.85561800  0.43820800  1
  Pt  Pt44  1  0.85561800  0.41741000  0.27302800  1
  O  O45  1  0.16164800  0.18667300  0.84550000  1
  O  O46  1  0.40102500  0.63381900  0.52144400  1
  O  O47  1  0.17662800  0.49488400  0.17621800  1
  O  O48  1  0.76834700  0.39259000  0.16093700  1
  O  O49  1  0.50511600  0.68133400  0.68174400  1
  O  O50  1  0.59019900  0.23667600  0.31040500  1
  O  O51  1  0.81332700  0.65882800  0.97497600  1
  O  O52  1  0.82337200  0.50511600  0.82378200  1
  O  O53  1  0.15845000  0.84226200  0.00071300  1
  O  O54  1  0.11237500  0.87958000  0.47855600  1
  O  O55  1  0.92547600  0.72264200  0.14801400  1
  O  O56  1  0.18667300  0.34117200  0.02502400  1
  O  O57  1  0.60741000  0.76834700  0.37575700  1
  O  O58  1  0.68133400  0.99959000  0.17621800  1
  O  O59  1  0.31866600  0.00041000  0.82378200  1
  O  O60  1  0.00041000  0.17662800  0.68174400  1
  O  O61  1  0.92627100  0.27979400  0.68959500  1
  O  O62  1  0.34117200  0.31614800  0.15450000  1
  O  O63  1  0.07452400  0.27735800  0.85198600  1
  O  O64  1  0.49488400  0.31866600  0.31825600  1
  O  O65  1  0.27979400  0.59019900  0.35352300  1
  O  O66  1  0.88762500  0.12042000  0.52144400  1
  O  O67  1  0.65882800  0.68385200  0.84550000  1
  O  O68  1  0.31614800  0.16164800  0.97497600  1
  O  O69  1  0.87958000  0.40102500  0.76720600  1
  O  O70  1  0.23941500  0.29907900  0.53849400  1
  O  O71  1  0.36618100  0.88762500  0.76720600  1
  O  O72  1  0.05467000  0.56476800  0.61943800  1
  O  O73  1  0.84226200  0.84155000  0.68381200  1
  O  O74  1  0.43523200  0.05467000  0.48990200  1
  O  O75  1  0.27735800  0.42537200  0.20283400  1
  O  O76  1  0.50000000  0.50000000  0.00000000  1
  O  O77  1  0.83835200  0.81332700  0.15450000  1
  O  O78  1  0.12042000  0.59897500  0.23279400  1
  O  O79  1  0.15773800  0.15845000  0.31618800  1
  O  O80  1  0.63381900  0.11237500  0.23279400  1
  O  O81  1  0.42537200  0.22253800  0.14801400  1
  O  O82  1  0.76058500  0.70092100  0.46150600  1
  O  O83  1  0.39259000  0.23165300  0.62424300  1
  O  O84  1  0.07372900  0.72020600  0.31040500  1
  O  O85  1  0.23667600  0.92627100  0.64647700  1
  O  O86  1  0.84155000  0.15773800  0.99928700  1
  O  O87  1  0.68385200  0.83835200  0.02502400  1
  O  O88  1  0.59897500  0.36618100  0.47855600  1
  O  O89  1  0.76332400  0.07372900  0.35352300  1
  O  O90  1  0.94533000  0.43523200  0.38056200  1
  O  O91  1  0.72020600  0.40980100  0.64647700  1
  O  O92  1  0.77746200  0.92547600  0.20283400  1
  O  O93  1  0.22253800  0.07452400  0.79716600  1
  O  O94  1  0.40980100  0.76332400  0.68959500  1
  O  O95  1  0.23165300  0.60741000  0.83906300  1
  O  O96  1  0.57462800  0.77746200  0.85198600  1
  O  O97  1  0.56476800  0.94533000  0.51009800  1
  O  O98  1  0.70092100  0.23941500  0.94033600  1
  O  O99  1  0.99959000  0.82337200  0.31825600  1
  O  O100  1  0.72264200  0.57462800  0.79716600  1
  O  O101  1  0.29907900  0.76058500  0.05966400  1
