# generated using pymatgen
data_La3(CrN3)2
_symmetry_space_group_name_H-M   'P 1'
_cell_length_a   10.37847724
_cell_length_b   10.37847724
_cell_length_c   10.37847724
_cell_angle_alpha   158.59136730
_cell_angle_beta   158.59136730
_cell_angle_gamma   30.45792253
_symmetry_Int_Tables_number   1
_chemical_formula_structural   La3(CrN3)2
_chemical_formula_sum   'La3 Cr2 N6'
_cell_volume   148.85033289
_cell_formula_units_Z   1
loop_
 _symmetry_equiv_pos_site_id
 _symmetry_equiv_pos_as_xyz
  1  'x, y, z'
loop_
 _atom_site_type_symbol
 _atom_site_label
 _atom_site_symmetry_multiplicity
 _atom_site_fract_x
 _atom_site_fract_y
 _atom_site_fract_z
 _atom_site_occupancy
  La  La0  1  0.17897600  0.17897600  0.00000000  1
  La  La1  1  0.82102400  0.82102400  0.00000000  1
  La  La2  1  0.00000000  0.00000000  0.00000000  1
  Cr  Cr3  1  0.60225700  0.60225700  0.00000000  1
  Cr  Cr4  1  0.39774300  0.39774300  0.00000000  1
  N  N5  1  0.69351200  0.69351200  0.00000000  1
  N  N6  1  0.58682500  0.08682500  0.50000000  1
  N  N7  1  0.41317500  0.91317500  0.50000000  1
  N  N8  1  0.08682500  0.58682500  0.50000000  1
  N  N9  1  0.91317500  0.41317500  0.50000000  1
  N  N10  1  0.30648800  0.30648800  0.00000000  1
