# generated using pymatgen
data_SrCd11
_symmetry_space_group_name_H-M   'P 1'
_cell_length_a   9.46390240
_cell_length_b   9.46390240
_cell_length_c   9.46390240
_cell_angle_alpha   99.88292368
_cell_angle_beta   99.88292368
_cell_angle_gamma   131.05088340
_symmetry_Int_Tables_number   1
_chemical_formula_structural   SrCd11
_chemical_formula_sum   'Sr2 Cd22'
_cell_volume   581.78937775
_cell_formula_units_Z   2
loop_
 _symmetry_equiv_pos_site_id
 _symmetry_equiv_pos_as_xyz
  1  'x, y, z'
loop_
 _atom_site_type_symbol
 _atom_site_label
 _atom_site_symmetry_multiplicity
 _atom_site_fract_x
 _atom_site_fract_y
 _atom_site_fract_z
 _atom_site_occupancy
  Sr  Sr0  1  0.75000000  0.25000000  0.50000000  1
  Sr  Sr1  1  0.50000000  0.50000000  0.00000000  1
  Cd  Cd2  1  0.99548900  0.32035800  0.91564200  1
  Cd  Cd3  1  0.12500000  0.87500000  0.75000000  1
  Cd  Cd4  1  0.67964200  0.59528400  0.67513100  1
  Cd  Cd5  1  0.40471600  0.32035800  0.32486900  1
  Cd  Cd6  1  0.67964200  0.00451100  0.08435800  1
  Cd  Cd7  1  0.84528400  0.42964200  0.17513100  1
  Cd  Cd8  1  0.40471600  0.07984800  0.08435800  1
  Cd  Cd9  1  0.00000000  0.00000000  0.00000000  1
  Cd  Cd10  1  0.84528400  0.67015200  0.41564200  1
  Cd  Cd11  1  0.25000000  0.75000000  0.50000000  1
  Cd  Cd12  1  0.32984800  0.74548900  0.17513100  1
  Cd  Cd13  1  0.12500000  0.87500000  0.25000000  1
  Cd  Cd14  1  0.25451100  0.42964200  0.58435800  1
  Cd  Cd15  1  0.57035800  0.74548900  0.41564200  1
  Cd  Cd16  1  0.99548900  0.07984800  0.67513100  1
  Cd  Cd17  1  0.92015200  0.00451100  0.32486900  1
  Cd  Cd18  1  0.32984800  0.15471600  0.58435800  1
  Cd  Cd19  1  0.25451100  0.67015200  0.82486900  1
  Cd  Cd20  1  0.57035800  0.15471600  0.82486900  1
  Cd  Cd21  1  0.92015200  0.59528400  0.91564200  1
  Cd  Cd22  1  0.62500000  0.87500000  0.75000000  1
  Cd  Cd23  1  0.12500000  0.37500000  0.25000000  1
