# generated using pymatgen
data_Ga2Te2Cl7
_symmetry_space_group_name_H-M   'P 1'
_cell_length_a   11.41230900
_cell_length_b   9.62695200
_cell_length_c   13.78086813
_cell_angle_alpha   85.68401425
_cell_angle_beta   90.00000000
_cell_angle_gamma   90.00000000
_symmetry_Int_Tables_number   1
_chemical_formula_structural   Ga2Te2Cl7
_chemical_formula_sum   'Ga8 Te8 Cl28'
_cell_volume   1509.75185805
_cell_formula_units_Z   4
loop_
 _symmetry_equiv_pos_site_id
 _symmetry_equiv_pos_as_xyz
  1  'x, y, z'
loop_
 _atom_site_type_symbol
 _atom_site_label
 _atom_site_symmetry_multiplicity
 _atom_site_fract_x
 _atom_site_fract_y
 _atom_site_fract_z
 _atom_site_occupancy
  Ga  Ga0  1  0.58183300  0.26002000  0.15779000  1
  Ga  Ga1  1  0.08183300  0.73998000  0.34221000  1
  Ga  Ga2  1  0.41816700  0.73998000  0.84221000  1
  Ga  Ga3  1  0.91816700  0.26002000  0.65779000  1
  Ga  Ga4  1  0.67955000  0.87782600  0.20461400  1
  Ga  Ga5  1  0.17955000  0.12217400  0.29538600  1
  Ga  Ga6  1  0.32045000  0.12217400  0.79538600  1
  Ga  Ga7  1  0.82045000  0.87782600  0.70461400  1
  Te  Te8  1  0.84524800  0.56551700  0.96476600  1
  Te  Te9  1  0.34524800  0.43448300  0.53523400  1
  Te  Te10  1  0.15475200  0.43448300  0.03523400  1
  Te  Te11  1  0.65475200  0.56551700  0.46476600  1
  Te  Te12  1  0.93529300  0.32459300  0.05015400  1
  Te  Te13  1  0.43529300  0.67540700  0.44984600  1
  Te  Te14  1  0.06470700  0.67540700  0.94984600  1
  Te  Te15  1  0.56470700  0.32459300  0.55015400  1
  Cl  Cl16  1  0.42161000  0.36434200  0.19420500  1
  Cl  Cl17  1  0.92161000  0.63565800  0.30579500  1
  Cl  Cl18  1  0.57839000  0.63565800  0.80579500  1
  Cl  Cl19  1  0.07839000  0.36434200  0.69420500  1
  Cl  Cl20  1  0.64619600  0.31843100  0.00916100  1
  Cl  Cl21  1  0.14619600  0.68156900  0.49083900  1
  Cl  Cl22  1  0.35380400  0.68156900  0.99083900  1
  Cl  Cl23  1  0.85380400  0.31843100  0.50916100  1
  Cl  Cl24  1  0.72182900  0.27116500  0.26291700  1
  Cl  Cl25  1  0.22182900  0.72883500  0.23708300  1
  Cl  Cl26  1  0.27817100  0.72883500  0.73708300  1
  Cl  Cl27  1  0.77817100  0.27116500  0.76291700  1
  Cl  Cl28  1  0.52779700  0.02742700  0.14670300  1
  Cl  Cl29  1  0.02779700  0.97257300  0.35329700  1
  Cl  Cl30  1  0.47220300  0.97257300  0.85329700  1
  Cl  Cl31  1  0.97220300  0.02742700  0.64670300  1
  Cl  Cl32  1  0.66923300  0.88775800  0.36399300  1
  Cl  Cl33  1  0.16923300  0.11224200  0.13600700  1
  Cl  Cl34  1  0.33076700  0.11224200  0.63600700  1
  Cl  Cl35  1  0.83076700  0.88775800  0.86399300  1
  Cl  Cl36  1  0.83659800  0.95724900  0.13236900  1
  Cl  Cl37  1  0.33659800  0.04275100  0.36763100  1
  Cl  Cl38  1  0.16340200  0.04275100  0.86763100  1
  Cl  Cl39  1  0.66340200  0.95724900  0.63236900  1
  Cl  Cl40  1  0.62272600  0.67626200  0.16304100  1
  Cl  Cl41  1  0.12272600  0.32373800  0.33695900  1
  Cl  Cl42  1  0.37727400  0.32373800  0.83695900  1
  Cl  Cl43  1  0.87727400  0.67626200  0.66304100  1
