# generated using pymatgen
data_CsAlAgF6
_symmetry_space_group_name_H-M   'P 1'
_cell_length_a   7.34667600
_cell_length_b   7.57565500
_cell_length_c   10.54870100
_cell_angle_alpha   90.00000000
_cell_angle_beta   90.00000000
_cell_angle_gamma   90.00000000
_symmetry_Int_Tables_number   1
_chemical_formula_structural   CsAlAgF6
_chemical_formula_sum   'Cs4 Al4 Ag4 F24'
_cell_volume   587.09726626
_cell_formula_units_Z   4
loop_
 _symmetry_equiv_pos_site_id
 _symmetry_equiv_pos_as_xyz
  1  'x, y, z'
loop_
 _atom_site_type_symbol
 _atom_site_label
 _atom_site_symmetry_multiplicity
 _atom_site_fract_x
 _atom_site_fract_y
 _atom_site_fract_z
 _atom_site_occupancy
  Cs  Cs0  1  0.75000000  0.52082000  0.13397400  1
  Cs  Cs1  1  0.25000000  0.47918000  0.86602600  1
  Cs  Cs2  1  0.25000000  0.97918000  0.63397400  1
  Cs  Cs3  1  0.75000000  0.02082000  0.36602600  1
  Al  Al4  1  0.50000000  0.00000000  0.00000000  1
  Al  Al5  1  0.50000000  0.50000000  0.50000000  1
  Al  Al6  1  0.00000000  0.00000000  0.00000000  1
  Al  Al7  1  0.00000000  0.50000000  0.50000000  1
  Ag  Ag8  1  0.25000000  0.78441700  0.25414400  1
  Ag  Ag9  1  0.75000000  0.71558300  0.75414400  1
  Ag  Ag10  1  0.25000000  0.28441700  0.24585600  1
  Ag  Ag11  1  0.75000000  0.21558300  0.74585600  1
  F  F12  1  0.25000000  0.46415100  0.50538000  1
  F  F13  1  0.75000000  0.53584900  0.49462000  1
  F  F14  1  0.75000000  0.96271200  0.66869900  1
  F  F15  1  0.47023000  0.70040500  0.40685200  1
  F  F16  1  0.25000000  0.96415100  0.99462000  1
  F  F17  1  0.01292000  0.63205900  0.64473500  1
  F  F18  1  0.02977000  0.20040500  0.09314800  1
  F  F19  1  0.52977000  0.29959500  0.59314800  1
  F  F20  1  0.51292000  0.86794100  0.14473500  1
  F  F21  1  0.25000000  0.53728800  0.16869900  1
  F  F22  1  0.98708000  0.86794100  0.14473500  1
  F  F23  1  0.51292000  0.36794100  0.35526500  1
  F  F24  1  0.47023000  0.20040500  0.09314800  1
  F  F25  1  0.97023000  0.29959500  0.59314800  1
  F  F26  1  0.25000000  0.03728800  0.33130100  1
  F  F27  1  0.97023000  0.79959500  0.90685200  1
  F  F28  1  0.48708000  0.63205900  0.64473500  1
  F  F29  1  0.75000000  0.46271200  0.83130100  1
  F  F30  1  0.75000000  0.03584900  0.00538000  1
  F  F31  1  0.48708000  0.13205900  0.85526500  1
  F  F32  1  0.98708000  0.36794100  0.35526500  1
  F  F33  1  0.52977000  0.79959500  0.90685200  1
  F  F34  1  0.01292000  0.13205900  0.85526500  1
  F  F35  1  0.02977000  0.70040500  0.40685200  1
