# generated using pymatgen
data_Cs2KMn3F12
_symmetry_space_group_name_H-M   'P 1'
_cell_length_a   7.75147351
_cell_length_b   7.75147351
_cell_length_c   12.96440797
_cell_angle_alpha   73.74254500
_cell_angle_beta   73.74254500
_cell_angle_gamma   59.97243775
_symmetry_Int_Tables_number   1
_chemical_formula_structural   Cs2KMn3F12
_chemical_formula_sum   'Cs4 K2 Mn6 F24'
_cell_volume   638.22124592
_cell_formula_units_Z   2
loop_
 _symmetry_equiv_pos_site_id
 _symmetry_equiv_pos_as_xyz
  1  'x, y, z'
loop_
 _atom_site_type_symbol
 _atom_site_label
 _atom_site_symmetry_multiplicity
 _atom_site_fract_x
 _atom_site_fract_y
 _atom_site_fract_z
 _atom_site_occupancy
  Cs  Cs0  1  0.90450300  0.47498100  0.67745100  1
  Cs  Cs1  1  0.09549700  0.52501900  0.32254900  1
  Cs  Cs2  1  0.52501900  0.09549700  0.82254900  1
  Cs  Cs3  1  0.47498100  0.90450300  0.17745100  1
  K  K4  1  0.22792500  0.77207500  0.75000000  1
  K  K5  1  0.77207500  0.22792500  0.25000000  1
  Mn  Mn6  1  0.50000000  0.00000000  0.50000000  1
  Mn  Mn7  1  0.00000000  0.50000000  0.00000000  1
  Mn  Mn8  1  0.00000000  0.00000000  0.50000000  1
  Mn  Mn9  1  0.00000000  0.00000000  0.00000000  1
  Mn  Mn10  1  0.50000000  0.50000000  0.50000000  1
  Mn  Mn11  1  0.50000000  0.50000000  0.00000000  1
  F  F12  1  0.89527600  0.96202100  0.64801800  1
  F  F13  1  0.51347700  0.89260500  0.64763100  1
  F  F14  1  0.26195600  0.41215700  0.02984300  1
  F  F15  1  0.68182100  0.21588800  0.02874900  1
  F  F16  1  0.89260500  0.51347700  0.14763100  1
  F  F17  1  0.10739500  0.48652300  0.85236900  1
  F  F18  1  0.48652300  0.10739500  0.35236900  1
  F  F19  1  0.78411200  0.31817900  0.47125100  1
  F  F20  1  0.10472400  0.03797900  0.35198200  1
  F  F21  1  0.58784300  0.73804400  0.47015700  1
  F  F22  1  0.45387400  0.51145900  0.14678000  1
  F  F23  1  0.41215700  0.26195600  0.52984300  1
  F  F24  1  0.51145900  0.45387400  0.64678000  1
  F  F25  1  0.82147400  0.92910000  0.46384600  1
  F  F26  1  0.17852600  0.07090000  0.53615400  1
  F  F27  1  0.54612600  0.48854100  0.85322000  1
  F  F28  1  0.92910000  0.82147400  0.96384600  1
  F  F29  1  0.48854100  0.54612600  0.35322000  1
  F  F30  1  0.73804400  0.58784300  0.97015700  1
  F  F31  1  0.96202100  0.89527600  0.14801800  1
  F  F32  1  0.07090000  0.17852600  0.03615400  1
  F  F33  1  0.31817900  0.78411200  0.97125100  1
  F  F34  1  0.03797900  0.10472400  0.85198200  1
  F  F35  1  0.21588800  0.68182100  0.52874900  1
