# generated using pymatgen
data_K3FeSe3
_symmetry_space_group_name_H-M   'P 1'
_cell_length_a   13.03077300
_cell_length_b   8.12893000
_cell_length_c   10.52816408
_cell_angle_alpha   52.45942231
_cell_angle_beta   90.00000000
_cell_angle_gamma   90.00000000
_symmetry_Int_Tables_number   1
_chemical_formula_structural   K3FeSe3
_chemical_formula_sum   'K12 Fe4 Se12'
_cell_volume   884.27364161
_cell_formula_units_Z   4
loop_
 _symmetry_equiv_pos_site_id
 _symmetry_equiv_pos_as_xyz
  1  'x, y, z'
loop_
 _atom_site_type_symbol
 _atom_site_label
 _atom_site_symmetry_multiplicity
 _atom_site_fract_x
 _atom_site_fract_y
 _atom_site_fract_z
 _atom_site_occupancy
  K  K0  1  0.18959800  0.12876800  0.58206200  1
  K  K1  1  0.07991600  0.65381300  0.60255200  1
  K  K2  1  0.62867200  0.38395600  0.47704600  1
  K  K3  1  0.37132800  0.61604400  0.52295400  1
  K  K4  1  0.87132800  0.38395600  0.97704600  1
  K  K5  1  0.57991600  0.34618700  0.89744800  1
  K  K6  1  0.12867200  0.61604400  0.02295400  1
  K  K7  1  0.92008400  0.34618700  0.39744800  1
  K  K8  1  0.31040200  0.12876800  0.08206200  1
  K  K9  1  0.42008400  0.65381300  0.10255200  1
  K  K10  1  0.81040200  0.87123200  0.41793800  1
  K  K11  1  0.68959800  0.87123200  0.91793800  1
  Fe  Fe12  1  0.44311400  0.93953100  0.65186100  1
  Fe  Fe13  1  0.94311400  0.06046900  0.84813900  1
  Fe  Fe14  1  0.55688600  0.06046900  0.34813900  1
  Fe  Fe15  1  0.05688600  0.93953100  0.15186100  1
  Se  Se16  1  0.61204300  0.84443200  0.62500700  1
  Se  Se17  1  0.45136200  0.12623200  0.75959000  1
  Se  Se18  1  0.82749900  0.34994500  0.69171200  1
  Se  Se19  1  0.38795700  0.15556800  0.37499300  1
  Se  Se20  1  0.11204300  0.15556800  0.87499300  1
  Se  Se21  1  0.17250100  0.65005500  0.30828800  1
  Se  Se22  1  0.54863800  0.87376800  0.24041000  1
  Se  Se23  1  0.32749900  0.65005500  0.80828800  1
  Se  Se24  1  0.88795700  0.84443200  0.12500700  1
  Se  Se25  1  0.95136200  0.87376800  0.74041000  1
  Se  Se26  1  0.04863800  0.12623200  0.25959000  1
  Se  Se27  1  0.67250100  0.34994500  0.19171200  1
