# generated using pymatgen
data_Cs2Si2Se5
_symmetry_space_group_name_H-M   'P 1'
_cell_length_a   11.92558630
_cell_length_b   11.92558630
_cell_length_c   9.91085737
_cell_angle_alpha   81.37578105
_cell_angle_beta   81.37578105
_cell_angle_gamma   90.27589119
_symmetry_Int_Tables_number   1
_chemical_formula_structural   Cs2Si2Se5
_chemical_formula_sum   'Cs8 Si8 Se20'
_cell_volume   1377.28636534
_cell_formula_units_Z   4
loop_
 _symmetry_equiv_pos_site_id
 _symmetry_equiv_pos_as_xyz
  1  'x, y, z'
loop_
 _atom_site_type_symbol
 _atom_site_label
 _atom_site_symmetry_multiplicity
 _atom_site_fract_x
 _atom_site_fract_y
 _atom_site_fract_z
 _atom_site_occupancy
  Cs  Cs0  1  0.71259000  0.97689700  0.37033400  1
  Cs  Cs1  1  0.02310300  0.28741000  0.12966600  1
  Cs  Cs2  1  0.28741000  0.02310300  0.62966600  1
  Cs  Cs3  1  0.97689700  0.71259000  0.87033400  1
  Cs  Cs4  1  0.54926300  0.70907600  0.87762600  1
  Cs  Cs5  1  0.29092400  0.45073700  0.62237400  1
  Cs  Cs6  1  0.45073700  0.29092400  0.12237400  1
  Cs  Cs7  1  0.70907600  0.54926300  0.37762600  1
  Si  Si8  1  0.35813100  0.76803100  0.38385400  1
  Si  Si9  1  0.23196900  0.64186900  0.11614600  1
  Si  Si10  1  0.64186900  0.23196900  0.61614600  1
  Si  Si11  1  0.76803100  0.35813100  0.88385400  1
  Si  Si12  1  0.76627400  0.04037700  0.88607700  1
  Si  Si13  1  0.95962300  0.23372600  0.61392300  1
  Si  Si14  1  0.23372600  0.95962300  0.11392300  1
  Si  Si15  1  0.04037700  0.76627400  0.38607700  1
  Se  Se16  1  0.74590200  0.87634500  0.02287200  1
  Se  Se17  1  0.12365500  0.25409800  0.47712800  1
  Se  Se18  1  0.25409800  0.12365500  0.97712800  1
  Se  Se19  1  0.87634500  0.74590200  0.52287200  1
  Se  Se20  1  0.48956700  0.74736800  0.52005000  1
  Se  Se21  1  0.25263200  0.51043300  0.97995000  1
  Se  Se22  1  0.51043300  0.25263200  0.47995000  1
  Se  Se23  1  0.74736800  0.48956700  0.02005000  1
  Se  Se24  1  0.62035100  0.05564300  0.75189600  1
  Se  Se25  1  0.94435700  0.37964900  0.74810400  1
  Se  Se26  1  0.37964900  0.94435700  0.24810400  1
  Se  Se27  1  0.05564300  0.62035100  0.25189600  1
  Se  Se28  1  0.74647000  0.18289900  0.02576500  1
  Se  Se29  1  0.81710100  0.25353000  0.47423500  1
  Se  Se30  1  0.25353000  0.81710100  0.97423500  1
  Se  Se31  1  0.18289900  0.74647000  0.52576500  1
  Se  Se32  1  0.94323600  0.05676400  0.75000000  1
  Se  Se33  1  0.05676400  0.94323600  0.25000000  1
  Se  Se34  1  0.37776600  0.62223400  0.25000000  1
  Se  Se35  1  0.62223400  0.37776600  0.75000000  1
