# generated using pymatgen
data_CsH5O3
_symmetry_space_group_name_H-M   'P 1'
_cell_length_a   6.83883900
_cell_length_b   9.26230700
_cell_length_c   13.35789200
_cell_angle_alpha   90.00000000
_cell_angle_beta   90.00000000
_cell_angle_gamma   90.00000000
_symmetry_Int_Tables_number   1
_chemical_formula_structural   CsH5O3
_chemical_formula_sum   'Cs8 H40 O24'
_cell_volume   846.13464798
_cell_formula_units_Z   8
loop_
 _symmetry_equiv_pos_site_id
 _symmetry_equiv_pos_as_xyz
  1  'x, y, z'
loop_
 _atom_site_type_symbol
 _atom_site_label
 _atom_site_symmetry_multiplicity
 _atom_site_fract_x
 _atom_site_fract_y
 _atom_site_fract_z
 _atom_site_occupancy
  Cs  Cs0  1  0.39448200  0.50669900  0.15691500  1
  Cs  Cs1  1  0.60551800  0.00669900  0.84308500  1
  Cs  Cs2  1  0.60551800  0.50669900  0.65691500  1
  Cs  Cs3  1  0.39448200  0.00669900  0.34308500  1
  Cs  Cs4  1  0.06742400  0.61867400  0.42420600  1
  Cs  Cs5  1  0.93257600  0.11867400  0.57579400  1
  Cs  Cs6  1  0.93257600  0.61867400  0.92420600  1
  Cs  Cs7  1  0.06742400  0.11867400  0.07579400  1
  H  H8  1  0.71728700  0.20386500  0.22593200  1
  H  H9  1  0.28271300  0.70386500  0.77406800  1
  H  H10  1  0.28271300  0.20386500  0.72593200  1
  H  H11  1  0.71728700  0.70386500  0.27406800  1
  H  H12  1  0.26130400  0.35994000  0.53268000  1
  H  H13  1  0.73869600  0.85994000  0.46732000  1
  H  H14  1  0.73869600  0.35994000  0.03268000  1
  H  H15  1  0.26130400  0.85994000  0.96732000  1
  H  H16  1  0.86556600  0.40113700  0.19617100  1
  H  H17  1  0.13443400  0.90113700  0.80382900  1
  H  H18  1  0.13443400  0.40113700  0.69617100  1
  H  H19  1  0.86556600  0.90113700  0.30382900  1
  H  H20  1  0.86186300  0.57437900  0.17729400  1
  H  H21  1  0.13813700  0.07437900  0.82270600  1
  H  H22  1  0.13813700  0.57437900  0.67729400  1
  H  H23  1  0.86186300  0.07437900  0.32270600  1
  H  H24  1  0.58848600  0.52475400  0.38966500  1
  H  H25  1  0.41151400  0.02475400  0.61033500  1
  H  H26  1  0.41151400  0.52475400  0.88966500  1
  H  H27  1  0.58848600  0.02475400  0.11033500  1
  H  H28  1  0.58757100  0.68700200  0.42712000  1
  H  H29  1  0.41242900  0.18700200  0.57288000  1
  H  H30  1  0.41242900  0.68700200  0.92712000  1
  H  H31  1  0.58757100  0.18700200  0.07288000  1
  H  H32  1  0.72564000  0.31057100  0.37150500  1
  H  H33  1  0.27436000  0.81057100  0.62849500  1
  H  H34  1  0.27436000  0.31057100  0.87150500  1
  H  H35  1  0.72564000  0.81057100  0.12849500  1
  H  H36  1  0.54637400  0.32953100  0.45378300  1
  H  H37  1  0.45362600  0.82953100  0.54621700  1
  H  H38  1  0.45362600  0.32953100  0.95378300  1
  H  H39  1  0.54637400  0.82953100  0.04621700  1
  H  H40  1  0.05633700  0.28274600  0.29645400  1
  H  H41  1  0.94366300  0.78274600  0.70354600  1
  H  H42  1  0.94366300  0.28274600  0.79645400  1
  H  H43  1  0.05633700  0.78274600  0.20354600  1
  H  H44  1  0.23237300  0.30333800  0.37837100  1
  H  H45  1  0.76762700  0.80333800  0.62162900  1
  H  H46  1  0.76762700  0.30333800  0.87837100  1
  H  H47  1  0.23237300  0.80333800  0.12162900  1
  O  O48  1  0.81709000  0.23682400  0.27409600  1
  O  O49  1  0.18291000  0.73682400  0.72590400  1
  O  O50  1  0.18291000  0.23682400  0.77409600  1
  O  O51  1  0.81709000  0.73682400  0.22590400  1
  O  O52  1  0.32153100  0.28679000  0.48964600  1
  O  O53  1  0.67846900  0.78679000  0.51035400  1
  O  O54  1  0.67846900  0.28679000  0.98964600  1
  O  O55  1  0.32153100  0.78679000  0.01035400  1
  O  O56  1  0.88384600  0.47667800  0.14365400  1
  O  O57  1  0.11615400  0.97667800  0.85634600  1
  O  O58  1  0.11615400  0.47667800  0.64365400  1
  O  O59  1  0.88384600  0.97667800  0.35634600  1
  O  O60  1  0.53533600  0.62161800  0.37078100  1
  O  O61  1  0.46466400  0.12161800  0.62921900  1
  O  O62  1  0.46466400  0.62161800  0.87078100  1
  O  O63  1  0.53533600  0.12161800  0.12921900  1
  O  O64  1  0.68401900  0.36221000  0.43616600  1
  O  O65  1  0.31598100  0.86221000  0.56383400  1
  O  O66  1  0.31598100  0.36221000  0.93616600  1
  O  O67  1  0.68401900  0.86221000  0.06383400  1
  O  O68  1  0.19448000  0.31424400  0.30494200  1
  O  O69  1  0.80552000  0.81424400  0.69505800  1
  O  O70  1  0.80552000  0.31424400  0.80494200  1
  O  O71  1  0.19448000  0.81424400  0.19505800  1
