# generated using pymatgen
data_Cs4Li2(Si2O5)3
_symmetry_space_group_name_H-M   'P 1'
_cell_length_a   8.63830000
_cell_length_b   11.11788900
_cell_length_c   19.26358549
_cell_angle_alpha   89.81038473
_cell_angle_beta   90.00000000
_cell_angle_gamma   90.00000000
_symmetry_Int_Tables_number   1
_chemical_formula_structural   Cs4Li2(Si2O5)3
_chemical_formula_sum   'Cs16 Li8 Si24 O60'
_cell_volume   1850.05808019
_cell_formula_units_Z   4
loop_
 _symmetry_equiv_pos_site_id
 _symmetry_equiv_pos_as_xyz
  1  'x, y, z'
loop_
 _atom_site_type_symbol
 _atom_site_label
 _atom_site_symmetry_multiplicity
 _atom_site_fract_x
 _atom_site_fract_y
 _atom_site_fract_z
 _atom_site_occupancy
  Cs  Cs0  1  0.75000000  0.45507400  0.51405500  1
  Cs  Cs1  1  0.75000000  0.52036200  0.99245400  1
  Cs  Cs2  1  0.75000000  0.95702600  0.01910200  1
  Cs  Cs3  1  0.75000000  0.27813700  0.72060000  1
  Cs  Cs4  1  0.25000000  0.20410400  0.73274300  1
  Cs  Cs5  1  0.75000000  0.70515200  0.77662400  1
  Cs  Cs6  1  0.75000000  0.79589600  0.26725700  1
  Cs  Cs7  1  0.75000000  0.22244500  0.22748200  1
  Cs  Cs8  1  0.25000000  0.77755500  0.77251800  1
  Cs  Cs9  1  0.25000000  0.29484800  0.22337600  1
  Cs  Cs10  1  0.25000000  0.47963800  0.00754600  1
  Cs  Cs11  1  0.75000000  0.03273400  0.48145300  1
  Cs  Cs12  1  0.25000000  0.54492600  0.48594500  1
  Cs  Cs13  1  0.25000000  0.96726600  0.51854700  1
  Cs  Cs14  1  0.25000000  0.04297400  0.98089800  1
  Cs  Cs15  1  0.25000000  0.72186300  0.27940000  1
  Li  Li16  1  0.98157100  0.76240700  0.42123000  1
  Li  Li17  1  0.48755100  0.73968300  0.92803200  1
  Li  Li18  1  0.01244900  0.73968300  0.92803200  1
  Li  Li19  1  0.48157100  0.23759300  0.57877000  1
  Li  Li20  1  0.51244900  0.26031700  0.07196800  1
  Li  Li21  1  0.51842900  0.76240700  0.42123000  1
  Li  Li22  1  0.98755100  0.26031700  0.07196800  1
  Li  Li23  1  0.01842900  0.23759300  0.57877000  1
  Si  Si24  1  0.43452400  0.50516100  0.66478700  1
  Si  Si25  1  0.06010700  0.00522000  0.16534900  1
  Si  Si26  1  0.93989300  0.99478000  0.83465100  1
  Si  Si27  1  0.93452400  0.49483900  0.33521300  1
  Si  Si28  1  0.56125400  0.74388300  0.58810700  1
  Si  Si29  1  0.06547600  0.50516100  0.66478700  1
  Si  Si30  1  0.43941900  0.74988500  0.09607800  1
  Si  Si31  1  0.06058100  0.74988500  0.09607800  1
  Si  Si32  1  0.43989300  0.00522000  0.16534900  1
  Si  Si33  1  0.06125400  0.25611700  0.41189300  1
  Si  Si34  1  0.93596500  0.51497200  0.17016000  1
  Si  Si35  1  0.43596500  0.48502800  0.82984000  1
  Si  Si36  1  0.56547600  0.49483900  0.33521300  1
  Si  Si37  1  0.06403500  0.48502800  0.82984000  1
  Si  Si38  1  0.56010700  0.99478000  0.83465100  1
  Si  Si39  1  0.43874600  0.25611700  0.41189300  1
  Si  Si40  1  0.93941900  0.25011500  0.90392200  1
  Si  Si41  1  0.56058100  0.25011500  0.90392200  1
  Si  Si42  1  0.44007200  0.01704300  0.32890100  1
  Si  Si43  1  0.93874600  0.74388300  0.58810700  1
  Si  Si44  1  0.94007200  0.98295700  0.67109900  1
  Si  Si45  1  0.05992800  0.01704300  0.32890100  1
  Si  Si46  1  0.56403500  0.51497200  0.17016000  1
  Si  Si47  1  0.55992800  0.98295700  0.67109900  1
  O  O48  1  0.75000000  0.98330600  0.67466100  1
  O  O49  1  0.49475800  0.88539700  0.87908200  1
  O  O50  1  0.46894500  0.64114100  0.15395500  1
  O  O51  1  0.75000000  0.99950700  0.83135700  1
  O  O52  1  0.98091800  0.40578800  0.12116200  1
  O  O53  1  0.97437500  0.62304600  0.36676700  1
  O  O54  1  0.47437500  0.37695400  0.63323300  1
  O  O55  1  0.50524200  0.11460300  0.12091800  1
  O  O56  1  0.53660200  0.61307900  0.62772600  1
  O  O57  1  0.46339800  0.38692100  0.37227400  1
  O  O58  1  0.49438100  0.15330800  0.35422700  1
  O  O59  1  0.51908200  0.40578800  0.12116200  1
  O  O60  1  0.96339800  0.61307900  0.62772600  1
  O  O61  1  0.98216700  0.48333700  0.25194700  1
  O  O62  1  0.50046600  0.87303800  0.13672400  1
  O  O63  1  0.97346700  0.24638100  0.48405500  1
  O  O64  1  0.25000000  0.76230000  0.08894300  1
  O  O65  1  0.52261400  0.73095600  0.02358900  1
  O  O66  1  0.00561900  0.15330800  0.35422700  1
  O  O67  1  0.25000000  0.00049300  0.16864300  1
  O  O68  1  0.02653300  0.75361900  0.51594500  1
  O  O69  1  0.97738600  0.73095600  0.02358900  1
  O  O70  1  0.99088600  0.91046700  0.37439700  1
  O  O71  1  0.00524200  0.88539700  0.87908200  1
  O  O72  1  0.99438100  0.84669200  0.64577300  1
  O  O73  1  0.00046600  0.12696200  0.86327600  1
  O  O74  1  0.01908200  0.59421200  0.87883800  1
  O  O75  1  0.52562500  0.62304600  0.36676700  1
  O  O76  1  0.50194800  0.01042700  0.24710000  1
  O  O77  1  0.49953400  0.12696200  0.86327600  1
  O  O78  1  0.75000000  0.55216300  0.16930900  1
  O  O79  1  0.53105500  0.35885900  0.84604500  1
  O  O80  1  0.25000000  0.24111300  0.42110200  1
  O  O81  1  0.00911400  0.08953300  0.62560300  1
  O  O82  1  0.49805200  0.98957300  0.75290000  1
  O  O83  1  0.02562500  0.37695400  0.63323300  1
  O  O84  1  0.25000000  0.54597200  0.65822000  1
  O  O85  1  0.50561900  0.84669200  0.64577300  1
  O  O86  1  0.99805200  0.01042700  0.24710000  1
  O  O87  1  0.99953400  0.87303800  0.13672400  1
  O  O88  1  0.75000000  0.23770000  0.91105700  1
  O  O89  1  0.47346700  0.75361900  0.51594500  1
  O  O90  1  0.01783300  0.51666300  0.74805300  1
  O  O91  1  0.47738600  0.26904400  0.97641100  1
  O  O92  1  0.50911400  0.91046700  0.37439700  1
  O  O93  1  0.51783300  0.48333700  0.25194700  1
  O  O94  1  0.49088600  0.08953300  0.62560300  1
  O  O95  1  0.75000000  0.75888700  0.57889800  1
  O  O96  1  0.99475800  0.11460300  0.12091800  1
  O  O97  1  0.03660200  0.38692100  0.37227400  1
  O  O98  1  0.03105500  0.64114100  0.15395500  1
  O  O99  1  0.75000000  0.45402800  0.34178000  1
  O  O100  1  0.48091800  0.59421200  0.87883800  1
  O  O101  1  0.52653300  0.24638100  0.48405500  1
  O  O102  1  0.02261400  0.26904400  0.97641100  1
  O  O103  1  0.96894500  0.35885900  0.84604500  1
  O  O104  1  0.25000000  0.01669400  0.32533900  1
  O  O105  1  0.48216700  0.51666300  0.74805300  1
  O  O106  1  0.25000000  0.44783700  0.83069100  1
  O  O107  1  0.00194800  0.98957300  0.75290000  1
