# generated using pymatgen
data_Rb2Ge4O9
_symmetry_space_group_name_H-M   'P 1'
_cell_length_a   12.29853274
_cell_length_b   12.29853274
_cell_length_c   10.02983500
_cell_angle_alpha   90.00000000
_cell_angle_beta   90.00000000
_cell_angle_gamma   120.00000400
_symmetry_Int_Tables_number   1
_chemical_formula_structural   Rb2Ge4O9
_chemical_formula_sum   'Rb12 Ge24 O54'
_cell_volume   1313.80528997
_cell_formula_units_Z   6
loop_
 _symmetry_equiv_pos_site_id
 _symmetry_equiv_pos_as_xyz
  1  'x, y, z'
loop_
 _atom_site_type_symbol
 _atom_site_label
 _atom_site_symmetry_multiplicity
 _atom_site_fract_x
 _atom_site_fract_y
 _atom_site_fract_z
 _atom_site_occupancy
  Rb  Rb0  1  0.99764000  0.66299100  0.56929300  1
  Rb  Rb1  1  0.66299100  0.66535100  0.43070700  1
  Rb  Rb2  1  0.33464900  0.33700900  0.93070700  1
  Rb  Rb3  1  0.00236000  0.33700900  0.43070700  1
  Rb  Rb4  1  0.33700900  0.00236000  0.06929300  1
  Rb  Rb5  1  0.99764000  0.33464900  0.06929300  1
  Rb  Rb6  1  0.66535100  0.00236000  0.56929300  1
  Rb  Rb7  1  0.66535100  0.66299100  0.06929300  1
  Rb  Rb8  1  0.66299100  0.99764000  0.93070700  1
  Rb  Rb9  1  0.00236000  0.66535100  0.93070700  1
  Rb  Rb10  1  0.33464900  0.99764000  0.43070700  1
  Rb  Rb11  1  0.33700900  0.33464900  0.56929300  1
  Ge  Ge12  1  0.00000000  0.17804200  0.75000000  1
  Ge  Ge13  1  0.33365500  0.48421300  0.22156800  1
  Ge  Ge14  1  0.84944200  0.33365500  0.77843200  1
  Ge  Ge15  1  0.33365500  0.84944200  0.72156800  1
  Ge  Ge16  1  0.51578700  0.66634500  0.72156800  1
  Ge  Ge17  1  0.15055800  0.48421300  0.72156800  1
  Ge  Ge18  1  0.17804200  0.17804200  0.25000000  1
  Ge  Ge19  1  0.15055800  0.66634500  0.22156800  1
  Ge  Ge20  1  0.66666700  0.33333300  0.02936300  1
  Ge  Ge21  1  0.66634500  0.51578700  0.77843200  1
  Ge  Ge22  1  0.48421300  0.33365500  0.27843200  1
  Ge  Ge23  1  0.00000000  0.82195800  0.25000000  1
  Ge  Ge24  1  0.33333300  0.66666700  0.97063700  1
  Ge  Ge25  1  0.82195800  0.00000000  0.25000000  1
  Ge  Ge26  1  0.48421300  0.15055800  0.77843200  1
  Ge  Ge27  1  0.66634500  0.15055800  0.27843200  1
  Ge  Ge28  1  0.00000000  0.00000000  0.50000000  1
  Ge  Ge29  1  0.33333300  0.66666700  0.47063700  1
  Ge  Ge30  1  0.82195800  0.82195800  0.75000000  1
  Ge  Ge31  1  0.17804200  0.00000000  0.75000000  1
  Ge  Ge32  1  0.00000000  0.00000000  0.00000000  1
  Ge  Ge33  1  0.51578700  0.84944200  0.22156800  1
  Ge  Ge34  1  0.84944200  0.51578700  0.27843200  1
  Ge  Ge35  1  0.66666700  0.33333300  0.52936300  1
  O  O36  1  0.67276900  0.88191200  0.17971100  1
  O  O37  1  0.42354600  0.60991200  0.57741900  1
  O  O38  1  0.00000000  0.52853100  0.25000000  1
  O  O39  1  0.60991200  0.18636700  0.42258100  1
  O  O40  1  0.07763300  0.14862600  0.38739300  1
  O  O41  1  0.27195700  0.51782300  0.36231800  1
  O  O42  1  0.47146900  0.00000000  0.75000000  1
  O  O43  1  0.81363300  0.39008800  0.92258100  1
  O  O44  1  0.48217700  0.72804300  0.86231800  1
  O  O45  1  0.47146900  0.47146900  0.25000000  1
  O  O46  1  0.72804300  0.24586600  0.13768200  1
  O  O47  1  0.60991200  0.42354600  0.92258100  1
  O  O48  1  0.18636700  0.57645400  0.57741900  1
  O  O49  1  0.32723100  0.20914200  0.32028900  1
  O  O50  1  0.52853100  0.52853100  0.75000000  1
  O  O51  1  0.79085800  0.11808800  0.32028900  1
  O  O52  1  0.39008800  0.81363300  0.57741900  1
  O  O53  1  0.14862600  0.07763300  0.11260700  1
  O  O54  1  0.32723100  0.11808800  0.82028900  1
  O  O55  1  0.92900700  0.07763300  0.61260700  1
  O  O56  1  0.11808800  0.32723100  0.67971100  1
  O  O57  1  0.57645400  0.18636700  0.92258100  1
  O  O58  1  0.75413400  0.48217700  0.13768200  1
  O  O59  1  0.48217700  0.75413400  0.36231800  1
  O  O60  1  0.57645400  0.39008800  0.42258100  1
  O  O61  1  0.24586600  0.72804300  0.36231800  1
  O  O62  1  0.27195700  0.75413400  0.86231800  1
  O  O63  1  0.42354600  0.81363300  0.07741900  1
  O  O64  1  0.92900700  0.85137400  0.11260700  1
  O  O65  1  0.79085800  0.67276900  0.82028900  1
  O  O66  1  0.07763300  0.92900700  0.88739300  1
  O  O67  1  0.92236700  0.85137400  0.61260700  1
  O  O68  1  0.39008800  0.57645400  0.07741900  1
  O  O69  1  0.81363300  0.42354600  0.42258100  1
  O  O70  1  0.51782300  0.24586600  0.63768200  1
  O  O71  1  0.20914200  0.32723100  0.17971100  1
  O  O72  1  0.88191200  0.67276900  0.32028900  1
  O  O73  1  0.51782300  0.27195700  0.13768200  1
  O  O74  1  0.52853100  0.00000000  0.25000000  1
  O  O75  1  0.11808800  0.79085800  0.17971100  1
  O  O76  1  0.92236700  0.07099300  0.11260700  1
  O  O77  1  0.20914200  0.88191200  0.67971100  1
  O  O78  1  0.07099300  0.14862600  0.88739300  1
  O  O79  1  0.85137400  0.92900700  0.38739300  1
  O  O80  1  0.14862600  0.07099300  0.61260700  1
  O  O81  1  0.85137400  0.92236700  0.88739300  1
  O  O82  1  0.07099300  0.92236700  0.38739300  1
  O  O83  1  0.00000000  0.47146900  0.75000000  1
  O  O84  1  0.72804300  0.48217700  0.63768200  1
  O  O85  1  0.24586600  0.51782300  0.86231800  1
  O  O86  1  0.88191200  0.20914200  0.82028900  1
  O  O87  1  0.75413400  0.27195700  0.63768200  1
  O  O88  1  0.67276900  0.79085800  0.67971100  1
  O  O89  1  0.18636700  0.60991200  0.07741900  1
