# generated using pymatgen
data_Zr2CS
_symmetry_space_group_name_H-M   'P 1'
_cell_length_a   3.43299845
_cell_length_b   3.43299845
_cell_length_c   12.25626300
_cell_angle_alpha   90.00000000
_cell_angle_beta   90.00000000
_cell_angle_gamma   120.00000869
_symmetry_Int_Tables_number   1
_chemical_formula_structural   Zr2CS
_chemical_formula_sum   'Zr4 C2 S2'
_cell_volume   125.09382733
_cell_formula_units_Z   2
loop_
 _symmetry_equiv_pos_site_id
 _symmetry_equiv_pos_as_xyz
  1  'x, y, z'
loop_
 _atom_site_type_symbol
 _atom_site_label
 _atom_site_symmetry_multiplicity
 _atom_site_fract_x
 _atom_site_fract_y
 _atom_site_fract_z
 _atom_site_occupancy
  Zr  Zr0  1  0.33333300  0.66666700  0.39928700  1
  Zr  Zr1  1  0.66666700  0.33333300  0.89928700  1
  Zr  Zr2  1  0.66666700  0.33333300  0.60071300  1
  Zr  Zr3  1  0.33333300  0.66666700  0.10071300  1
  C  C4  1  0.00000000  0.00000000  0.50000000  1
  C  C5  1  0.00000000  0.00000000  0.00000000  1
  S  S6  1  0.66666700  0.33333300  0.25000000  1
  S  S7  1  0.33333300  0.66666700  0.75000000  1
