# generated using pymatgen
data_SrHg2(ClO)2
_symmetry_space_group_name_H-M   'P 1'
_cell_length_a   7.16406100
_cell_length_b   8.45403600
_cell_length_c   11.78532990
_cell_angle_alpha   57.90635609
_cell_angle_beta   90.00000000
_cell_angle_gamma   90.00000000
_symmetry_Int_Tables_number   1
_chemical_formula_structural   SrHg2(ClO)2
_chemical_formula_sum   'Sr4 Hg8 Cl8 O8'
_cell_volume   604.70178529
_cell_formula_units_Z   4
loop_
 _symmetry_equiv_pos_site_id
 _symmetry_equiv_pos_as_xyz
  1  'x, y, z'
loop_
 _atom_site_type_symbol
 _atom_site_label
 _atom_site_symmetry_multiplicity
 _atom_site_fract_x
 _atom_site_fract_y
 _atom_site_fract_z
 _atom_site_occupancy
  Sr  Sr0  1  0.37635200  0.65149800  0.62458600  1
  Sr  Sr1  1  0.62364800  0.34850200  0.37541400  1
  Sr  Sr2  1  0.12364800  0.65149800  0.12458600  1
  Sr  Sr3  1  0.87635200  0.34850200  0.87541400  1
  Hg  Hg4  1  0.66977900  0.89536600  0.13217800  1
  Hg  Hg5  1  0.93666000  0.73500100  0.39339200  1
  Hg  Hg6  1  0.43666000  0.26499900  0.10660800  1
  Hg  Hg7  1  0.83022100  0.89536600  0.63217800  1
  Hg  Hg8  1  0.33022100  0.10463400  0.86782200  1
  Hg  Hg9  1  0.16977900  0.10463400  0.36782200  1
  Hg  Hg10  1  0.06334000  0.26499900  0.60660800  1
  Hg  Hg11  1  0.56334000  0.73500100  0.89339200  1
  Cl  Cl12  1  0.60004000  0.95455000  0.38751700  1
  Cl  Cl13  1  0.18099200  0.58784300  0.87313200  1
  Cl  Cl14  1  0.39996000  0.04545000  0.61248300  1
  Cl  Cl15  1  0.10004000  0.04545000  0.11248300  1
  Cl  Cl16  1  0.89996000  0.95455000  0.88751700  1
  Cl  Cl17  1  0.68099200  0.41215700  0.62686800  1
  Cl  Cl18  1  0.81900800  0.41215700  0.12686800  1
  Cl  Cl19  1  0.31900800  0.58784300  0.37313200  1
  O  O20  1  0.31807000  0.34909700  0.22981600  1
  O  O21  1  0.07859900  0.82655200  0.50311200  1
  O  O22  1  0.18193000  0.34909700  0.72981600  1
  O  O23  1  0.92140100  0.17344800  0.49688800  1
  O  O24  1  0.81807000  0.65090300  0.27018400  1
  O  O25  1  0.42140100  0.82655200  0.00311200  1
  O  O26  1  0.68193000  0.65090300  0.77018400  1
  O  O27  1  0.57859900  0.17344800  0.99688800  1
