# generated using pymatgen
data_V2Cd4(TeO5)3
_symmetry_space_group_name_H-M   'P 1'
_cell_length_a   5.47985500
_cell_length_b   16.37836900
_cell_length_c   16.68679700
_cell_angle_alpha   90.00000000
_cell_angle_beta   90.00000000
_cell_angle_gamma   90.00000000
_symmetry_Int_Tables_number   1
_chemical_formula_structural   V2Cd4(TeO5)3
_chemical_formula_sum   'V8 Cd16 Te12 O60'
_cell_volume   1497.65817358
_cell_formula_units_Z   4
loop_
 _symmetry_equiv_pos_site_id
 _symmetry_equiv_pos_as_xyz
  1  'x, y, z'
loop_
 _atom_site_type_symbol
 _atom_site_label
 _atom_site_symmetry_multiplicity
 _atom_site_fract_x
 _atom_site_fract_y
 _atom_site_fract_z
 _atom_site_occupancy
  V  V0  1  0.21474900  0.91694200  0.43101900  1
  V  V1  1  0.69171800  0.75088600  0.06127900  1
  V  V2  1  0.80828200  0.24911400  0.56127900  1
  V  V3  1  0.19171800  0.74911400  0.93872100  1
  V  V4  1  0.30828200  0.25088600  0.43872100  1
  V  V5  1  0.71474900  0.58305800  0.56898100  1
  V  V6  1  0.78525100  0.41694200  0.06898100  1
  V  V7  1  0.28525100  0.08305800  0.93101900  1
  Cd  Cd8  1  0.75274400  0.41328600  0.76270000  1
  Cd  Cd9  1  0.73892400  0.91287800  0.58457000  1
  Cd  Cd10  1  0.82551400  0.08544400  0.72984800  1
  Cd  Cd11  1  0.67448600  0.91455600  0.22984800  1
  Cd  Cd12  1  0.68453600  0.74615200  0.73483300  1
  Cd  Cd13  1  0.32551400  0.41455600  0.27015200  1
  Cd  Cd14  1  0.31546400  0.24615200  0.76516700  1
  Cd  Cd15  1  0.26107600  0.41287800  0.91543000  1
  Cd  Cd16  1  0.81546400  0.25384800  0.23483300  1
  Cd  Cd17  1  0.25274400  0.08671400  0.23730000  1
  Cd  Cd18  1  0.23892400  0.58712200  0.41543000  1
  Cd  Cd19  1  0.74725600  0.58671400  0.26270000  1
  Cd  Cd20  1  0.17448600  0.58544400  0.77015200  1
  Cd  Cd21  1  0.24725600  0.91328600  0.73730000  1
  Cd  Cd22  1  0.76107600  0.08712200  0.08457000  1
  Cd  Cd23  1  0.18453600  0.75384800  0.26516700  1
  Te  Te24  1  0.27081700  0.42545800  0.61896100  1
  Te  Te25  1  0.20285100  0.92738100  0.10607000  1
  Te  Te26  1  0.79660100  0.24977500  0.88773700  1
  Te  Te27  1  0.79714900  0.42738100  0.39393000  1
  Te  Te28  1  0.77081700  0.07454200  0.38103900  1
  Te  Te29  1  0.70285100  0.57261900  0.89393000  1
  Te  Te30  1  0.29660100  0.25022500  0.11226300  1
  Te  Te31  1  0.22918300  0.57454200  0.11896100  1
  Te  Te32  1  0.70339900  0.75022500  0.38773700  1
  Te  Te33  1  0.72918300  0.92545800  0.88103900  1
  Te  Te34  1  0.29714900  0.07261900  0.60607000  1
  Te  Te35  1  0.20339900  0.74977500  0.61226300  1
  O  O36  1  0.31373200  0.85436300  0.18681000  1
  O  O37  1  0.53986100  0.50579400  0.62652900  1
  O  O38  1  0.43559000  0.17787300  0.38088700  1
  O  O39  1  0.43878700  0.52211400  0.19241400  1
  O  O40  1  0.85469300  0.65508800  0.62845900  1
  O  O41  1  0.53446700  0.32526500  0.86637200  1
  O  O42  1  0.50963700  0.18093500  0.17493500  1
  O  O43  1  0.94039100  0.14389000  0.30997300  1
  O  O44  1  0.64530700  0.34491200  0.12845900  1
  O  O45  1  0.93559000  0.32212700  0.61911300  1
  O  O46  1  0.03446700  0.17473500  0.13362800  1
  O  O47  1  0.44039100  0.35611000  0.69002700  1
  O  O48  1  0.49036300  0.68093500  0.32506500  1
  O  O49  1  0.80687200  0.82924800  0.11442400  1
  O  O50  1  0.48737200  0.50776000  0.82888600  1
  O  O51  1  0.00963700  0.31906500  0.82506500  1
  O  O52  1  0.35469300  0.84491200  0.37154100  1
  O  O53  1  0.94833300  0.70930600  0.00311200  1
  O  O54  1  0.52996500  0.49804500  0.37010300  1
  O  O55  1  0.68626800  0.35436300  0.31319000  1
  O  O56  1  0.99462300  0.36627800  0.00954500  1
  O  O57  1  0.93878700  0.97788600  0.80758600  1
  O  O58  1  0.44833300  0.79069400  0.99688800  1
  O  O59  1  0.96553300  0.67473500  0.36637200  1
  O  O60  1  0.06121300  0.47788600  0.69241400  1
  O  O61  1  0.50537700  0.63372200  0.50954500  1
  O  O62  1  0.06415500  0.03850200  0.99137600  1
  O  O63  1  0.47003500  0.99804500  0.12989700  1
  O  O64  1  0.00537700  0.86627800  0.49045500  1
  O  O65  1  0.81373200  0.64563700  0.81319000  1
  O  O66  1  0.32777500  0.68449500  0.69715800  1
  O  O67  1  0.93584500  0.53850200  0.50862400  1
  O  O68  1  0.14530700  0.15508800  0.87154100  1
  O  O69  1  0.43584500  0.96149800  0.49137600  1
  O  O70  1  0.02996500  0.00195500  0.62989700  1
  O  O71  1  0.46013900  0.00579400  0.87347100  1
  O  O72  1  0.19312800  0.32924800  0.38557600  1
  O  O73  1  0.03986100  0.99420600  0.37347100  1
  O  O74  1  0.67222500  0.18449500  0.80284200  1
  O  O75  1  0.05960900  0.64389000  0.19002700  1
  O  O76  1  0.55166700  0.29069400  0.50311200  1
  O  O77  1  0.97003500  0.50195500  0.87010300  1
  O  O78  1  0.96013900  0.49420600  0.12652900  1
  O  O79  1  0.82777500  0.81550500  0.30284200  1
  O  O80  1  0.05166700  0.20930600  0.49688800  1
  O  O81  1  0.56441000  0.67787300  0.11911300  1
  O  O82  1  0.98737200  0.99224000  0.17111400  1
  O  O83  1  0.56121300  0.02211400  0.30758600  1
  O  O84  1  0.01262800  0.49224000  0.32888600  1
  O  O85  1  0.49462300  0.13372200  0.99045500  1
  O  O86  1  0.99036300  0.81906500  0.67493500  1
  O  O87  1  0.17222500  0.31550500  0.19715800  1
  O  O88  1  0.69312800  0.17075200  0.61442400  1
  O  O89  1  0.06441000  0.82212700  0.88088700  1
  O  O90  1  0.18626800  0.14563700  0.68681000  1
  O  O91  1  0.51262800  0.00776000  0.67111400  1
  O  O92  1  0.56415500  0.46149800  0.00862400  1
  O  O93  1  0.46553300  0.82526500  0.63362800  1
  O  O94  1  0.55960900  0.85611000  0.80997300  1
  O  O95  1  0.30687200  0.67075200  0.88557600  1
