# generated using pymatgen
data_NdSbMo2O9
_symmetry_space_group_name_H-M   'P 1'
_cell_length_a   9.90151354
_cell_length_b   9.90151354
_cell_length_c   11.06000266
_cell_angle_alpha   68.32887252
_cell_angle_beta   68.32887252
_cell_angle_gamma   95.86387599
_symmetry_Int_Tables_number   1
_chemical_formula_structural   NdSbMo2O9
_chemical_formula_sum   'Nd4 Sb4 Mo8 O36'
_cell_volume   900.03007300
_cell_formula_units_Z   4
loop_
 _symmetry_equiv_pos_site_id
 _symmetry_equiv_pos_as_xyz
  1  'x, y, z'
loop_
 _atom_site_type_symbol
 _atom_site_label
 _atom_site_symmetry_multiplicity
 _atom_site_fract_x
 _atom_site_fract_y
 _atom_site_fract_z
 _atom_site_occupancy
  Nd  Nd0  1  0.87554000  0.12446000  0.25000000  1
  Nd  Nd1  1  0.67449200  0.32550800  0.75000000  1
  Nd  Nd2  1  0.12446000  0.87554000  0.75000000  1
  Nd  Nd3  1  0.32550800  0.67449200  0.25000000  1
  Sb  Sb4  1  0.64685600  0.62187000  0.96236200  1
  Sb  Sb5  1  0.62187000  0.64685600  0.46236200  1
  Sb  Sb6  1  0.37813000  0.35314400  0.53763800  1
  Sb  Sb7  1  0.35314400  0.37813000  0.03763800  1
  Mo  Mo8  1  0.95102800  0.74091500  0.52639700  1
  Mo  Mo9  1  0.74091500  0.95102800  0.02639700  1
  Mo  Mo10  1  0.04897200  0.25908500  0.47360300  1
  Mo  Mo11  1  0.93936100  0.56523100  0.19526100  1
  Mo  Mo12  1  0.43476900  0.06063900  0.30473900  1
  Mo  Mo13  1  0.56523100  0.93936100  0.69526100  1
  Mo  Mo14  1  0.06063900  0.43476900  0.80473900  1
  Mo  Mo15  1  0.25908500  0.04897200  0.97360300  1
  O  O16  1  0.29719600  0.87589900  0.06181100  1
  O  O17  1  0.21288600  0.37284000  0.69894000  1
  O  O18  1  0.62716000  0.78711400  0.80106000  1
  O  O19  1  0.54070700  0.42420800  0.59797800  1
  O  O20  1  0.91165800  0.44077900  0.75068900  1
  O  O21  1  0.98508200  0.30689200  0.99110200  1
  O  O22  1  0.85965000  0.38187600  0.22295300  1
  O  O23  1  0.21924800  0.40348100  0.42410800  1
  O  O24  1  0.38187600  0.85965000  0.72295300  1
  O  O25  1  0.08834200  0.55922100  0.24931100  1
  O  O26  1  0.40348100  0.21924800  0.92410800  1
  O  O27  1  0.69310800  0.01491800  0.50889800  1
  O  O28  1  0.90438900  0.93623100  0.90021600  1
  O  O29  1  0.45929300  0.57579200  0.40202200  1
  O  O30  1  0.93623100  0.90438900  0.40021600  1
  O  O31  1  0.09561100  0.06376900  0.09978400  1
  O  O32  1  0.61812400  0.14035000  0.27704700  1
  O  O33  1  0.14035000  0.61812400  0.77704700  1
  O  O34  1  0.57579200  0.45929300  0.90202200  1
  O  O35  1  0.22637700  0.05082500  0.82370900  1
  O  O36  1  0.78075200  0.59651900  0.57589200  1
  O  O37  1  0.44077900  0.91165800  0.25068900  1
  O  O38  1  0.59651900  0.78075200  0.07589200  1
  O  O39  1  0.01491800  0.69310800  0.00889800  1
  O  O40  1  0.94917500  0.77362300  0.67629100  1
  O  O41  1  0.37284100  0.21288600  0.19894000  1
  O  O42  1  0.42420800  0.54070700  0.09797800  1
  O  O43  1  0.55922100  0.08834200  0.74931100  1
  O  O44  1  0.05082500  0.22637700  0.32370900  1
  O  O45  1  0.30689200  0.98508200  0.49110200  1
  O  O46  1  0.12410100  0.70280400  0.43818900  1
  O  O47  1  0.87589900  0.29719600  0.56181100  1
  O  O48  1  0.77362300  0.94917500  0.17629100  1
  O  O49  1  0.06376900  0.09561100  0.59978400  1
  O  O50  1  0.78711400  0.62715900  0.30106000  1
  O  O51  1  0.70280400  0.12410100  0.93818900  1
