# generated using pymatgen
data_TaBi4BrO8
_symmetry_space_group_name_H-M   'P 1'
_cell_length_a   5.54644300
_cell_length_b   5.61040500
_cell_length_c   29.89981000
_cell_angle_alpha   90.00000000
_cell_angle_beta   90.00000000
_cell_angle_gamma   90.00000000
_symmetry_Int_Tables_number   1
_chemical_formula_structural   TaBi4BrO8
_chemical_formula_sum   'Ta4 Bi16 Br4 O32'
_cell_volume   930.41605465
_cell_formula_units_Z   4
loop_
 _symmetry_equiv_pos_site_id
 _symmetry_equiv_pos_as_xyz
  1  'x, y, z'
loop_
 _atom_site_type_symbol
 _atom_site_label
 _atom_site_symmetry_multiplicity
 _atom_site_fract_x
 _atom_site_fract_y
 _atom_site_fract_z
 _atom_site_occupancy
  Ta  Ta0  1  0.50000000  0.51603600  0.25000000  1
  Ta  Ta1  1  0.50000000  0.48396400  0.75000000  1
  Ta  Ta2  1  0.00000000  0.01603600  0.25000000  1
  Ta  Ta3  1  0.00000000  0.98396400  0.75000000  1
  Bi  Bi4  1  0.52489000  0.05645300  0.65885200  1
  Bi  Bi5  1  0.99171000  0.01150600  0.92759100  1
  Bi  Bi6  1  0.02489000  0.44354700  0.34114800  1
  Bi  Bi7  1  0.52489000  0.94354700  0.15885200  1
  Bi  Bi8  1  0.02489000  0.55645300  0.84114800  1
  Bi  Bi9  1  0.00829000  0.01150600  0.57240900  1
  Bi  Bi10  1  0.49171000  0.48849400  0.07240900  1
  Bi  Bi11  1  0.47511000  0.05645300  0.84114800  1
  Bi  Bi12  1  0.50829000  0.51150600  0.92759100  1
  Bi  Bi13  1  0.97511000  0.55645300  0.65885200  1
  Bi  Bi14  1  0.00829000  0.98849400  0.07240900  1
  Bi  Bi15  1  0.47511000  0.94354700  0.34114800  1
  Bi  Bi16  1  0.97511000  0.44354700  0.15885200  1
  Bi  Bi17  1  0.50829000  0.48849400  0.42759100  1
  Bi  Bi18  1  0.49171000  0.51150600  0.57240900  1
  Bi  Bi19  1  0.99171000  0.98849400  0.42759100  1
  Br  Br20  1  0.00000000  0.50000000  0.50000000  1
  Br  Br21  1  0.00000000  0.50000000  0.00000000  1
  Br  Br22  1  0.50000000  0.00000000  0.00000000  1
  Br  Br23  1  0.50000000  0.00000000  0.50000000  1
  O  O24  1  0.25689400  0.25784100  0.60973900  1
  O  O25  1  0.90416400  0.93203700  0.68624700  1
  O  O26  1  0.74932700  0.75243000  0.60828100  1
  O  O27  1  0.74743300  0.20243500  0.76467100  1
  O  O28  1  0.24310600  0.75784100  0.60973900  1
  O  O29  1  0.59583600  0.43203700  0.68624700  1
  O  O30  1  0.75689400  0.24215900  0.39026100  1
  O  O31  1  0.74932700  0.24757000  0.10828100  1
  O  O32  1  0.09583600  0.93203700  0.81375300  1
  O  O33  1  0.75067300  0.25243000  0.60828100  1
  O  O34  1  0.75256700  0.70243500  0.76467100  1
  O  O35  1  0.25256700  0.20243500  0.73532900  1
  O  O36  1  0.24743300  0.70243500  0.73532900  1
  O  O37  1  0.74310600  0.25784100  0.89026100  1
  O  O38  1  0.74743300  0.79756500  0.26467100  1
  O  O39  1  0.75067300  0.74757000  0.10828100  1
  O  O40  1  0.24932700  0.74757000  0.39171900  1
  O  O41  1  0.24310600  0.24215900  0.10973900  1
  O  O42  1  0.25256700  0.79756500  0.23532900  1
  O  O43  1  0.40416400  0.56796300  0.31375300  1
  O  O44  1  0.40416400  0.43203700  0.81375300  1
  O  O45  1  0.09583600  0.06796300  0.31375300  1
  O  O46  1  0.24932700  0.25243000  0.89171900  1
  O  O47  1  0.59583600  0.56796300  0.18624700  1
  O  O48  1  0.25689400  0.74215900  0.10973900  1
  O  O49  1  0.90416400  0.06796300  0.18624700  1
  O  O50  1  0.24743300  0.29756500  0.23532900  1
  O  O51  1  0.75689400  0.75784100  0.89026100  1
  O  O52  1  0.25067300  0.24757000  0.39171900  1
  O  O53  1  0.74310600  0.74215900  0.39026100  1
  O  O54  1  0.25067300  0.75243000  0.89171900  1
  O  O55  1  0.75256700  0.29756500  0.26467100  1
