# generated using pymatgen
data_Al(SeCl2)2
_symmetry_space_group_name_H-M   'P 1'
_cell_length_a   9.35202200
_cell_length_b   13.97263600
_cell_length_c   13.99036200
_cell_angle_alpha   90.00000000
_cell_angle_beta   90.00000000
_cell_angle_gamma   90.00000000
_symmetry_Int_Tables_number   1
_chemical_formula_structural   Al(SeCl2)2
_chemical_formula_sum   'Al8 Se16 Cl32'
_cell_volume   1828.15416920
_cell_formula_units_Z   8
loop_
 _symmetry_equiv_pos_site_id
 _symmetry_equiv_pos_as_xyz
  1  'x, y, z'
loop_
 _atom_site_type_symbol
 _atom_site_label
 _atom_site_symmetry_multiplicity
 _atom_site_fract_x
 _atom_site_fract_y
 _atom_site_fract_z
 _atom_site_occupancy
  Al  Al0  1  0.50000000  0.60163000  0.33159800  1
  Al  Al1  1  0.00000000  0.83940300  0.38451900  1
  Al  Al2  1  0.00000000  0.33940300  0.11548100  1
  Al  Al3  1  0.50000000  0.89837000  0.83159800  1
  Al  Al4  1  0.00000000  0.16059700  0.61548100  1
  Al  Al5  1  0.50000000  0.39837000  0.66840200  1
  Al  Al6  1  0.00000000  0.66059700  0.88451900  1
  Al  Al7  1  0.50000000  0.10163000  0.16840200  1
  Se  Se8  1  0.32261800  0.50000000  0.00000000  1
  Se  Se9  1  0.00000000  0.48588900  0.61740000  1
  Se  Se10  1  0.82269300  0.50000000  0.50000000  1
  Se  Se11  1  0.50000000  0.11562800  0.52516600  1
  Se  Se12  1  0.82269300  0.00000000  0.00000000  1
  Se  Se13  1  0.00000000  0.51411100  0.38260000  1
  Se  Se14  1  0.17730700  0.50000000  0.50000000  1
  Se  Se15  1  0.32261800  0.00000000  0.50000000  1
  Se  Se16  1  0.00000000  0.01411100  0.11740000  1
  Se  Se17  1  0.50000000  0.38437200  0.02516600  1
  Se  Se18  1  0.17730700  0.00000000  0.00000000  1
  Se  Se19  1  0.00000000  0.98588900  0.88260000  1
  Se  Se20  1  0.67738200  0.50000000  0.00000000  1
  Se  Se21  1  0.50000000  0.88437200  0.47483400  1
  Se  Se22  1  0.50000000  0.61562800  0.97483400  1
  Se  Se23  1  0.67738200  0.00000000  0.50000000  1
  Cl  Cl24  1  0.68512300  0.98904900  0.80014500  1
  Cl  Cl25  1  0.31487700  0.98904900  0.80014500  1
  Cl  Cl26  1  0.50000000  0.27469100  0.75686300  1
  Cl  Cl27  1  0.50000000  0.63465600  0.48175200  1
  Cl  Cl28  1  0.50000000  0.22530900  0.25686300  1
  Cl  Cl29  1  0.81431900  0.69954000  0.97151100  1
  Cl  Cl30  1  0.50000000  0.86534400  0.98175200  1
  Cl  Cl31  1  0.00000000  0.73820600  0.75381100  1
  Cl  Cl32  1  0.00000000  0.23820600  0.74618900  1
  Cl  Cl33  1  0.31487700  0.51095100  0.30014500  1
  Cl  Cl34  1  0.81431900  0.80046000  0.47151100  1
  Cl  Cl35  1  0.00000000  0.49193100  0.13534300  1
  Cl  Cl36  1  0.00000000  0.99193100  0.36465700  1
  Cl  Cl37  1  0.00000000  0.00806900  0.63534300  1
  Cl  Cl38  1  0.00000000  0.76179400  0.25381100  1
  Cl  Cl39  1  0.81431900  0.19954000  0.52848900  1
  Cl  Cl40  1  0.31487700  0.48904900  0.69985500  1
  Cl  Cl41  1  0.18568100  0.19954000  0.52848900  1
  Cl  Cl42  1  0.31487700  0.01095100  0.19985500  1
  Cl  Cl43  1  0.68512300  0.48904900  0.69985500  1
  Cl  Cl44  1  0.50000000  0.72530900  0.24313700  1
  Cl  Cl45  1  0.18568100  0.69954000  0.97151100  1
  Cl  Cl46  1  0.50000000  0.36534400  0.51824800  1
  Cl  Cl47  1  0.18568100  0.30046000  0.02848900  1
  Cl  Cl48  1  0.50000000  0.13465600  0.01824800  1
  Cl  Cl49  1  0.68512300  0.01095100  0.19985500  1
  Cl  Cl50  1  0.81431900  0.30046000  0.02848900  1
  Cl  Cl51  1  0.18568100  0.80046000  0.47151100  1
  Cl  Cl52  1  0.00000000  0.26179400  0.24618900  1
  Cl  Cl53  1  0.68512300  0.51095100  0.30014500  1
  Cl  Cl54  1  0.50000000  0.77469100  0.74313700  1
  Cl  Cl55  1  0.00000000  0.50806900  0.86465700  1
