# generated using pymatgen
data_K3Nd(AsS4)2
_symmetry_space_group_name_H-M   'P 1'
_cell_length_a   11.04348685
_cell_length_b   11.04348685
_cell_length_c   9.10152070
_cell_angle_alpha   77.10101880
_cell_angle_beta   77.10101880
_cell_angle_gamma   122.48991770
_symmetry_Int_Tables_number   1
_chemical_formula_structural   K3Nd(AsS4)2
_chemical_formula_sum   'K6 Nd2 As4 S16'
_cell_volume   829.36839581
_cell_formula_units_Z   2
loop_
 _symmetry_equiv_pos_site_id
 _symmetry_equiv_pos_as_xyz
  1  'x, y, z'
loop_
 _atom_site_type_symbol
 _atom_site_label
 _atom_site_symmetry_multiplicity
 _atom_site_fract_x
 _atom_site_fract_y
 _atom_site_fract_z
 _atom_site_occupancy
  K  K0  1  0.00354600  0.99645400  0.25000000  1
  K  K1  1  0.99645400  0.00354600  0.75000000  1
  K  K2  1  0.25815300  0.74184700  0.25000000  1
  K  K3  1  0.50000000  0.50000000  0.00000000  1
  K  K4  1  0.74184700  0.25815300  0.75000000  1
  K  K5  1  0.50000000  0.50000000  0.50000000  1
  Nd  Nd6  1  0.24271900  0.75728100  0.75000000  1
  Nd  Nd7  1  0.75728100  0.24271900  0.25000000  1
  As  As8  1  0.90584700  0.65739200  0.10428000  1
  As  As9  1  0.09415300  0.34260800  0.89572000  1
  As  As10  1  0.65739200  0.90584700  0.60428000  1
  As  As11  1  0.34260800  0.09415300  0.39572000  1
  S  S12  1  0.84420600  0.13247500  0.01893600  1
  S  S13  1  0.26780800  0.23936500  0.37080600  1
  S  S14  1  0.86116900  0.50537300  0.34474200  1
  S  S15  1  0.50537300  0.86116900  0.84474200  1
  S  S16  1  0.47000600  0.12612900  0.55626400  1
  S  S17  1  0.76063500  0.73219200  0.12919400  1
  S  S18  1  0.13883100  0.49462700  0.65525800  1
  S  S19  1  0.52999400  0.87387100  0.44373600  1
  S  S20  1  0.13247500  0.84420600  0.51893600  1
  S  S21  1  0.87387100  0.52999400  0.94373600  1
  S  S22  1  0.12612900  0.47000600  0.05626400  1
  S  S23  1  0.73219200  0.76063500  0.62919400  1
  S  S24  1  0.49462700  0.13883100  0.15525800  1
  S  S25  1  0.15579400  0.86752500  0.98106400  1
  S  S26  1  0.86752500  0.15579400  0.48106400  1
  S  S27  1  0.23936500  0.26780800  0.87080600  1
