# generated using pymatgen
data_K2Pd(NO3)4
_symmetry_space_group_name_H-M   'P 1'
_cell_length_a   15.92584100
_cell_length_b   8.13887200
_cell_length_c   9.67561826
_cell_angle_alpha   88.66603015
_cell_angle_beta   90.00000000
_cell_angle_gamma   90.00000000
_symmetry_Int_Tables_number   1
_chemical_formula_structural   K2Pd(NO3)4
_chemical_formula_sum   'K8 Pd4 N16 O48'
_cell_volume   1253.79808473
_cell_formula_units_Z   4
loop_
 _symmetry_equiv_pos_site_id
 _symmetry_equiv_pos_as_xyz
  1  'x, y, z'
loop_
 _atom_site_type_symbol
 _atom_site_label
 _atom_site_symmetry_multiplicity
 _atom_site_fract_x
 _atom_site_fract_y
 _atom_site_fract_z
 _atom_site_occupancy
  K  K0  1  0.83965100  0.22476700  0.01512700  1
  K  K1  1  0.66034900  0.22476700  0.51512700  1
  K  K2  1  0.09357200  0.25443100  0.54996300  1
  K  K3  1  0.90642800  0.74556900  0.45003700  1
  K  K4  1  0.16034900  0.77523300  0.98487300  1
  K  K5  1  0.40642800  0.25443100  0.04996300  1
  K  K6  1  0.59357200  0.74556900  0.95003700  1
  K  K7  1  0.33965100  0.77523300  0.48487300  1
  Pd  Pd8  1  0.87991400  0.73000600  0.82410900  1
  Pd  Pd9  1  0.62008600  0.73000600  0.32410900  1
  Pd  Pd10  1  0.12008600  0.26999400  0.17589100  1
  Pd  Pd11  1  0.37991400  0.26999400  0.67589100  1
  N  N12  1  0.19382400  0.57006100  0.28512100  1
  N  N13  1  0.96205900  0.43105600  0.23779200  1
  N  N14  1  0.80617600  0.42993900  0.71487900  1
  N  N15  1  0.04098900  0.95422300  0.23992700  1
  N  N16  1  0.45901100  0.95422300  0.73992700  1
  N  N17  1  0.76620100  0.89797300  0.20744500  1
  N  N18  1  0.73379900  0.89797300  0.70744500  1
  N  N19  1  0.46205900  0.56894400  0.26220800  1
  N  N20  1  0.30617600  0.57006100  0.78512100  1
  N  N21  1  0.54098900  0.04577700  0.26007300  1
  N  N22  1  0.69382400  0.42993900  0.21487900  1
  N  N23  1  0.95901100  0.04577700  0.76007300  1
  N  N24  1  0.23379900  0.10202700  0.79255500  1
  N  N25  1  0.53794100  0.43105600  0.73779200  1
  N  N26  1  0.26620100  0.10202700  0.29255500  1
  N  N27  1  0.03794100  0.56894400  0.76220800  1
  O  O28  1  0.99852000  0.45402600  0.34953600  1
  O  O29  1  0.10916400  0.51531200  0.79102100  1
  O  O30  1  0.84000400  0.94922500  0.21228200  1
  O  O31  1  0.19846300  0.48788900  0.39432500  1
  O  O32  1  0.52586300  0.19257400  0.28286200  1
  O  O33  1  0.47413700  0.80742600  0.71713800  1
  O  O34  1  0.80153700  0.51211100  0.60567500  1
  O  O35  1  0.58607900  0.96691000  0.35659200  1
  O  O36  1  0.08607900  0.03309000  0.14340800  1
  O  O37  1  0.15999600  0.05077500  0.78771800  1
  O  O38  1  0.50148000  0.45402600  0.84953600  1
  O  O39  1  0.34000400  0.05077500  0.28771800  1
  O  O40  1  0.49910700  0.65614500  0.35940900  1
  O  O41  1  0.51693800  0.97235100  0.15594800  1
  O  O42  1  0.22028000  0.71403800  0.27033000  1
  O  O43  1  0.84070800  0.49230300  0.82682900  1
  O  O44  1  0.65999600  0.94922500  0.71228200  1
  O  O45  1  0.75735700  0.80237200  0.81358600  1
  O  O46  1  0.24264300  0.19762800  0.18641400  1
  O  O47  1  0.71629800  0.93163100  0.11231700  1
  O  O48  1  0.00089300  0.65614500  0.85940900  1
  O  O49  1  0.78370200  0.93163100  0.61231700  1
  O  O50  1  0.28370200  0.06836900  0.88768300  1
  O  O51  1  0.98306200  0.97235100  0.65594800  1
  O  O52  1  0.50089300  0.34385500  0.64059100  1
  O  O53  1  0.34070800  0.50769700  0.67317100  1
  O  O54  1  0.91392100  0.96691000  0.85659200  1
  O  O55  1  0.72028000  0.28596200  0.22967000  1
  O  O56  1  0.15929200  0.50769700  0.17317100  1
  O  O57  1  0.65929200  0.49230300  0.32682900  1
  O  O58  1  0.97413700  0.19257400  0.78286200  1
  O  O59  1  0.30153700  0.48788900  0.89432500  1
  O  O60  1  0.49852000  0.54597400  0.15046400  1
  O  O61  1  0.74264300  0.80237200  0.31358600  1
  O  O62  1  0.69846300  0.51211100  0.10567500  1
  O  O63  1  0.01693800  0.02764900  0.34405200  1
  O  O64  1  0.41392100  0.03309000  0.64340800  1
  O  O65  1  0.89083600  0.48468800  0.20897900  1
  O  O66  1  0.27972000  0.71403800  0.77033000  1
  O  O67  1  0.02586300  0.80742600  0.21713800  1
  O  O68  1  0.21629800  0.06836900  0.38768300  1
  O  O69  1  0.39083600  0.51531200  0.29102100  1
  O  O70  1  0.48306200  0.02764900  0.84405200  1
  O  O71  1  0.00148000  0.54597400  0.65046400  1
  O  O72  1  0.25735700  0.19762800  0.68641400  1
  O  O73  1  0.99910700  0.34385500  0.14059100  1
  O  O74  1  0.77972000  0.28596200  0.72967000  1
  O  O75  1  0.60916400  0.48468800  0.70897900  1
