# generated using pymatgen
data_Ce3CCl5
_symmetry_space_group_name_H-M   'P 1'
_cell_length_a   8.26551393
_cell_length_b   8.26551393
_cell_length_c   15.87241403
_cell_angle_alpha   83.55228738
_cell_angle_beta   83.55228738
_cell_angle_gamma   63.77977765
_symmetry_Int_Tables_number   1
_chemical_formula_structural   Ce3CCl5
_chemical_formula_sum   'Ce12 C4 Cl20'
_cell_volume   964.25682006
_cell_formula_units_Z   4
loop_
 _symmetry_equiv_pos_site_id
 _symmetry_equiv_pos_as_xyz
  1  'x, y, z'
loop_
 _atom_site_type_symbol
 _atom_site_label
 _atom_site_symmetry_multiplicity
 _atom_site_fract_x
 _atom_site_fract_y
 _atom_site_fract_z
 _atom_site_occupancy
  Ce  Ce0  1  0.99739400  0.29105300  0.04515200  1
  Ce  Ce1  1  0.00260600  0.70894700  0.95484800  1
  Ce  Ce2  1  0.91027400  0.65477900  0.20158900  1
  Ce  Ce3  1  0.54249800  0.71420500  0.06111300  1
  Ce  Ce4  1  0.29105300  0.99739400  0.54515200  1
  Ce  Ce5  1  0.08972600  0.34522100  0.79841100  1
  Ce  Ce6  1  0.45750200  0.28579500  0.93888700  1
  Ce  Ce7  1  0.70894700  0.00260600  0.45484800  1
  Ce  Ce8  1  0.28579500  0.45750200  0.43888700  1
  Ce  Ce9  1  0.34522100  0.08972600  0.29841100  1
  Ce  Ce10  1  0.71420500  0.54249800  0.56111300  1
  Ce  Ce11  1  0.65477900  0.91027400  0.70158900  1
  C  C12  1  0.14880700  0.39247600  0.93094100  1
  C  C13  1  0.39247600  0.14880700  0.43094100  1
  C  C14  1  0.60752400  0.85119300  0.56905900  1
  C  C15  1  0.85119300  0.60752400  0.06905900  1
  Cl  Cl16  1  0.09640000  0.84831400  0.09791700  1
  Cl  Cl17  1  0.09944500  0.37568300  0.59391000  1
  Cl  Cl18  1  0.84831400  0.09640000  0.59791700  1
  Cl  Cl19  1  0.01322100  0.71983500  0.76657200  1
  Cl  Cl20  1  0.98677900  0.28016500  0.23342800  1
  Cl  Cl21  1  0.37833600  0.65478200  0.91919900  1
  Cl  Cl22  1  0.62166400  0.34521800  0.08080100  1
  Cl  Cl23  1  0.46264700  0.28186600  0.75855900  1
  Cl  Cl24  1  0.28016500  0.98677900  0.73342800  1
  Cl  Cl25  1  0.37568300  0.09944500  0.09391000  1
  Cl  Cl26  1  0.34521800  0.62166400  0.58080100  1
  Cl  Cl27  1  0.71983500  0.01322100  0.26657200  1
  Cl  Cl28  1  0.65478200  0.37833600  0.41919900  1
  Cl  Cl29  1  0.71813400  0.53735300  0.74144100  1
  Cl  Cl30  1  0.53735300  0.71813400  0.24144100  1
  Cl  Cl31  1  0.62431700  0.90055500  0.90609000  1
  Cl  Cl32  1  0.90360000  0.15168600  0.90208300  1
  Cl  Cl33  1  0.90055500  0.62431700  0.40609000  1
  Cl  Cl34  1  0.28186600  0.46264700  0.25855900  1
  Cl  Cl35  1  0.15168600  0.90360000  0.40208300  1
