# generated using pymatgen
data_CeGeRh
_symmetry_space_group_name_H-M   'P 1'
_cell_length_a   4.41053600
_cell_length_b   7.05890300
_cell_length_c   7.62689700
_cell_angle_alpha   90.00000000
_cell_angle_beta   90.00000000
_cell_angle_gamma   90.00000000
_symmetry_Int_Tables_number   1
_chemical_formula_structural   CeGeRh
_chemical_formula_sum   'Ce4 Ge4 Rh4'
_cell_volume   237.45234708
_cell_formula_units_Z   4
loop_
 _symmetry_equiv_pos_site_id
 _symmetry_equiv_pos_as_xyz
  1  'x, y, z'
loop_
 _atom_site_type_symbol
 _atom_site_label
 _atom_site_symmetry_multiplicity
 _atom_site_fract_x
 _atom_site_fract_y
 _atom_site_fract_z
 _atom_site_occupancy
  Ce  Ce0  1  0.25000000  0.98381300  0.80163200  1
  Ce  Ce1  1  0.25000000  0.48381300  0.69836800  1
  Ce  Ce2  1  0.75000000  0.01618700  0.19836800  1
  Ce  Ce3  1  0.75000000  0.51618700  0.30163200  1
  Ge  Ge4  1  0.25000000  0.82074500  0.41938800  1
  Ge  Ge5  1  0.25000000  0.32074500  0.08061200  1
  Ge  Ge6  1  0.75000000  0.17925500  0.58061200  1
  Ge  Ge7  1  0.75000000  0.67925500  0.91938800  1
  Rh  Rh8  1  0.25000000  0.21121500  0.40634000  1
  Rh  Rh9  1  0.25000000  0.71121500  0.09366000  1
  Rh  Rh10  1  0.75000000  0.78878500  0.59366000  1
  Rh  Rh11  1  0.75000000  0.28878500  0.90634000  1
