# generated using pymatgen
data_Nd3Sb5Pd6
_symmetry_space_group_name_H-M   'P 1'
_cell_length_a   4.49444600
_cell_length_b   10.12623500
_cell_length_c   13.59179300
_cell_angle_alpha   90.00000000
_cell_angle_beta   90.00000000
_cell_angle_gamma   90.00000000
_symmetry_Int_Tables_number   1
_chemical_formula_structural   Nd3Sb5Pd6
_chemical_formula_sum   'Nd6 Sb10 Pd12'
_cell_volume   618.58718744
_cell_formula_units_Z   2
loop_
 _symmetry_equiv_pos_site_id
 _symmetry_equiv_pos_as_xyz
  1  'x, y, z'
loop_
 _atom_site_type_symbol
 _atom_site_label
 _atom_site_symmetry_multiplicity
 _atom_site_fract_x
 _atom_site_fract_y
 _atom_site_fract_z
 _atom_site_occupancy
  Nd  Nd0  1  0.00000000  0.24339800  0.00000000  1
  Nd  Nd1  1  0.50000000  0.75660200  0.50000000  1
  Nd  Nd2  1  0.00000000  0.24504900  0.32351200  1
  Nd  Nd3  1  0.50000000  0.75495100  0.17648800  1
  Nd  Nd4  1  0.00000000  0.24504900  0.67648800  1
  Nd  Nd5  1  0.50000000  0.75495100  0.82351200  1
  Sb  Sb6  1  0.00000000  0.52381900  0.12636700  1
  Sb  Sb7  1  0.50000000  0.47618100  0.37363300  1
  Sb  Sb8  1  0.00000000  0.52381900  0.87363300  1
  Sb  Sb9  1  0.50000000  0.47618100  0.62636700  1
  Sb  Sb10  1  0.00000000  0.86276600  0.33729500  1
  Sb  Sb11  1  0.50000000  0.13723400  0.16270500  1
  Sb  Sb12  1  0.00000000  0.86276600  0.66270500  1
  Sb  Sb13  1  0.50000000  0.13723400  0.83729500  1
  Sb  Sb14  1  0.00000000  0.82687600  0.00000000  1
  Sb  Sb15  1  0.50000000  0.17312400  0.50000000  1
  Pd  Pd16  1  0.00000000  0.99026800  0.15995400  1
  Pd  Pd17  1  0.50000000  0.00973200  0.34004600  1
  Pd  Pd18  1  0.00000000  0.99026800  0.84004600  1
  Pd  Pd19  1  0.50000000  0.00973200  0.65995400  1
  Pd  Pd20  1  0.50000000  0.98145300  0.00000000  1
  Pd  Pd21  1  0.00000000  0.01854700  0.50000000  1
  Pd  Pd22  1  0.00000000  0.60266800  0.31776200  1
  Pd  Pd23  1  0.50000000  0.39733200  0.18223800  1
  Pd  Pd24  1  0.00000000  0.60266800  0.68223800  1
  Pd  Pd25  1  0.50000000  0.39733200  0.81776200  1
  Pd  Pd26  1  0.50000000  0.52753400  0.00000000  1
  Pd  Pd27  1  0.00000000  0.47246600  0.50000000  1
