# generated using pymatgen
data_NdGeBO5
_symmetry_space_group_name_H-M   'P 1'
_cell_length_a   7.68111000
_cell_length_b   5.01000500
_cell_length_c   10.14340642
_cell_angle_alpha   88.05925343
_cell_angle_beta   90.00000000
_cell_angle_gamma   90.00000000
_symmetry_Int_Tables_number   1
_chemical_formula_structural   NdGeBO5
_chemical_formula_sum   'Nd4 Ge4 B4 O20'
_cell_volume   390.11871144
_cell_formula_units_Z   4
loop_
 _symmetry_equiv_pos_site_id
 _symmetry_equiv_pos_as_xyz
  1  'x, y, z'
loop_
 _atom_site_type_symbol
 _atom_site_label
 _atom_site_symmetry_multiplicity
 _atom_site_fract_x
 _atom_site_fract_y
 _atom_site_fract_z
 _atom_site_occupancy
  Nd  Nd0  1  0.10801400  0.00673700  0.32065800  1
  Nd  Nd1  1  0.60801400  0.99326300  0.17934200  1
  Nd  Nd2  1  0.89198600  0.99326300  0.67934200  1
  Nd  Nd3  1  0.39198600  0.00673700  0.82065800  1
  Ge  Ge4  1  0.76548900  0.47114000  0.42415000  1
  Ge  Ge5  1  0.26548900  0.52886000  0.07585000  1
  Ge  Ge6  1  0.23451100  0.52886000  0.57585000  1
  Ge  Ge7  1  0.73451100  0.47114000  0.92415000  1
  B  B8  1  0.09617400  0.45503400  0.83071900  1
  B  B9  1  0.59617400  0.54496600  0.66928100  1
  B  B10  1  0.90382600  0.54496600  0.16928100  1
  B  B11  1  0.40382600  0.45503400  0.33071900  1
  O  O12  1  0.10318400  0.73379900  0.81049000  1
  O  O13  1  0.60318400  0.26620100  0.68951000  1
  O  O14  1  0.89681600  0.26620100  0.18951000  1
  O  O15  1  0.39681600  0.73379900  0.31049000  1
  O  O16  1  0.21435400  0.33885200  0.93597400  1
  O  O17  1  0.71435400  0.66114800  0.56402600  1
  O  O18  1  0.78564600  0.66114800  0.06402600  1
  O  O19  1  0.28564600  0.33885200  0.43597400  1
  O  O20  1  0.16002700  0.29750300  0.70437500  1
  O  O21  1  0.66002700  0.70249700  0.79562500  1
  O  O22  1  0.83997300  0.70249700  0.29562500  1
  O  O23  1  0.33997300  0.29750300  0.20437500  1
  O  O24  1  0.08904600  0.77782300  0.52759200  1
  O  O25  1  0.58904600  0.22217700  0.97240800  1
  O  O26  1  0.91095400  0.22217700  0.47240800  1
  O  O27  1  0.41095400  0.77782300  0.02759200  1
  O  O28  1  0.07895800  0.67112700  0.15004400  1
  O  O29  1  0.57895800  0.32887300  0.34995600  1
  O  O30  1  0.92104200  0.32887300  0.84995600  1
  O  O31  1  0.42104200  0.67112700  0.65004400  1
