# generated using pymatgen
data_Gd3CuGeSe7
_symmetry_space_group_name_H-M   'P 1'
_cell_length_a   10.45366126
_cell_length_b   10.45366126
_cell_length_c   6.10188600
_cell_angle_alpha   90.00000000
_cell_angle_beta   90.00000000
_cell_angle_gamma   119.99999532
_symmetry_Int_Tables_number   1
_chemical_formula_structural   Gd3CuGeSe7
_chemical_formula_sum   'Gd6 Cu2 Ge2 Se14'
_cell_volume   577.47287315
_cell_formula_units_Z   2
loop_
 _symmetry_equiv_pos_site_id
 _symmetry_equiv_pos_as_xyz
  1  'x, y, z'
loop_
 _atom_site_type_symbol
 _atom_site_label
 _atom_site_symmetry_multiplicity
 _atom_site_fract_x
 _atom_site_fract_y
 _atom_site_fract_z
 _atom_site_occupancy
  Gd  Gd0  1  0.22250600  0.86702800  0.74966600  1
  Gd  Gd1  1  0.35547800  0.22250600  0.24966600  1
  Gd  Gd2  1  0.86702800  0.64452200  0.24966600  1
  Gd  Gd3  1  0.64452200  0.77749400  0.74966600  1
  Gd  Gd4  1  0.13297200  0.35547800  0.74966600  1
  Gd  Gd5  1  0.77749400  0.13297200  0.24966600  1
  Cu  Cu6  1  0.00000000  0.00000000  0.71287700  1
  Cu  Cu7  1  0.00000000  0.00000000  0.21287700  1
  Ge  Ge8  1  0.33333300  0.66666700  0.33198300  1
  Ge  Ge9  1  0.66666700  0.33333300  0.83198300  1
  Se  Se10  1  0.25970900  0.16109700  0.72593200  1
  Se  Se11  1  0.51805100  0.09445300  0.99612700  1
  Se  Se12  1  0.66666700  0.33333300  0.44526500  1
  Se  Se13  1  0.90554700  0.42359700  0.99612700  1
  Se  Se14  1  0.42359700  0.51805100  0.49612700  1
  Se  Se15  1  0.09861200  0.25970900  0.22593200  1
  Se  Se16  1  0.33333300  0.66666700  0.94526500  1
  Se  Se17  1  0.90138800  0.74029100  0.72593200  1
  Se  Se18  1  0.74029100  0.83890300  0.22593200  1
  Se  Se19  1  0.48194900  0.90554700  0.49612700  1
  Se  Se20  1  0.09445300  0.57640300  0.49612700  1
  Se  Se21  1  0.57640300  0.48194900  0.99612700  1
  Se  Se22  1  0.16109700  0.90138800  0.22593200  1
  Se  Se23  1  0.83890300  0.09861200  0.72593200  1
