# generated using pymatgen
data_NaNd(GaSe2)4
_symmetry_space_group_name_H-M   'P 1'
_cell_length_a   15.14430967
_cell_length_b   12.50537918
_cell_length_c   12.48149581
_cell_angle_alpha   74.61465212
_cell_angle_beta   52.76454471
_cell_angle_gamma   52.62080317
_symmetry_Int_Tables_number   1
_chemical_formula_structural   NaNd(GaSe2)4
_chemical_formula_sum   'Na4 Nd4 Ga16 Se32'
_cell_volume   1475.89579294
_cell_formula_units_Z   4
loop_
 _symmetry_equiv_pos_site_id
 _symmetry_equiv_pos_as_xyz
  1  'x, y, z'
loop_
 _atom_site_type_symbol
 _atom_site_label
 _atom_site_symmetry_multiplicity
 _atom_site_fract_x
 _atom_site_fract_y
 _atom_site_fract_z
 _atom_site_occupancy
  Na  Na0  1  0.49662600  0.49662600  0.00337400  1
  Na  Na1  1  0.00337400  0.00337400  0.49662600  1
  Na  Na2  1  0.24662600  0.24662600  0.75337400  1
  Na  Na3  1  0.75337400  0.75337400  0.24662600  1
  Nd  Nd4  1  0.25000000  0.25000000  0.25000000  1
  Nd  Nd5  1  0.00000000  0.00000000  0.00000000  1
  Nd  Nd6  1  0.50000000  0.50000000  0.50000000  1
  Nd  Nd7  1  0.75000000  0.75000000  0.75000000  1
  Ga  Ga8  1  0.74124700  0.01399100  0.48808800  1
  Ga  Ga9  1  0.15544400  0.59634100  0.98470200  1
  Ga  Ga10  1  0.75667300  0.48808800  0.01399100  1
  Ga  Ga11  1  0.26529800  0.98648700  0.09455600  1
  Ga  Ga12  1  0.50875300  0.23600900  0.76191200  1
  Ga  Ga13  1  0.65365900  0.09455600  0.98648700  1
  Ga  Ga14  1  0.48808800  0.75667300  0.74124700  1
  Ga  Ga15  1  0.98470200  0.26351300  0.15544400  1
  Ga  Ga16  1  0.09455600  0.65365900  0.26529800  1
  Ga  Ga17  1  0.59634100  0.15544400  0.26351300  1
  Ga  Ga18  1  0.76191200  0.49332700  0.50875300  1
  Ga  Ga19  1  0.26351300  0.98470200  0.59634100  1
  Ga  Ga20  1  0.23600900  0.50875300  0.49332700  1
  Ga  Ga21  1  0.01399100  0.74124700  0.75667300  1
  Ga  Ga22  1  0.49332700  0.76191200  0.23600900  1
  Ga  Ga23  1  0.98648700  0.26529800  0.65365900  1
  Se  Se24  1  0.22024000  0.70317900  0.53489600  1
  Se  Se25  1  0.03608100  0.03981300  0.71845800  1
  Se  Se26  1  0.44217800  0.30689100  0.47614900  1
  Se  Se27  1  0.71845800  0.20564800  0.03608100  1
  Se  Se28  1  0.70831500  0.71510400  0.54682100  1
  Se  Se29  1  0.47521900  0.77385100  0.94310900  1
  Se  Se30  1  0.53154200  0.04435200  0.21391900  1
  Se  Se31  1  0.96716800  0.27627100  0.96833300  1
  Se  Se32  1  0.03981300  0.03608100  0.20564800  1
  Se  Se33  1  0.77478100  0.47614900  0.30689100  1
  Se  Se34  1  0.02976000  0.54682100  0.71510400  1
  Se  Se35  1  0.28283200  0.97372900  0.28166700  1
  Se  Se36  1  0.54168500  0.53489600  0.70317900  1
  Se  Se37  1  0.27627100  0.96716800  0.78822800  1
  Se  Se38  1  0.97372900  0.28283200  0.46177200  1
  Se  Se39  1  0.20564800  0.71845800  0.03981300  1
  Se  Se40  1  0.80782200  0.94310900  0.77385100  1
  Se  Se41  1  0.78822800  0.96833300  0.27627100  1
  Se  Se42  1  0.47614900  0.77478100  0.44217800  1
  Se  Se43  1  0.94310900  0.80782200  0.47521900  1
  Se  Se44  1  0.77385100  0.47521900  0.80782200  1
  Se  Se45  1  0.53489600  0.54168500  0.22024000  1
  Se  Se46  1  0.96833300  0.78822800  0.96716800  1
  Se  Se47  1  0.21391900  0.21018700  0.53154200  1
  Se  Se48  1  0.71510400  0.70831500  0.02976000  1
  Se  Se49  1  0.70317900  0.22024000  0.54168500  1
  Se  Se50  1  0.28166700  0.46177200  0.28283200  1
  Se  Se51  1  0.30689100  0.44217800  0.77478100  1
  Se  Se52  1  0.04435200  0.53154200  0.21018700  1
  Se  Se53  1  0.46177200  0.28166700  0.97372900  1
  Se  Se54  1  0.54682100  0.02976000  0.70831500  1
  Se  Se55  1  0.21018700  0.21391900  0.04435200  1
