# generated using pymatgen
data_Ba2CoSi2O7
_symmetry_space_group_name_H-M   'P 1'
_cell_length_a   5.48559900
_cell_length_b   8.31916200
_cell_length_c   8.31916200
_cell_angle_alpha   90.00000000
_cell_angle_beta   90.00000000
_cell_angle_gamma   90.00000000
_symmetry_Int_Tables_number   1
_chemical_formula_structural   Ba2CoSi2O7
_chemical_formula_sum   'Ba4 Co2 Si4 O14'
_cell_volume   379.64983912
_cell_formula_units_Z   2
loop_
 _symmetry_equiv_pos_site_id
 _symmetry_equiv_pos_as_xyz
  1  'x, y, z'
loop_
 _atom_site_type_symbol
 _atom_site_label
 _atom_site_symmetry_multiplicity
 _atom_site_fract_x
 _atom_site_fract_y
 _atom_site_fract_z
 _atom_site_occupancy
  Ba  Ba0  1  0.00933700  0.33417800  0.16582200  1
  Ba  Ba1  1  0.99066300  0.16582200  0.66582200  1
  Ba  Ba2  1  0.99066300  0.83417800  0.33417800  1
  Ba  Ba3  1  0.00933700  0.66582200  0.83417800  1
  Co  Co4  1  0.50000000  0.50000000  0.50000000  1
  Co  Co5  1  0.50000000  0.00000000  0.00000000  1
  Si  Si6  1  0.54139900  0.63628000  0.13628000  1
  Si  Si7  1  0.45860100  0.13628000  0.36372000  1
  Si  Si8  1  0.45860100  0.86372000  0.63628000  1
  Si  Si9  1  0.54139900  0.36372000  0.86372000  1
  O  O10  1  0.63894500  0.50000000  0.00000000  1
  O  O11  1  0.36105500  0.00000000  0.50000000  1
  O  O12  1  0.24641900  0.63907400  0.13907400  1
  O  O13  1  0.75358200  0.13907400  0.36092600  1
  O  O14  1  0.75358200  0.86092600  0.63907400  1
  O  O15  1  0.24641900  0.36092600  0.86092600  1
  O  O16  1  0.67681400  0.80421700  0.07813000  1
  O  O17  1  0.32318600  0.07813000  0.19578300  1
  O  O18  1  0.32318600  0.92187000  0.80421700  1
  O  O19  1  0.67681400  0.19578300  0.92187000  1
  O  O20  1  0.32318600  0.30421700  0.42187000  1
  O  O21  1  0.32318600  0.69578300  0.57813000  1
  O  O22  1  0.67681400  0.42187000  0.69578300  1
  O  O23  1  0.67681400  0.57813000  0.30421700  1
