# generated using pymatgen
data_Rb2CoH12(SeO7)2
_symmetry_space_group_name_H-M   'P 1'
_cell_length_a   12.73180700
_cell_length_b   6.45632200
_cell_length_c   9.37618070
_cell_angle_alpha   75.61446175
_cell_angle_beta   90.00000000
_cell_angle_gamma   90.00000000
_symmetry_Int_Tables_number   1
_chemical_formula_structural   Rb2CoH12(SeO7)2
_chemical_formula_sum   'Rb4 Co2 H24 Se4 O28'
_cell_volume   746.56262158
_cell_formula_units_Z   2
loop_
 _symmetry_equiv_pos_site_id
 _symmetry_equiv_pos_as_xyz
  1  'x, y, z'
loop_
 _atom_site_type_symbol
 _atom_site_label
 _atom_site_symmetry_multiplicity
 _atom_site_fract_x
 _atom_site_fract_y
 _atom_site_fract_z
 _atom_site_occupancy
  Rb  Rb0  1  0.34605100  0.65642800  0.13143100  1
  Rb  Rb1  1  0.84605100  0.34357200  0.36856900  1
  Rb  Rb2  1  0.65394900  0.34357200  0.86856900  1
  Rb  Rb3  1  0.15394900  0.65642800  0.63143100  1
  Co  Co4  1  0.00000000  0.00000000  0.00000000  1
  Co  Co5  1  0.50000000  0.00000000  0.50000000  1
  H  H6  1  0.08767700  0.68929000  0.19943500  1
  H  H7  1  0.58767700  0.31071000  0.30056500  1
  H  H8  1  0.91232300  0.31071000  0.80056500  1
  H  H9  1  0.41232300  0.68929000  0.69943500  1
  H  H10  1  0.12417700  0.91030000  0.23550000  1
  H  H11  1  0.62417700  0.08970000  0.26450000  1
  H  H12  1  0.87582300  0.08970000  0.76450000  1
  H  H13  1  0.37582300  0.91030000  0.73550000  1
  H  H14  1  0.09632900  0.07289200  0.72884100  1
  H  H15  1  0.59632900  0.92710800  0.77115900  1
  H  H16  1  0.90367100  0.92710800  0.27115900  1
  H  H17  1  0.40367100  0.07289200  0.22884100  1
  H  H18  1  0.18437200  0.99899300  0.85025300  1
  H  H19  1  0.68437200  0.00100700  0.64974700  1
  H  H20  1  0.81562800  0.00100700  0.14974700  1
  H  H21  1  0.31562800  0.99899300  0.35025300  1
  H  H22  1  0.94491400  0.67791900  0.89939600  1
  H  H23  1  0.44491400  0.32208100  0.60060400  1
  H  H24  1  0.05508600  0.32208100  0.10060400  1
  H  H25  1  0.55508600  0.67791900  0.39939600  1
  H  H26  1  0.86525200  0.68817100  0.02751000  1
  H  H27  1  0.36525200  0.31182900  0.47249000  1
  H  H28  1  0.13474800  0.31182900  0.97249000  1
  H  H29  1  0.63474800  0.68817100  0.52751000  1
  Se  Se30  1  0.14063400  0.26776200  0.40085400  1
  Se  Se31  1  0.64063400  0.73223800  0.09914600  1
  Se  Se32  1  0.85936600  0.73223800  0.59914600  1
  Se  Se33  1  0.35936600  0.26776200  0.90085400  1
  O  O34  1  0.24665900  0.41677800  0.41295500  1
  O  O35  1  0.74665900  0.58322200  0.08704500  1
  O  O36  1  0.75334100  0.58322200  0.58704500  1
  O  O37  1  0.25334100  0.41677800  0.91295500  1
  O  O38  1  0.06942600  0.23003000  0.55476300  1
  O  O39  1  0.56942600  0.76997000  0.94523700  1
  O  O40  1  0.93057400  0.76997000  0.44523700  1
  O  O41  1  0.43057400  0.23003000  0.05476300  1
  O  O42  1  0.06617200  0.40387100  0.26013400  1
  O  O43  1  0.56617200  0.59612900  0.23986600  1
  O  O44  1  0.93382800  0.59612900  0.73986600  1
  O  O45  1  0.43382800  0.40387100  0.76013400  1
  O  O46  1  0.17903200  0.03236200  0.37040800  1
  O  O47  1  0.67903200  0.96763800  0.12959200  1
  O  O48  1  0.82096800  0.96763800  0.62959200  1
  O  O49  1  0.32096800  0.03236200  0.87040800  1
  O  O50  1  0.10882700  0.83987400  0.15474200  1
  O  O51  1  0.60882700  0.16012600  0.34525800  1
  O  O52  1  0.89117300  0.16012600  0.84525800  1
  O  O53  1  0.39117300  0.83987400  0.65474200  1
  O  O54  1  0.11021900  0.97201800  0.82631200  1
  O  O55  1  0.61021900  0.02798200  0.67368800  1
  O  O56  1  0.88978100  0.02798200  0.17368800  1
  O  O57  1  0.38978100  0.97201800  0.32631200  1
  O  O58  1  0.93979400  0.71738700  0.99552800  1
  O  O59  1  0.43979400  0.28261300  0.50447200  1
  O  O60  1  0.06020600  0.28261300  0.00447200  1
  O  O61  1  0.56020600  0.71738700  0.49552800  1
