# generated using pymatgen
data_BaZrS3
_symmetry_space_group_name_H-M   'P 1'
_cell_length_a   7.08830800
_cell_length_b   7.15496000
_cell_length_c   10.07677700
_cell_angle_alpha   90.00000000
_cell_angle_beta   90.00000000
_cell_angle_gamma   90.00000000
_symmetry_Int_Tables_number   1
_chemical_formula_structural   BaZrS3
_chemical_formula_sum   'Ba4 Zr4 S12'
_cell_volume   511.05946742
_cell_formula_units_Z   4
loop_
 _symmetry_equiv_pos_site_id
 _symmetry_equiv_pos_as_xyz
  1  'x, y, z'
loop_
 _atom_site_type_symbol
 _atom_site_label
 _atom_site_symmetry_multiplicity
 _atom_site_fract_x
 _atom_site_fract_y
 _atom_site_fract_z
 _atom_site_occupancy
  Ba  Ba0  1  0.00860300  0.04274100  0.25000000  1
  Ba  Ba1  1  0.50860300  0.45725900  0.75000000  1
  Ba  Ba2  1  0.49139700  0.54274100  0.25000000  1
  Ba  Ba3  1  0.99139700  0.95725900  0.75000000  1
  Zr  Zr4  1  0.50000000  0.00000000  0.00000000  1
  Zr  Zr5  1  0.00000000  0.50000000  0.00000000  1
  Zr  Zr6  1  0.00000000  0.50000000  0.50000000  1
  Zr  Zr7  1  0.50000000  0.00000000  0.50000000  1
  S  S8  1  0.56090800  0.99382900  0.25000000  1
  S  S9  1  0.06090800  0.50617100  0.75000000  1
  S  S10  1  0.93909200  0.49382900  0.25000000  1
  S  S11  1  0.43909200  0.00617100  0.75000000  1
  S  S12  1  0.78662300  0.21318300  0.96821100  1
  S  S13  1  0.28662300  0.28681700  0.03178900  1
  S  S14  1  0.71337700  0.71318300  0.53178900  1
  S  S15  1  0.21337700  0.78681700  0.46821100  1
  S  S16  1  0.21337700  0.78681700  0.03178900  1
  S  S17  1  0.71337700  0.71318300  0.96821100  1
  S  S18  1  0.28662300  0.28681700  0.46821100  1
  S  S19  1  0.78662300  0.21318300  0.53178900  1
