# generated using pymatgen
data_As2O5
_symmetry_space_group_name_H-M   'P 1'
_cell_length_a   8.76446400
_cell_length_b   8.76446400
_cell_length_c   4.71234700
_cell_angle_alpha   90.00000000
_cell_angle_beta   90.00000000
_cell_angle_gamma   90.00000000
_symmetry_Int_Tables_number   1
_chemical_formula_structural   As2O5
_chemical_formula_sum   'As8 O20'
_cell_volume   361.98284232
_cell_formula_units_Z   4
loop_
 _symmetry_equiv_pos_site_id
 _symmetry_equiv_pos_as_xyz
  1  'x, y, z'
loop_
 _atom_site_type_symbol
 _atom_site_label
 _atom_site_symmetry_multiplicity
 _atom_site_fract_x
 _atom_site_fract_y
 _atom_site_fract_z
 _atom_site_occupancy
  As  As0  1  0.59735200  0.59735200  0.50000000  1
  As  As1  1  0.21604400  0.21604400  0.50000000  1
  As  As2  1  0.78395600  0.78395600  0.00000000  1
  As  As3  1  0.28395600  0.71604400  0.75000000  1
  As  As4  1  0.09735200  0.90264800  0.25000000  1
  As  As5  1  0.40264800  0.40264800  0.00000000  1
  As  As6  1  0.71604400  0.28395600  0.25000000  1
  As  As7  1  0.90264800  0.09735200  0.75000000  1
  O  O8  1  0.97589800  0.75375600  0.07692900  1
  O  O9  1  0.02410200  0.24624400  0.57692900  1
  O  O10  1  0.23447000  0.34582600  0.23003600  1
  O  O11  1  0.55656800  0.44343200  0.75000000  1
  O  O12  1  0.94343200  0.94343200  0.50000000  1
  O  O13  1  0.65417400  0.76553000  0.26996400  1
  O  O14  1  0.44343200  0.55656800  0.25000000  1
  O  O15  1  0.74624400  0.47589800  0.32692900  1
  O  O16  1  0.84582600  0.26553000  0.98003600  1
  O  O17  1  0.15417400  0.73447000  0.48003600  1
  O  O18  1  0.47589800  0.74624400  0.67307100  1
  O  O19  1  0.05656800  0.05656800  0.00000000  1
  O  O20  1  0.34582600  0.23447000  0.76996400  1
  O  O21  1  0.26553000  0.84582600  0.01996400  1
  O  O22  1  0.24624400  0.02410200  0.42307100  1
  O  O23  1  0.76553000  0.65417400  0.73003600  1
  O  O24  1  0.73447000  0.15417400  0.51996400  1
  O  O25  1  0.25375600  0.52410200  0.82692900  1
  O  O26  1  0.52410200  0.25375600  0.17307100  1
  O  O27  1  0.75375600  0.97589800  0.92307100  1
