# generated using pymatgen
data_ZnSeO3
_symmetry_space_group_name_H-M   'P 1'
_cell_length_a   6.35154400
_cell_length_b   7.51650000
_cell_length_c   12.07678800
_cell_angle_alpha   90.00000000
_cell_angle_beta   90.00000000
_cell_angle_gamma   90.00000000
_symmetry_Int_Tables_number   1
_chemical_formula_structural   ZnSeO3
_chemical_formula_sum   'Zn8 Se8 O24'
_cell_volume   576.56253084
_cell_formula_units_Z   8
loop_
 _symmetry_equiv_pos_site_id
 _symmetry_equiv_pos_as_xyz
  1  'x, y, z'
loop_
 _atom_site_type_symbol
 _atom_site_label
 _atom_site_symmetry_multiplicity
 _atom_site_fract_x
 _atom_site_fract_y
 _atom_site_fract_z
 _atom_site_occupancy
  Zn  Zn0  1  0.86592800  0.39109800  0.59497700  1
  Zn  Zn1  1  0.36592800  0.60890200  0.90502300  1
  Zn  Zn2  1  0.63407200  0.89109800  0.40502300  1
  Zn  Zn3  1  0.13407200  0.10890200  0.09497700  1
  Zn  Zn4  1  0.13407200  0.60890200  0.40502300  1
  Zn  Zn5  1  0.63407200  0.39109800  0.09497700  1
  Zn  Zn6  1  0.36592800  0.10890200  0.59497700  1
  Zn  Zn7  1  0.86592800  0.89109800  0.90502300  1
  Se  Se8  1  0.88921100  0.96231400  0.64293300  1
  Se  Se9  1  0.38921100  0.03768600  0.85706700  1
  Se  Se10  1  0.61078900  0.46231400  0.35706700  1
  Se  Se11  1  0.11078900  0.53768600  0.14293300  1
  Se  Se12  1  0.11078900  0.03768600  0.35706700  1
  Se  Se13  1  0.61078900  0.96231400  0.14293300  1
  Se  Se14  1  0.38921100  0.53768600  0.64293300  1
  Se  Se15  1  0.88921100  0.46231400  0.85706700  1
  O  O16  1  0.01491300  0.65632800  0.90642000  1
  O  O17  1  0.51491300  0.34367200  0.59358000  1
  O  O18  1  0.48508700  0.15632800  0.09358000  1
  O  O19  1  0.98508700  0.84367200  0.40642000  1
  O  O20  1  0.98508700  0.34367200  0.09358000  1
  O  O21  1  0.48508700  0.65632800  0.40642000  1
  O  O22  1  0.51491300  0.84367200  0.90642000  1
  O  O23  1  0.01491300  0.15632800  0.59358000  1
  O  O24  1  0.65781100  0.47283200  0.93461900  1
  O  O25  1  0.15781100  0.52716800  0.56538100  1
  O  O26  1  0.84218900  0.97283200  0.06538100  1
  O  O27  1  0.34218900  0.02716800  0.43461900  1
  O  O28  1  0.34218900  0.52716800  0.06538100  1
  O  O29  1  0.84218900  0.47283200  0.43461900  1
  O  O30  1  0.15781100  0.02716800  0.93461900  1
  O  O31  1  0.65781100  0.97283200  0.56538100  1
  O  O32  1  0.79682100  0.03425100  0.76900700  1
  O  O33  1  0.29682100  0.96574900  0.73099300  1
  O  O34  1  0.70317900  0.53425100  0.23099300  1
  O  O35  1  0.20317900  0.46574900  0.26900700  1
  O  O36  1  0.20317900  0.96574900  0.23099300  1
  O  O37  1  0.70317900  0.03425100  0.26900700  1
  O  O38  1  0.29682100  0.46574900  0.76900700  1
  O  O39  1  0.79682100  0.53425100  0.73099300  1
