# generated using pymatgen
data_RbGaS2
_symmetry_space_group_name_H-M   'P 1'
_cell_length_a   7.54403581
_cell_length_b   7.54403581
_cell_length_c   15.64164881
_cell_angle_alpha   83.06708053
_cell_angle_beta   83.06708053
_cell_angle_gamma   89.95672559
_symmetry_Int_Tables_number   1
_chemical_formula_structural   RbGaS2
_chemical_formula_sum   'Rb8 Ga8 S16'
_cell_volume   877.14826647
_cell_formula_units_Z   8
loop_
 _symmetry_equiv_pos_site_id
 _symmetry_equiv_pos_as_xyz
  1  'x, y, z'
loop_
 _atom_site_type_symbol
 _atom_site_label
 _atom_site_symmetry_multiplicity
 _atom_site_fract_x
 _atom_site_fract_y
 _atom_site_fract_z
 _atom_site_occupancy
  Rb  Rb0  1  0.27599900  0.15240800  0.39440400  1
  Rb  Rb1  1  0.15240800  0.27599900  0.89440400  1
  Rb  Rb2  1  0.72400100  0.84759200  0.60559600  1
  Rb  Rb3  1  0.72399500  0.34907100  0.60617200  1
  Rb  Rb4  1  0.65092900  0.27600500  0.89382800  1
  Rb  Rb5  1  0.27600500  0.65092900  0.39382800  1
  Rb  Rb6  1  0.34907100  0.72399500  0.10617200  1
  Rb  Rb7  1  0.84759200  0.72400100  0.10559600  1
  Ga  Ga8  1  0.58667100  0.20810900  0.16796500  1
  Ga  Ga9  1  0.41332900  0.79189100  0.83203500  1
  Ga  Ga10  1  0.20810900  0.58667100  0.66796500  1
  Ga  Ga11  1  0.92084800  0.79213800  0.83228100  1
  Ga  Ga12  1  0.20786200  0.07915200  0.66771900  1
  Ga  Ga13  1  0.79213800  0.92084800  0.33228100  1
  Ga  Ga14  1  0.07915200  0.20786200  0.16771900  1
  Ga  Ga15  1  0.79189100  0.41332900  0.33203500  1
  S  S16  1  0.93398500  0.06601500  0.75000000  1
  S  S17  1  0.76914800  0.14460800  0.42341300  1
  S  S18  1  0.14460800  0.76914800  0.92341300  1
  S  S19  1  0.23085200  0.85539200  0.57658700  1
  S  S20  1  0.64499600  0.77062100  0.91938400  1
  S  S21  1  0.93430700  0.55894900  0.75031600  1
  S  S22  1  0.44105100  0.06569300  0.74968400  1
  S  S23  1  0.85539200  0.23085200  0.07658700  1
  S  S24  1  0.06569300  0.44105100  0.24968400  1
  S  S25  1  0.35500400  0.22937900  0.08061600  1
  S  S26  1  0.22937900  0.35500400  0.58061600  1
  S  S27  1  0.06601500  0.93398500  0.25000000  1
  S  S28  1  0.55894900  0.93430700  0.25031600  1
  S  S29  1  0.77062100  0.64499600  0.41938400  1
  S  S30  1  0.55873200  0.44126800  0.25000000  1
  S  S31  1  0.44126800  0.55873200  0.75000000  1
