# generated using pymatgen
data_Gd2SiO5
_symmetry_space_group_name_H-M   'P 1'
_cell_length_a   7.11197400
_cell_length_b   6.78337700
_cell_length_c   9.22453371
_cell_angle_alpha   72.48779344
_cell_angle_beta   90.00000000
_cell_angle_gamma   90.00000000
_symmetry_Int_Tables_number   1
_chemical_formula_structural   Gd2SiO5
_chemical_formula_sum   'Gd8 Si4 O20'
_cell_volume   424.39558266
_cell_formula_units_Z   4
loop_
 _symmetry_equiv_pos_site_id
 _symmetry_equiv_pos_as_xyz
  1  'x, y, z'
loop_
 _atom_site_type_symbol
 _atom_site_label
 _atom_site_symmetry_multiplicity
 _atom_site_fract_x
 _atom_site_fract_y
 _atom_site_fract_z
 _atom_site_occupancy
  Gd  Gd0  1  0.85236100  0.41616300  0.88547100  1
  Gd  Gd1  1  0.35236100  0.08383700  0.11452900  1
  Gd  Gd2  1  0.14763900  0.58383700  0.11452900  1
  Gd  Gd3  1  0.64763900  0.91616300  0.88547100  1
  Gd  Gd4  1  0.37604200  0.23385800  0.47382700  1
  Gd  Gd5  1  0.87604200  0.26614200  0.52617300  1
  Gd  Gd6  1  0.62395800  0.76614200  0.52617300  1
  Gd  Gd7  1  0.12395800  0.73385800  0.47382700  1
  Si  Si8  1  0.41256000  0.45947800  0.79775600  1
  Si  Si9  1  0.91256000  0.04052200  0.20224400  1
  Si  Si10  1  0.58744000  0.54052200  0.20224400  1
  Si  Si11  1  0.08744000  0.95947800  0.79775600  1
  O  O12  1  0.56924900  0.64340500  0.79455200  1
  O  O13  1  0.06924900  0.85659500  0.20544800  1
  O  O14  1  0.43075100  0.35659500  0.20544800  1
  O  O15  1  0.93075100  0.14340500  0.79455200  1
  O  O16  1  0.54258500  0.25230200  0.86487500  1
  O  O17  1  0.04258500  0.24769800  0.13512500  1
  O  O18  1  0.45741500  0.74769800  0.13512500  1
  O  O19  1  0.95741500  0.75230200  0.86487500  1
  O  O20  1  0.36109300  0.50822900  0.61510300  1
  O  O21  1  0.86109300  0.99177100  0.38489700  1
  O  O22  1  0.63890700  0.49177100  0.38489700  1
  O  O23  1  0.13890700  0.00822900  0.61510300  1
  O  O24  1  0.23231400  0.44595800  0.90643800  1
  O  O25  1  0.73231400  0.05404200  0.09356200  1
  O  O26  1  0.76768600  0.55404200  0.09356200  1
  O  O27  1  0.26768600  0.94595800  0.90643800  1
  O  O28  1  0.62071500  0.05221000  0.61585500  1
  O  O29  1  0.12071500  0.44779000  0.38414500  1
  O  O30  1  0.37928500  0.94779000  0.38414500  1
  O  O31  1  0.87928500  0.55221000  0.61585500  1
