# generated using pymatgen
data_NaZn(PO3)3
_symmetry_space_group_name_H-M   'P 1'
_cell_length_a   12.76595404
_cell_length_b   12.76595404
_cell_length_c   12.76595404
_cell_angle_alpha   109.47122063
_cell_angle_beta   109.47122063
_cell_angle_gamma   109.47122063
_symmetry_Int_Tables_number   1
_chemical_formula_structural   NaZn(PO3)3
_chemical_formula_sum   'Na8 Zn8 P24 O72'
_cell_volume   1601.54054792
_cell_formula_units_Z   8
loop_
 _symmetry_equiv_pos_site_id
 _symmetry_equiv_pos_as_xyz
  1  'x, y, z'
loop_
 _atom_site_type_symbol
 _atom_site_label
 _atom_site_symmetry_multiplicity
 _atom_site_fract_x
 _atom_site_fract_y
 _atom_site_fract_z
 _atom_site_occupancy
  Na  Na0  1  0.78016400  0.50000000  0.00000000  1
  Na  Na1  1  0.00000000  0.28016400  0.50000000  1
  Na  Na2  1  0.28016400  0.50000000  0.00000000  1
  Na  Na3  1  0.00000000  0.78016400  0.50000000  1
  Na  Na4  1  0.71983600  0.71983600  0.71983600  1
  Na  Na5  1  0.50000000  0.00000000  0.28016400  1
  Na  Na6  1  0.50000000  0.00000000  0.78016400  1
  Na  Na7  1  0.21983600  0.21983600  0.21983600  1
  Zn  Zn8  1  0.03009800  0.50000000  0.00000000  1
  Zn  Zn9  1  0.00000000  0.53009800  0.50000000  1
  Zn  Zn10  1  0.46990200  0.46990200  0.46990200  1
  Zn  Zn11  1  0.50000000  0.00000000  0.53009800  1
  Zn  Zn12  1  0.96990200  0.96990200  0.96990200  1
  Zn  Zn13  1  0.50000000  0.00000000  0.03009800  1
  Zn  Zn14  1  0.53009800  0.50000000  0.00000000  1
  Zn  Zn15  1  0.00000000  0.03009800  0.50000000  1
  P  P16  1  0.50553900  0.44219700  0.71964700  1
  P  P17  1  0.56334200  0.27745000  0.05780300  1
  P  P18  1  0.93665800  0.99446100  0.71410800  1
  P  P19  1  0.71964700  0.50553900  0.44219700  1
  P  P20  1  0.21964700  0.94219700  0.00553900  1
  P  P21  1  0.05780300  0.56334200  0.27745000  1
  P  P22  1  0.28035300  0.28589200  0.72255000  1
  P  P23  1  0.49446100  0.43665800  0.21410800  1
  P  P24  1  0.28589200  0.72255000  0.28035300  1
  P  P25  1  0.22255000  0.78589200  0.78035300  1
  P  P26  1  0.27745000  0.05780300  0.56334200  1
  P  P27  1  0.06334200  0.55780300  0.77745000  1
  P  P28  1  0.78589200  0.78035300  0.22255000  1
  P  P29  1  0.00553900  0.21964700  0.94219700  1
  P  P30  1  0.94219700  0.00553900  0.21964700  1
  P  P31  1  0.77745000  0.06334200  0.55780300  1
  P  P32  1  0.72255000  0.28035300  0.28589200  1
  P  P33  1  0.44219700  0.71964700  0.50553900  1
  P  P34  1  0.71410800  0.93665800  0.99446100  1
  P  P35  1  0.43665800  0.21410800  0.49446100  1
  P  P36  1  0.55780300  0.77745000  0.06334200  1
  P  P37  1  0.99446100  0.71410800  0.93665800  1
  P  P38  1  0.78035300  0.22255000  0.78589200  1
  P  P39  1  0.21410800  0.49446100  0.43665800  1
  O  O40  1  0.13545700  0.96932100  0.49794500  1
  O  O41  1  0.32169700  0.64527500  0.52057400  1
  O  O42  1  0.83386400  0.36454300  0.86248800  1
  O  O43  1  0.22678600  0.63354800  0.13961700  1
  O  O44  1  0.12470000  0.47942600  0.30112300  1
  O  O45  1  0.99393100  0.08717000  0.36038300  1
  O  O46  1  0.00606900  0.59323900  0.36645200  1
  O  O47  1  0.17642200  0.87530000  0.85472500  1
  O  O48  1  0.36645200  0.00606900  0.59323900  1
  O  O49  1  0.02057400  0.14527500  0.82169700  1
  O  O50  1  0.50205500  0.13751200  0.47137600  1
  O  O51  1  0.41283000  0.40676100  0.27321400  1
  O  O52  1  0.50606900  0.86645200  0.09323900  1
  O  O53  1  0.97137600  0.63751200  0.00205500  1
  O  O54  1  0.91283000  0.77321400  0.90676100  1
  O  O55  1  0.63961700  0.13354800  0.72678600  1
  O  O56  1  0.13751200  0.47137600  0.50205500  1
  O  O57  1  0.67642200  0.35472500  0.37530000  1
  O  O58  1  0.47137600  0.50205500  0.13751200  1
  O  O59  1  0.36454300  0.86248800  0.83386400  1
  O  O60  1  0.63751200  0.00205500  0.97137600  1
  O  O61  1  0.86248800  0.83386400  0.36454300  1
  O  O62  1  0.82169700  0.02057400  0.14527500  1
  O  O63  1  0.85472500  0.17642200  0.87530000  1
  O  O64  1  0.36248800  0.86454300  0.33386400  1
  O  O65  1  0.86454300  0.33386400  0.36248800  1
  O  O66  1  0.52057400  0.32169700  0.64527500  1
  O  O67  1  0.90676100  0.91283000  0.77321400  1
  O  O68  1  0.02862400  0.16613600  0.03067900  1
  O  O69  1  0.86645200  0.09323900  0.50606900  1
  O  O70  1  0.63354800  0.13961700  0.22678600  1
  O  O71  1  0.00205500  0.97137600  0.63751200  1
  O  O72  1  0.64527500  0.52057400  0.32169700  1
  O  O73  1  0.52862400  0.53067900  0.66613600  1
  O  O74  1  0.46932100  0.63545700  0.99794500  1
  O  O75  1  0.19887700  0.67830300  0.82357800  1
  O  O76  1  0.49794500  0.13545700  0.96932100  1
  O  O77  1  0.82357800  0.19887700  0.67830300  1
  O  O78  1  0.77321400  0.90676100  0.91283000  1
  O  O79  1  0.69887700  0.32357800  0.17830300  1
  O  O80  1  0.36038300  0.99393100  0.08717000  1
  O  O81  1  0.37530000  0.67642200  0.35472500  1
  O  O82  1  0.47942600  0.30112300  0.12470000  1
  O  O83  1  0.63545700  0.99794500  0.46932100  1
  O  O84  1  0.62470000  0.80112300  0.97942600  1
  O  O85  1  0.59323900  0.36645200  0.00606900  1
  O  O86  1  0.86038300  0.58717000  0.49393100  1
  O  O87  1  0.66613600  0.52862400  0.53067900  1
  O  O88  1  0.97942600  0.62470000  0.80112300  1
  O  O89  1  0.08717000  0.36038300  0.99393100  1
  O  O90  1  0.09323900  0.50606900  0.86645200  1
  O  O91  1  0.72678600  0.63961700  0.13354800  1
  O  O92  1  0.30112300  0.12470000  0.47942600  1
  O  O93  1  0.80112300  0.97942600  0.62470000  1
  O  O94  1  0.32357800  0.17830300  0.69887700  1
  O  O95  1  0.53067900  0.66613600  0.52862400  1
  O  O96  1  0.33386400  0.36248800  0.86454300  1
  O  O97  1  0.87530000  0.85472500  0.17642200  1
  O  O98  1  0.16613600  0.03067900  0.02862400  1
  O  O99  1  0.13961700  0.22678600  0.63354800  1
  O  O100  1  0.40676100  0.27321400  0.41283000  1
  O  O101  1  0.17830300  0.69887700  0.32357800  1
  O  O102  1  0.67830300  0.82357800  0.19887700  1
  O  O103  1  0.58717000  0.49393100  0.86038300  1
  O  O104  1  0.99794500  0.46932100  0.63545700  1
  O  O105  1  0.27321400  0.41283000  0.40676100  1
  O  O106  1  0.35472500  0.37530000  0.67642200  1
  O  O107  1  0.03067900  0.02862400  0.16613600  1
  O  O108  1  0.14527500  0.82169700  0.02057400  1
  O  O109  1  0.13354800  0.72678600  0.63961700  1
  O  O110  1  0.49393100  0.86038300  0.58717000  1
  O  O111  1  0.96932100  0.49794500  0.13545700  1
