# generated using pymatgen
data_AuBr
_symmetry_space_group_name_H-M   'P 1'
_cell_length_a   4.37978000
_cell_length_b   4.37978000
_cell_length_c   13.29740500
_cell_angle_alpha   90.00000000
_cell_angle_beta   90.00000000
_cell_angle_gamma   90.00000000
_symmetry_Int_Tables_number   1
_chemical_formula_structural   AuBr
_chemical_formula_sum   'Au4 Br4'
_cell_volume   255.07711037
_cell_formula_units_Z   4
loop_
 _symmetry_equiv_pos_site_id
 _symmetry_equiv_pos_as_xyz
  1  'x, y, z'
loop_
 _atom_site_type_symbol
 _atom_site_label
 _atom_site_symmetry_multiplicity
 _atom_site_fract_x
 _atom_site_fract_y
 _atom_site_fract_z
 _atom_site_occupancy
  Au  Au0  1  0.25000000  0.75000000  0.75000000  1
  Au  Au1  1  0.75000000  0.75000000  0.25000000  1
  Au  Au2  1  0.25000000  0.25000000  0.25000000  1
  Au  Au3  1  0.75000000  0.25000000  0.75000000  1
  Br  Br4  1  0.50000000  0.00000000  0.89680300  1
  Br  Br5  1  0.50000000  0.00000000  0.39680300  1
  Br  Br6  1  0.00000000  0.50000000  0.10319700  1
  Br  Br7  1  0.00000000  0.50000000  0.60319700  1
