# generated using pymatgen
data_CsRb(MnCl3)2
_symmetry_space_group_name_H-M   'P 1'
_cell_length_a   14.66752589
_cell_length_b   14.66752589
_cell_length_c   12.11084800
_cell_angle_alpha   90.00000000
_cell_angle_beta   90.00000000
_cell_angle_gamma   119.99999951
_symmetry_Int_Tables_number   1
_chemical_formula_structural   CsRb(MnCl3)2
_chemical_formula_sum   'Cs8 Rb8 Mn16 Cl48'
_cell_volume   2256.41466825
_cell_formula_units_Z   8
loop_
 _symmetry_equiv_pos_site_id
 _symmetry_equiv_pos_as_xyz
  1  'x, y, z'
loop_
 _atom_site_type_symbol
 _atom_site_label
 _atom_site_symmetry_multiplicity
 _atom_site_fract_x
 _atom_site_fract_y
 _atom_site_fract_z
 _atom_site_occupancy
  Cs  Cs0  1  0.50000000  0.00000000  0.00000000  1
  Cs  Cs1  1  0.66666700  0.33333300  0.75000000  1
  Cs  Cs2  1  0.00000000  0.50000000  0.00000000  1
  Cs  Cs3  1  0.50000000  0.00000000  0.50000000  1
  Cs  Cs4  1  0.33333300  0.66666700  0.25000000  1
  Cs  Cs5  1  0.50000000  0.50000000  0.00000000  1
  Cs  Cs6  1  0.00000000  0.50000000  0.50000000  1
  Cs  Cs7  1  0.50000000  0.50000000  0.50000000  1
  Rb  Rb8  1  0.00000000  0.00000000  0.00000000  1
  Rb  Rb9  1  0.16630000  0.33260100  0.75000000  1
  Rb  Rb10  1  0.83370000  0.16630000  0.25000000  1
  Rb  Rb11  1  0.16630000  0.83370000  0.75000000  1
  Rb  Rb12  1  0.66739900  0.83370000  0.75000000  1
  Rb  Rb13  1  0.00000000  0.00000000  0.50000000  1
  Rb  Rb14  1  0.33260100  0.16630000  0.25000000  1
  Rb  Rb15  1  0.83370000  0.66739900  0.25000000  1
  Mn  Mn16  1  0.83404600  0.66809200  0.88281600  1
  Mn  Mn17  1  0.66809200  0.83404600  0.38281600  1
  Mn  Mn18  1  0.83404600  0.66809200  0.61718400  1
  Mn  Mn19  1  0.66809200  0.83404600  0.11718400  1
  Mn  Mn20  1  0.16595400  0.33190800  0.11718400  1
  Mn  Mn21  1  0.16595400  0.33190800  0.38281600  1
  Mn  Mn22  1  0.16595400  0.83404600  0.38281600  1
  Mn  Mn23  1  0.66666700  0.33333300  0.11729700  1
  Mn  Mn24  1  0.33190800  0.16595400  0.61718400  1
  Mn  Mn25  1  0.16595400  0.83404600  0.11718400  1
  Mn  Mn26  1  0.83404600  0.16595400  0.61718400  1
  Mn  Mn27  1  0.83404600  0.16595400  0.88281600  1
  Mn  Mn28  1  0.33190800  0.16595400  0.88281600  1
  Mn  Mn29  1  0.33333300  0.66666700  0.61729700  1
  Mn  Mn30  1  0.66666700  0.33333300  0.38270300  1
  Mn  Mn31  1  0.33333300  0.66666700  0.88270300  1
  Cl  Cl32  1  0.41117000  0.82234000  0.75000000  1
  Cl  Cl33  1  0.00000000  0.75252900  0.00000000  1
  Cl  Cl34  1  0.67827600  0.08708900  0.75000000  1
  Cl  Cl35  1  0.00000000  0.24747100  0.50000000  1
  Cl  Cl36  1  0.24747100  0.00000000  0.50000000  1
  Cl  Cl37  1  0.24928500  0.75071500  0.50155200  1
  Cl  Cl38  1  0.50143000  0.75071500  0.50155200  1
  Cl  Cl39  1  0.17600500  0.08800300  0.75000000  1
  Cl  Cl40  1  0.59118700  0.67827600  0.25000000  1
  Cl  Cl41  1  0.24928500  0.49857000  0.50155200  1
  Cl  Cl42  1  0.59118700  0.91291100  0.25000000  1
  Cl  Cl43  1  0.67827600  0.59118700  0.75000000  1
  Cl  Cl44  1  0.58883000  0.17766000  0.25000000  1
  Cl  Cl45  1  0.00000000  0.24747100  0.00000000  1
  Cl  Cl46  1  0.32172400  0.91291100  0.25000000  1
  Cl  Cl47  1  0.24747100  0.00000000  0.00000000  1
  Cl  Cl48  1  0.82234000  0.41117000  0.25000000  1
  Cl  Cl49  1  0.50143000  0.75071500  0.99844800  1
  Cl  Cl50  1  0.58883000  0.41117000  0.25000000  1
  Cl  Cl51  1  0.40881300  0.08708900  0.75000000  1
  Cl  Cl52  1  0.08708900  0.67827600  0.25000000  1
  Cl  Cl53  1  0.75071500  0.24928500  0.49844800  1
  Cl  Cl54  1  0.91199700  0.08800300  0.75000000  1
  Cl  Cl55  1  0.40881300  0.32172400  0.75000000  1
  Cl  Cl56  1  0.24747100  0.24747100  0.00000000  1
  Cl  Cl57  1  0.75252900  0.00000000  0.00000000  1
  Cl  Cl58  1  0.08800300  0.17600500  0.25000000  1
  Cl  Cl59  1  0.49857000  0.24928500  0.00155200  1
  Cl  Cl60  1  0.75252900  0.00000000  0.50000000  1
  Cl  Cl61  1  0.24747100  0.24747100  0.50000000  1
  Cl  Cl62  1  0.82399500  0.91199700  0.25000000  1
  Cl  Cl63  1  0.32172400  0.40881300  0.25000000  1
  Cl  Cl64  1  0.75252900  0.75252900  0.00000000  1
  Cl  Cl65  1  0.08800300  0.91199700  0.25000000  1
  Cl  Cl66  1  0.75071500  0.50143000  0.00155200  1
  Cl  Cl67  1  0.91291100  0.59118700  0.75000000  1
  Cl  Cl68  1  0.49857000  0.24928500  0.49844800  1
  Cl  Cl69  1  0.24928500  0.75071500  0.99844800  1
  Cl  Cl70  1  0.00000000  0.75252900  0.50000000  1
  Cl  Cl71  1  0.17766000  0.58883000  0.75000000  1
  Cl  Cl72  1  0.91199700  0.82399500  0.75000000  1
  Cl  Cl73  1  0.08708900  0.40881300  0.25000000  1
  Cl  Cl74  1  0.91291100  0.32172400  0.75000000  1
  Cl  Cl75  1  0.75071500  0.24928500  0.00155200  1
  Cl  Cl76  1  0.75071500  0.50143000  0.49844800  1
  Cl  Cl77  1  0.41117000  0.58883000  0.75000000  1
  Cl  Cl78  1  0.75252900  0.75252900  0.50000000  1
  Cl  Cl79  1  0.24928500  0.49857000  0.99844800  1
