# generated using pymatgen
data_CsMnF3
_symmetry_space_group_name_H-M   'P 1'
_cell_length_a   6.33056019
_cell_length_b   6.33056019
_cell_length_c   15.38299100
_cell_angle_alpha   90.00000000
_cell_angle_beta   90.00000000
_cell_angle_gamma   120.00000199
_symmetry_Int_Tables_number   1
_chemical_formula_structural   CsMnF3
_chemical_formula_sum   'Cs6 Mn6 F18'
_cell_volume   533.89480336
_cell_formula_units_Z   6
loop_
 _symmetry_equiv_pos_site_id
 _symmetry_equiv_pos_as_xyz
  1  'x, y, z'
loop_
 _atom_site_type_symbol
 _atom_site_label
 _atom_site_symmetry_multiplicity
 _atom_site_fract_x
 _atom_site_fract_y
 _atom_site_fract_z
 _atom_site_occupancy
  Cs  Cs0  1  0.00000000  0.00000000  0.25000000  1
  Cs  Cs1  1  0.00000000  0.00000000  0.75000000  1
  Cs  Cs2  1  0.33333300  0.66666700  0.09761900  1
  Cs  Cs3  1  0.66666700  0.33333300  0.59761900  1
  Cs  Cs4  1  0.66666700  0.33333300  0.90238100  1
  Cs  Cs5  1  0.33333300  0.66666700  0.40238100  1
  Mn  Mn6  1  0.00000000  0.00000000  0.00000000  1
  Mn  Mn7  1  0.33333300  0.66666700  0.65181800  1
  Mn  Mn8  1  0.66666700  0.33333300  0.15181800  1
  Mn  Mn9  1  0.66666700  0.33333300  0.34818200  1
  Mn  Mn10  1  0.33333300  0.66666700  0.84818200  1
  Mn  Mn11  1  0.00000000  0.00000000  0.50000000  1
  F  F12  1  0.33084600  0.16542300  0.07926000  1
  F  F13  1  0.83457700  0.16542300  0.42074000  1
  F  F14  1  0.83457700  0.66915400  0.42074000  1
  F  F15  1  0.33084600  0.16542300  0.42074000  1
  F  F16  1  0.66915400  0.83457700  0.92074000  1
  F  F17  1  0.16542300  0.33084600  0.57926000  1
  F  F18  1  0.52247000  0.04494000  0.25000000  1
  F  F19  1  0.47753000  0.52247000  0.75000000  1
  F  F20  1  0.04494000  0.52247000  0.75000000  1
  F  F21  1  0.95506000  0.47753000  0.25000000  1
  F  F22  1  0.52247000  0.47753000  0.25000000  1
  F  F23  1  0.47753000  0.95506000  0.75000000  1
  F  F24  1  0.83457700  0.66915400  0.07926000  1
  F  F25  1  0.16542300  0.83457700  0.57926000  1
  F  F26  1  0.66915400  0.83457700  0.57926000  1
  F  F27  1  0.16542300  0.33084600  0.92074000  1
  F  F28  1  0.83457700  0.16542300  0.07926000  1
  F  F29  1  0.16542300  0.83457700  0.92074000  1
