# generated using pymatgen
data_K2MnO4
_symmetry_space_group_name_H-M   'P 1'
_cell_length_a   5.97670032
_cell_length_b   7.78183521
_cell_length_c   10.57736959
_cell_angle_alpha   90.01997927
_cell_angle_beta   90.03278395
_cell_angle_gamma   90.01797409
_symmetry_Int_Tables_number   1
_chemical_formula_structural   K2MnO4
_chemical_formula_sum   'K8 Mn4 O16'
_cell_volume   491.95012018
_cell_formula_units_Z   4
loop_
 _symmetry_equiv_pos_site_id
 _symmetry_equiv_pos_as_xyz
  1  'x, y, z'
loop_
 _atom_site_type_symbol
 _atom_site_label
 _atom_site_symmetry_multiplicity
 _atom_site_fract_x
 _atom_site_fract_y
 _atom_site_fract_z
 _atom_site_occupancy
  K  K0  1  0.74998000  0.83453900  0.91585400  1
  K  K1  1  0.25001500  0.16549400  0.08408400  1
  K  K2  1  0.74997200  0.33455700  0.58412900  1
  K  K3  1  0.24996100  0.66545400  0.41593100  1
  K  K4  1  0.74998300  0.01159200  0.30244500  1
  K  K5  1  0.24996300  0.98839500  0.69759300  1
  K  K6  1  0.74998000  0.51158600  0.19757600  1
  K  K7  1  0.24997300  0.48840700  0.80240900  1
  Mn  Mn8  1  0.74987400  0.77106000  0.57914700  1
  Mn  Mn9  1  0.24999500  0.22894000  0.42088800  1
  Mn  Mn10  1  0.75025400  0.27119600  0.92101600  1
  Mn  Mn11  1  0.24996300  0.72882100  0.07897300  1
  O  O12  1  0.74994000  0.98385900  0.58003900  1
  O  O13  1  0.24994600  0.01610300  0.41998200  1
  O  O14  1  0.75013600  0.48401200  0.92001400  1
  O  O15  1  0.24998000  0.51602500  0.07992200  1
  O  O16  1  0.74988200  0.70216500  0.42953300  1
  O  O17  1  0.25000700  0.29781500  0.57046300  1
  O  O18  1  0.75015600  0.20219500  0.07058800  1
  O  O19  1  0.24997000  0.79780100  0.92944700  1
  O  O20  1  0.97580100  0.69440500  0.65193600  1
  O  O21  1  0.47583500  0.30555200  0.34809800  1
  O  O22  1  0.52440700  0.19445600  0.84814600  1
  O  O23  1  0.02423600  0.80554300  0.15179900  1
  O  O24  1  0.02409000  0.30558400  0.34808000  1
  O  O25  1  0.52400500  0.69440600  0.65191600  1
  O  O26  1  0.47580000  0.80559600  0.15183200  1
  O  O27  1  0.97589700  0.19444400  0.84815900  1
