# generated using pymatgen
data_V4Fe2O13
_symmetry_space_group_name_H-M   'P 1'
_cell_length_a   9.58063100
_cell_length_b   8.49427700
_cell_length_c   14.88313610
_cell_angle_alpha   77.22615073
_cell_angle_beta   90.00000000
_cell_angle_gamma   90.00000000
_symmetry_Int_Tables_number   1
_chemical_formula_structural   V4Fe2O13
_chemical_formula_sum   'V16 Fe8 O52'
_cell_volume   1181.22086627
_cell_formula_units_Z   4
loop_
 _symmetry_equiv_pos_site_id
 _symmetry_equiv_pos_as_xyz
  1  'x, y, z'
loop_
 _atom_site_type_symbol
 _atom_site_label
 _atom_site_symmetry_multiplicity
 _atom_site_fract_x
 _atom_site_fract_y
 _atom_site_fract_z
 _atom_site_occupancy
  V  V0  1  0.27628500  0.74543600  0.67164200  1
  V  V1  1  0.74112500  0.85937000  0.32393800  1
  V  V2  1  0.72371500  0.25456400  0.32835800  1
  V  V3  1  0.25887500  0.14063000  0.67606200  1
  V  V4  1  0.24112500  0.14063000  0.17606200  1
  V  V5  1  0.79061900  0.95679900  0.09184400  1
  V  V6  1  0.29061900  0.04320100  0.40815600  1
  V  V7  1  0.75887500  0.85937000  0.82393800  1
  V  V8  1  0.28710800  0.53346400  0.90538200  1
  V  V9  1  0.70938100  0.95679900  0.59184400  1
  V  V10  1  0.71289200  0.46653600  0.09461800  1
  V  V11  1  0.20938100  0.04320100  0.90815600  1
  V  V12  1  0.77628500  0.25456400  0.82835800  1
  V  V13  1  0.21289200  0.53346400  0.40538200  1
  V  V14  1  0.22371500  0.74543600  0.17164200  1
  V  V15  1  0.78710800  0.46653600  0.59461800  1
  Fe  Fe16  1  0.49915800  0.69328900  0.48391500  1
  Fe  Fe17  1  0.49952900  0.80902400  0.00675100  1
  Fe  Fe18  1  0.50047100  0.19097600  0.99324900  1
  Fe  Fe19  1  0.50084200  0.30671100  0.51608500  1
  Fe  Fe20  1  0.99952900  0.19097600  0.49324900  1
  Fe  Fe21  1  0.00084200  0.69328900  0.98391500  1
  Fe  Fe22  1  0.00047100  0.80902400  0.50675100  1
  Fe  Fe23  1  0.99915800  0.30671100  0.01608500  1
  O  O24  1  0.83130000  0.05788300  0.81440100  1
  O  O25  1  0.36418100  0.34942100  0.92528100  1
  O  O26  1  0.13452800  0.85971200  0.91308900  1
  O  O27  1  0.61714000  0.85688600  0.52483000  1
  O  O28  1  0.61024000  0.31775300  0.39962700  1
  O  O29  1  0.72561500  0.38932000  0.21729200  1
  O  O30  1  0.66870000  0.05788300  0.31440100  1
  O  O31  1  0.61598200  0.23280000  0.87695500  1
  O  O32  1  0.11675500  0.65694400  0.45616800  1
  O  O33  1  0.11467400  0.15975400  0.60927300  1
  O  O34  1  0.88532600  0.84024600  0.39072700  1
  O  O35  1  0.38324500  0.65694400  0.95616800  1
  O  O36  1  0.21277300  0.15865200  0.79049600  1
  O  O37  1  0.36547200  0.85971200  0.41308900  1
  O  O38  1  0.22561500  0.61068000  0.28270800  1
  O  O39  1  0.11024000  0.68224700  0.10037300  1
  O  O40  1  0.71277300  0.84134800  0.70950400  1
  O  O41  1  0.77438500  0.38932000  0.71729200  1
  O  O42  1  0.61539000  0.49215400  0.54682700  1
  O  O43  1  0.88324500  0.34305600  0.54383200  1
  O  O44  1  0.33130000  0.94211700  0.68559900  1
  O  O45  1  0.16870000  0.94211700  0.18559900  1
  O  O46  1  0.28722700  0.15865200  0.29049600  1
  O  O47  1  0.61857500  0.72083200  0.37070700  1
  O  O48  1  0.88286000  0.85688600  0.02483000  1
  O  O49  1  0.38532600  0.15975400  0.10927300  1
  O  O50  1  0.38286000  0.14311400  0.47517000  1
  O  O51  1  0.61717700  0.98995000  0.04689400  1
  O  O52  1  0.86418100  0.65057900  0.57471900  1
  O  O53  1  0.11539000  0.50784600  0.95317300  1
  O  O54  1  0.88401800  0.23280000  0.37695500  1
  O  O55  1  0.11717700  0.01005000  0.45310600  1
  O  O56  1  0.88282300  0.98995000  0.54689400  1
  O  O57  1  0.38976000  0.68224700  0.60037300  1
  O  O58  1  0.88142500  0.72083200  0.87070700  1
  O  O59  1  0.61467400  0.84024600  0.89072700  1
  O  O60  1  0.38282300  0.01005000  0.95310600  1
  O  O61  1  0.11598200  0.76720000  0.62304500  1
  O  O62  1  0.88461000  0.49215400  0.04682700  1
  O  O63  1  0.61675500  0.34305600  0.04383200  1
  O  O64  1  0.13581900  0.34942100  0.42528100  1
  O  O65  1  0.27438500  0.61068000  0.78270800  1
  O  O66  1  0.11714000  0.14311400  0.97517000  1
  O  O67  1  0.38142500  0.27916800  0.62929300  1
  O  O68  1  0.38461000  0.50784600  0.45317300  1
  O  O69  1  0.78722700  0.84134800  0.20950400  1
  O  O70  1  0.63452800  0.14028800  0.58691100  1
  O  O71  1  0.11857500  0.27916800  0.12929300  1
  O  O72  1  0.86547200  0.14028800  0.08691100  1
  O  O73  1  0.38401800  0.76720000  0.12304500  1
  O  O74  1  0.88976000  0.31775300  0.89962700  1
  O  O75  1  0.63581900  0.65057900  0.07471900  1
