# generated using pymatgen
data_NaW6CCl18
_symmetry_space_group_name_H-M   'P 1'
_cell_length_a   9.27185528
_cell_length_b   9.27185528
_cell_length_c   18.06025700
_cell_angle_alpha   90.00000000
_cell_angle_beta   90.00000000
_cell_angle_gamma   119.99999483
_symmetry_Int_Tables_number   1
_chemical_formula_structural   NaW6CCl18
_chemical_formula_sum   'Na2 W12 C2 Cl36'
_cell_volume   1344.58378207
_cell_formula_units_Z   2
loop_
 _symmetry_equiv_pos_site_id
 _symmetry_equiv_pos_as_xyz
  1  'x, y, z'
loop_
 _atom_site_type_symbol
 _atom_site_label
 _atom_site_symmetry_multiplicity
 _atom_site_fract_x
 _atom_site_fract_y
 _atom_site_fract_z
 _atom_site_occupancy
  Na  Na0  1  0.00000000  0.00000000  0.00000000  1
  Na  Na1  1  0.00000000  0.00000000  0.50000000  1
  W  W2  1  0.30423300  0.48577200  0.16682000  1
  W  W3  1  0.69576700  0.51422800  0.66682000  1
  W  W4  1  0.18153900  0.69576700  0.16682000  1
  W  W5  1  0.48577200  0.18153900  0.83318000  1
  W  W6  1  0.51422800  0.81846100  0.16682000  1
  W  W7  1  0.18153900  0.69576700  0.33318000  1
  W  W8  1  0.30423300  0.48577200  0.33318000  1
  W  W9  1  0.81846100  0.30423300  0.83318000  1
  W  W10  1  0.51422800  0.81846100  0.33318000  1
  W  W11  1  0.48577200  0.18153900  0.66682000  1
  W  W12  1  0.69576700  0.51422800  0.83318000  1
  W  W13  1  0.81846100  0.30423300  0.66682000  1
  C  C14  1  0.66666700  0.33333300  0.75000000  1
  C  C15  1  0.33333300  0.66666700  0.25000000  1
  Cl  Cl16  1  0.73516500  0.76502100  0.89738900  1
  Cl  Cl17  1  0.80264500  0.08759900  0.75000000  1
  Cl  Cl18  1  0.43156700  0.94928100  0.75000000  1
  Cl  Cl19  1  0.97014400  0.73516500  0.10261100  1
  Cl  Cl20  1  0.36886000  0.88977000  0.07696000  1
  Cl  Cl21  1  0.02985600  0.26483500  0.89738900  1
  Cl  Cl22  1  0.88977000  0.52091000  0.92304000  1
  Cl  Cl23  1  0.23497900  0.97014400  0.89738900  1
  Cl  Cl24  1  0.36886000  0.88977000  0.42304000  1
  Cl  Cl25  1  0.47909000  0.36886000  0.57696000  1
  Cl  Cl26  1  0.63114000  0.11023000  0.57696000  1
  Cl  Cl27  1  0.08759900  0.28495400  0.25000000  1
  Cl  Cl28  1  0.51771400  0.56843300  0.75000000  1
  Cl  Cl29  1  0.52091000  0.63114000  0.42304000  1
  Cl  Cl30  1  0.47909000  0.36886000  0.92304000  1
  Cl  Cl31  1  0.26483500  0.23497900  0.10261100  1
  Cl  Cl32  1  0.05071900  0.48228600  0.75000000  1
  Cl  Cl33  1  0.52091000  0.63114000  0.07696000  1
  Cl  Cl34  1  0.56843300  0.05071900  0.25000000  1
  Cl  Cl35  1  0.11023000  0.47909000  0.07696000  1
  Cl  Cl36  1  0.48228600  0.43156700  0.25000000  1
  Cl  Cl37  1  0.26483500  0.23497900  0.39738900  1
  Cl  Cl38  1  0.63114000  0.11023000  0.92304000  1
  Cl  Cl39  1  0.76502100  0.02985600  0.39738900  1
  Cl  Cl40  1  0.76502100  0.02985600  0.10261100  1
  Cl  Cl41  1  0.94928100  0.51771400  0.25000000  1
  Cl  Cl42  1  0.23497900  0.97014400  0.60261100  1
  Cl  Cl43  1  0.88977000  0.52091000  0.57696000  1
  Cl  Cl44  1  0.02985600  0.26483500  0.60261100  1
  Cl  Cl45  1  0.19735500  0.91240100  0.25000000  1
  Cl  Cl46  1  0.91240100  0.71504600  0.75000000  1
  Cl  Cl47  1  0.97014400  0.73516500  0.39738900  1
  Cl  Cl48  1  0.71504600  0.80264500  0.25000000  1
  Cl  Cl49  1  0.11023000  0.47909000  0.42304000  1
  Cl  Cl50  1  0.28495400  0.19735500  0.75000000  1
  Cl  Cl51  1  0.73516500  0.76502100  0.60261100  1
