# generated using pymatgen
data_Rb2TeH6SO10
_symmetry_space_group_name_H-M   'P 1'
_cell_length_a   6.80641100
_cell_length_b   11.69528200
_cell_length_c   13.70941347
_cell_angle_alpha   72.62283383
_cell_angle_beta   90.00000000
_cell_angle_gamma   90.00000000
_symmetry_Int_Tables_number   1
_chemical_formula_structural   Rb2TeH6SO10
_chemical_formula_sum   'Rb8 Te4 H24 S4 O40'
_cell_volume   1041.50104791
_cell_formula_units_Z   4
loop_
 _symmetry_equiv_pos_site_id
 _symmetry_equiv_pos_as_xyz
  1  'x, y, z'
loop_
 _atom_site_type_symbol
 _atom_site_label
 _atom_site_symmetry_multiplicity
 _atom_site_fract_x
 _atom_site_fract_y
 _atom_site_fract_z
 _atom_site_occupancy
  Rb  Rb0  1  0.52157700  0.34417500  0.36020700  1
  Rb  Rb1  1  0.00109900  0.40131100  0.86061700  1
  Rb  Rb2  1  0.49890100  0.90131100  0.86061700  1
  Rb  Rb3  1  0.99890100  0.59868900  0.13938300  1
  Rb  Rb4  1  0.97842300  0.84417500  0.36020700  1
  Rb  Rb5  1  0.47842300  0.65582500  0.63979300  1
  Rb  Rb6  1  0.50109900  0.09868900  0.13938300  1
  Rb  Rb7  1  0.02157700  0.15582500  0.63979300  1
  Te  Te8  1  0.00000000  0.50000000  0.50000000  1
  Te  Te9  1  0.50000000  0.50000000  0.00000000  1
  Te  Te10  1  0.00000000  0.00000000  0.00000000  1
  Te  Te11  1  0.50000000  0.00000000  0.50000000  1
  H  H12  1  0.70785400  0.36264000  0.13549400  1
  H  H13  1  0.06256800  0.37035200  0.38896000  1
  H  H14  1  0.99182800  0.16530800  0.08472400  1
  H  H15  1  0.24290900  0.40827700  0.63709800  1
  H  H16  1  0.50817200  0.66530800  0.08472400  1
  H  H17  1  0.24793300  0.36292200  0.10862300  1
  H  H18  1  0.20785400  0.13736000  0.86450600  1
  H  H19  1  0.49182800  0.33469200  0.91527600  1
  H  H20  1  0.25206700  0.86292200  0.10862300  1
  H  H21  1  0.75709100  0.59172300  0.36290200  1
  H  H22  1  0.43743200  0.87035200  0.38896000  1
  H  H23  1  0.74290900  0.09172300  0.36290200  1
  H  H24  1  0.56256800  0.12964800  0.61104000  1
  H  H25  1  0.29214600  0.63736000  0.86450600  1
  H  H26  1  0.18159100  0.09896900  0.42456500  1
  H  H27  1  0.68159100  0.40103100  0.57543500  1
  H  H28  1  0.75206700  0.63707800  0.89137700  1
  H  H29  1  0.74793300  0.13707800  0.89137700  1
  H  H30  1  0.93743200  0.62964800  0.61104000  1
  H  H31  1  0.81840900  0.90103100  0.57543500  1
  H  H32  1  0.79214600  0.86264000  0.13549400  1
  H  H33  1  0.31840900  0.59896900  0.42456500  1
  H  H34  1  0.25709100  0.90827700  0.63709800  1
  H  H35  1  0.00817200  0.83469200  0.91527600  1
  S  S36  1  0.01005400  0.23681800  0.25327700  1
  S  S37  1  0.51005400  0.26318200  0.74672300  1
  S  S38  1  0.98994600  0.76318200  0.74672300  1
  S  S39  1  0.48994600  0.73681800  0.25327700  1
  O  O40  1  0.40427500  0.91320100  0.63687500  1
  O  O41  1  0.37573800  0.26339900  0.83389200  1
  O  O42  1  0.77238700  0.39377900  0.52011900  1
  O  O43  1  0.58494700  0.35934800  0.96186800  1
  O  O44  1  0.62426200  0.73660100  0.16610800  1
  O  O45  1  0.64240000  0.11076600  0.55582100  1
  O  O46  1  0.75858000  0.56995300  0.95756900  1
  O  O47  1  0.59572500  0.08679900  0.36312500  1
  O  O48  1  0.14240000  0.38923400  0.44417900  1
  O  O49  1  0.74142000  0.06995300  0.95756900  1
  O  O50  1  0.94992400  0.33742700  0.29271100  1
  O  O51  1  0.91505300  0.85934800  0.96186800  1
  O  O52  1  0.61354300  0.42822600  0.13562700  1
  O  O53  1  0.44992400  0.16257300  0.70728900  1
  O  O54  1  0.27238700  0.10622100  0.47988100  1
  O  O55  1  0.49030600  0.38096700  0.66422700  1
  O  O56  1  0.38645700  0.57177400  0.86437300  1
  O  O57  1  0.09572500  0.41320100  0.63687500  1
  O  O58  1  0.99030600  0.11903300  0.33577300  1
  O  O59  1  0.71812900  0.24821900  0.78176900  1
  O  O60  1  0.21812900  0.25178100  0.21823100  1
  O  O61  1  0.25858000  0.93004700  0.04243100  1
  O  O62  1  0.72761300  0.89377900  0.52011900  1
  O  O63  1  0.00969400  0.88096700  0.66422700  1
  O  O64  1  0.78187100  0.74821900  0.78176900  1
  O  O65  1  0.22761300  0.60622100  0.47988100  1
  O  O66  1  0.28187100  0.75178100  0.21823100  1
  O  O67  1  0.90427500  0.58679900  0.36312500  1
  O  O68  1  0.08494700  0.14065200  0.03813200  1
  O  O69  1  0.85760000  0.61076600  0.55582100  1
  O  O70  1  0.55007600  0.83742700  0.29271100  1
  O  O71  1  0.88645700  0.92822600  0.13562700  1
  O  O72  1  0.12426200  0.76339900  0.83389200  1
  O  O73  1  0.87573800  0.23660100  0.16610800  1
  O  O74  1  0.05007600  0.66257300  0.70728900  1
  O  O75  1  0.50969400  0.61903300  0.33577300  1
  O  O76  1  0.35760000  0.88923400  0.44417900  1
  O  O77  1  0.24142000  0.43004700  0.04243100  1
  O  O78  1  0.11354300  0.07177400  0.86437300  1
  O  O79  1  0.41505300  0.64065200  0.03813200  1
