# generated using pymatgen
data_RbTa(GeO3)3
_symmetry_space_group_name_H-M   'P 1'
_cell_length_a   7.16004624
_cell_length_b   7.16004624
_cell_length_c   10.27798100
_cell_angle_alpha   90.00000000
_cell_angle_beta   90.00000000
_cell_angle_gamma   120.00000217
_symmetry_Int_Tables_number   1
_chemical_formula_structural   RbTa(GeO3)3
_chemical_formula_sum   'Rb2 Ta2 Ge6 O18'
_cell_volume   456.32061185
_cell_formula_units_Z   2
loop_
 _symmetry_equiv_pos_site_id
 _symmetry_equiv_pos_as_xyz
  1  'x, y, z'
loop_
 _atom_site_type_symbol
 _atom_site_label
 _atom_site_symmetry_multiplicity
 _atom_site_fract_x
 _atom_site_fract_y
 _atom_site_fract_z
 _atom_site_occupancy
  Rb  Rb0  1  0.66666700  0.33333300  0.00000000  1
  Rb  Rb1  1  0.66666700  0.33333300  0.50000000  1
  Ta  Ta2  1  0.33333300  0.66666700  0.00000000  1
  Ta  Ta3  1  0.33333300  0.66666700  0.50000000  1
  Ge  Ge4  1  0.07668300  0.28865400  0.25000000  1
  Ge  Ge5  1  0.21197200  0.92331700  0.25000000  1
  Ge  Ge6  1  0.71134600  0.78802800  0.25000000  1
  Ge  Ge7  1  0.71134600  0.92331700  0.75000000  1
  Ge  Ge8  1  0.21197200  0.28865400  0.75000000  1
  Ge  Ge9  1  0.07668300  0.78802800  0.75000000  1
  O  O10  1  0.26452100  0.19454400  0.25000000  1
  O  O11  1  0.93002300  0.73547900  0.25000000  1
  O  O12  1  0.80545600  0.06997700  0.25000000  1
  O  O13  1  0.80545600  0.73547900  0.75000000  1
  O  O14  1  0.93002300  0.19454400  0.75000000  1
  O  O15  1  0.26452100  0.06997700  0.75000000  1
  O  O16  1  0.10296700  0.43931800  0.11024300  1
  O  O17  1  0.33635100  0.89703300  0.38975700  1
  O  O18  1  0.56068200  0.66364900  0.38975700  1
  O  O19  1  0.56068200  0.66364900  0.11024300  1
  O  O20  1  0.33635100  0.89703300  0.11024300  1
  O  O21  1  0.56068200  0.89703300  0.88975700  1
  O  O22  1  0.33635100  0.43931800  0.88975700  1
  O  O23  1  0.10296700  0.66364900  0.88975700  1
  O  O24  1  0.33635100  0.43931800  0.61024300  1
  O  O25  1  0.10296700  0.66364900  0.61024300  1
  O  O26  1  0.10296700  0.43931800  0.38975700  1
  O  O27  1  0.56068200  0.89703300  0.61024300  1
