# generated using pymatgen
data_Rb2Mn(PO3)4
_symmetry_space_group_name_H-M   'P 1'
_cell_length_a   13.22618300
_cell_length_b   7.96555200
_cell_length_c   12.53043351
_cell_angle_alpha   63.61419869
_cell_angle_beta   90.00000000
_cell_angle_gamma   90.00000000
_symmetry_Int_Tables_number   1
_chemical_formula_structural   Rb2Mn(PO3)4
_chemical_formula_sum   'Rb8 Mn4 P16 O48'
_cell_volume   1182.60084692
_cell_formula_units_Z   4
loop_
 _symmetry_equiv_pos_site_id
 _symmetry_equiv_pos_as_xyz
  1  'x, y, z'
loop_
 _atom_site_type_symbol
 _atom_site_label
 _atom_site_symmetry_multiplicity
 _atom_site_fract_x
 _atom_site_fract_y
 _atom_site_fract_z
 _atom_site_occupancy
  Rb  Rb0  1  0.86520200  0.43439600  0.65860500  1
  Rb  Rb1  1  0.88279000  0.05862000  0.36378900  1
  Rb  Rb2  1  0.11721000  0.94138000  0.63621100  1
  Rb  Rb3  1  0.61721000  0.05862000  0.86378900  1
  Rb  Rb4  1  0.36520200  0.56560400  0.84139500  1
  Rb  Rb5  1  0.38279000  0.94138000  0.13621100  1
  Rb  Rb6  1  0.13479800  0.56560400  0.34139500  1
  Rb  Rb7  1  0.63479800  0.43439600  0.15860500  1
  Mn  Mn8  1  0.35064000  0.75658600  0.48401500  1
  Mn  Mn9  1  0.14936000  0.75658600  0.98401500  1
  Mn  Mn10  1  0.85064000  0.24341400  0.01598500  1
  Mn  Mn11  1  0.64936000  0.24341400  0.51598500  1
  P  P12  1  0.16839600  0.42584400  0.66225900  1
  P  P13  1  0.59065500  0.91987900  0.41235500  1
  P  P14  1  0.43109600  0.44602100  0.37305400  1
  P  P15  1  0.68533000  0.88521500  0.20227600  1
  P  P16  1  0.93109600  0.55397900  0.12694600  1
  P  P17  1  0.09065500  0.08012100  0.08764500  1
  P  P18  1  0.31467000  0.11478500  0.79772400  1
  P  P19  1  0.56890400  0.55397900  0.62694600  1
  P  P20  1  0.06890400  0.44602100  0.87305400  1
  P  P21  1  0.81467000  0.88521500  0.70227600  1
  P  P22  1  0.40934500  0.08012100  0.58764500  1
  P  P23  1  0.66839600  0.57415600  0.83774100  1
  P  P24  1  0.83160400  0.57415600  0.33774100  1
  P  P25  1  0.90934500  0.91987900  0.91235500  1
  P  P26  1  0.18533000  0.11478500  0.29772400  1
  P  P27  1  0.33160400  0.42584400  0.16225900  1
  O  O28  1  0.28314800  0.61519900  0.09210300  1
  O  O29  1  0.52023600  0.07044800  0.61507500  1
  O  O30  1  0.75329800  0.69932400  0.23288900  1
  O  O31  1  0.07765600  0.45129200  0.74236800  1
  O  O32  1  0.84967400  0.83340800  0.83661500  1
  O  O33  1  0.42234400  0.45129200  0.24236800  1
  O  O34  1  0.02023600  0.92955200  0.88492500  1
  O  O35  1  0.78314800  0.38480100  0.40789700  1
  O  O36  1  0.57765600  0.54870800  0.75763200  1
  O  O37  1  0.64517000  0.09354300  0.40041900  1
  O  O38  1  0.35483000  0.90645700  0.59958100  1
  O  O39  1  0.92234400  0.54870800  0.25763200  1
  O  O40  1  0.63906000  0.40729200  0.62358300  1
  O  O41  1  0.38465700  0.24144100  0.45596600  1
  O  O42  1  0.04229300  0.54911500  0.10558000  1
  O  O43  1  0.45770700  0.54911500  0.60558000  1
  O  O44  1  0.47976400  0.92955200  0.38492500  1
  O  O45  1  0.24893900  0.94223400  0.84078200  1
  O  O46  1  0.15032600  0.16659200  0.16338500  1
  O  O47  1  0.74670200  0.69932400  0.73288900  1
  O  O48  1  0.09975700  0.12147200  0.37338700  1
  O  O49  1  0.75106100  0.05776600  0.15921800  1
  O  O50  1  0.37629300  0.32580900  0.09726300  1
  O  O51  1  0.13906000  0.59270800  0.87641700  1
  O  O52  1  0.40024300  0.12147200  0.87338700  1
  O  O53  1  0.25329800  0.30067600  0.26711100  1
  O  O54  1  0.21685200  0.61519900  0.59210300  1
  O  O55  1  0.59975700  0.87852800  0.12661300  1
  O  O56  1  0.90024300  0.87852800  0.62661300  1
  O  O57  1  0.36094000  0.59270800  0.37641700  1
  O  O58  1  0.85483000  0.09354300  0.90041900  1
  O  O59  1  0.62370700  0.67419100  0.90273700  1
  O  O60  1  0.86094000  0.40729200  0.12358300  1
  O  O61  1  0.74893900  0.05776600  0.65921800  1
  O  O62  1  0.25106100  0.94223400  0.34078200  1
  O  O63  1  0.54229300  0.45088500  0.39442000  1
  O  O64  1  0.97976400  0.07044800  0.11507500  1
  O  O65  1  0.24670200  0.30067600  0.76711100  1
  O  O66  1  0.14517000  0.90645700  0.09958100  1
  O  O67  1  0.65032600  0.83340800  0.33661500  1
  O  O68  1  0.34967400  0.16659200  0.66338500  1
  O  O69  1  0.87629300  0.67419100  0.40273700  1
  O  O70  1  0.71685200  0.38480100  0.90789700  1
  O  O71  1  0.95770700  0.45088500  0.89442000  1
  O  O72  1  0.12370700  0.32580900  0.59726300  1
  O  O73  1  0.88465700  0.75855900  0.04403400  1
  O  O74  1  0.61534300  0.75855900  0.54403400  1
  O  O75  1  0.11534300  0.24144100  0.95596600  1
