# generated using pymatgen
data_Na2TeO4
_symmetry_space_group_name_H-M   'P 1'
_cell_length_a   5.25066900
_cell_length_b   10.79476500
_cell_length_c   14.07218419
_cell_angle_alpha   76.50927107
_cell_angle_beta   90.00000000
_cell_angle_gamma   90.00000000
_symmetry_Int_Tables_number   1
_chemical_formula_structural   Na2TeO4
_chemical_formula_sum   'Na16 Te8 O32'
_cell_volume   775.59986610
_cell_formula_units_Z   8
loop_
 _symmetry_equiv_pos_site_id
 _symmetry_equiv_pos_as_xyz
  1  'x, y, z'
loop_
 _atom_site_type_symbol
 _atom_site_label
 _atom_site_symmetry_multiplicity
 _atom_site_fract_x
 _atom_site_fract_y
 _atom_site_fract_z
 _atom_site_occupancy
  Na  Na0  1  0.10979700  0.95597100  0.68473200  1
  Na  Na1  1  0.74805400  0.56701800  0.59930100  1
  Na  Na2  1  0.26293300  0.64398900  0.19672500  1
  Na  Na3  1  0.73706700  0.35601100  0.80327500  1
  Na  Na4  1  0.24805400  0.43298200  0.90069900  1
  Na  Na5  1  0.23706700  0.64398900  0.69672500  1
  Na  Na6  1  0.76293300  0.35601100  0.30327500  1
  Na  Na7  1  0.39020300  0.95597100  0.18473200  1
  Na  Na8  1  0.75412600  0.87052900  0.53452300  1
  Na  Na9  1  0.89020300  0.04402900  0.31526800  1
  Na  Na10  1  0.75194600  0.56701800  0.09930100  1
  Na  Na11  1  0.60979700  0.04402900  0.81526800  1
  Na  Na12  1  0.25194600  0.43298200  0.40069900  1
  Na  Na13  1  0.74587400  0.87052900  0.03452300  1
  Na  Na14  1  0.25412600  0.12947100  0.96547700  1
  Na  Na15  1  0.24587400  0.12947100  0.46547700  1
  Te  Te16  1  0.72422300  0.70933400  0.81676400  1
  Te  Te17  1  0.27577700  0.29066600  0.18323600  1
  Te  Te18  1  0.22422300  0.29066600  0.68323600  1
  Te  Te19  1  0.27601700  0.77722300  0.42273500  1
  Te  Te20  1  0.72398300  0.22277700  0.57726500  1
  Te  Te21  1  0.77601700  0.22277700  0.07726500  1
  Te  Te22  1  0.22398300  0.77722300  0.92273500  1
  Te  Te23  1  0.77577700  0.70933400  0.31676400  1
  O  O24  1  0.09452000  0.81576100  0.28702500  1
  O  O25  1  0.63704400  0.76467400  0.19093700  1
  O  O26  1  0.59669300  0.86151600  0.35613900  1
  O  O27  1  0.45225500  0.32231900  0.04836000  1
  O  O28  1  0.35098300  0.93118100  0.94199800  1
  O  O29  1  0.95225500  0.67768100  0.45164000  1
  O  O30  1  0.58389500  0.55854000  0.79618700  1
  O  O31  1  0.91637400  0.27967100  0.95314600  1
  O  O32  1  0.90330700  0.86151600  0.85613900  1
  O  O33  1  0.13704400  0.23532600  0.30906300  1
  O  O34  1  0.08362600  0.72032900  0.04685400  1
  O  O35  1  0.54774500  0.67768100  0.95164000  1
  O  O36  1  0.40548000  0.81576100  0.78702500  1
  O  O37  1  0.36295600  0.23532600  0.80906300  1
  O  O38  1  0.54747400  0.36945900  0.62198300  1
  O  O39  1  0.58362600  0.27967100  0.45314600  1
  O  O40  1  0.59452000  0.18423900  0.21297500  1
  O  O41  1  0.04774500  0.32231900  0.54836000  1
  O  O42  1  0.85098300  0.06881900  0.55800200  1
  O  O43  1  0.04747400  0.63054100  0.87801700  1
  O  O44  1  0.41610500  0.44146000  0.20381300  1
  O  O45  1  0.90548000  0.18423900  0.71297500  1
  O  O46  1  0.41637400  0.72032900  0.54685400  1
  O  O47  1  0.09669300  0.13848400  0.14386100  1
  O  O48  1  0.08389500  0.44146000  0.70381300  1
  O  O49  1  0.14901700  0.93118100  0.44199800  1
  O  O50  1  0.40330700  0.13848400  0.64386100  1
  O  O51  1  0.64901700  0.06881900  0.05800200  1
  O  O52  1  0.45252600  0.63054100  0.37801700  1
  O  O53  1  0.95252600  0.36945900  0.12198300  1
  O  O54  1  0.91610500  0.55854000  0.29618700  1
  O  O55  1  0.86295600  0.76467400  0.69093700  1
