# generated using pymatgen
data_CsCr3O8
_symmetry_space_group_name_H-M   'P 1'
_cell_length_a   5.57320100
_cell_length_b   8.66320600
_cell_length_c   16.86678800
_cell_angle_alpha   90.00000000
_cell_angle_beta   90.00000000
_cell_angle_gamma   90.00000000
_symmetry_Int_Tables_number   1
_chemical_formula_structural   CsCr3O8
_chemical_formula_sum   'Cs4 Cr12 O32'
_cell_volume   814.35868823
_cell_formula_units_Z   4
loop_
 _symmetry_equiv_pos_site_id
 _symmetry_equiv_pos_as_xyz
  1  'x, y, z'
loop_
 _atom_site_type_symbol
 _atom_site_label
 _atom_site_symmetry_multiplicity
 _atom_site_fract_x
 _atom_site_fract_y
 _atom_site_fract_z
 _atom_site_occupancy
  Cs  Cs0  1  0.75000000  0.51432200  0.26974900  1
  Cs  Cs1  1  0.25000000  0.48567800  0.73025100  1
  Cs  Cs2  1  0.25000000  0.01432200  0.23025100  1
  Cs  Cs3  1  0.75000000  0.98567800  0.76974900  1
  Cr  Cr4  1  0.25000000  0.24263800  0.46005300  1
  Cr  Cr5  1  0.75000000  0.04903900  0.39419100  1
  Cr  Cr6  1  0.75000000  0.74263800  0.03994700  1
  Cr  Cr7  1  0.25000000  0.87207800  0.91810300  1
  Cr  Cr8  1  0.75000000  0.75736200  0.53994700  1
  Cr  Cr9  1  0.25000000  0.25736200  0.96005300  1
  Cr  Cr10  1  0.25000000  0.62792200  0.41810300  1
  Cr  Cr11  1  0.25000000  0.95096100  0.60580900  1
  Cr  Cr12  1  0.75000000  0.45096100  0.89419100  1
  Cr  Cr13  1  0.25000000  0.54903900  0.10580900  1
  Cr  Cr14  1  0.75000000  0.37207800  0.58189700  1
  Cr  Cr15  1  0.75000000  0.12792200  0.08189700  1
  O  O16  1  0.25000000  0.07124600  0.67949000  1
  O  O17  1  0.50251800  0.17306900  0.03116900  1
  O  O18  1  0.50066600  0.33972300  0.88607100  1
  O  O19  1  0.49933400  0.66027700  0.11392900  1
  O  O20  1  0.75000000  0.92875400  0.32051000  1
  O  O21  1  0.99933400  0.33972300  0.88607100  1
  O  O22  1  0.25000000  0.06311100  0.89657300  1
  O  O23  1  0.49933400  0.83972300  0.61392900  1
  O  O24  1  0.25000000  0.43688900  0.39657300  1
  O  O25  1  0.00251800  0.82693100  0.96883100  1
  O  O26  1  0.49748200  0.67306900  0.46883100  1
  O  O27  1  0.00066600  0.83972300  0.61392900  1
  O  O28  1  0.49748200  0.82693100  0.96883100  1
  O  O29  1  0.25000000  0.71731200  0.33333100  1
  O  O30  1  0.00251800  0.67306900  0.46883100  1
  O  O31  1  0.50066600  0.16027700  0.38607100  1
  O  O32  1  0.75000000  0.21731200  0.16666900  1
  O  O33  1  0.75000000  0.54342300  0.98054300  1
  O  O34  1  0.25000000  0.04342300  0.51945700  1
  O  O35  1  0.75000000  0.95657700  0.48054300  1
  O  O36  1  0.25000000  0.45657700  0.01945700  1
  O  O37  1  0.75000000  0.93688900  0.10342700  1
  O  O38  1  0.00066600  0.66027700  0.11392900  1
  O  O39  1  0.99933400  0.16027700  0.38607100  1
  O  O40  1  0.50251800  0.32693100  0.53116900  1
  O  O41  1  0.25000000  0.42875400  0.17949000  1
  O  O42  1  0.75000000  0.28268800  0.66666900  1
  O  O43  1  0.99748200  0.17306900  0.03116900  1
  O  O44  1  0.75000000  0.56311100  0.60342700  1
  O  O45  1  0.25000000  0.78268800  0.83333100  1
  O  O46  1  0.99748200  0.32693100  0.53116900  1
  O  O47  1  0.75000000  0.57124600  0.82051000  1
