# generated using pymatgen
data_GdNiO3
_symmetry_space_group_name_H-M   'P 1'
_cell_length_a   5.30707000
_cell_length_b   5.56812300
_cell_length_c   7.58878900
_cell_angle_alpha   90.00000000
_cell_angle_beta   90.00000000
_cell_angle_gamma   90.00000000
_symmetry_Int_Tables_number   1
_chemical_formula_structural   GdNiO3
_chemical_formula_sum   'Gd4 Ni4 O12'
_cell_volume   224.25189108
_cell_formula_units_Z   4
loop_
 _symmetry_equiv_pos_site_id
 _symmetry_equiv_pos_as_xyz
  1  'x, y, z'
loop_
 _atom_site_type_symbol
 _atom_site_label
 _atom_site_symmetry_multiplicity
 _atom_site_fract_x
 _atom_site_fract_y
 _atom_site_fract_z
 _atom_site_occupancy
  Gd  Gd0  1  0.98314900  0.06671500  0.25000000  1
  Gd  Gd1  1  0.48314900  0.43328500  0.75000000  1
  Gd  Gd2  1  0.51685100  0.56671500  0.25000000  1
  Gd  Gd3  1  0.01685100  0.93328500  0.75000000  1
  Ni  Ni4  1  0.50000000  0.00000000  0.00000000  1
  Ni  Ni5  1  0.00000000  0.50000000  0.00000000  1
  Ni  Ni6  1  0.00000000  0.50000000  0.50000000  1
  Ni  Ni7  1  0.50000000  0.00000000  0.50000000  1
  O  O8  1  0.09545000  0.47400800  0.25000000  1
  O  O9  1  0.59545000  0.02599200  0.75000000  1
  O  O10  1  0.40455000  0.97400800  0.25000000  1
  O  O11  1  0.90455000  0.52599200  0.75000000  1
  O  O12  1  0.70046700  0.29996800  0.04935200  1
  O  O13  1  0.20046700  0.20003200  0.95064800  1
  O  O14  1  0.79953300  0.79996800  0.45064800  1
  O  O15  1  0.29953300  0.70003200  0.54935200  1
  O  O16  1  0.29953300  0.70003200  0.95064800  1
  O  O17  1  0.79953300  0.79996800  0.04935200  1
  O  O18  1  0.20046700  0.20003200  0.54935200  1
  O  O19  1  0.70046700  0.29996800  0.45064800  1
