# generated using pymatgen
data_SrCrF4
_symmetry_space_group_name_H-M   'P 1'
_cell_length_a   6.88028198
_cell_length_b   6.88028198
_cell_length_c   6.88028198
_cell_angle_alpha   130.48641079
_cell_angle_beta   130.48641079
_cell_angle_gamma   72.63034537
_symmetry_Int_Tables_number   1
_chemical_formula_structural   SrCrF4
_chemical_formula_sum   'Sr2 Cr2 F8'
_cell_volume   184.09262438
_cell_formula_units_Z   2
loop_
 _symmetry_equiv_pos_site_id
 _symmetry_equiv_pos_as_xyz
  1  'x, y, z'
loop_
 _atom_site_type_symbol
 _atom_site_label
 _atom_site_symmetry_multiplicity
 _atom_site_fract_x
 _atom_site_fract_y
 _atom_site_fract_z
 _atom_site_occupancy
  Sr  Sr0  1  0.75000000  0.75000000  0.00000000  1
  Sr  Sr1  1  0.25000000  0.25000000  0.00000000  1
  Cr  Cr2  1  0.00000000  0.50000000  0.50000000  1
  Cr  Cr3  1  0.50000000  0.00000000  0.50000000  1
  F  F4  1  0.44671000  0.94671000  0.14206400  1
  F  F5  1  0.19535400  0.69535400  0.14206400  1
  F  F6  1  0.55329000  0.05329000  0.85793600  1
  F  F7  1  0.05329000  0.19535400  0.50000000  1
  F  F8  1  0.80464600  0.30464600  0.85793600  1
  F  F9  1  0.30464600  0.44671000  0.50000000  1
  F  F10  1  0.94671000  0.80464600  0.50000000  1
  F  F11  1  0.69535400  0.55329000  0.50000000  1
