# generated using pymatgen
data_HfNi5(BO5)2
_symmetry_space_group_name_H-M   'P 1'
_cell_length_a   6.16226000
_cell_length_b   9.39898600
_cell_length_c   12.41325400
_cell_angle_alpha   90.00000000
_cell_angle_beta   90.00000000
_cell_angle_gamma   90.00000000
_symmetry_Int_Tables_number   1
_chemical_formula_structural   HfNi5(BO5)2
_chemical_formula_sum   'Hf4 Ni20 B8 O40'
_cell_volume   718.96320217
_cell_formula_units_Z   4
loop_
 _symmetry_equiv_pos_site_id
 _symmetry_equiv_pos_as_xyz
  1  'x, y, z'
loop_
 _atom_site_type_symbol
 _atom_site_label
 _atom_site_symmetry_multiplicity
 _atom_site_fract_x
 _atom_site_fract_y
 _atom_site_fract_z
 _atom_site_occupancy
  Hf  Hf0  1  0.25000000  0.74067400  0.11587700  1
  Hf  Hf1  1  0.75000000  0.75932600  0.61587700  1
  Hf  Hf2  1  0.25000000  0.24067400  0.38412300  1
  Hf  Hf3  1  0.75000000  0.25932600  0.88412300  1
  Ni  Ni4  1  0.99523300  0.00111300  0.21758500  1
  Ni  Ni5  1  0.75000000  0.99281900  0.00288300  1
  Ni  Ni6  1  0.75000000  0.23788500  0.38580600  1
  Ni  Ni7  1  0.50476700  0.00111300  0.21758500  1
  Ni  Ni8  1  0.00476700  0.49888700  0.71758500  1
  Ni  Ni9  1  0.25000000  0.76211500  0.61419400  1
  Ni  Ni10  1  0.50476700  0.50111300  0.28241500  1
  Ni  Ni11  1  0.99523300  0.50111300  0.28241500  1
  Ni  Ni12  1  0.00476700  0.99888700  0.78241500  1
  Ni  Ni13  1  0.49523300  0.49888700  0.71758500  1
  Ni  Ni14  1  0.49523300  0.99888700  0.78241500  1
  Ni  Ni15  1  0.50000000  0.50000000  0.00000000  1
  Ni  Ni16  1  0.25000000  0.26211500  0.88580600  1
  Ni  Ni17  1  0.25000000  0.50718100  0.50288300  1
  Ni  Ni18  1  0.75000000  0.49281900  0.49711700  1
  Ni  Ni19  1  0.25000000  0.00718100  0.99711700  1
  Ni  Ni20  1  0.00000000  0.00000000  0.50000000  1
  Ni  Ni21  1  0.50000000  0.00000000  0.50000000  1
  Ni  Ni22  1  0.75000000  0.73788500  0.11419400  1
  Ni  Ni23  1  0.00000000  0.50000000  0.00000000  1
  B  B24  1  0.25000000  0.27669700  0.13523100  1
  B  B25  1  0.25000000  0.77669700  0.36476900  1
  B  B26  1  0.75000000  0.72330300  0.86476900  1
  B  B27  1  0.75000000  0.22330300  0.63523100  1
  B  B28  1  0.75000000  0.27212600  0.14415100  1
  B  B29  1  0.25000000  0.72787400  0.85584900  1
  B  B30  1  0.75000000  0.77212600  0.35584900  1
  B  B31  1  0.25000000  0.22787400  0.64415100  1
  O  O32  1  0.49367400  0.88837400  0.07656500  1
  O  O33  1  0.75000000  0.14923800  0.73388200  1
  O  O34  1  0.25000000  0.15448500  0.54508500  1
  O  O35  1  0.75000000  0.84551500  0.45491500  1
  O  O36  1  0.75000000  0.84830700  0.26081300  1
  O  O37  1  0.50632600  0.11162600  0.92343500  1
  O  O38  1  0.25000000  0.15169300  0.73918700  1
  O  O39  1  0.50351000  0.89717400  0.64365100  1
  O  O40  1  0.25000000  0.62955800  0.36052100  1
  O  O41  1  0.25000000  0.65448500  0.95491500  1
  O  O42  1  0.75000000  0.37044200  0.63947900  1
  O  O43  1  0.00632600  0.38837400  0.42343500  1
  O  O44  1  0.75000000  0.87044200  0.86052100  1
  O  O45  1  0.99367400  0.11162600  0.92343500  1
  O  O46  1  0.49649000  0.60282600  0.14365100  1
  O  O47  1  0.50632600  0.61162600  0.57656500  1
  O  O48  1  0.49649000  0.10282600  0.35634900  1
  O  O49  1  0.75000000  0.34830700  0.23918700  1
  O  O50  1  0.99649000  0.39717400  0.85634900  1
  O  O51  1  0.00351000  0.10282600  0.35634900  1
  O  O52  1  0.75000000  0.12444400  0.14359500  1
  O  O53  1  0.75000000  0.14669900  0.54004400  1
  O  O54  1  0.75000000  0.34551500  0.04508500  1
  O  O55  1  0.25000000  0.37555600  0.64359500  1
  O  O56  1  0.25000000  0.12955800  0.13947900  1
  O  O57  1  0.49367400  0.38837400  0.42343500  1
  O  O58  1  0.25000000  0.85076200  0.26611800  1
  O  O59  1  0.00632600  0.88837400  0.07656500  1
  O  O60  1  0.00351000  0.60282600  0.14365100  1
  O  O61  1  0.99649000  0.89717400  0.64365100  1
  O  O62  1  0.75000000  0.62444400  0.35640500  1
  O  O63  1  0.25000000  0.35330100  0.04004400  1
  O  O64  1  0.25000000  0.85330100  0.45995600  1
  O  O65  1  0.50351000  0.39717400  0.85634900  1
  O  O66  1  0.25000000  0.87555600  0.85640500  1
  O  O67  1  0.25000000  0.35076200  0.23388200  1
  O  O68  1  0.99367400  0.61162600  0.57656500  1
  O  O69  1  0.25000000  0.65169300  0.76081300  1
  O  O70  1  0.75000000  0.64923800  0.76611800  1
  O  O71  1  0.75000000  0.64669900  0.95995600  1
