# generated using pymatgen
data_CdGaH14O7F5
_symmetry_space_group_name_H-M   'P 1'
_cell_length_a   5.99730800
_cell_length_b   9.47613405
_cell_length_c   10.13053726
_cell_angle_alpha   107.83634207
_cell_angle_beta   102.01092763
_cell_angle_gamma   95.56215417
_symmetry_Int_Tables_number   1
_chemical_formula_structural   CdGaH14O7F5
_chemical_formula_sum   'Cd2 Ga2 H28 O14 F10'
_cell_volume   528.01999230
_cell_formula_units_Z   2
loop_
 _symmetry_equiv_pos_site_id
 _symmetry_equiv_pos_as_xyz
  1  'x, y, z'
loop_
 _atom_site_type_symbol
 _atom_site_label
 _atom_site_symmetry_multiplicity
 _atom_site_fract_x
 _atom_site_fract_y
 _atom_site_fract_z
 _atom_site_occupancy
  Cd  Cd0  1  0.57564900  0.32040700  0.24919900  1
  Cd  Cd1  1  0.42435100  0.67959300  0.75080100  1
  Ga  Ga2  1  0.94355800  0.17971800  0.75141000  1
  Ga  Ga3  1  0.05644200  0.82028200  0.24859000  1
  H  H4  1  0.10346700  0.40554500  0.58811300  1
  H  H5  1  0.20831000  0.08698200  0.57604200  1
  H  H6  1  0.61741300  0.82897900  0.26787400  1
  H  H7  1  0.25995500  0.50979800  0.92446600  1
  H  H8  1  0.19702300  0.51073300  0.24933700  1
  H  H9  1  0.89653300  0.59445500  0.41188700  1
  H  H10  1  0.60444400  0.85377400  0.57973500  1
  H  H11  1  0.74004500  0.49020200  0.07553400  1
  H  H12  1  0.66921800  0.31662900  0.97608600  1
  H  H13  1  0.16767300  0.38638400  0.09552600  1
  H  H14  1  0.67496300  0.62167900  0.47101100  1
  H  H15  1  0.97094400  0.70993100  0.74691800  1
  H  H16  1  0.33078200  0.68337100  0.02391400  1
  H  H17  1  0.66926000  0.99151900  0.88153600  1
  H  H18  1  0.75648200  0.91341200  0.99528500  1
  H  H19  1  0.37097700  0.73853600  0.48581400  1
  H  H20  1  0.92310900  0.12367300  0.23479200  1
  H  H21  1  0.62902300  0.26146400  0.51418600  1
  H  H22  1  0.07689100  0.87632700  0.76520800  1
  H  H23  1  0.24351800  0.08658800  0.00471500  1
  H  H24  1  0.33074000  0.00848100  0.11846400  1
  H  H25  1  0.32503700  0.37832100  0.52898900  1
  H  H26  1  0.79169000  0.91301800  0.42395800  1
  H  H27  1  0.39555600  0.14622600  0.42026500  1
  H  H28  1  0.80297700  0.48926700  0.75066300  1
  H  H29  1  0.38258700  0.17102100  0.73212600  1
  H  H30  1  0.02905600  0.29006900  0.25308200  1
  H  H31  1  0.83232700  0.61361600  0.90447400  1
  O  O32  1  0.24027500  0.45805600  0.57282300  1
  O  O33  1  0.36637800  0.09704200  0.09130300  1
  O  O34  1  0.78456600  0.59417700  0.79931500  1
  O  O35  1  0.22581700  0.16515700  0.67149400  1
  O  O36  1  0.63362200  0.90295800  0.90869700  1
  O  O37  1  0.75972500  0.54194400  0.42717700  1
  O  O38  1  0.77418300  0.83484300  0.32850600  1
  O  O39  1  0.91884100  0.23089200  0.28539400  1
  O  O40  1  0.08115900  0.76910800  0.71460600  1
  O  O41  1  0.34586000  0.60883300  0.93486100  1
  O  O42  1  0.48294400  0.24813100  0.43991700  1
  O  O43  1  0.51705600  0.75186900  0.56008300  1
  O  O44  1  0.65414000  0.39116700  0.06513900  1
  O  O45  1  0.21543400  0.40582300  0.20068500  1
  F  F46  1  0.14155800  0.67948300  0.34785300  1
  F  F47  1  0.85844200  0.32051700  0.65214700  1
  F  F48  1  0.95875000  0.95179400  0.14633000  1
  F  F49  1  0.22298700  0.98667000  0.41630600  1
  F  F50  1  0.04125000  0.04820600  0.85367000  1
  F  F51  1  0.66074600  0.18089900  0.81796600  1
  F  F52  1  0.89603300  0.65203000  0.08448500  1
  F  F53  1  0.77701300  0.01333000  0.58369400  1
  F  F54  1  0.33925400  0.81910100  0.18203400  1
  F  F55  1  0.10396700  0.34797000  0.91551500  1
