# generated using pymatgen
data_Ba(BSe3)2
_symmetry_space_group_name_H-M   'P 1'
_cell_length_a   6.93254976
_cell_length_b   6.93254976
_cell_length_c   10.64058500
_cell_angle_alpha   90.00000000
_cell_angle_beta   90.00000000
_cell_angle_gamma   111.73061337
_symmetry_Int_Tables_number   1
_chemical_formula_structural   Ba(BSe3)2
_chemical_formula_sum   'Ba2 B4 Se12'
_cell_volume   475.04720488
_cell_formula_units_Z   2
loop_
 _symmetry_equiv_pos_site_id
 _symmetry_equiv_pos_as_xyz
  1  'x, y, z'
loop_
 _atom_site_type_symbol
 _atom_site_label
 _atom_site_symmetry_multiplicity
 _atom_site_fract_x
 _atom_site_fract_y
 _atom_site_fract_z
 _atom_site_occupancy
  Ba  Ba0  1  0.50000000  0.50000000  0.50000000  1
  Ba  Ba1  1  0.00000000  0.00000000  0.00000000  1
  B  B2  1  0.38671400  0.61328600  0.00000000  1
  B  B3  1  0.61328600  0.38671400  0.00000000  1
  B  B4  1  0.11328600  0.88671400  0.50000000  1
  B  B5  1  0.88671400  0.11328600  0.50000000  1
  Se  Se6  1  0.47721400  0.89218600  0.09197500  1
  Se  Se7  1  0.40084900  0.40084900  0.13529100  1
  Se  Se8  1  0.10781400  0.52278600  0.90802500  1
  Se  Se9  1  0.39218600  0.97721400  0.40802500  1
  Se  Se10  1  0.60781400  0.02278600  0.59197500  1
  Se  Se11  1  0.89218600  0.47721400  0.09197500  1
  Se  Se12  1  0.02278600  0.60781400  0.59197500  1
  Se  Se13  1  0.52278600  0.10781400  0.90802500  1
  Se  Se14  1  0.09915100  0.09915100  0.63529100  1
  Se  Se15  1  0.59915100  0.59915100  0.86470900  1
  Se  Se16  1  0.90084900  0.90084900  0.36470900  1
  Se  Se17  1  0.97721400  0.39218600  0.40802500  1
