# generated using pymatgen
data_SnP2(Cl5O)2
_symmetry_space_group_name_H-M   'P 1'
_cell_length_a   8.29107100
_cell_length_b   14.95523900
_cell_length_c   15.06508000
_cell_angle_alpha   90.00000000
_cell_angle_beta   90.00000000
_cell_angle_gamma   90.00000000
_symmetry_Int_Tables_number   1
_chemical_formula_structural   SnP2(Cl5O)2
_chemical_formula_sum   'Sn4 P8 Cl40 O8'
_cell_volume   1867.99381680
_cell_formula_units_Z   4
loop_
 _symmetry_equiv_pos_site_id
 _symmetry_equiv_pos_as_xyz
  1  'x, y, z'
loop_
 _atom_site_type_symbol
 _atom_site_label
 _atom_site_symmetry_multiplicity
 _atom_site_fract_x
 _atom_site_fract_y
 _atom_site_fract_z
 _atom_site_occupancy
  Sn  Sn0  1  0.50000000  0.25446800  0.65726900  1
  Sn  Sn1  1  0.50000000  0.74553200  0.34273100  1
  Sn  Sn2  1  0.00000000  0.75446800  0.84273100  1
  Sn  Sn3  1  0.00000000  0.24553200  0.15726900  1
  P  P4  1  0.50000000  0.41394800  0.84366000  1
  P  P5  1  0.00000000  0.60744700  0.64122400  1
  P  P6  1  0.00000000  0.08605200  0.34366000  1
  P  P7  1  0.50000000  0.10744700  0.85877600  1
  P  P8  1  0.00000000  0.91394800  0.65634000  1
  P  P9  1  0.50000000  0.89255300  0.14122400  1
  P  P10  1  0.50000000  0.58605200  0.15634000  1
  P  P11  1  0.00000000  0.39255300  0.35877600  1
  Cl  Cl12  1  0.69144500  0.62425900  0.08636700  1
  Cl  Cl13  1  0.00000000  0.04678500  0.65171500  1
  Cl  Cl14  1  0.28254400  0.76057300  0.81561500  1
  Cl  Cl15  1  0.00000000  0.95321500  0.34828500  1
  Cl  Cl16  1  0.50000000  0.10959200  0.58917500  1
  Cl  Cl17  1  0.28254400  0.23942700  0.18438500  1
  Cl  Cl18  1  0.50000000  0.89040800  0.41082500  1
  Cl  Cl19  1  0.69070500  0.97181800  0.15616000  1
  Cl  Cl20  1  0.69070500  0.02818200  0.84384000  1
  Cl  Cl21  1  0.30929500  0.97181800  0.15616000  1
  Cl  Cl22  1  0.21745600  0.73942700  0.31561500  1
  Cl  Cl23  1  0.00000000  0.60959200  0.91082500  1
  Cl  Cl24  1  0.30855500  0.62425900  0.08636700  1
  Cl  Cl25  1  0.00000000  0.85199800  0.96788900  1
  Cl  Cl26  1  0.78254400  0.26057300  0.68438500  1
  Cl  Cl27  1  0.80855500  0.12425900  0.41363300  1
  Cl  Cl28  1  0.50000000  0.85647900  0.01431100  1
  Cl  Cl29  1  0.80855500  0.87574100  0.58636700  1
  Cl  Cl30  1  0.50000000  0.54678500  0.84828500  1
  Cl  Cl31  1  0.71745600  0.76057300  0.81561500  1
  Cl  Cl32  1  0.00000000  0.39040800  0.08917500  1
  Cl  Cl33  1  0.50000000  0.14352100  0.98568900  1
  Cl  Cl34  1  0.21745600  0.26057300  0.68438500  1
  Cl  Cl35  1  0.19070500  0.52818200  0.65616000  1
  Cl  Cl36  1  0.00000000  0.35647900  0.48568900  1
  Cl  Cl37  1  0.50000000  0.35199800  0.53211100  1
  Cl  Cl38  1  0.69144500  0.37574100  0.91363300  1
  Cl  Cl39  1  0.50000000  0.64800200  0.46788900  1
  Cl  Cl40  1  0.19144500  0.12425900  0.41363300  1
  Cl  Cl41  1  0.78254400  0.73942700  0.31561500  1
  Cl  Cl42  1  0.30855500  0.37574100  0.91363300  1
  Cl  Cl43  1  0.00000000  0.14800200  0.03211100  1
  Cl  Cl44  1  0.80929500  0.52818200  0.65616000  1
  Cl  Cl45  1  0.30929500  0.02818200  0.84384000  1
  Cl  Cl46  1  0.19144500  0.87574100  0.58636700  1
  Cl  Cl47  1  0.19070500  0.47181800  0.34384000  1
  Cl  Cl48  1  0.80929500  0.47181800  0.34384000  1
  Cl  Cl49  1  0.00000000  0.64352100  0.51431100  1
  Cl  Cl50  1  0.50000000  0.45321500  0.15171500  1
  Cl  Cl51  1  0.71745600  0.23942700  0.18438500  1
  O  O52  1  0.00000000  0.88205800  0.75002100  1
  O  O53  1  0.00000000  0.68691100  0.70034400  1
  O  O54  1  0.00000000  0.11794200  0.24997900  1
  O  O55  1  0.50000000  0.81308900  0.20034400  1
  O  O56  1  0.00000000  0.31308900  0.29965600  1
  O  O57  1  0.50000000  0.61794200  0.25002100  1
  O  O58  1  0.50000000  0.18691100  0.79965600  1
  O  O59  1  0.50000000  0.38205800  0.74997900  1
