# generated using pymatgen
data_CdSiO3
_symmetry_space_group_name_H-M   'P 1'
_cell_length_a   7.36229600
_cell_length_b   7.08668100
_cell_length_c   15.32166452
_cell_angle_alpha   84.95557608
_cell_angle_beta   90.00000000
_cell_angle_gamma   90.00000000
_symmetry_Int_Tables_number   1
_chemical_formula_structural   CdSiO3
_chemical_formula_sum   'Cd12 Si12 O36'
_cell_volume   796.30004734
_cell_formula_units_Z   12
loop_
 _symmetry_equiv_pos_site_id
 _symmetry_equiv_pos_as_xyz
  1  'x, y, z'
loop_
 _atom_site_type_symbol
 _atom_site_label
 _atom_site_symmetry_multiplicity
 _atom_site_fract_x
 _atom_site_fract_y
 _atom_site_fract_z
 _atom_site_occupancy
  Cd  Cd0  1  0.62384400  0.98861400  0.24823100  1
  Cd  Cd1  1  0.37277000  0.75057400  0.09859700  1
  Cd  Cd2  1  0.37940200  0.25335300  0.39828700  1
  Cd  Cd3  1  0.12384400  0.01138600  0.25176900  1
  Cd  Cd4  1  0.62059800  0.74664700  0.60171300  1
  Cd  Cd5  1  0.87277000  0.24942600  0.40140300  1
  Cd  Cd6  1  0.87940200  0.74664700  0.10171300  1
  Cd  Cd7  1  0.12059800  0.25335300  0.89828700  1
  Cd  Cd8  1  0.37615600  0.01138600  0.75176900  1
  Cd  Cd9  1  0.12723000  0.75057400  0.59859700  1
  Cd  Cd10  1  0.62723000  0.24942600  0.90140300  1
  Cd  Cd11  1  0.87615600  0.98861400  0.74823100  1
  Si  Si12  1  0.41098200  0.76040000  0.41035500  1
  Si  Si13  1  0.83766300  0.76137900  0.40975700  1
  Si  Si14  1  0.87660900  0.45239700  0.69763900  1
  Si  Si15  1  0.58901800  0.23960000  0.58964500  1
  Si  Si16  1  0.33766300  0.23862100  0.09024300  1
  Si  Si17  1  0.62339100  0.45239700  0.19763900  1
  Si  Si18  1  0.91098200  0.23960000  0.08964500  1
  Si  Si19  1  0.66233700  0.76137900  0.90975700  1
  Si  Si20  1  0.08901800  0.76040000  0.91035500  1
  Si  Si21  1  0.37660900  0.54760300  0.80236100  1
  Si  Si22  1  0.12339100  0.54760300  0.30236100  1
  Si  Si23  1  0.16233700  0.23862100  0.59024300  1
  O  O24  1  0.37604100  0.29790000  0.60005700  1
  O  O25  1  0.87604100  0.70210000  0.89994300  1
  O  O26  1  0.55535700  0.58563800  0.86601700  1
  O  O27  1  0.44464300  0.41436200  0.13398300  1
  O  O28  1  0.05535700  0.41436200  0.63398300  1
  O  O29  1  0.62395900  0.70210000  0.39994300  1
  O  O30  1  0.62077100  0.77376300  0.01230300  1
  O  O31  1  0.12472800  0.04265000  0.65363800  1
  O  O32  1  0.87527200  0.95735000  0.34636200  1
  O  O33  1  0.12077100  0.22623700  0.48769700  1
  O  O34  1  0.87093100  0.04242200  0.15098400  1
  O  O35  1  0.87499800  0.68072800  0.70290700  1
  O  O36  1  0.19817600  0.58632500  0.86677400  1
  O  O37  1  0.87612700  0.30505000  0.78543100  1
  O  O38  1  0.30182400  0.58632500  0.36677400  1
  O  O39  1  0.12387300  0.69495000  0.21456900  1
  O  O40  1  0.12500200  0.31927200  0.29709300  1
  O  O41  1  0.37527200  0.04265000  0.15363800  1
  O  O42  1  0.69817600  0.41367500  0.63322600  1
  O  O43  1  0.12395900  0.29790000  0.10005700  1
  O  O44  1  0.62472800  0.95735000  0.84636200  1
  O  O45  1  0.37499800  0.31927200  0.79709300  1
  O  O46  1  0.37612700  0.69495000  0.71456900  1
  O  O47  1  0.37922900  0.22623700  0.98769700  1
  O  O48  1  0.62906900  0.04242200  0.65098400  1
  O  O49  1  0.62387300  0.30505000  0.28543100  1
  O  O50  1  0.62500200  0.68072800  0.20290700  1
  O  O51  1  0.80182400  0.41367500  0.13322600  1
  O  O52  1  0.12906900  0.95757800  0.84901600  1
  O  O53  1  0.87170000  0.23273300  0.98579100  1
  O  O54  1  0.94464300  0.58563800  0.36601700  1
  O  O55  1  0.87922900  0.77376300  0.51230300  1
  O  O56  1  0.62830000  0.23273300  0.48579100  1
  O  O57  1  0.12830000  0.76726700  0.01420900  1
  O  O58  1  0.37093100  0.95757800  0.34901600  1
  O  O59  1  0.37170000  0.76726700  0.51420900  1
