# generated using pymatgen
data_Tb2Si5Os3
_symmetry_space_group_name_H-M   'P 1'
_cell_length_a   10.74754500
_cell_length_b   10.74754500
_cell_length_c   5.69952800
_cell_angle_alpha   90.00000000
_cell_angle_beta   90.00000000
_cell_angle_gamma   90.00000000
_symmetry_Int_Tables_number   1
_chemical_formula_structural   Tb2Si5Os3
_chemical_formula_sum   'Tb8 Si20 Os12'
_cell_volume   658.35090351
_cell_formula_units_Z   4
loop_
 _symmetry_equiv_pos_site_id
 _symmetry_equiv_pos_as_xyz
  1  'x, y, z'
loop_
 _atom_site_type_symbol
 _atom_site_label
 _atom_site_symmetry_multiplicity
 _atom_site_fract_x
 _atom_site_fract_y
 _atom_site_fract_z
 _atom_site_occupancy
  Tb  Tb0  1  0.76450600  0.92950400  0.50000000  1
  Tb  Tb1  1  0.42950400  0.26450600  0.00000000  1
  Tb  Tb2  1  0.26450600  0.57049600  0.00000000  1
  Tb  Tb3  1  0.57049600  0.73549400  0.00000000  1
  Tb  Tb4  1  0.23549400  0.07049600  0.50000000  1
  Tb  Tb5  1  0.07049600  0.76450600  0.50000000  1
  Tb  Tb6  1  0.73549400  0.42950400  0.00000000  1
  Tb  Tb7  1  0.92950400  0.23549400  0.50000000  1
  Si  Si8  1  0.50000000  0.50000000  0.74319900  1
  Si  Si9  1  0.97377600  0.32007600  0.00000000  1
  Si  Si10  1  0.02622400  0.67992400  0.00000000  1
  Si  Si11  1  0.67283900  0.17283900  0.25000000  1
  Si  Si12  1  0.67283900  0.17283900  0.75000000  1
  Si  Si13  1  0.32716100  0.82716100  0.75000000  1
  Si  Si14  1  0.32716100  0.82716100  0.25000000  1
  Si  Si15  1  0.32007600  0.02622400  0.00000000  1
  Si  Si16  1  0.00000000  0.00000000  0.75680100  1
  Si  Si17  1  0.50000000  0.50000000  0.25680100  1
  Si  Si18  1  0.17992400  0.52622400  0.50000000  1
  Si  Si19  1  0.52622400  0.82007600  0.50000000  1
  Si  Si20  1  0.17283900  0.32716100  0.25000000  1
  Si  Si21  1  0.67992400  0.97377600  0.00000000  1
  Si  Si22  1  0.00000000  0.00000000  0.24319900  1
  Si  Si23  1  0.47377600  0.17992400  0.50000000  1
  Si  Si24  1  0.82716100  0.67283900  0.25000000  1
  Si  Si25  1  0.82007600  0.47377600  0.50000000  1
  Si  Si26  1  0.17283900  0.32716100  0.75000000  1
  Si  Si27  1  0.82716100  0.67283900  0.75000000  1
  Os  Os28  1  0.35344300  0.37439800  0.50000000  1
  Os  Os29  1  0.50000000  0.00000000  0.75000000  1
  Os  Os30  1  0.85344300  0.12560200  0.00000000  1
  Os  Os31  1  0.87439800  0.85344300  0.00000000  1
  Os  Os32  1  0.00000000  0.50000000  0.25000000  1
  Os  Os33  1  0.12560200  0.14655700  0.00000000  1
  Os  Os34  1  0.64655700  0.62560200  0.50000000  1
  Os  Os35  1  0.14655700  0.87439800  0.00000000  1
  Os  Os36  1  0.37439800  0.64655700  0.50000000  1
  Os  Os37  1  0.50000000  0.00000000  0.25000000  1
  Os  Os38  1  0.62560200  0.35344300  0.50000000  1
  Os  Os39  1  0.00000000  0.50000000  0.75000000  1
