# generated using pymatgen
data_TiAl2
_symmetry_space_group_name_H-M   'P 1'
_cell_length_a   12.46219186
_cell_length_b   12.46219186
_cell_length_c   12.46219186
_cell_angle_alpha   161.67488866
_cell_angle_beta   161.67488866
_cell_angle_gamma   26.02854420
_symmetry_Int_Tables_number   1
_chemical_formula_structural   TiAl2
_chemical_formula_sum   'Ti4 Al8'
_cell_volume   191.26034522
_cell_formula_units_Z   4
loop_
 _symmetry_equiv_pos_site_id
 _symmetry_equiv_pos_as_xyz
  1  'x, y, z'
loop_
 _atom_site_type_symbol
 _atom_site_label
 _atom_site_symmetry_multiplicity
 _atom_site_fract_x
 _atom_site_fract_y
 _atom_site_fract_z
 _atom_site_occupancy
  Ti  Ti0  1  0.67217900  0.17217900  0.50000000  1
  Ti  Ti1  1  0.92217900  0.92217900  0.00000000  1
  Ti  Ti2  1  0.82782100  0.32782100  0.50000000  1
  Ti  Ti3  1  0.07782100  0.07782100  0.00000000  1
  Al  Al4  1  0.41340200  0.41340200  0.00000000  1
  Al  Al5  1  0.25023900  0.25023900  0.00000000  1
  Al  Al6  1  0.74976100  0.74976100  0.00000000  1
  Al  Al7  1  0.33659800  0.83659800  0.50000000  1
  Al  Al8  1  0.16340200  0.66340200  0.50000000  1
  Al  Al9  1  0.49976100  0.99976100  0.50000000  1
  Al  Al10  1  0.00023900  0.50023900  0.50000000  1
  Al  Al11  1  0.58659800  0.58659800  0.00000000  1
