# generated using pymatgen
data_ZrAlPt
_symmetry_space_group_name_H-M   'P 1'
_cell_length_a   7.16523206
_cell_length_b   7.16523206
_cell_length_c   7.29246000
_cell_angle_alpha   90.00000000
_cell_angle_beta   90.00000000
_cell_angle_gamma   120.00000051
_symmetry_Int_Tables_number   1
_chemical_formula_structural   ZrAlPt
_chemical_formula_sum   'Zr6 Al6 Pt6'
_cell_volume   324.23896574
_cell_formula_units_Z   6
loop_
 _symmetry_equiv_pos_site_id
 _symmetry_equiv_pos_as_xyz
  1  'x, y, z'
loop_
 _atom_site_type_symbol
 _atom_site_label
 _atom_site_symmetry_multiplicity
 _atom_site_fract_x
 _atom_site_fract_y
 _atom_site_fract_z
 _atom_site_occupancy
  Zr  Zr0  1  0.01781000  0.60593900  0.75000000  1
  Zr  Zr1  1  0.98219000  0.58812900  0.25000000  1
  Zr  Zr2  1  0.60593900  0.01781000  0.25000000  1
  Zr  Zr3  1  0.58812900  0.98219000  0.75000000  1
  Zr  Zr4  1  0.41187100  0.39406100  0.25000000  1
  Zr  Zr5  1  0.39406100  0.41187100  0.75000000  1
  Al  Al6  1  0.00000000  0.25815400  0.50000000  1
  Al  Al7  1  0.74184600  0.74184600  0.00000000  1
  Al  Al8  1  0.00000000  0.25815400  0.00000000  1
  Al  Al9  1  0.25815400  0.00000000  0.50000000  1
  Al  Al10  1  0.25815400  0.00000000  0.00000000  1
  Al  Al11  1  0.74184600  0.74184600  0.50000000  1
  Pt  Pt12  1  0.33333300  0.66666700  0.47567700  1
  Pt  Pt13  1  0.66666700  0.33333300  0.52432300  1
  Pt  Pt14  1  0.66666700  0.33333300  0.97567700  1
  Pt  Pt15  1  0.00000000  0.00000000  0.25000000  1
  Pt  Pt16  1  0.00000000  0.00000000  0.75000000  1
  Pt  Pt17  1  0.33333300  0.66666700  0.02432300  1
