# generated using pymatgen
data_Na2BHO3
_symmetry_space_group_name_H-M   'P 1'
_cell_length_a   3.54370100
_cell_length_b   8.68484500
_cell_length_c   9.95542200
_cell_angle_alpha   90.00000000
_cell_angle_beta   90.00000000
_cell_angle_gamma   90.00000000
_symmetry_Int_Tables_number   1
_chemical_formula_structural   Na2BHO3
_chemical_formula_sum   'Na8 B4 H4 O12'
_cell_volume   306.39298457
_cell_formula_units_Z   4
loop_
 _symmetry_equiv_pos_site_id
 _symmetry_equiv_pos_as_xyz
  1  'x, y, z'
loop_
 _atom_site_type_symbol
 _atom_site_label
 _atom_site_symmetry_multiplicity
 _atom_site_fract_x
 _atom_site_fract_y
 _atom_site_fract_z
 _atom_site_occupancy
  Na  Na0  1  0.25000000  0.07205500  0.39654900  1
  Na  Na1  1  0.75000000  0.92794500  0.60345100  1
  Na  Na2  1  0.75000000  0.32750000  0.55331400  1
  Na  Na3  1  0.75000000  0.42794500  0.89654900  1
  Na  Na4  1  0.75000000  0.82750000  0.94668600  1
  Na  Na5  1  0.25000000  0.17250000  0.05331400  1
  Na  Na6  1  0.25000000  0.67250000  0.44668600  1
  Na  Na7  1  0.25000000  0.57205500  0.10345100  1
  B  B8  1  0.25000000  0.13735100  0.75881600  1
  B  B9  1  0.25000000  0.63735100  0.74118400  1
  B  B10  1  0.75000000  0.86264900  0.24118400  1
  B  B11  1  0.75000000  0.36264900  0.25881600  1
  H  H12  1  0.25000000  0.90311800  0.77132300  1
  H  H13  1  0.25000000  0.40311800  0.72867700  1
  H  H14  1  0.75000000  0.59688200  0.27132300  1
  H  H15  1  0.75000000  0.09688200  0.22867700  1
  O  O16  1  0.75000000  0.00375900  0.16303200  1
  O  O17  1  0.25000000  0.12848800  0.62181600  1
  O  O18  1  0.25000000  0.99624100  0.83696800  1
  O  O19  1  0.75000000  0.87151200  0.37818400  1
  O  O20  1  0.25000000  0.27087900  0.83164600  1
  O  O21  1  0.25000000  0.49624100  0.66303200  1
  O  O22  1  0.75000000  0.72912100  0.16835400  1
  O  O23  1  0.25000000  0.62848800  0.87818400  1
  O  O24  1  0.75000000  0.22912100  0.33164600  1
  O  O25  1  0.75000000  0.37151200  0.12181600  1
  O  O26  1  0.75000000  0.50375900  0.33696800  1
  O  O27  1  0.25000000  0.77087900  0.66835400  1
