# generated using pymatgen
data_Cs2Si3SnO9
_symmetry_space_group_name_H-M   'P 1'
_cell_length_a   8.08209200
_cell_length_b   10.52082800
_cell_length_c   11.94143000
_cell_angle_alpha   90.00000000
_cell_angle_beta   90.00000000
_cell_angle_gamma   90.00000000
_symmetry_Int_Tables_number   1
_chemical_formula_structural   Cs2Si3SnO9
_chemical_formula_sum   'Cs8 Si12 Sn4 O36'
_cell_volume   1015.38337309
_cell_formula_units_Z   4
loop_
 _symmetry_equiv_pos_site_id
 _symmetry_equiv_pos_as_xyz
  1  'x, y, z'
loop_
 _atom_site_type_symbol
 _atom_site_label
 _atom_site_symmetry_multiplicity
 _atom_site_fract_x
 _atom_site_fract_y
 _atom_site_fract_z
 _atom_site_occupancy
  Cs  Cs0  1  0.76659200  0.78753600  0.89697400  1
  Cs  Cs1  1  0.26659200  0.71246400  0.10302600  1
  Cs  Cs2  1  0.92554700  0.89230700  0.52121900  1
  Cs  Cs3  1  0.42554700  0.60769300  0.47878100  1
  Cs  Cs4  1  0.07445300  0.39230700  0.97878100  1
  Cs  Cs5  1  0.57445300  0.10769300  0.02121900  1
  Cs  Cs6  1  0.73340800  0.21246400  0.39697400  1
  Cs  Cs7  1  0.23340800  0.28753600  0.60302600  1
  Si  Si8  1  0.07914000  0.38973900  0.29173300  1
  Si  Si9  1  0.92086000  0.88973900  0.20826700  1
  Si  Si10  1  0.58436400  0.47503900  0.99283700  1
  Si  Si11  1  0.55982800  0.87332300  0.28609000  1
  Si  Si12  1  0.05982800  0.62667700  0.71391000  1
  Si  Si13  1  0.42086000  0.61026100  0.79173300  1
  Si  Si14  1  0.57914000  0.11026100  0.70826700  1
  Si  Si15  1  0.08436400  0.02496100  0.00716300  1
  Si  Si16  1  0.91563600  0.52496100  0.49283700  1
  Si  Si17  1  0.41563600  0.97503900  0.50716300  1
  Si  Si18  1  0.44017200  0.37332300  0.21391000  1
  Si  Si19  1  0.94017200  0.12667700  0.78609000  1
  Sn  Sn20  1  0.24499200  0.09023300  0.26358300  1
  Sn  Sn21  1  0.74499200  0.40976700  0.73641700  1
  Sn  Sn22  1  0.75500800  0.59023300  0.23641700  1
  Sn  Sn23  1  0.25500800  0.90976700  0.76358300  1
  O  O24  1  0.55958100  0.05530500  0.57834700  1
  O  O25  1  0.41621600  0.94908400  0.21853900  1
  O  O26  1  0.57896900  0.26461100  0.70033500  1
  O  O27  1  0.02971700  0.61600200  0.57649000  1
  O  O28  1  0.19213100  0.11198100  0.09241900  1
  O  O29  1  0.58378400  0.44908400  0.28146100  1
  O  O30  1  0.97028300  0.11600200  0.92351000  1
  O  O31  1  0.56754100  0.55106400  0.71482300  1
  O  O32  1  0.06424400  0.77632500  0.74687400  1
  O  O33  1  0.69213100  0.38801900  0.90758100  1
  O  O34  1  0.43245900  0.05106400  0.78517700  1
  O  O35  1  0.94041900  0.94469500  0.07834700  1
  O  O36  1  0.43575600  0.22367500  0.24687400  1
  O  O37  1  0.05958100  0.44469500  0.42165300  1
  O  O38  1  0.74118200  0.94166600  0.25864500  1
  O  O39  1  0.93245900  0.44893600  0.21482300  1
  O  O40  1  0.06754100  0.94893600  0.28517700  1
  O  O41  1  0.07896900  0.23538900  0.29966500  1
  O  O42  1  0.24118200  0.55833400  0.74135500  1
  O  O43  1  0.52971700  0.88399800  0.42351000  1
  O  O44  1  0.75881800  0.05833400  0.75864500  1
  O  O45  1  0.19476800  0.92711400  0.93276600  1
  O  O46  1  0.44041900  0.55530500  0.92165300  1
  O  O47  1  0.30786900  0.88801900  0.59241900  1
  O  O48  1  0.69476800  0.57288600  0.06723400  1
  O  O49  1  0.42103100  0.76461100  0.79966500  1
  O  O50  1  0.30523200  0.07288600  0.43276600  1
  O  O51  1  0.56424400  0.72367500  0.25312600  1
  O  O52  1  0.80786900  0.61198100  0.40758100  1
  O  O53  1  0.80523200  0.42711400  0.56723400  1
  O  O54  1  0.92103100  0.73538900  0.20033500  1
  O  O55  1  0.93575600  0.27632500  0.75312600  1
  O  O56  1  0.25881800  0.44166600  0.24135500  1
  O  O57  1  0.08378400  0.05091600  0.71853900  1
  O  O58  1  0.91621600  0.55091600  0.78146100  1
  O  O59  1  0.47028300  0.38399800  0.07649000  1
