# generated using pymatgen
data_Ta27S50
_symmetry_space_group_name_H-M   'P 1'
_cell_length_a   10.45110400
_cell_length_b   10.46631173
_cell_length_c   14.57967499
_cell_angle_alpha   100.59678371
_cell_angle_beta   90.07966966
_cell_angle_gamma   106.27705440
_symmetry_Int_Tables_number   1
_chemical_formula_structural   Ta27S50
_chemical_formula_sum   'Ta27 S50'
_cell_volume   1502.38991651
_cell_formula_units_Z   1
loop_
 _symmetry_equiv_pos_site_id
 _symmetry_equiv_pos_as_xyz
  1  'x, y, z'
loop_
 _atom_site_type_symbol
 _atom_site_label
 _atom_site_symmetry_multiplicity
 _atom_site_fract_x
 _atom_site_fract_y
 _atom_site_fract_z
 _atom_site_occupancy
  Ta  Ta0  1  0.00055200  0.99792200  0.99647900  1
  Ta  Ta1  1  0.59909000  0.39850300  0.99770500  1
  Ta  Ta2  1  0.08296300  0.91993800  0.20046200  1
  Ta  Ta3  1  0.21025200  0.80979600  0.00063600  1
  Ta  Ta4  1  0.56010400  0.44299600  0.39934300  1
  Ta  Ta5  1  0.67963500  0.31866900  0.20236400  1
  Ta  Ta6  1  0.79596900  0.19746500  0.99988600  1
  Ta  Ta7  1  0.03748800  0.96012900  0.59807500  1
  Ta  Ta8  1  0.15664900  0.83766200  0.39968500  1
  Ta  Ta9  1  0.28126600  0.72158300  0.20328700  1
  Ta  Ta10  1  0.40885600  0.61072400  0.00120600  1
  Ta  Ta11  1  0.52499400  0.48076100  0.79822700  1
  Ta  Ta12  1  0.65065000  0.36941500  0.60136200  1
  Ta  Ta13  1  0.77070400  0.24992700  0.40148600  1
  Ta  Ta14  1  0.87823300  0.12058500  0.20286400  1
  Ta  Ta15  1  0.11881400  0.88042900  0.80030800  1
  Ta  Ta16  1  0.23840400  0.75926000  0.60015000  1
  Ta  Ta17  1  0.35813400  0.63675700  0.39980300  1
  Ta  Ta18  1  0.47924700  0.52283200  0.20100800  1
  Ta  Ta19  1  0.71825500  0.28107500  0.80275000  1
  Ta  Ta20  1  0.84944000  0.16931300  0.60142000  1
  Ta  Ta21  1  0.96204900  0.04090100  0.39959200  1
  Ta  Ta22  1  0.97310100  0.48542000  0.56534900  1
  Ta  Ta23  1  0.32643600  0.68916200  0.80254900  1
  Ta  Ta24  1  0.44179100  0.55916900  0.59803000  1
  Ta  Ta25  1  0.91947500  0.07713300  0.79923700  1
  Ta  Ta26  1  0.53249200  0.92637900  0.96465300  1
  S  S27  1  0.97667400  0.78169100  0.04912900  1
  S  S28  1  0.21750400  0.03979300  0.08450300  1
  S  S29  1  0.44975300  0.30022300  0.25034200  1
  S  S30  1  0.56292700  0.17352400  0.04946400  1
  S  S31  1  0.69763100  0.55399900  0.28136700  1
  S  S32  1  0.81351600  0.42893900  0.08316100  1
  S  S33  1  0.92632500  0.82017000  0.44851100  1
  S  S34  1  0.04879800  0.69839600  0.24839200  1
  S  S35  1  0.17783700  0.58844100  0.04907700  1
  S  S36  1  0.17879000  0.07063300  0.48308200  1
  S  S37  1  0.29748400  0.95521000  0.28693400  1
  S  S38  1  0.42582800  0.84516200  0.09533300  1
  S  S39  1  0.41597900  0.34167900  0.64881300  1
  S  S40  1  0.54048500  0.22684600  0.45247400  1
  S  S41  1  0.65129000  0.10267400  0.25527800  1
  S  S42  1  0.76403100  0.97485600  0.04911000  1
  S  S43  1  0.66008200  0.60000700  0.68300300  1
  S  S44  1  0.78094700  0.49047000  0.48000100  1
  S  S45  1  0.90104600  0.35718000  0.28085500  1
  S  S46  1  0.88876800  0.85590600  0.84848200  1
  S  S47  1  0.01168700  0.22880300  0.08243500  1
  S  S48  1  0.00468600  0.73373800  0.64923200  1
  S  S49  1  0.12291200  0.61277000  0.45081200  1
  S  S50  1  0.24816500  0.49860200  0.24843300  1
  S  S51  1  0.13570600  0.11482000  0.88244500  1
  S  S52  1  0.37152900  0.38651000  0.04863900  1
  S  S53  1  0.25341900  0.99085900  0.68127700  1
  S  S54  1  0.37309200  0.86949600  0.48322800  1
  S  S55  1  0.49826800  0.75459900  0.28673600  1
  S  S56  1  0.48664700  0.26019200  0.84749800  1
  S  S57  1  0.62246300  0.63338900  0.08456400  1
  S  S58  1  0.61721600  0.14749700  0.64827700  1
  S  S59  1  0.73538400  0.03046100  0.45262100  1
  S  S60  1  0.85055900  0.90005300  0.25001400  1
  S  S61  1  0.73949200  0.51375100  0.88550500  1
  S  S62  1  0.86586000  0.40331700  0.69573400  1
  S  S63  1  0.99642800  0.27663800  0.48067800  1
  S  S64  1  0.09829800  0.15347800  0.28139700  1
  S  S65  1  0.09714600  0.66410300  0.85314700  1
  S  S66  1  0.20774800  0.53828000  0.65148400  1
  S  S67  1  0.33037500  0.41664900  0.44923600  1
  S  S68  1  0.33946000  0.93008500  0.87865700  1
  S  S69  1  0.45645100  0.79332700  0.68055500  1
  S  S70  1  0.57520300  0.67612300  0.48271700  1
  S  S71  1  0.68259500  0.05336300  0.84873300  1
  S  S72  1  0.80953300  0.94455800  0.64804300  1
  S  S73  1  0.93461900  0.30886200  0.88508400  1
  S  S74  1  0.06238400  0.19375500  0.68563300  1
  S  S75  1  0.29678200  0.46972100  0.85185200  1
  S  S76  1  0.55301200  0.71623900  0.87954500  1
