# generated using pymatgen
data_Sr2CuO3
_symmetry_space_group_name_H-M   'P 1'
_cell_length_a   6.88268143
_cell_length_b   6.88268143
_cell_length_c   6.88268143
_cell_angle_alpha   150.12120835
_cell_angle_beta   146.44700263
_cell_angle_gamma   45.53638811
_symmetry_Int_Tables_number   1
_chemical_formula_structural   Sr2CuO3
_chemical_formula_sum   'Sr2 Cu1 O3'
_cell_volume   89.48166978
_cell_formula_units_Z   1
loop_
 _symmetry_equiv_pos_site_id
 _symmetry_equiv_pos_as_xyz
  1  'x, y, z'
loop_
 _atom_site_type_symbol
 _atom_site_label
 _atom_site_symmetry_multiplicity
 _atom_site_fract_x
 _atom_site_fract_y
 _atom_site_fract_z
 _atom_site_occupancy
  Sr  Sr0  1  0.14678200  0.64678200  0.50000000  1
  Sr  Sr1  1  0.85321800  0.35321800  0.50000000  1
  Cu  Cu2  1  0.50000000  0.00000000  0.50000000  1
  O  O3  1  0.00000000  0.00000000  0.00000000  1
  O  O4  1  0.34529200  0.84529200  0.50000000  1
  O  O5  1  0.65470800  0.15470800  0.50000000  1
