# generated using pymatgen
data_BaSn(GeO3)3
_symmetry_space_group_name_H-M   'P 1'
_cell_length_a   7.02224923
_cell_length_b   7.02224923
_cell_length_c   10.39429400
_cell_angle_alpha   90.00000000
_cell_angle_beta   90.00000000
_cell_angle_gamma   119.99999272
_symmetry_Int_Tables_number   1
_chemical_formula_structural   BaSn(GeO3)3
_chemical_formula_sum   'Ba2 Sn2 Ge6 O18'
_cell_volume   443.89283820
_cell_formula_units_Z   2
loop_
 _symmetry_equiv_pos_site_id
 _symmetry_equiv_pos_as_xyz
  1  'x, y, z'
loop_
 _atom_site_type_symbol
 _atom_site_label
 _atom_site_symmetry_multiplicity
 _atom_site_fract_x
 _atom_site_fract_y
 _atom_site_fract_z
 _atom_site_occupancy
  Ba  Ba0  1  0.66666700  0.33333300  0.00000000  1
  Ba  Ba1  1  0.66666700  0.33333300  0.50000000  1
  Sn  Sn2  1  0.33333300  0.66666700  0.00000000  1
  Sn  Sn3  1  0.33333300  0.66666700  0.50000000  1
  Ge  Ge4  1  0.07459800  0.29381600  0.25000000  1
  Ge  Ge5  1  0.21921800  0.92540200  0.25000000  1
  Ge  Ge6  1  0.70618400  0.78078200  0.25000000  1
  Ge  Ge7  1  0.70618400  0.92540200  0.75000000  1
  Ge  Ge8  1  0.21921800  0.29381600  0.75000000  1
  Ge  Ge9  1  0.07459800  0.78078200  0.75000000  1
  O  O10  1  0.26975000  0.20288500  0.25000000  1
  O  O11  1  0.93313500  0.73025000  0.25000000  1
  O  O12  1  0.79711500  0.06686500  0.25000000  1
  O  O13  1  0.79711500  0.73025000  0.75000000  1
  O  O14  1  0.93313500  0.20288500  0.75000000  1
  O  O15  1  0.26975000  0.06686500  0.75000000  1
  O  O16  1  0.07503800  0.43075300  0.10892400  1
  O  O17  1  0.35571500  0.92496200  0.39107600  1
  O  O18  1  0.56924700  0.64428500  0.39107600  1
  O  O19  1  0.56924700  0.64428500  0.10892400  1
  O  O20  1  0.35571500  0.92496200  0.10892400  1
  O  O21  1  0.56924700  0.92496200  0.89107600  1
  O  O22  1  0.35571500  0.43075300  0.89107600  1
  O  O23  1  0.07503800  0.64428500  0.89107600  1
  O  O24  1  0.35571500  0.43075300  0.60892400  1
  O  O25  1  0.07503800  0.64428500  0.60892400  1
  O  O26  1  0.07503800  0.43075300  0.39107600  1
  O  O27  1  0.56924700  0.92496200  0.60892400  1
