# generated using pymatgen
data_Cs2DyCl5
_symmetry_space_group_name_H-M   'P 1'
_cell_length_a   7.57833200
_cell_length_b   9.72988600
_cell_length_c   15.48620500
_cell_angle_alpha   90.00000000
_cell_angle_beta   90.00000000
_cell_angle_gamma   90.00000000
_symmetry_Int_Tables_number   1
_chemical_formula_structural   Cs2DyCl5
_chemical_formula_sum   'Cs8 Dy4 Cl20'
_cell_volume   1141.89555732
_cell_formula_units_Z   4
loop_
 _symmetry_equiv_pos_site_id
 _symmetry_equiv_pos_as_xyz
  1  'x, y, z'
loop_
 _atom_site_type_symbol
 _atom_site_label
 _atom_site_symmetry_multiplicity
 _atom_site_fract_x
 _atom_site_fract_y
 _atom_site_fract_z
 _atom_site_occupancy
  Cs  Cs0  1  0.25000000  0.47519100  0.28788800  1
  Cs  Cs1  1  0.75000000  0.52480900  0.71211200  1
  Cs  Cs2  1  0.25000000  0.97519100  0.21211200  1
  Cs  Cs3  1  0.75000000  0.02480900  0.78788800  1
  Cs  Cs4  1  0.75000000  0.33427700  0.08402900  1
  Cs  Cs5  1  0.25000000  0.66572300  0.91597100  1
  Cs  Cs6  1  0.75000000  0.83427700  0.41597100  1
  Cs  Cs7  1  0.25000000  0.16572300  0.58402900  1
  Dy  Dy8  1  0.75000000  0.32094900  0.43447100  1
  Dy  Dy9  1  0.25000000  0.67905100  0.56552900  1
  Dy  Dy10  1  0.75000000  0.82094900  0.06552900  1
  Dy  Dy11  1  0.25000000  0.17905100  0.93447100  1
  Cl  Cl12  1  0.50000000  0.50000000  0.50000000  1
  Cl  Cl13  1  0.00000000  0.50000000  0.50000000  1
  Cl  Cl14  1  0.00000000  0.00000000  0.00000000  1
  Cl  Cl15  1  0.50000000  0.00000000  0.00000000  1
  Cl  Cl16  1  0.00324200  0.16600400  0.38091700  1
  Cl  Cl17  1  0.50324200  0.83399600  0.61908300  1
  Cl  Cl18  1  0.49675800  0.66600400  0.11908300  1
  Cl  Cl19  1  0.99675800  0.33399600  0.88091700  1
  Cl  Cl20  1  0.99675800  0.83399600  0.61908300  1
  Cl  Cl21  1  0.49675800  0.16600400  0.38091700  1
  Cl  Cl22  1  0.50324200  0.33399600  0.88091700  1
  Cl  Cl23  1  0.00324200  0.66600400  0.11908300  1
  Cl  Cl24  1  0.25000000  0.28816300  0.09120600  1
  Cl  Cl25  1  0.75000000  0.71183700  0.90879400  1
  Cl  Cl26  1  0.25000000  0.78816300  0.40879400  1
  Cl  Cl27  1  0.75000000  0.21183700  0.59120600  1
  Cl  Cl28  1  0.75000000  0.48153100  0.29978800  1
  Cl  Cl29  1  0.25000000  0.51846900  0.70021200  1
  Cl  Cl30  1  0.75000000  0.98153100  0.20021200  1
  Cl  Cl31  1  0.25000000  0.01846900  0.79978800  1
