# generated using pymatgen
data_CdB2XeF10
_symmetry_space_group_name_H-M   'P 1'
_cell_length_a   9.25425000
_cell_length_b   8.99173500
_cell_length_c   11.01248157
_cell_angle_alpha   68.98120368
_cell_angle_beta   90.00000000
_cell_angle_gamma   90.00000000
_symmetry_Int_Tables_number   1
_chemical_formula_structural   CdB2XeF10
_chemical_formula_sum   'Cd4 B8 Xe4 F40'
_cell_volume   855.39546142
_cell_formula_units_Z   4
loop_
 _symmetry_equiv_pos_site_id
 _symmetry_equiv_pos_as_xyz
  1  'x, y, z'
loop_
 _atom_site_type_symbol
 _atom_site_label
 _atom_site_symmetry_multiplicity
 _atom_site_fract_x
 _atom_site_fract_y
 _atom_site_fract_z
 _atom_site_occupancy
  Cd  Cd0  1  0.53629100  0.65330800  0.63675200  1
  Cd  Cd1  1  0.96370900  0.15330800  0.63675200  1
  Cd  Cd2  1  0.03629100  0.84669200  0.36324800  1
  Cd  Cd3  1  0.46370900  0.34669200  0.36324800  1
  B  B4  1  0.59916500  0.22228100  0.70883500  1
  B  B5  1  0.09916500  0.27771900  0.29116500  1
  B  B6  1  0.40083500  0.77771900  0.29116500  1
  B  B7  1  0.71932600  0.02630700  0.42559600  1
  B  B8  1  0.90083500  0.72228100  0.70883500  1
  B  B9  1  0.78067400  0.52630700  0.42559600  1
  B  B10  1  0.21932600  0.47369300  0.57440400  1
  B  B11  1  0.28067400  0.97369300  0.57440400  1
  Xe  Xe12  1  0.29698500  0.65405400  0.94644000  1
  Xe  Xe13  1  0.70301500  0.34594600  0.05356000  1
  Xe  Xe14  1  0.20301500  0.15405400  0.94644000  1
  Xe  Xe15  1  0.79698500  0.84594600  0.05356000  1
  F  F16  1  0.49876100  0.11920200  0.78776400  1
  F  F17  1  0.47032100  0.58035500  0.85244100  1
  F  F18  1  0.90735900  0.87381200  0.72536400  1
  F  F19  1  0.52967900  0.41964500  0.14755900  1
  F  F20  1  0.68044500  0.60293700  0.48141900  1
  F  F21  1  0.74267700  0.15843100  0.74328400  1
  F  F22  1  0.70302400  0.46204600  0.34442100  1
  F  F23  1  0.92303400  0.74627900  0.57476900  1
  F  F24  1  0.97032100  0.91964500  0.14755900  1
  F  F25  1  0.63344500  0.77352300  0.96415500  1
  F  F26  1  0.50123900  0.88079800  0.21223600  1
  F  F27  1  0.79697600  0.96204600  0.34442100  1
  F  F28  1  0.42303400  0.75372100  0.42523100  1
  F  F29  1  0.13344500  0.72647700  0.03584500  1
  F  F30  1  0.61987900  0.14095300  0.34723400  1
  F  F31  1  0.25732300  0.84156900  0.25671600  1
  F  F32  1  0.40735900  0.62618800  0.27463600  1
  F  F33  1  0.09264100  0.12618800  0.27463600  1
  F  F34  1  0.88012100  0.64095300  0.34723400  1
  F  F35  1  0.02967900  0.08035500  0.85244100  1
  F  F36  1  0.18044500  0.89706300  0.51858100  1
  F  F37  1  0.85485000  0.40682500  0.52474100  1
  F  F38  1  0.24267700  0.34156900  0.25671600  1
  F  F39  1  0.81955500  0.10293700  0.48141900  1
  F  F40  1  0.11987900  0.35904700  0.65276600  1
  F  F41  1  0.59264100  0.37381200  0.72536400  1
  F  F42  1  0.20302400  0.03795400  0.65557900  1
  F  F43  1  0.07696600  0.25372100  0.42523100  1
  F  F44  1  0.38012100  0.85904700  0.65276600  1
  F  F45  1  0.64515000  0.90682500  0.52474100  1
  F  F46  1  0.75732300  0.65843100  0.74328400  1
  F  F47  1  0.36655500  0.22647700  0.03584500  1
  F  F48  1  0.29697600  0.53795400  0.65557900  1
  F  F49  1  0.14515000  0.59317500  0.47525900  1
  F  F50  1  0.86655500  0.27352300  0.96415500  1
  F  F51  1  0.00123900  0.61920200  0.78776400  1
  F  F52  1  0.99876100  0.38079800  0.21223600  1
  F  F53  1  0.57696600  0.24627900  0.57476900  1
  F  F54  1  0.31955500  0.39706300  0.51858100  1
  F  F55  1  0.35485000  0.09317500  0.47525900  1
