# generated using pymatgen
data_HoMn2O5
_symmetry_space_group_name_H-M   'P 1'
_cell_length_a   5.78387500
_cell_length_b   7.32371700
_cell_length_c   8.55310900
_cell_angle_alpha   90.00000000
_cell_angle_beta   90.00000000
_cell_angle_gamma   90.00000000
_symmetry_Int_Tables_number   1
_chemical_formula_structural   HoMn2O5
_chemical_formula_sum   'Ho4 Mn8 O20'
_cell_volume   362.30510989
_cell_formula_units_Z   4
loop_
 _symmetry_equiv_pos_site_id
 _symmetry_equiv_pos_as_xyz
  1  'x, y, z'
loop_
 _atom_site_type_symbol
 _atom_site_label
 _atom_site_symmetry_multiplicity
 _atom_site_fract_x
 _atom_site_fract_y
 _atom_site_fract_z
 _atom_site_occupancy
  Ho  Ho0  1  0.00000000  0.13789600  0.17054900  1
  Ho  Ho1  1  0.00000000  0.86210400  0.82945100  1
  Ho  Ho2  1  0.00000000  0.63789600  0.32945100  1
  Ho  Ho3  1  0.00000000  0.36210400  0.67054900  1
  Mn  Mn4  1  0.25335700  0.00000000  0.50000000  1
  Mn  Mn5  1  0.74664300  0.50000000  0.00000000  1
  Mn  Mn6  1  0.74664300  0.00000000  0.50000000  1
  Mn  Mn7  1  0.25335700  0.50000000  0.00000000  1
  Mn  Mn8  1  0.50000000  0.41194900  0.34854800  1
  Mn  Mn9  1  0.50000000  0.58805100  0.65145200  1
  Mn  Mn10  1  0.50000000  0.91194900  0.15145200  1
  Mn  Mn11  1  0.50000000  0.08805100  0.84854800  1
  O  O12  1  0.26908000  0.00000000  0.00000000  1
  O  O13  1  0.73092000  0.50000000  0.50000000  1
  O  O14  1  0.73092000  0.00000000  0.00000000  1
  O  O15  1  0.26908000  0.50000000  0.50000000  1
  O  O16  1  0.00000000  0.16463600  0.44250100  1
  O  O17  1  0.00000000  0.83536400  0.55749900  1
  O  O18  1  0.00000000  0.66463600  0.05749900  1
  O  O19  1  0.00000000  0.33536400  0.94250100  1
  O  O20  1  0.50000000  0.15164700  0.43122000  1
  O  O21  1  0.50000000  0.84835300  0.56878000  1
  O  O22  1  0.50000000  0.65164700  0.06878000  1
  O  O23  1  0.50000000  0.34835300  0.93122000  1
  O  O24  1  0.23937700  0.39332300  0.20727700  1
  O  O25  1  0.23937700  0.60667700  0.79272300  1
  O  O26  1  0.76062300  0.89332300  0.29272300  1
  O  O27  1  0.76062300  0.10667700  0.70727700  1
  O  O28  1  0.76062300  0.60667700  0.79272300  1
  O  O29  1  0.76062300  0.39332300  0.20727700  1
  O  O30  1  0.23937700  0.10667700  0.70727700  1
  O  O31  1  0.23937700  0.89332300  0.29272300  1
