# generated using pymatgen
data_Re2(HgO2)5
_symmetry_space_group_name_H-M   'P 1'
_cell_length_a   11.84975700
_cell_length_b   6.61356400
_cell_length_c   8.49718107
_cell_angle_alpha   80.16088399
_cell_angle_beta   90.00000000
_cell_angle_gamma   90.00000000
_symmetry_Int_Tables_number   1
_chemical_formula_structural   Re2(HgO2)5
_chemical_formula_sum   'Re4 Hg10 O20'
_cell_volume   656.12199924
_cell_formula_units_Z   2
loop_
 _symmetry_equiv_pos_site_id
 _symmetry_equiv_pos_as_xyz
  1  'x, y, z'
loop_
 _atom_site_type_symbol
 _atom_site_label
 _atom_site_symmetry_multiplicity
 _atom_site_fract_x
 _atom_site_fract_y
 _atom_site_fract_z
 _atom_site_occupancy
  Re  Re0  1  0.34251000  0.61602700  0.48349000  1
  Re  Re1  1  0.84251000  0.38397300  0.01651000  1
  Re  Re2  1  0.65749000  0.38397300  0.51651000  1
  Re  Re3  1  0.15749000  0.61602700  0.98349000  1
  Hg  Hg4  1  0.08906800  0.99812100  0.31285100  1
  Hg  Hg5  1  0.71710000  0.87443700  0.82061100  1
  Hg  Hg6  1  0.58906800  0.00187900  0.18714900  1
  Hg  Hg7  1  0.78290000  0.87443700  0.32061100  1
  Hg  Hg8  1  0.28290000  0.12556300  0.17938900  1
  Hg  Hg9  1  0.50000000  0.50000000  0.00000000  1
  Hg  Hg10  1  0.91093200  0.00187900  0.68714900  1
  Hg  Hg11  1  0.21710000  0.12556300  0.67938900  1
  Hg  Hg12  1  0.41093200  0.99812100  0.81285100  1
  Hg  Hg13  1  0.00000000  0.50000000  0.50000000  1
  O  O14  1  0.17608400  0.40010100  0.89200300  1
  O  O15  1  0.55153400  0.80525100  0.93747800  1
  O  O16  1  0.79177600  0.29892500  0.46742100  1
  O  O17  1  0.32391600  0.40010100  0.39200300  1
  O  O18  1  0.57949700  0.45114600  0.34026900  1
  O  O19  1  0.94846600  0.80525100  0.43747800  1
  O  O20  1  0.67608400  0.59989900  0.60799700  1
  O  O21  1  0.59070500  0.18208800  0.64519700  1
  O  O22  1  0.05153400  0.19474900  0.56252200  1
  O  O23  1  0.92050300  0.45114600  0.84026900  1
  O  O24  1  0.70822400  0.29892500  0.96742100  1
  O  O25  1  0.44846600  0.19474900  0.06252200  1
  O  O26  1  0.40929500  0.81791200  0.35480300  1
  O  O27  1  0.07949700  0.54885400  0.15973100  1
  O  O28  1  0.29177600  0.70107500  0.03257900  1
  O  O29  1  0.42050300  0.54885400  0.65973100  1
  O  O30  1  0.82391600  0.59989900  0.10799700  1
  O  O31  1  0.09070500  0.81791200  0.85480300  1
  O  O32  1  0.20822400  0.70107500  0.53257900  1
  O  O33  1  0.90929500  0.18208800  0.14519700  1
