# generated using pymatgen
data_Cs(BCl)6
_symmetry_space_group_name_H-M   'P 1'
_cell_length_a   16.44175908
_cell_length_b   16.44175908
_cell_length_c   16.44175877
_cell_angle_alpha   34.47512011
_cell_angle_beta   34.47512011
_cell_angle_gamma   34.47512167
_symmetry_Int_Tables_number   1
_chemical_formula_structural   Cs(BCl)6
_chemical_formula_sum   'Cs4 B24 Cl24'
_cell_volume   1270.45253246
_cell_formula_units_Z   4
loop_
 _symmetry_equiv_pos_site_id
 _symmetry_equiv_pos_as_xyz
  1  'x, y, z'
loop_
 _atom_site_type_symbol
 _atom_site_label
 _atom_site_symmetry_multiplicity
 _atom_site_fract_x
 _atom_site_fract_y
 _atom_site_fract_z
 _atom_site_occupancy
  Cs  Cs0  1  0.20840000  0.20840000  0.20840000  1
  Cs  Cs1  1  0.37316000  0.37316000  0.37316000  1
  Cs  Cs2  1  0.62684000  0.62684000  0.62684000  1
  Cs  Cs3  1  0.79160000  0.79160000  0.79160000  1
  B  B4  1  0.34839900  0.44782600  0.68291700  1
  B  B5  1  0.65160100  0.55217400  0.31708300  1
  B  B6  1  0.12512600  0.91478400  0.04814200  1
  B  B7  1  0.56014500  0.49903100  0.35321300  1
  B  B8  1  0.91478400  0.04814200  0.12512600  1
  B  B9  1  0.49903100  0.35321300  0.56014500  1
  B  B10  1  0.64678700  0.43985500  0.50096900  1
  B  B11  1  0.02371200  0.14664400  0.80870200  1
  B  B12  1  0.14664400  0.80870200  0.02371200  1
  B  B13  1  0.50096900  0.64678700  0.43985500  1
  B  B14  1  0.68291700  0.34839900  0.44782600  1
  B  B15  1  0.04814200  0.12512600  0.91478400  1
  B  B16  1  0.35321300  0.56014500  0.49903100  1
  B  B17  1  0.97628800  0.85335600  0.19129800  1
  B  B18  1  0.87487400  0.08521600  0.95185800  1
  B  B19  1  0.55217400  0.31708300  0.65160100  1
  B  B20  1  0.80870200  0.02371200  0.14664400  1
  B  B21  1  0.08521600  0.95185800  0.87487400  1
  B  B22  1  0.95185800  0.87487400  0.08521600  1
  B  B23  1  0.85335600  0.19129800  0.97628800  1
  B  B24  1  0.31708300  0.65160100  0.55217400  1
  B  B25  1  0.43985500  0.50096900  0.64678700  1
  B  B26  1  0.44782600  0.68291700  0.34839900  1
  B  B27  1  0.19129800  0.97628800  0.85335600  1
  Cl  Cl28  1  0.87393500  0.18740000  0.39385400  1
  Cl  Cl29  1  0.04868700  0.30084600  0.60578600  1
  Cl  Cl30  1  0.39385400  0.87393500  0.18740000  1
  Cl  Cl31  1  0.60614600  0.12606500  0.81260000  1
  Cl  Cl32  1  0.39421400  0.95131300  0.69915400  1
  Cl  Cl33  1  0.82392500  0.09768200  0.25804300  1
  Cl  Cl34  1  0.60578600  0.04868700  0.30084600  1
  Cl  Cl35  1  0.50152300  0.80255700  0.37558000  1
  Cl  Cl36  1  0.95131300  0.69915400  0.39421400  1
  Cl  Cl37  1  0.49847700  0.19744300  0.62442000  1
  Cl  Cl38  1  0.74195700  0.17607500  0.90231800  1
  Cl  Cl39  1  0.17607500  0.90231800  0.74195700  1
  Cl  Cl40  1  0.18740000  0.39385400  0.87393500  1
  Cl  Cl41  1  0.37558000  0.50152300  0.80255700  1
  Cl  Cl42  1  0.90231800  0.74195700  0.17607500  1
  Cl  Cl43  1  0.62442000  0.49847700  0.19744300  1
  Cl  Cl44  1  0.69915400  0.39421400  0.95131300  1
  Cl  Cl45  1  0.80255700  0.37558000  0.50152300  1
  Cl  Cl46  1  0.25804300  0.82392500  0.09768200  1
  Cl  Cl47  1  0.09768200  0.25804300  0.82392500  1
  Cl  Cl48  1  0.12606500  0.81260000  0.60614600  1
  Cl  Cl49  1  0.19744300  0.62442000  0.49847700  1
  Cl  Cl50  1  0.30084600  0.60578700  0.04868700  1
  Cl  Cl51  1  0.81260000  0.60614600  0.12606500  1
