# generated using pymatgen
data_U8FeS17
_symmetry_space_group_name_H-M   'P 1'
_cell_length_a   7.74303334
_cell_length_b   7.74303334
_cell_length_c   10.23284077
_cell_angle_alpha   80.59378452
_cell_angle_beta   80.59378452
_cell_angle_gamma   64.51651992
_symmetry_Int_Tables_number   1
_chemical_formula_structural   U8FeS17
_chemical_formula_sum   'U8 Fe1 S17'
_cell_volume   543.37606825
_cell_formula_units_Z   1
loop_
 _symmetry_equiv_pos_site_id
 _symmetry_equiv_pos_as_xyz
  1  'x, y, z'
loop_
 _atom_site_type_symbol
 _atom_site_label
 _atom_site_symmetry_multiplicity
 _atom_site_fract_x
 _atom_site_fract_y
 _atom_site_fract_z
 _atom_site_occupancy
  U  U0  1  0.79728100  0.79728100  0.45399800  1
  U  U1  1  0.81816900  0.30009100  0.29559500  1
  U  U2  1  0.68284500  0.68284500  0.98285800  1
  U  U3  1  0.20271900  0.20271900  0.54600200  1
  U  U4  1  0.18183100  0.69990900  0.70440500  1
  U  U5  1  0.31715500  0.31715500  0.01714200  1
  U  U6  1  0.69990900  0.18183100  0.70440500  1
  U  U7  1  0.30009100  0.81816900  0.29559500  1
  Fe  Fe8  1  0.00000000  0.00000000  0.00000000  1
  S  S9  1  0.52198400  0.52198400  0.83073100  1
  S  S10  1  0.94403200  0.31639500  0.02466900  1
  S  S11  1  0.21242000  0.21242000  0.27830500  1
  S  S12  1  0.43362100  0.81957400  0.53506000  1
  S  S13  1  0.78758000  0.78758000  0.72169500  1
  S  S14  1  0.05596800  0.68360500  0.97533100  1
  S  S15  1  0.81957400  0.43362100  0.53506000  1
  S  S16  1  0.69910800  0.69910800  0.24338000  1
  S  S17  1  0.05694500  0.05694500  0.77832600  1
  S  S18  1  0.68360500  0.05596800  0.97533100  1
  S  S19  1  0.94305500  0.94305500  0.22167400  1
  S  S20  1  0.31639500  0.94403200  0.02466900  1
  S  S21  1  0.47801600  0.47801600  0.16926900  1
  S  S22  1  0.56637900  0.18042600  0.46494000  1
  S  S23  1  0.00000000  0.00000000  0.50000000  1
  S  S24  1  0.18042600  0.56637900  0.46494000  1
  S  S25  1  0.30089200  0.30089200  0.75662000  1
