# generated using pymatgen
data_GdMgGa
_symmetry_space_group_name_H-M   'P 1'
_cell_length_a   7.36338794
_cell_length_b   7.36338794
_cell_length_c   4.48870800
_cell_angle_alpha   90.00000000
_cell_angle_beta   90.00000000
_cell_angle_gamma   119.99999949
_symmetry_Int_Tables_number   1
_chemical_formula_structural   GdMgGa
_chemical_formula_sum   'Gd3 Mg3 Ga3'
_cell_volume   210.76929972
_cell_formula_units_Z   3
loop_
 _symmetry_equiv_pos_site_id
 _symmetry_equiv_pos_as_xyz
  1  'x, y, z'
loop_
 _atom_site_type_symbol
 _atom_site_label
 _atom_site_symmetry_multiplicity
 _atom_site_fract_x
 _atom_site_fract_y
 _atom_site_fract_z
 _atom_site_occupancy
  Gd  Gd0  1  0.42484500  0.42484500  0.00000000  1
  Gd  Gd1  1  0.00000000  0.57515500  0.00000000  1
  Gd  Gd2  1  0.57515500  0.00000000  0.00000000  1
  Mg  Mg3  1  0.24370700  0.00000000  0.50000000  1
  Mg  Mg4  1  0.75629300  0.75629300  0.50000000  1
  Mg  Mg5  1  0.00000000  0.24370700  0.50000000  1
  Ga  Ga6  1  0.00000000  0.00000000  0.00000000  1
  Ga  Ga7  1  0.66666700  0.33333300  0.50000000  1
  Ga  Ga8  1  0.33333300  0.66666700  0.50000000  1
