# generated using pymatgen
data_Cs3PO4
_symmetry_space_group_name_H-M   'P 1'
_cell_length_a   6.53913400
_cell_length_b   9.04746700
_cell_length_c   12.44069700
_cell_angle_alpha   90.00000000
_cell_angle_beta   90.00000000
_cell_angle_gamma   90.00000000
_symmetry_Int_Tables_number   1
_chemical_formula_structural   Cs3PO4
_chemical_formula_sum   'Cs12 P4 O16'
_cell_volume   736.02396881
_cell_formula_units_Z   4
loop_
 _symmetry_equiv_pos_site_id
 _symmetry_equiv_pos_as_xyz
  1  'x, y, z'
loop_
 _atom_site_type_symbol
 _atom_site_label
 _atom_site_symmetry_multiplicity
 _atom_site_fract_x
 _atom_site_fract_y
 _atom_site_fract_z
 _atom_site_occupancy
  Cs  Cs0  1  0.35685000  0.25000000  0.57716500  1
  Cs  Cs1  1  0.18299500  0.50756700  0.35543400  1
  Cs  Cs2  1  0.14315000  0.25000000  0.07716500  1
  Cs  Cs3  1  0.68299500  0.00756700  0.14456600  1
  Cs  Cs4  1  0.85685000  0.75000000  0.92283500  1
  Cs  Cs5  1  0.81700500  0.00756700  0.64456600  1
  Cs  Cs6  1  0.81700500  0.49243300  0.64456600  1
  Cs  Cs7  1  0.31700500  0.99243300  0.85543400  1
  Cs  Cs8  1  0.64315000  0.75000000  0.42283500  1
  Cs  Cs9  1  0.68299500  0.49243300  0.14456600  1
  Cs  Cs10  1  0.18299500  0.99243300  0.35543400  1
  Cs  Cs11  1  0.31700500  0.50756700  0.85543400  1
  P  P12  1  0.73054500  0.25000000  0.88570900  1
  P  P13  1  0.23054500  0.75000000  0.61429100  1
  P  P14  1  0.26945500  0.75000000  0.11429100  1
  P  P15  1  0.76945500  0.25000000  0.38570900  1
  O  O16  1  0.63340100  0.10751600  0.39188800  1
  O  O17  1  0.13340100  0.89248400  0.10811200  1
  O  O18  1  0.36659900  0.60751600  0.60811200  1
  O  O19  1  0.86659900  0.39248400  0.89188800  1
  O  O20  1  0.89344900  0.25000000  0.27729600  1
  O  O21  1  0.42628800  0.75000000  0.01818600  1
  O  O22  1  0.57371200  0.25000000  0.98181400  1
  O  O23  1  0.92628800  0.25000000  0.48181400  1
  O  O24  1  0.86659900  0.10751600  0.89188800  1
  O  O25  1  0.13340100  0.60751600  0.10811200  1
  O  O26  1  0.36659900  0.89248400  0.60811200  1
  O  O27  1  0.10655100  0.75000000  0.72270400  1
  O  O28  1  0.63340100  0.39248400  0.39188800  1
  O  O29  1  0.07371200  0.75000000  0.51818600  1
  O  O30  1  0.39344900  0.75000000  0.22270400  1
  O  O31  1  0.60655100  0.25000000  0.77729600  1
