# generated using pymatgen
data_Rb5Ta(TlAs2)2
_symmetry_space_group_name_H-M   'P 1'
_cell_length_a   8.02034400
_cell_length_b   11.25778400
_cell_length_c   19.48784300
_cell_angle_alpha   90.00000000
_cell_angle_beta   90.00000000
_cell_angle_gamma   90.00000000
_symmetry_Int_Tables_number   1
_chemical_formula_structural   Rb5Ta(TlAs2)2
_chemical_formula_sum   'Rb20 Ta4 Tl8 As16'
_cell_volume   1759.58268564
_cell_formula_units_Z   4
loop_
 _symmetry_equiv_pos_site_id
 _symmetry_equiv_pos_as_xyz
  1  'x, y, z'
loop_
 _atom_site_type_symbol
 _atom_site_label
 _atom_site_symmetry_multiplicity
 _atom_site_fract_x
 _atom_site_fract_y
 _atom_site_fract_z
 _atom_site_occupancy
  Rb  Rb0  1  0.89327500  0.75000000  0.47785300  1
  Rb  Rb1  1  0.69279600  0.02464400  0.57808400  1
  Rb  Rb2  1  0.48010900  0.94509100  0.74850500  1
  Rb  Rb3  1  0.98010900  0.05490900  0.75149500  1
  Rb  Rb4  1  0.01989100  0.94509100  0.24850500  1
  Rb  Rb5  1  0.98010900  0.44509100  0.75149500  1
  Rb  Rb6  1  0.10672500  0.25000000  0.52214700  1
  Rb  Rb7  1  0.80720400  0.47535600  0.07808400  1
  Rb  Rb8  1  0.51989100  0.05490900  0.25149500  1
  Rb  Rb9  1  0.69279600  0.47535600  0.57808400  1
  Rb  Rb10  1  0.30720400  0.52464400  0.42191600  1
  Rb  Rb11  1  0.39327500  0.25000000  0.02214700  1
  Rb  Rb12  1  0.30720400  0.97535600  0.42191600  1
  Rb  Rb13  1  0.51989100  0.44509100  0.25149500  1
  Rb  Rb14  1  0.60672500  0.75000000  0.97785300  1
  Rb  Rb15  1  0.19279600  0.52464400  0.92191600  1
  Rb  Rb16  1  0.80720400  0.02464400  0.07808400  1
  Rb  Rb17  1  0.48010900  0.55490900  0.74850500  1
  Rb  Rb18  1  0.19279600  0.97535600  0.92191600  1
  Rb  Rb19  1  0.01989100  0.55490900  0.24850500  1
  Ta  Ta20  1  0.41731600  0.75000000  0.16311900  1
  Ta  Ta21  1  0.58268400  0.25000000  0.83688100  1
  Ta  Ta22  1  0.91731600  0.25000000  0.33688100  1
  Ta  Ta23  1  0.08268400  0.75000000  0.66311900  1
  Tl  Tl24  1  0.67393100  0.75000000  0.31260200  1
  Tl  Tl25  1  0.41756000  0.75000000  0.55447300  1
  Tl  Tl26  1  0.91756000  0.25000000  0.94552700  1
  Tl  Tl27  1  0.58244000  0.25000000  0.44552700  1
  Tl  Tl28  1  0.32606900  0.25000000  0.68739800  1
  Tl  Tl29  1  0.82606900  0.75000000  0.81260200  1
  Tl  Tl30  1  0.08244000  0.75000000  0.05447300  1
  Tl  Tl31  1  0.17393100  0.25000000  0.18739800  1
  As  As32  1  0.19555200  0.93042400  0.60260800  1
  As  As33  1  0.16783100  0.75000000  0.78874800  1
  As  As34  1  0.33216900  0.75000000  0.28874800  1
  As  As35  1  0.30444800  0.93042400  0.10260800  1
  As  As36  1  0.77124400  0.75000000  0.66387600  1
  As  As37  1  0.30444800  0.56957600  0.10260800  1
  As  As38  1  0.80444800  0.06957600  0.39739200  1
  As  As39  1  0.22875600  0.25000000  0.33612400  1
  As  As40  1  0.80444800  0.43042400  0.39739200  1
  As  As41  1  0.83216900  0.25000000  0.21125200  1
  As  As42  1  0.69555200  0.06957600  0.89739200  1
  As  As43  1  0.72875600  0.75000000  0.16387600  1
  As  As44  1  0.66783100  0.25000000  0.71125200  1
  As  As45  1  0.27124400  0.25000000  0.83612400  1
  As  As46  1  0.19555200  0.56957600  0.60260800  1
  As  As47  1  0.69555200  0.43042400  0.89739200  1
