# generated using pymatgen
data_K2In2Sb3
_symmetry_space_group_name_H-M   'P 1'
_cell_length_a   7.72625300
_cell_length_b   15.56584700
_cell_length_c   17.09409842
_cell_angle_alpha   89.59387731
_cell_angle_beta   90.00000000
_cell_angle_gamma   90.00000000
_symmetry_Int_Tables_number   1
_chemical_formula_structural   K2In2Sb3
_chemical_formula_sum   'K16 In16 Sb24'
_cell_volume   2055.78159062
_cell_formula_units_Z   8
loop_
 _symmetry_equiv_pos_site_id
 _symmetry_equiv_pos_as_xyz
  1  'x, y, z'
loop_
 _atom_site_type_symbol
 _atom_site_label
 _atom_site_symmetry_multiplicity
 _atom_site_fract_x
 _atom_site_fract_y
 _atom_site_fract_z
 _atom_site_occupancy
  K  K0  1  0.46463000  0.92237700  0.88734400  1
  K  K1  1  0.05476500  0.44137500  0.10235400  1
  K  K2  1  0.46649000  0.14187600  0.50835700  1
  K  K3  1  0.94855200  0.34586400  0.52238800  1
  K  K4  1  0.96649000  0.85812400  0.99164300  1
  K  K5  1  0.55476500  0.55862500  0.39764600  1
  K  K6  1  0.96463000  0.07762300  0.61265600  1
  K  K7  1  0.53351000  0.85812400  0.49164300  1
  K  K8  1  0.03537000  0.92237700  0.38734400  1
  K  K9  1  0.44523500  0.44137500  0.60235400  1
  K  K10  1  0.53537000  0.07762300  0.11265600  1
  K  K11  1  0.55144800  0.34586400  0.02238800  1
  K  K12  1  0.03351000  0.14187600  0.00835700  1
  K  K13  1  0.94523500  0.55862500  0.89764600  1
  K  K14  1  0.05144800  0.65413600  0.47761200  1
  K  K15  1  0.44855200  0.65413600  0.97761200  1
  In  In16  1  0.26381200  0.59221400  0.74040900  1
  In  In17  1  0.76381200  0.40778600  0.75959100  1
  In  In18  1  0.23618800  0.59221400  0.24040900  1
  In  In19  1  0.77997000  0.68342800  0.66446100  1
  In  In20  1  0.78675800  0.90720700  0.72848200  1
  In  In21  1  0.21324200  0.09279300  0.27151800  1
  In  In22  1  0.73618800  0.40778600  0.25959100  1
  In  In23  1  0.72003000  0.68342800  0.16446100  1
  In  In24  1  0.71324200  0.90720700  0.22848200  1
  In  In25  1  0.28675800  0.09279300  0.77151800  1
  In  In26  1  0.22003000  0.31657200  0.33553900  1
  In  In27  1  0.73799300  0.18219900  0.32693500  1
  In  In28  1  0.76200700  0.18219900  0.82693500  1
  In  In29  1  0.23799300  0.81780100  0.17306500  1
  In  In30  1  0.27997000  0.31657200  0.83553900  1
  In  In31  1  0.26200700  0.81780100  0.67306500  1
  Sb  Sb32  1  0.83684100  0.25040600  0.17300700  1
  Sb  Sb33  1  0.46399200  0.97504900  0.66830800  1
  Sb  Sb34  1  0.53600800  0.02495100  0.33169200  1
  Sb  Sb35  1  0.71239100  0.75004100  0.32231900  1
  Sb  Sb36  1  0.03600800  0.97504900  0.16830800  1
  Sb  Sb37  1  0.33684100  0.74959400  0.32699300  1
  Sb  Sb38  1  0.03263500  0.47875100  0.34198800  1
  Sb  Sb39  1  0.53263500  0.52124900  0.15801200  1
  Sb  Sb40  1  0.94490300  0.83839500  0.58806200  1
  Sb  Sb41  1  0.21239100  0.24995900  0.17768100  1
  Sb  Sb42  1  0.05509700  0.16160500  0.41193800  1
  Sb  Sb43  1  0.43616400  0.66704200  0.60340500  1
  Sb  Sb44  1  0.93616400  0.33295800  0.89659500  1
  Sb  Sb45  1  0.16315900  0.74959400  0.82699300  1
  Sb  Sb46  1  0.28760900  0.24995900  0.67768100  1
  Sb  Sb47  1  0.55509700  0.83839500  0.08806200  1
  Sb  Sb48  1  0.78760900  0.75004100  0.82231900  1
  Sb  Sb49  1  0.96399200  0.02495100  0.83169200  1
  Sb  Sb50  1  0.44490300  0.16160500  0.91193800  1
  Sb  Sb51  1  0.46736500  0.47875100  0.84198800  1
  Sb  Sb52  1  0.06383600  0.66704200  0.10340500  1
  Sb  Sb53  1  0.96736500  0.52124900  0.65801200  1
  Sb  Sb54  1  0.66315900  0.25040600  0.67300700  1
  Sb  Sb55  1  0.56383600  0.33295800  0.39659500  1
