# generated using pymatgen
data_Ho(MnGe)2
_symmetry_space_group_name_H-M   'P 1'
_cell_length_a   6.09827907
_cell_length_b   6.09827907
_cell_length_c   6.09827907
_cell_angle_alpha   142.44224059
_cell_angle_beta   142.44224059
_cell_angle_gamma   54.16319898
_symmetry_Int_Tables_number   1
_chemical_formula_structural   Ho(MnGe)2
_chemical_formula_sum   'Ho1 Mn2 Ge2'
_cell_volume   83.70167058
_cell_formula_units_Z   1
loop_
 _symmetry_equiv_pos_site_id
 _symmetry_equiv_pos_as_xyz
  1  'x, y, z'
loop_
 _atom_site_type_symbol
 _atom_site_label
 _atom_site_symmetry_multiplicity
 _atom_site_fract_x
 _atom_site_fract_y
 _atom_site_fract_z
 _atom_site_occupancy
  Ho  Ho0  1  0.00000000  0.00000000  0.00000000  1
  Mn  Mn1  1  0.75000000  0.25000000  0.50000000  1
  Mn  Mn2  1  0.25000000  0.75000000  0.50000000  1
  Ge  Ge3  1  0.61844500  0.61844500  0.00000000  1
  Ge  Ge4  1  0.38155500  0.38155500  0.00000000  1
