# generated using pymatgen
data_MnCoSb
_symmetry_space_group_name_H-M   'P 1'
_cell_length_a   8.18107979
_cell_length_b   8.18107979
_cell_length_c   8.18107979
_cell_angle_alpha   60.00000000
_cell_angle_beta   60.00000000
_cell_angle_gamma   60.00000000
_symmetry_Int_Tables_number   1
_chemical_formula_structural   MnCoSb
_chemical_formula_sum   'Mn8 Co8 Sb8'
_cell_volume   387.18354149
_cell_formula_units_Z   8
loop_
 _symmetry_equiv_pos_site_id
 _symmetry_equiv_pos_as_xyz
  1  'x, y, z'
loop_
 _atom_site_type_symbol
 _atom_site_label
 _atom_site_symmetry_multiplicity
 _atom_site_fract_x
 _atom_site_fract_y
 _atom_site_fract_z
 _atom_site_occupancy
  Mn  Mn0  1  0.50000000  0.50000000  0.00000000  1
  Mn  Mn1  1  0.00000000  0.00000000  0.00000000  1
  Mn  Mn2  1  0.50000000  0.00000000  0.50000000  1
  Mn  Mn3  1  0.50000000  0.50000000  0.50000000  1
  Mn  Mn4  1  0.00000000  0.50000000  0.00000000  1
  Mn  Mn5  1  0.00000000  0.00000000  0.50000000  1
  Mn  Mn6  1  0.00000000  0.50000000  0.50000000  1
  Mn  Mn7  1  0.50000000  0.00000000  0.00000000  1
  Co  Co8  1  0.12079100  0.12079100  0.12079100  1
  Co  Co9  1  0.63762700  0.12079100  0.12079100  1
  Co  Co10  1  0.12079100  0.12079100  0.63762700  1
  Co  Co11  1  0.87920900  0.36237300  0.87920900  1
  Co  Co12  1  0.12079100  0.63762700  0.12079100  1
  Co  Co13  1  0.36237300  0.87920900  0.87920900  1
  Co  Co14  1  0.87920900  0.87920900  0.36237300  1
  Co  Co15  1  0.87920900  0.87920900  0.87920900  1
  Sb  Sb16  1  0.25000000  0.25000000  0.25000000  1
  Sb  Sb17  1  0.26800500  0.73199500  0.26800500  1
  Sb  Sb18  1  0.26800500  0.26800500  0.73199500  1
  Sb  Sb19  1  0.73199500  0.26800500  0.26800500  1
  Sb  Sb20  1  0.26800500  0.73199500  0.73199500  1
  Sb  Sb21  1  0.73199500  0.73199500  0.26800500  1
  Sb  Sb22  1  0.73199500  0.26800500  0.73199500  1
  Sb  Sb23  1  0.75000000  0.75000000  0.75000000  1
