# generated using pymatgen
data_Lu(IO3)3
_symmetry_space_group_name_H-M   'P 1'
_cell_length_a   6.19462000
_cell_length_b   8.71055200
_cell_length_c   16.60889423
_cell_angle_alpha   65.14036588
_cell_angle_beta   90.00000000
_cell_angle_gamma   90.00000000
_symmetry_Int_Tables_number   1
_chemical_formula_structural   Lu(IO3)3
_chemical_formula_sum   'Lu4 I12 O36'
_cell_volume   813.15123090
_cell_formula_units_Z   4
loop_
 _symmetry_equiv_pos_site_id
 _symmetry_equiv_pos_as_xyz
  1  'x, y, z'
loop_
 _atom_site_type_symbol
 _atom_site_label
 _atom_site_symmetry_multiplicity
 _atom_site_fract_x
 _atom_site_fract_y
 _atom_site_fract_z
 _atom_site_occupancy
  Lu  Lu0  1  0.78147100  0.65070200  0.39042000  1
  Lu  Lu1  1  0.71852900  0.65070200  0.89042000  1
  Lu  Lu2  1  0.28147100  0.34929800  0.10958000  1
  Lu  Lu3  1  0.21852900  0.34929800  0.60958000  1
  I  I4  1  0.35179400  0.84989500  0.98182300  1
  I  I5  1  0.40692900  0.91640800  0.69854000  1
  I  I6  1  0.64820600  0.15010500  0.01817700  1
  I  I7  1  0.69598600  0.57440400  0.63810500  1
  I  I8  1  0.85179400  0.15010500  0.51817700  1
  I  I9  1  0.59307100  0.08359200  0.30146000  1
  I  I10  1  0.19598600  0.42559600  0.86189500  1
  I  I11  1  0.30401400  0.42559600  0.36189500  1
  I  I12  1  0.14820600  0.84989500  0.48182300  1
  I  I13  1  0.09307100  0.91640800  0.19854000  1
  I  I14  1  0.80401400  0.57440400  0.13810500  1
  I  I15  1  0.90692900  0.08359200  0.80146000  1
  O  O16  1  0.06121500  0.15059500  0.43766800  1
  O  O17  1  0.90273800  0.40453600  0.66901900  1
  O  O18  1  0.32189300  0.15659100  0.25644700  1
  O  O19  1  0.64974600  0.38150500  0.97811400  1
  O  O20  1  0.43878500  0.15059500  0.93766800  1
  O  O21  1  0.07989400  0.84309700  0.10988400  1
  O  O22  1  0.59726200  0.40453600  0.16901900  1
  O  O23  1  0.35147100  0.37686000  0.47792700  1
  O  O24  1  0.92010600  0.15690300  0.89011600  1
  O  O25  1  0.97345800  0.87705800  0.38655100  1
  O  O26  1  0.42010600  0.84309700  0.60988400  1
  O  O27  1  0.09726200  0.59546400  0.33098100  1
  O  O28  1  0.40273800  0.59546400  0.83098100  1
  O  O29  1  0.47345800  0.12294200  0.11344900  1
  O  O30  1  0.93878500  0.84940500  0.56233200  1
  O  O31  1  0.48506300  0.13960600  0.63679800  1
  O  O32  1  0.85147100  0.62314000  0.02207300  1
  O  O33  1  0.45663600  0.43858100  0.68157400  1
  O  O34  1  0.35025400  0.61849500  0.02188600  1
  O  O35  1  0.04336400  0.43858100  0.18157400  1
  O  O36  1  0.02654200  0.12294200  0.61344900  1
  O  O37  1  0.56121500  0.84940500  0.06233200  1
  O  O38  1  0.54336400  0.56141900  0.31842600  1
  O  O39  1  0.85025400  0.38150500  0.47811400  1
  O  O40  1  0.82189300  0.84340900  0.24355300  1
  O  O41  1  0.14974600  0.61849500  0.52188600  1
  O  O42  1  0.64852900  0.62314000  0.52207300  1
  O  O43  1  0.51493700  0.86039400  0.36320200  1
  O  O44  1  0.14852900  0.37686000  0.97792700  1
  O  O45  1  0.52654200  0.87705800  0.88655100  1
  O  O46  1  0.57989400  0.15690300  0.39011600  1
  O  O47  1  0.17810700  0.15659100  0.75644700  1
  O  O48  1  0.01493700  0.13960600  0.13679800  1
  O  O49  1  0.67810700  0.84340900  0.74355300  1
  O  O50  1  0.98506300  0.86039400  0.86320200  1
  O  O51  1  0.95663600  0.56141900  0.81842600  1
