# generated using pymatgen
data_Y(IO3)3
_symmetry_space_group_name_H-M   'P 1'
_cell_length_a   6.15234500
_cell_length_b   8.81729900
_cell_length_c   16.76278154
_cell_angle_alpha   65.20172307
_cell_angle_beta   90.00000000
_cell_angle_gamma   90.00000000
_symmetry_Int_Tables_number   1
_chemical_formula_structural   Y(IO3)3
_chemical_formula_sum   'Y4 I12 O36'
_cell_volume   825.48231393
_cell_formula_units_Z   4
loop_
 _symmetry_equiv_pos_site_id
 _symmetry_equiv_pos_as_xyz
  1  'x, y, z'
loop_
 _atom_site_type_symbol
 _atom_site_label
 _atom_site_symmetry_multiplicity
 _atom_site_fract_x
 _atom_site_fract_y
 _atom_site_fract_z
 _atom_site_occupancy
  Y  Y0  1  0.28556700  0.14718600  0.39484000  1
  Y  Y1  1  0.71443300  0.85281400  0.60516000  1
  Y  Y2  1  0.21443300  0.14718600  0.89484000  1
  Y  Y3  1  0.78556700  0.85281400  0.10516000  1
  I  I4  1  0.90607800  0.41802100  0.69766700  1
  I  I5  1  0.85560700  0.35472900  0.97996700  1
  I  I6  1  0.59392200  0.41802100  0.19766700  1
  I  I7  1  0.14439300  0.64527100  0.02003300  1
  I  I8  1  0.81075900  0.92632600  0.35832000  1
  I  I9  1  0.18924100  0.07367400  0.64168000  1
  I  I10  1  0.64439300  0.35472900  0.47996700  1
  I  I11  1  0.40607800  0.58197900  0.80233300  1
  I  I12  1  0.09392200  0.58197900  0.30233300  1
  I  I13  1  0.68924100  0.92632600  0.85832000  1
  I  I14  1  0.35560700  0.64527100  0.52003300  1
  I  I15  1  0.31075900  0.07367400  0.14168000  1
  O  O16  1  0.62780800  0.12601900  0.51470700  1
  O  O17  1  0.58243800  0.34145300  0.11130500  1
  O  O18  1  0.89540100  0.09434600  0.82983400  1
  O  O19  1  0.91756200  0.34145300  0.61130500  1
  O  O20  1  0.36960200  0.11617600  0.02779400  1
  O  O21  1  0.60459900  0.09434600  0.32983400  1
  O  O22  1  0.43040000  0.35304800  0.55912200  1
  O  O23  1  0.82337200  0.65592300  0.25591200  1
  O  O24  1  0.44839100  0.05902100  0.81331900  1
  O  O25  1  0.97217100  0.60995000  0.11641400  1
  O  O26  1  0.48886100  0.36276000  0.86517000  1
  O  O27  1  0.87219200  0.12601900  0.01470700  1
  O  O28  1  0.51113900  0.63724000  0.13483000  1
  O  O29  1  0.94839100  0.94097900  0.68668100  1
  O  O30  1  0.98886100  0.63724000  0.63483000  1
  O  O31  1  0.93040000  0.64695200  0.94087800  1
  O  O32  1  0.05160900  0.05902100  0.31331900  1
  O  O33  1  0.56960000  0.64695200  0.44087800  1
  O  O34  1  0.63039800  0.88382400  0.97220600  1
  O  O35  1  0.01113900  0.36276000  0.36517000  1
  O  O36  1  0.41756200  0.65854700  0.88869500  1
  O  O37  1  0.12780800  0.87398100  0.98529300  1
  O  O38  1  0.47217100  0.39005000  0.38358600  1
  O  O39  1  0.39540100  0.90565400  0.67016600  1
  O  O40  1  0.10459900  0.90565400  0.17016600  1
  O  O41  1  0.02782900  0.39005000  0.88358600  1
  O  O42  1  0.52782900  0.60995000  0.61641400  1
  O  O43  1  0.08243800  0.65854700  0.38869500  1
  O  O44  1  0.06960000  0.35304800  0.05912200  1
  O  O45  1  0.13039800  0.11617600  0.52779400  1
  O  O46  1  0.67662800  0.65592300  0.75591200  1
  O  O47  1  0.37219200  0.87398100  0.48529300  1
  O  O48  1  0.55160900  0.94097900  0.18668100  1
  O  O49  1  0.86960200  0.88382400  0.47220600  1
  O  O50  1  0.32337200  0.34407700  0.24408800  1
  O  O51  1  0.17662800  0.34407700  0.74408800  1
