# generated using pymatgen
data_K2P2WO9
_symmetry_space_group_name_H-M   'P 1'
_cell_length_a   8.17484708
_cell_length_b   8.17484708
_cell_length_c   15.75990841
_cell_angle_alpha   82.36293365
_cell_angle_beta   82.36293365
_cell_angle_gamma   60.50531888
_symmetry_Int_Tables_number   1
_chemical_formula_structural   K2P2WO9
_chemical_formula_sum   'K8 P8 W4 O36'
_cell_volume   905.79703626
_cell_formula_units_Z   4
loop_
 _symmetry_equiv_pos_site_id
 _symmetry_equiv_pos_as_xyz
  1  'x, y, z'
loop_
 _atom_site_type_symbol
 _atom_site_label
 _atom_site_symmetry_multiplicity
 _atom_site_fract_x
 _atom_site_fract_y
 _atom_site_fract_z
 _atom_site_occupancy
  K  K0  1  0.27529700  0.42620300  0.47351000  1
  K  K1  1  0.42620300  0.27529700  0.97351000  1
  K  K2  1  0.79795600  0.49394800  0.26184100  1
  K  K3  1  0.50605200  0.20204400  0.23815900  1
  K  K4  1  0.20204400  0.50605200  0.73815900  1
  K  K5  1  0.72470300  0.57379700  0.52649000  1
  K  K6  1  0.49394800  0.79795600  0.76184100  1
  K  K7  1  0.57379700  0.72470300  0.02649000  1
  P  P8  1  0.95391000  0.79119300  0.34497600  1
  P  P9  1  0.84237800  0.23168100  0.07761400  1
  P  P10  1  0.76831900  0.15762200  0.42238600  1
  P  P11  1  0.20880700  0.04609000  0.15502400  1
  P  P12  1  0.04609000  0.20880700  0.65502400  1
  P  P13  1  0.79119300  0.95391000  0.84497600  1
  P  P14  1  0.15762200  0.76831900  0.92238600  1
  P  P15  1  0.23168100  0.84237800  0.57761400  1
  W  W16  1  0.25457700  0.96988600  0.36437500  1
  W  W17  1  0.96988600  0.25457700  0.86437500  1
  W  W18  1  0.74542300  0.03011400  0.63562500  1
  W  W19  1  0.03011400  0.74542300  0.13562500  1
  O  O20  1  0.67930900  0.37177200  0.13095100  1
  O  O21  1  0.47480700  0.81159400  0.31506000  1
  O  O22  1  0.13780500  0.96611600  0.91550300  1
  O  O23  1  0.52519300  0.18840600  0.68494000  1
  O  O24  1  0.09870500  0.14209300  0.75063400  1
  O  O25  1  0.83011200  0.31286400  0.98174600  1
  O  O26  1  0.94366900  0.61659900  0.37963800  1
  O  O27  1  0.03611500  0.21413400  0.10347300  1
  O  O28  1  0.78586600  0.96388500  0.39652700  1
  O  O29  1  0.62822800  0.32069100  0.36904900  1
  O  O30  1  0.85952400  0.21490100  0.64354300  1
  O  O31  1  0.21413400  0.03611500  0.60347300  1
  O  O32  1  0.85790700  0.90129500  0.74936600  1
  O  O33  1  0.14047600  0.78509900  0.35645700  1
  O  O34  1  0.31286400  0.83011200  0.48174600  1
  O  O35  1  0.68713600  0.16988800  0.51825400  1
  O  O36  1  0.38340100  0.05633100  0.12036200  1
  O  O37  1  0.18840600  0.52519300  0.18494000  1
  O  O38  1  0.86219500  0.03388400  0.08449700  1
  O  O39  1  0.15284500  0.29704000  0.88597600  1
  O  O40  1  0.29704000  0.15284500  0.38597600  1
  O  O41  1  0.96388500  0.78586600  0.89652700  1
  O  O42  1  0.37177200  0.67930900  0.63095100  1
  O  O43  1  0.84715500  0.70296000  0.11402400  1
  O  O44  1  0.70296000  0.84715500  0.61402400  1
  O  O45  1  0.16988800  0.68713600  0.01825400  1
  O  O46  1  0.78509900  0.14047600  0.85645700  1
  O  O47  1  0.61659900  0.94366900  0.87963800  1
  O  O48  1  0.03388400  0.86219500  0.58449700  1
  O  O49  1  0.90129500  0.85790700  0.24936600  1
  O  O50  1  0.05633100  0.38340100  0.62036200  1
  O  O51  1  0.96611600  0.13780500  0.41550300  1
  O  O52  1  0.32069100  0.62822800  0.86904900  1
  O  O53  1  0.14209300  0.09870500  0.25063400  1
  O  O54  1  0.81159400  0.47480700  0.81506000  1
  O  O55  1  0.21490000  0.85952400  0.14354300  1
