# generated using pymatgen
data_Na3B(PO4)2
_symmetry_space_group_name_H-M   'P 1'
_cell_length_a   8.21118036
_cell_length_b   8.21118036
_cell_length_c   10.33790007
_cell_angle_alpha   88.16906915
_cell_angle_beta   88.16906915
_cell_angle_gamma   78.57458170
_symmetry_Int_Tables_number   1
_chemical_formula_structural   Na3B(PO4)2
_chemical_formula_sum   'Na12 B4 P8 O32'
_cell_volume   682.62234401
_cell_formula_units_Z   4
loop_
 _symmetry_equiv_pos_site_id
 _symmetry_equiv_pos_as_xyz
  1  'x, y, z'
loop_
 _atom_site_type_symbol
 _atom_site_label
 _atom_site_symmetry_multiplicity
 _atom_site_fract_x
 _atom_site_fract_y
 _atom_site_fract_z
 _atom_site_occupancy
  Na  Na0  1  0.14289900  0.36351200  0.73181100  1
  Na  Na1  1  0.95789300  0.04210700  0.75000000  1
  Na  Na2  1  0.70355800  0.47367800  0.62004600  1
  Na  Na3  1  0.63648800  0.85710100  0.76818900  1
  Na  Na4  1  0.29644200  0.52632200  0.37995400  1
  Na  Na5  1  0.47367800  0.70355800  0.12004600  1
  Na  Na6  1  0.34719600  0.65280400  0.75000000  1
  Na  Na7  1  0.85710100  0.63648800  0.26818900  1
  Na  Na8  1  0.04210700  0.95789300  0.25000000  1
  Na  Na9  1  0.52632200  0.29644200  0.87995400  1
  Na  Na10  1  0.36351200  0.14289900  0.23181100  1
  Na  Na11  1  0.65280400  0.34719600  0.25000000  1
  B  B12  1  0.75485200  0.97809000  0.49859900  1
  B  B13  1  0.24514800  0.02191000  0.50140100  1
  B  B14  1  0.02191000  0.24514800  0.00140100  1
  B  B15  1  0.97809000  0.75485200  0.99859900  1
  P  P16  1  0.94525300  0.22706200  0.45775000  1
  P  P17  1  0.46887700  0.21017100  0.56134100  1
  P  P18  1  0.21017100  0.46887700  0.06134100  1
  P  P19  1  0.77293800  0.05474700  0.04225000  1
  P  P20  1  0.53112300  0.78982900  0.43865900  1
  P  P21  1  0.05474700  0.77293800  0.54225000  1
  P  P22  1  0.22706200  0.94525300  0.95775000  1
  P  P23  1  0.78982900  0.53112300  0.93865900  1
  O  O24  1  0.25718900  0.93539700  0.10257400  1
  O  O25  1  0.93539700  0.25718900  0.60257400  1
  O  O26  1  0.08960200  0.84124600  0.91994800  1
  O  O27  1  0.91039800  0.15875400  0.08005200  1
  O  O28  1  0.74281100  0.06460300  0.89742600  1
  O  O29  1  0.27285900  0.46856400  0.92159900  1
  O  O30  1  0.06979400  0.62973100  0.08958500  1
  O  O31  1  0.65851400  0.53982200  0.83679700  1
  O  O32  1  0.62973100  0.06979400  0.58958500  1
  O  O33  1  0.37939000  0.88623000  0.87371800  1
  O  O34  1  0.93020600  0.37026900  0.91041500  1
  O  O35  1  0.12101600  0.31599500  0.09344800  1
  O  O36  1  0.62061000  0.11377000  0.12628200  1
  O  O37  1  0.11377000  0.62061000  0.62628200  1
  O  O38  1  0.13842000  0.12991600  0.91314900  1
  O  O39  1  0.37026900  0.93020600  0.41041500  1
  O  O40  1  0.68400500  0.87898400  0.40655200  1
  O  O41  1  0.34148600  0.46017800  0.16320300  1
  O  O42  1  0.15875400  0.91039800  0.58005200  1
  O  O43  1  0.87008400  0.86158000  0.58685100  1
  O  O44  1  0.72714100  0.53143600  0.07840100  1
  O  O45  1  0.46856400  0.27285900  0.42159900  1
  O  O46  1  0.31599500  0.12101600  0.59344800  1
  O  O47  1  0.88623000  0.37939000  0.37371800  1
  O  O48  1  0.84124600  0.08960200  0.41994800  1
  O  O49  1  0.53143600  0.72714100  0.57840100  1
  O  O50  1  0.53982200  0.65851400  0.33679700  1
  O  O51  1  0.06460300  0.74281100  0.39742600  1
  O  O52  1  0.86158000  0.87008400  0.08685100  1
  O  O53  1  0.46017800  0.34148600  0.66320300  1
  O  O54  1  0.12991600  0.13842000  0.41314900  1
  O  O55  1  0.87898400  0.68400500  0.90655200  1
