# generated using pymatgen
data_La2CO5
_symmetry_space_group_name_H-M   'P 1'
_cell_length_a   7.09683541
_cell_length_b   7.09683541
_cell_length_c   16.53432051
_cell_angle_alpha   77.68009417
_cell_angle_beta   77.68009417
_cell_angle_gamma   60.12614023
_symmetry_Int_Tables_number   1
_chemical_formula_structural   La2CO5
_chemical_formula_sum   'La12 C6 O30'
_cell_volume   699.81112026
_cell_formula_units_Z   6
loop_
 _symmetry_equiv_pos_site_id
 _symmetry_equiv_pos_as_xyz
  1  'x, y, z'
loop_
 _atom_site_type_symbol
 _atom_site_label
 _atom_site_symmetry_multiplicity
 _atom_site_fract_x
 _atom_site_fract_y
 _atom_site_fract_z
 _atom_site_occupancy
  La  La0  1  0.14106000  0.96337800  0.59406600  1
  La  La1  1  0.63426800  0.79898000  0.09438400  1
  La  La2  1  0.03662200  0.85894000  0.90593400  1
  La  La3  1  0.85894000  0.03662200  0.40593400  1
  La  La4  1  0.36573200  0.20102000  0.90561600  1
  La  La5  1  0.46880300  0.30480600  0.59635500  1
  La  La6  1  0.30480600  0.46880300  0.09635500  1
  La  La7  1  0.20102000  0.36573200  0.40561600  1
  La  La8  1  0.53119700  0.69519400  0.40364500  1
  La  La9  1  0.69519400  0.53119700  0.90364500  1
  La  La10  1  0.79898000  0.63426800  0.59438400  1
  La  La11  1  0.96337800  0.14106000  0.09406600  1
  C  C12  1  0.80944300  0.19055700  0.75000000  1
  C  C13  1  0.41518500  0.96965500  0.75031600  1
  C  C14  1  0.19055700  0.80944300  0.25000000  1
  C  C15  1  0.96965500  0.41518500  0.25031600  1
  C  C16  1  0.03034500  0.58481500  0.74968400  1
  C  C17  1  0.58481500  0.03034500  0.24968400  1
  O  O18  1  0.18447100  0.02120700  0.44145200  1
  O  O19  1  0.84566000  0.59092200  0.74917200  1
  O  O20  1  0.39437800  0.85621900  0.82128000  1
  O  O21  1  0.81552900  0.97879300  0.55854800  1
  O  O22  1  0.02120700  0.18447100  0.94145200  1
  O  O23  1  0.74545200  0.30232000  0.67889500  1
  O  O24  1  0.14632900  0.31335100  0.55851500  1
  O  O25  1  0.00908500  0.99091500  0.25000000  1
  O  O26  1  0.97879300  0.81552900  0.05854800  1
  O  O27  1  0.90491100  0.44192000  0.17899400  1
  O  O28  1  0.60562200  0.14378100  0.17872000  1
  O  O29  1  0.44192000  0.90491100  0.67899400  1
  O  O30  1  0.64958600  0.48397100  0.05247100  1
  O  O31  1  0.51602900  0.35041400  0.44752900  1
  O  O32  1  0.25454800  0.69768000  0.32110500  1
  O  O33  1  0.31335100  0.14632900  0.05851500  1
  O  O34  1  0.48397100  0.64958600  0.55247100  1
  O  O35  1  0.85367100  0.68664900  0.44148500  1
  O  O36  1  0.68664900  0.85367100  0.94148500  1
  O  O37  1  0.40907800  0.15434000  0.75082800  1
  O  O38  1  0.99091500  0.00908500  0.75000000  1
  O  O39  1  0.69768000  0.25454800  0.82110500  1
  O  O40  1  0.59092200  0.84566000  0.24917200  1
  O  O41  1  0.35041400  0.51602900  0.94752900  1
  O  O42  1  0.15434000  0.40907800  0.25082800  1
  O  O43  1  0.55808000  0.09508900  0.32100600  1
  O  O44  1  0.85621900  0.39437800  0.32128000  1
  O  O45  1  0.30232000  0.74545200  0.17889500  1
  O  O46  1  0.14378100  0.60562200  0.67872000  1
  O  O47  1  0.09508900  0.55808000  0.82100600  1
