# generated using pymatgen
data_Ba14AlSb11
_symmetry_space_group_name_H-M   'P 1'
_cell_length_a   17.95679985
_cell_length_b   17.95679985
_cell_length_c   17.95679985
_cell_angle_alpha   117.88730789
_cell_angle_beta   117.88730789
_cell_angle_gamma   93.69997866
_symmetry_Int_Tables_number   1
_chemical_formula_structural   Ba14AlSb11
_chemical_formula_sum   'Ba56 Al4 Sb44'
_cell_volume   4215.46032204
_cell_formula_units_Z   4
loop_
 _symmetry_equiv_pos_site_id
 _symmetry_equiv_pos_as_xyz
  1  'x, y, z'
loop_
 _atom_site_type_symbol
 _atom_site_label
 _atom_site_symmetry_multiplicity
 _atom_site_fract_x
 _atom_site_fract_y
 _atom_site_fract_z
 _atom_site_occupancy
  Ba  Ba0  1  0.62631400  0.28642400  0.97582100  1
  Ba  Ba1  1  0.90049300  0.06060300  0.52417900  1
  Ba  Ba2  1  0.13214400  0.49832600  0.72311700  1
  Ba  Ba3  1  0.65902700  0.52520900  0.77688300  1
  Ba  Ba4  1  0.40049300  0.87631400  0.83989000  1
  Ba  Ba5  1  0.81060300  0.78642400  0.66011000  1
  Ba  Ba6  1  0.03642400  0.56060300  0.16011000  1
  Ba  Ba7  1  0.12631400  0.15049300  0.33989000  1
  Ba  Ba8  1  0.89456300  0.74825200  0.89422100  1
  Ba  Ba9  1  0.15902700  0.38214400  0.13381800  1
  Ba  Ba10  1  0.25034200  0.60403100  0.60577900  1
  Ba  Ba11  1  0.27520900  0.99832600  0.36618200  1
  Ba  Ba12  1  0.75174800  0.60543700  0.10577900  1
  Ba  Ba13  1  0.31060300  0.65049300  0.02417900  1
  Ba  Ba14  1  0.89596900  0.24965800  0.39422100  1
  Ba  Ba15  1  0.24832600  0.02520900  0.86618200  1
  Ba  Ba16  1  0.98111800  0.87500000  0.60611800  1
  Ba  Ba17  1  0.53642400  0.37631400  0.47582100  1
  Ba  Ba18  1  0.63214400  0.90902700  0.63381800  1
  Ba  Ba19  1  0.62500000  0.01888200  0.89388200  1
  Ba  Ba20  1  0.49825200  0.10403100  0.35368900  1
  Ba  Ba21  1  0.39456300  0.50034200  0.14631100  1
  Ba  Ba22  1  0.62500000  0.51888200  0.39388200  1
  Ba  Ba23  1  0.48111800  0.87500000  0.10611800  1
  Ba  Ba24  1  0.75034200  0.14456300  0.64631100  1
  Ba  Ba25  1  0.00167400  0.36785600  0.27688300  1
  Ba  Ba26  1  0.77520900  0.40902700  0.27688300  1
  Ba  Ba27  1  0.35403100  0.24825200  0.85368900  1
  Ba  Ba28  1  0.39596900  0.00174800  0.64631100  1
  Ba  Ba29  1  0.97479100  0.84097300  0.22311700  1
  Ba  Ba30  1  0.74832600  0.88214400  0.22311700  1
  Ba  Ba31  1  0.99965800  0.10543700  0.85368900  1
  Ba  Ba32  1  0.26888200  0.37500000  0.39388200  1
  Ba  Ba33  1  0.12500000  0.73111800  0.10611800  1
  Ba  Ba34  1  0.35543700  0.74965800  0.35368900  1
  Ba  Ba35  1  0.25174800  0.14596900  0.14631100  1
  Ba  Ba36  1  0.12500000  0.23111800  0.60611800  1
  Ba  Ba37  1  0.11785600  0.34097300  0.86618200  1
  Ba  Ba38  1  0.21357600  0.87368600  0.02417900  1
  Ba  Ba39  1  0.76888200  0.37500000  0.89388200  1
  Ba  Ba40  1  0.50167400  0.22479100  0.63381800  1
  Ba  Ba41  1  0.85403100  0.00034200  0.10577900  1
  Ba  Ba42  1  0.43939700  0.59950700  0.47582100  1
  Ba  Ba43  1  0.99825200  0.64456300  0.39422100  1
  Ba  Ba44  1  0.47479100  0.25167400  0.13381800  1
  Ba  Ba45  1  0.49965800  0.64596900  0.89422100  1
  Ba  Ba46  1  0.59097300  0.86785600  0.36618200  1
  Ba  Ba47  1  0.85543700  0.50174800  0.60577900  1
  Ba  Ba48  1  0.62368600  0.09950700  0.16011000  1
  Ba  Ba49  1  0.71357600  0.68939700  0.33989000  1
  Ba  Ba50  1  0.93939700  0.46357600  0.83989000  1
  Ba  Ba51  1  0.34950700  0.37368600  0.66011000  1
  Ba  Ba52  1  0.09097300  0.72479100  0.72311700  1
  Ba  Ba53  1  0.61785600  0.75167400  0.77688300  1
  Ba  Ba54  1  0.84950700  0.18939700  0.97582100  1
  Ba  Ba55  1  0.12368600  0.96357600  0.52417900  1
  Al  Al56  1  0.25000000  0.75000000  0.50000000  1
  Al  Al57  1  0.75000000  0.25000000  0.50000000  1
  Al  Al58  1  0.50000000  0.50000000  0.00000000  1
  Al  Al59  1  0.00000000  0.00000000  0.00000000  1
  Sb  Sb60  1  0.85341700  0.44557300  0.14220000  1
  Sb  Sb61  1  0.96121700  0.05337300  0.35780000  1
  Sb  Sb62  1  0.19557300  0.55337300  0.09215600  1
  Sb  Sb63  1  0.35341700  0.21121700  0.40784400  1
  Sb  Sb64  1  0.19296300  0.56004100  0.37174800  1
  Sb  Sb65  1  0.07121600  0.93829400  0.12825200  1
  Sb  Sb66  1  0.31004100  0.43829400  0.86707800  1
  Sb  Sb67  1  0.69296300  0.32121600  0.63292200  1
  Sb  Sb68  1  0.57121600  0.44296300  0.13292200  1
  Sb  Sb69  1  0.68829400  0.06004100  0.36707800  1
  Sb  Sb70  1  0.37035600  0.87035600  0.24071300  1
  Sb  Sb71  1  0.25000000  0.25000000  0.00000000  1
  Sb  Sb72  1  0.12035600  0.12035600  0.74071300  1
  Sb  Sb73  1  0.46121700  0.10341700  0.90784400  1
  Sb  Sb74  1  0.80337300  0.94557300  0.59215600  1
  Sb  Sb75  1  0.18829400  0.82121600  0.62825200  1
  Sb  Sb76  1  0.81004100  0.94296300  0.87174800  1
  Sb  Sb77  1  0.62035600  0.87964400  0.00000000  1
  Sb  Sb78  1  0.87035600  0.62964400  0.50000000  1
  Sb  Sb79  1  0.05442700  0.64658300  0.85780000  1
  Sb  Sb80  1  0.44662700  0.53878300  0.64220000  1
  Sb  Sb81  1  0.75000000  0.75000000  0.00000000  1
  Sb  Sb82  1  0.00000000  0.50000000  0.50000000  1
  Sb  Sb83  1  0.30337300  0.71121700  0.85780000  1
  Sb  Sb84  1  0.69557300  0.60341700  0.64220000  1
  Sb  Sb85  1  0.87964400  0.62035600  0.00000000  1
  Sb  Sb86  1  0.12964400  0.37035600  0.50000000  1
  Sb  Sb87  1  0.93995900  0.30703700  0.62825200  1
  Sb  Sb88  1  0.56170600  0.42878400  0.87174800  1
  Sb  Sb89  1  0.94662700  0.30442700  0.90784400  1
  Sb  Sb90  1  0.28878300  0.14658300  0.59215600  1
  Sb  Sb91  1  0.62964400  0.12964400  0.75928700  1
  Sb  Sb92  1  0.50000000  0.00000000  0.50000000  1
  Sb  Sb93  1  0.37964400  0.37964400  0.25928700  1
  Sb  Sb94  1  0.06170600  0.18995900  0.13292200  1
  Sb  Sb95  1  0.17878400  0.80703700  0.36707800  1
  Sb  Sb96  1  0.05703700  0.92878400  0.86707800  1
  Sb  Sb97  1  0.43995900  0.81170600  0.63292200  1
  Sb  Sb98  1  0.67878400  0.31170600  0.37174800  1
  Sb  Sb99  1  0.55703700  0.68995900  0.12825200  1
  Sb  Sb100  1  0.39658300  0.03878300  0.09215600  1
  Sb  Sb101  1  0.55442700  0.69662700  0.40784400  1
  Sb  Sb102  1  0.78878300  0.19662700  0.14220000  1
  Sb  Sb103  1  0.89658300  0.80442700  0.35780000  1
