# generated using pymatgen
data_Ba9Nb2CN10O
_symmetry_space_group_name_H-M   'P 1'
_cell_length_a   8.10550200
_cell_length_b   9.76640957
_cell_length_c   12.78696910
_cell_angle_alpha   75.92934791
_cell_angle_beta   85.63340274
_cell_angle_gamma   87.79269104
_symmetry_Int_Tables_number   1
_chemical_formula_structural   Ba9Nb2CN10O
_chemical_formula_sum   'Ba18 Nb4 C2 N20 O2'
_cell_volume   978.80760743
_cell_formula_units_Z   2
loop_
 _symmetry_equiv_pos_site_id
 _symmetry_equiv_pos_as_xyz
  1  'x, y, z'
loop_
 _atom_site_type_symbol
 _atom_site_label
 _atom_site_symmetry_multiplicity
 _atom_site_fract_x
 _atom_site_fract_y
 _atom_site_fract_z
 _atom_site_occupancy
  Ba  Ba0  1  0.46876500  0.62054100  0.12786700  1
  Ba  Ba1  1  0.49922200  0.67775000  0.57933700  1
  Ba  Ba2  1  0.01647400  0.07007500  0.72332000  1
  Ba  Ba3  1  0.98352600  0.92992500  0.27668000  1
  Ba  Ba4  1  0.46200100  0.92980700  0.27404900  1
  Ba  Ba5  1  0.01116800  0.38280700  0.89260800  1
  Ba  Ba6  1  0.53123500  0.37945900  0.87213300  1
  Ba  Ba7  1  0.73332600  0.29083900  0.15895500  1
  Ba  Ba8  1  0.25646500  0.01441700  0.00248500  1
  Ba  Ba9  1  0.50077800  0.32225000  0.42066300  1
  Ba  Ba10  1  0.26667400  0.70916100  0.84104500  1
  Ba  Ba11  1  0.53799900  0.07019300  0.72595100  1
  Ba  Ba12  1  0.17220000  0.58091800  0.38242700  1
  Ba  Ba13  1  0.82780000  0.41908200  0.61757300  1
  Ba  Ba14  1  0.96396300  0.76103600  0.61867300  1
  Ba  Ba15  1  0.74353500  0.98558300  0.99751500  1
  Ba  Ba16  1  0.98883200  0.61719300  0.10739200  1
  Ba  Ba17  1  0.03603700  0.23896400  0.38132700  1
  Nb  Nb18  1  0.73011700  0.63503500  0.33650500  1
  Nb  Nb19  1  0.26988300  0.36496500  0.66349500  1
  Nb  Nb20  1  0.73125100  0.70314000  0.87952300  1
  Nb  Nb21  1  0.26874900  0.29686000  0.12047700  1
  C  C22  1  0.26112900  0.93935600  0.53431800  1
  C  C23  1  0.73887100  0.06064400  0.46568200  1
  N  N24  1  0.14546100  0.32639900  0.54624200  1
  N  N25  1  0.80524700  0.45386300  0.30106600  1
  N  N26  1  0.19475300  0.54613700  0.69893400  1
  N  N27  1  0.45792000  0.16935800  0.08405900  1
  N  N28  1  0.54208000  0.83064200  0.91594100  1
  N  N29  1  0.69746900  0.07595600  0.37177300  1
  N  N30  1  0.78617300  0.05486500  0.55694100  1
  N  N31  1  0.21382700  0.94513500  0.44305900  1
  N  N32  1  0.70749600  0.63369000  0.74753100  1
  N  N33  1  0.26205800  0.46817000  0.00156600  1
  N  N34  1  0.94006400  0.80756100  0.87612100  1
  N  N35  1  0.73794200  0.53183000  0.99843400  1
  N  N36  1  0.29250400  0.36631000  0.25246900  1
  N  N37  1  0.50625700  0.36820300  0.62181500  1
  N  N38  1  0.75791100  0.79451300  0.20533800  1
  N  N39  1  0.24208900  0.20548700  0.79466200  1
  N  N40  1  0.05993600  0.19243900  0.12387900  1
  N  N41  1  0.30253100  0.92404400  0.62822700  1
  N  N42  1  0.49374300  0.63179700  0.37818500  1
  N  N43  1  0.85453900  0.67360100  0.45375800  1
  O  O44  1  0.78334600  0.20064800  0.82136200  1
  O  O45  1  0.21665400  0.79935200  0.17863800  1
