# generated using pymatgen
data_CsZnB(PO4)2
_symmetry_space_group_name_H-M   'P 1'
_cell_length_a   7.60463514
_cell_length_b   8.01876379
_cell_length_c   8.13602294
_cell_angle_alpha   117.78399194
_cell_angle_beta   102.88803986
_cell_angle_gamma   104.68857780
_symmetry_Int_Tables_number   1
_chemical_formula_structural   CsZnB(PO4)2
_chemical_formula_sum   'Cs2 Zn2 B2 P4 O16'
_cell_volume   389.37488434
_cell_formula_units_Z   2
loop_
 _symmetry_equiv_pos_site_id
 _symmetry_equiv_pos_as_xyz
  1  'x, y, z'
loop_
 _atom_site_type_symbol
 _atom_site_label
 _atom_site_symmetry_multiplicity
 _atom_site_fract_x
 _atom_site_fract_y
 _atom_site_fract_z
 _atom_site_occupancy
  Cs  Cs0  1  0.26446600  0.64731100  0.40507100  1
  Cs  Cs1  1  0.73553400  0.35268900  0.59492900  1
  Zn  Zn2  1  0.20290500  0.29312800  0.74283900  1
  Zn  Zn3  1  0.79709500  0.70687200  0.25716100  1
  B  B4  1  0.70229500  0.93385900  0.93136000  1
  B  B5  1  0.29770500  0.06614100  0.06864000  1
  P  P6  1  0.55760800  0.22861100  0.93761900  1
  P  P7  1  0.96024100  0.90302000  0.72886800  1
  P  P8  1  0.03975900  0.09698000  0.27113200  1
  P  P9  1  0.44239200  0.77138900  0.06238100  1
  O  O10  1  0.39937400  0.96941000  0.14918200  1
  O  O11  1  0.09536100  0.27526000  0.48802600  1
  O  O12  1  0.45229100  0.23851300  0.08626700  1
  O  O13  1  0.75001200  0.42430000  0.05385400  1
  O  O14  1  0.60062600  0.03059000  0.85081800  1
  O  O15  1  0.58148500  0.79754000  0.25039200  1
  O  O16  1  0.98661600  0.11172300  0.75924100  1
  O  O17  1  0.01338400  0.88827700  0.24075900  1
  O  O18  1  0.90463900  0.72474000  0.51197400  1
  O  O19  1  0.20770100  0.17122800  0.20552700  1
  O  O20  1  0.54770900  0.76148700  0.91373300  1
  O  O21  1  0.41851500  0.20246000  0.74960800  1
  O  O22  1  0.15467000  0.91089000  0.85809600  1
  O  O23  1  0.24998800  0.57570000  0.94614600  1
  O  O24  1  0.79229900  0.82877200  0.79447300  1
  O  O25  1  0.84533000  0.08911000  0.14190400  1
