# generated using pymatgen
data_BaNb4O6
_symmetry_space_group_name_H-M   'P 1'
_cell_length_a   4.24295700
_cell_length_b   4.24295700
_cell_length_c   8.30118900
_cell_angle_alpha   90.00000000
_cell_angle_beta   90.00000000
_cell_angle_gamma   90.00000000
_symmetry_Int_Tables_number   1
_chemical_formula_structural   BaNb4O6
_chemical_formula_sum   'Ba1 Nb4 O6'
_cell_volume   149.44368325
_cell_formula_units_Z   1
loop_
 _symmetry_equiv_pos_site_id
 _symmetry_equiv_pos_as_xyz
  1  'x, y, z'
loop_
 _atom_site_type_symbol
 _atom_site_label
 _atom_site_symmetry_multiplicity
 _atom_site_fract_x
 _atom_site_fract_y
 _atom_site_fract_z
 _atom_site_occupancy
  Ba  Ba0  1  0.00000000  0.00000000  0.00000000  1
  Nb  Nb1  1  0.50000000  0.00000000  0.50000000  1
  Nb  Nb2  1  0.00000000  0.50000000  0.50000000  1
  Nb  Nb3  1  0.50000000  0.50000000  0.25355700  1
  Nb  Nb4  1  0.50000000  0.50000000  0.74644300  1
  O  O5  1  0.50000000  0.50000000  0.00000000  1
  O  O6  1  0.50000000  0.00000000  0.24311000  1
  O  O7  1  0.00000000  0.50000000  0.24311000  1
  O  O8  1  0.50000000  0.00000000  0.75689000  1
  O  O9  1  0.00000000  0.50000000  0.75689000  1
  O  O10  1  0.00000000  0.00000000  0.50000000  1
