# generated using pymatgen
data_CsBa2Br5
_symmetry_space_group_name_H-M   'P 1'
_cell_length_a   8.83265400
_cell_length_b   10.15342200
_cell_length_c   14.16823485
_cell_angle_alpha   89.74543186
_cell_angle_beta   90.00000000
_cell_angle_gamma   90.00000000
_symmetry_Int_Tables_number   1
_chemical_formula_structural   CsBa2Br5
_chemical_formula_sum   'Cs4 Ba8 Br20'
_cell_volume   1270.61832740
_cell_formula_units_Z   4
loop_
 _symmetry_equiv_pos_site_id
 _symmetry_equiv_pos_as_xyz
  1  'x, y, z'
loop_
 _atom_site_type_symbol
 _atom_site_label
 _atom_site_symmetry_multiplicity
 _atom_site_fract_x
 _atom_site_fract_y
 _atom_site_fract_z
 _atom_site_occupancy
  Cs  Cs0  1  0.94294400  0.01076900  0.16655400  1
  Cs  Cs1  1  0.44294400  0.98923100  0.33344600  1
  Cs  Cs2  1  0.05705600  0.98923100  0.83344600  1
  Cs  Cs3  1  0.55705600  0.01076900  0.66655400  1
  Ba  Ba4  1  0.97197600  0.49992300  0.17747400  1
  Ba  Ba5  1  0.47197600  0.50007700  0.32252600  1
  Ba  Ba6  1  0.02802400  0.50007700  0.82252600  1
  Ba  Ba7  1  0.52802400  0.49992300  0.67747400  1
  Ba  Ba8  1  0.43145600  0.25343900  0.00733000  1
  Ba  Ba9  1  0.93145600  0.74656100  0.49267000  1
  Ba  Ba10  1  0.56854400  0.74656100  0.99267000  1
  Ba  Ba11  1  0.06854400  0.25343900  0.50733000  1
  Br  Br12  1  0.04907400  0.28813100  0.00219700  1
  Br  Br13  1  0.54907400  0.71186900  0.49780300  1
  Br  Br14  1  0.95092600  0.71186900  0.99780300  1
  Br  Br15  1  0.45092600  0.28813100  0.50219700  1
  Br  Br16  1  0.68967700  0.72409300  0.21701600  1
  Br  Br17  1  0.18967700  0.27590700  0.28298400  1
  Br  Br18  1  0.31032300  0.27590700  0.78298400  1
  Br  Br19  1  0.81032300  0.72409300  0.71701600  1
  Br  Br20  1  0.83723100  0.46180300  0.40102900  1
  Br  Br21  1  0.33723100  0.53819700  0.09897100  1
  Br  Br22  1  0.16276900  0.53819700  0.59897100  1
  Br  Br23  1  0.66276900  0.46180300  0.90102900  1
  Br  Br24  1  0.66314800  0.28911900  0.18730500  1
  Br  Br25  1  0.16314800  0.71088100  0.31269500  1
  Br  Br26  1  0.33685200  0.71088100  0.81269500  1
  Br  Br27  1  0.83685200  0.28911900  0.68730500  1
  Br  Br28  1  0.82534700  0.03620300  0.42240000  1
  Br  Br29  1  0.32534700  0.96379700  0.07760000  1
  Br  Br30  1  0.17465300  0.96379700  0.57760000  1
  Br  Br31  1  0.67465300  0.03620300  0.92240000  1
