# generated using pymatgen
data_Pr3RuO7
_symmetry_space_group_name_H-M   'P 1'
_cell_length_a   6.69256812
_cell_length_b   6.69256812
_cell_length_c   7.65552100
_cell_angle_alpha   90.00000000
_cell_angle_beta   90.00000000
_cell_angle_gamma   111.73124710
_symmetry_Int_Tables_number   1
_chemical_formula_structural   Pr3RuO7
_chemical_formula_sum   'Pr6 Ru2 O14'
_cell_volume   318.52513591
_cell_formula_units_Z   2
loop_
 _symmetry_equiv_pos_site_id
 _symmetry_equiv_pos_as_xyz
  1  'x, y, z'
loop_
 _atom_site_type_symbol
 _atom_site_label
 _atom_site_symmetry_multiplicity
 _atom_site_fract_x
 _atom_site_fract_y
 _atom_site_fract_z
 _atom_site_occupancy
  Pr  Pr0  1  0.47056400  0.91108300  0.75000000  1
  Pr  Pr1  1  0.52943600  0.08891700  0.25000000  1
  Pr  Pr2  1  0.91108300  0.47056400  0.75000000  1
  Pr  Pr3  1  0.08891700  0.52943600  0.25000000  1
  Pr  Pr4  1  0.00000000  0.00000000  0.50000000  1
  Pr  Pr5  1  0.00000000  0.00000000  0.00000000  1
  Ru  Ru6  1  0.50000000  0.50000000  0.50000000  1
  Ru  Ru7  1  0.50000000  0.50000000  0.00000000  1
  O  O8  1  0.58135000  0.58135000  0.75000000  1
  O  O9  1  0.41865000  0.41865000  0.25000000  1
  O  O10  1  0.84096700  0.10385400  0.75000000  1
  O  O11  1  0.15903300  0.89614600  0.25000000  1
  O  O12  1  0.10385400  0.84096700  0.75000000  1
  O  O13  1  0.89614600  0.15903300  0.25000000  1
  O  O14  1  0.44046100  0.19047600  0.96034000  1
  O  O15  1  0.55953900  0.80952400  0.46034000  1
  O  O16  1  0.19047600  0.44046100  0.96034000  1
  O  O17  1  0.80952400  0.55953900  0.46034000  1
  O  O18  1  0.44046100  0.19047600  0.53966000  1
  O  O19  1  0.55953900  0.80952400  0.03966000  1
  O  O20  1  0.80952400  0.55953900  0.03966000  1
  O  O21  1  0.19047600  0.44046100  0.53966000  1
