# generated using pymatgen
data_MgP4(Cl5O3)2
_symmetry_space_group_name_H-M   'P 1'
_cell_length_a   10.13549400
_cell_length_b   11.29099981
_cell_length_c   11.59686984
_cell_angle_alpha   108.27888094
_cell_angle_beta   96.35021824
_cell_angle_gamma   116.00873144
_symmetry_Int_Tables_number   1
_chemical_formula_structural   MgP4(Cl5O3)2
_chemical_formula_sum   'Mg2 P8 Cl20 O12'
_cell_volume   1083.62055112
_cell_formula_units_Z   2
loop_
 _symmetry_equiv_pos_site_id
 _symmetry_equiv_pos_as_xyz
  1  'x, y, z'
loop_
 _atom_site_type_symbol
 _atom_site_label
 _atom_site_symmetry_multiplicity
 _atom_site_fract_x
 _atom_site_fract_y
 _atom_site_fract_z
 _atom_site_occupancy
  Mg  Mg0  1  0.76096500  0.99328600  0.05850100  1
  Mg  Mg1  1  0.23903500  0.00671400  0.94149900  1
  P  P2  1  0.98402200  0.84362600  0.08277900  1
  P  P3  1  0.01597800  0.15637400  0.91722100  1
  P  P4  1  0.39871700  0.78456400  0.85018600  1
  P  P5  1  0.44045600  0.17325700  0.75192700  1
  P  P6  1  0.91017300  0.71717800  0.67199200  1
  P  P7  1  0.60128300  0.21543600  0.14981400  1
  P  P8  1  0.08982700  0.28282200  0.32800800  1
  P  P9  1  0.55954400  0.82674300  0.24807300  1
  Cl  Cl10  1  0.37711400  0.10885000  0.56300300  1
  Cl  Cl11  1  0.52969400  0.62831900  0.17859400  1
  Cl  Cl12  1  0.69823300  0.67825200  0.67008800  1
  Cl  Cl13  1  0.65028000  0.19956700  0.79403100  1
  Cl  Cl14  1  0.34972000  0.80043300  0.20596900  1
  Cl  Cl15  1  0.92538700  0.63214300  0.99817200  1
  Cl  Cl16  1  0.06463100  0.25964700  0.48977500  1
  Cl  Cl17  1  0.09606500  0.46864900  0.35277200  1
  Cl  Cl18  1  0.39601300  0.76445100  0.66700200  1
  Cl  Cl19  1  0.30176700  0.32174800  0.32991200  1
  Cl  Cl20  1  0.73073700  0.42639100  0.17778100  1
  Cl  Cl21  1  0.97573200  0.12436400  0.72849400  1
  Cl  Cl22  1  0.26926300  0.57360900  0.82221900  1
  Cl  Cl23  1  0.62288600  0.89115000  0.43699700  1
  Cl  Cl24  1  0.60398700  0.23554900  0.33299800  1
  Cl  Cl25  1  0.47030600  0.37168100  0.82140600  1
  Cl  Cl26  1  0.93536900  0.74035300  0.51022500  1
  Cl  Cl27  1  0.90393500  0.53135100  0.64722800  1
  Cl  Cl28  1  0.07461300  0.36785700  0.00182800  1
  Cl  Cl29  1  0.02426800  0.87563600  0.27150600  1
  O  O30  1  0.02863300  0.84112800  0.78613100  1
  O  O31  1  0.13469700  0.93398400  0.06652100  1
  O  O32  1  0.32987000  0.07211700  0.79501200  1
  O  O33  1  0.67013000  0.92788300  0.20498800  1
  O  O34  1  0.86530300  0.06601600  0.93347900  1
  O  O35  1  0.97136700  0.15887200  0.21386900  1
  O  O36  1  0.68677200  0.14019700  0.10447300  1
  O  O37  1  0.15433300  0.14549300  0.95530800  1
  O  O38  1  0.84566700  0.85450700  0.04469200  1
  O  O39  1  0.44163000  0.16373400  0.07777800  1
  O  O40  1  0.55837000  0.83626600  0.92222200  1
  O  O41  1  0.31322800  0.85980300  0.89552700  1
