# generated using pymatgen
data_NaNb4Tl3P2O17
_symmetry_space_group_name_H-M   'P 1'
_cell_length_a   11.95444068
_cell_length_b   11.95444068
_cell_length_c   7.49101900
_cell_angle_alpha   90.00000000
_cell_angle_beta   90.00000000
_cell_angle_gamma   130.05342673
_symmetry_Int_Tables_number   1
_chemical_formula_structural   NaNb4Tl3P2O17
_chemical_formula_sum   'Na2 Nb8 Tl6 P4 O34'
_cell_volume   819.43263730
_cell_formula_units_Z   2
loop_
 _symmetry_equiv_pos_site_id
 _symmetry_equiv_pos_as_xyz
  1  'x, y, z'
loop_
 _atom_site_type_symbol
 _atom_site_label
 _atom_site_symmetry_multiplicity
 _atom_site_fract_x
 _atom_site_fract_y
 _atom_site_fract_z
 _atom_site_occupancy
  Na  Na0  1  0.63209900  0.63209900  0.00000000  1
  Na  Na1  1  0.63209900  0.63209900  0.50000000  1
  Nb  Nb2  1  0.03847500  0.34578900  0.49935100  1
  Nb  Nb3  1  0.14653800  0.67302000  0.75000000  1
  Nb  Nb4  1  0.03847500  0.34578900  0.00064900  1
  Nb  Nb5  1  0.00100900  0.00100900  0.50000000  1
  Nb  Nb6  1  0.34578900  0.03847500  0.99935100  1
  Nb  Nb7  1  0.00100900  0.00100900  0.00000000  1
  Nb  Nb8  1  0.34578900  0.03847500  0.50064900  1
  Nb  Nb9  1  0.67302000  0.14653800  0.25000000  1
  Tl  Tl10  1  0.96573300  0.68780000  0.25000000  1
  Tl  Tl11  1  0.31794500  0.71381900  0.25000000  1
  Tl  Tl12  1  0.71381900  0.31794500  0.75000000  1
  Tl  Tl13  1  0.31052900  0.36677300  0.25000000  1
  Tl  Tl14  1  0.36677300  0.31052900  0.75000000  1
  Tl  Tl15  1  0.68780000  0.96573300  0.75000000  1
  P  P16  1  0.58120700  0.35132800  0.25000000  1
  P  P17  1  0.86200100  0.68674500  0.75000000  1
  P  P18  1  0.35132800  0.58120700  0.75000000  1
  P  P19  1  0.68674500  0.86200100  0.25000000  1
  O  O20  1  0.41676700  0.11662500  0.75000000  1
  O  O21  1  0.51317900  0.65391500  0.75000000  1
  O  O22  1  0.77678600  0.89947900  0.42376100  1
  O  O23  1  0.19035200  0.06016300  0.95877600  1
  O  O24  1  0.52953200  0.07392500  0.06253800  1
  O  O25  1  0.19035200  0.06016300  0.54122400  1
  O  O26  1  0.94456400  0.00055100  0.75000000  1
  O  O27  1  0.48533900  0.27258600  0.07968300  1
  O  O28  1  0.52953200  0.07392500  0.43746200  1
  O  O29  1  0.77678600  0.89947900  0.07623900  1
  O  O30  1  0.99195700  0.28578700  0.75000000  1
  O  O31  1  0.11662500  0.41676700  0.25000000  1
  O  O32  1  0.07392500  0.52953200  0.93746200  1
  O  O33  1  0.84092900  0.23598100  0.06841500  1
  O  O34  1  0.00055100  0.94456400  0.25000000  1
  O  O35  1  0.27258600  0.48533900  0.57968300  1
  O  O36  1  0.55042500  0.70052800  0.25000000  1
  O  O37  1  0.06016300  0.19035200  0.45877600  1
  O  O38  1  0.89947900  0.77678600  0.57623900  1
  O  O39  1  0.89947900  0.77678600  0.92376100  1
  O  O40  1  0.63940900  0.95744300  0.25000000  1
  O  O41  1  0.33590900  0.70360000  0.75000000  1
  O  O42  1  0.70052800  0.55042500  0.75000000  1
  O  O43  1  0.28578700  0.99195700  0.25000000  1
  O  O44  1  0.23598100  0.84092900  0.93158500  1
  O  O45  1  0.06016300  0.19035200  0.04122400  1
  O  O46  1  0.65391500  0.51317900  0.25000000  1
  O  O47  1  0.48533900  0.27258600  0.42031700  1
  O  O48  1  0.23598100  0.84092900  0.56841500  1
  O  O49  1  0.84092900  0.23598100  0.43158500  1
  O  O50  1  0.07392500  0.52953200  0.56253800  1
  O  O51  1  0.95744300  0.63940900  0.75000000  1
  O  O52  1  0.27258600  0.48533900  0.92031700  1
  O  O53  1  0.70360000  0.33590900  0.25000000  1
