# generated using pymatgen
data_Ca14AlSb11
_symmetry_space_group_name_H-M   'P 1'
_cell_length_a   16.32875125
_cell_length_b   16.32875125
_cell_length_c   16.32875125
_cell_angle_alpha   118.33509049
_cell_angle_beta   118.33509049
_cell_angle_gamma   92.90873924
_symmetry_Int_Tables_number   1
_chemical_formula_structural   Ca14AlSb11
_chemical_formula_sum   'Ca56 Al4 Sb44'
_cell_volume   3151.61203456
_cell_formula_units_Z   4
loop_
 _symmetry_equiv_pos_site_id
 _symmetry_equiv_pos_as_xyz
  1  'x, y, z'
loop_
 _atom_site_type_symbol
 _atom_site_label
 _atom_site_symmetry_multiplicity
 _atom_site_fract_x
 _atom_site_fract_y
 _atom_site_fract_z
 _atom_site_occupancy
  Ca  Ca0  1  0.49141800  0.09594200  0.35009800  1
  Ca  Ca1  1  0.00415600  0.10868000  0.85009800  1
  Ca  Ca2  1  0.35206400  0.37472200  0.66081900  1
  Ca  Ca3  1  0.85868000  0.50858200  0.60452400  1
  Ca  Ca4  1  0.40405800  0.00858200  0.64990200  1
  Ca  Ca5  1  0.12500000  0.72953600  0.10453600  1
  Ca  Ca6  1  0.25858200  0.15405800  0.14990200  1
  Ca  Ca7  1  0.47236700  0.25218100  0.13290300  1
  Ca  Ca8  1  0.27763300  0.99781900  0.36709700  1
  Ca  Ca9  1  0.62527800  0.28609600  0.97734200  1
  Ca  Ca10  1  0.08946400  0.72236700  0.72018700  1
  Ca  Ca11  1  0.44124600  0.60206400  0.47734200  1
  Ca  Ca12  1  0.21390400  0.87472200  0.02265800  1
  Ca  Ca13  1  0.12527800  0.14793600  0.33918100  1
  Ca  Ca14  1  0.24584400  0.59594200  0.60452400  1
  Ca  Ca15  1  0.50415600  0.65405800  0.89547600  1
  Ca  Ca16  1  0.77046400  0.37500000  0.89546400  1
  Ca  Ca17  1  0.39793600  0.87527800  0.83918100  1
  Ca  Ca18  1  0.63072300  0.91053600  0.63290300  1
  Ca  Ca19  1  0.47953600  0.87500000  0.10453600  1
  Ca  Ca20  1  0.12500000  0.22953600  0.60453600  1
  Ca  Ca21  1  0.62500000  0.02046400  0.89546400  1
  Ca  Ca22  1  0.34594200  0.24141800  0.85009800  1
  Ca  Ca23  1  0.35868000  0.75415600  0.35009800  1
  Ca  Ca24  1  0.24781900  0.02763300  0.86709700  1
  Ca  Ca25  1  0.94124600  0.46390400  0.83918100  1
  Ca  Ca26  1  0.74781900  0.88072300  0.22018700  1
  Ca  Ca27  1  0.03609600  0.55875400  0.16081900  1
  Ca  Ca28  1  0.77763300  0.41053600  0.27981300  1
  Ca  Ca29  1  0.16053600  0.38072300  0.13290300  1
  Ca  Ca30  1  0.30875400  0.64793600  0.02265800  1
  Ca  Ca31  1  0.00218100  0.36927700  0.27981300  1
  Ca  Ca32  1  0.61927700  0.75218100  0.77981300  1
  Ca  Ca33  1  0.66053600  0.52763300  0.77981300  1
  Ca  Ca34  1  0.27046400  0.37500000  0.39546400  1
  Ca  Ca35  1  0.75858200  0.60868000  0.10452400  1
  Ca  Ca36  1  0.99141800  0.64132000  0.39547600  1
  Ca  Ca37  1  0.85206400  0.19124600  0.97734200  1
  Ca  Ca38  1  0.89793600  0.05875400  0.52265800  1
  Ca  Ca39  1  0.71390400  0.69124600  0.33918100  1
  Ca  Ca40  1  0.84594200  0.99584400  0.10452400  1
  Ca  Ca41  1  0.11927700  0.33946400  0.86709700  1
  Ca  Ca42  1  0.90405800  0.25415600  0.39547600  1
  Ca  Ca43  1  0.89132000  0.74141800  0.89547600  1
  Ca  Ca44  1  0.50218100  0.22236700  0.63290300  1
  Ca  Ca45  1  0.62500000  0.52046400  0.39546400  1
  Ca  Ca46  1  0.62472200  0.10206400  0.16081900  1
  Ca  Ca47  1  0.58946400  0.86927700  0.36709700  1
  Ca  Ca48  1  0.13072300  0.49781900  0.72018700  1
  Ca  Ca49  1  0.97953600  0.87500000  0.60453600  1
  Ca  Ca50  1  0.39132000  0.49584400  0.14990200  1
  Ca  Ca51  1  0.53609600  0.37527800  0.47734200  1
  Ca  Ca52  1  0.12472200  0.96390400  0.52265800  1
  Ca  Ca53  1  0.97236700  0.83946400  0.22018700  1
  Ca  Ca54  1  0.80875400  0.78609600  0.66081900  1
  Ca  Ca55  1  0.74584400  0.14132000  0.64990200  1
  Al  Al56  1  0.50000000  0.50000000  0.00000000  1
  Al  Al57  1  0.75000000  0.25000000  0.50000000  1
  Al  Al58  1  0.00000000  0.00000000  0.00000000  1
  Al  Al59  1  0.25000000  0.75000000  0.50000000  1
  Sb  Sb60  1  0.79661400  0.93770700  0.86660900  1
  Sb  Sb61  1  0.44734900  0.54202200  0.64453400  1
  Sb  Sb62  1  0.38537100  0.38537100  0.27074200  1
  Sb  Sb63  1  0.86462900  0.63537100  0.50000000  1
  Sb  Sb64  1  0.29202200  0.14748800  0.59467300  1
  Sb  Sb65  1  0.57109700  0.43770700  0.14109200  1
  Sb  Sb66  1  0.95338600  0.31229300  0.63339100  1
  Sb  Sb67  1  0.56229300  0.70338600  0.13339100  1
  Sb  Sb68  1  0.68770700  0.32109700  0.64109200  1
  Sb  Sb69  1  0.18770700  0.54661400  0.36660900  1
  Sb  Sb70  1  0.45338600  0.81999500  0.64109200  1
  Sb  Sb71  1  0.30265100  0.70797800  0.85546600  1
  Sb  Sb72  1  0.79202200  0.19734900  0.14453400  1
  Sb  Sb73  1  0.55281500  0.69734900  0.40532700  1
  Sb  Sb74  1  0.06229300  0.92890300  0.85890800  1
  Sb  Sb75  1  0.94734900  0.30281500  0.90532700  1
  Sb  Sb76  1  0.75000000  0.75000000  0.00000000  1
  Sb  Sb77  1  0.85251200  0.44718500  0.14453400  1
  Sb  Sb78  1  0.63537100  0.13537100  0.77074200  1
  Sb  Sb79  1  0.69718500  0.60251200  0.64453400  1
  Sb  Sb80  1  0.95797800  0.05265100  0.35546600  1
  Sb  Sb81  1  0.80265100  0.94718500  0.59467300  1
  Sb  Sb82  1  0.50000000  0.00000000  0.50000000  1
  Sb  Sb83  1  0.11462900  0.11462900  0.72925800  1
  Sb  Sb84  1  0.05281500  0.64748800  0.85546600  1
  Sb  Sb85  1  0.06999500  0.20338600  0.14109200  1
  Sb  Sb86  1  0.29661400  0.43000500  0.85890800  1
  Sb  Sb87  1  0.39748800  0.04202200  0.09467300  1
  Sb  Sb88  1  0.89748800  0.80281500  0.35546600  1
  Sb  Sb89  1  0.18000500  0.82109700  0.63339100  1
  Sb  Sb90  1  0.00000000  0.50000000  0.50000000  1
  Sb  Sb91  1  0.19718500  0.55265100  0.09467300  1
  Sb  Sb92  1  0.13537100  0.36462900  0.50000000  1
  Sb  Sb93  1  0.17890300  0.81229300  0.35890800  1
  Sb  Sb94  1  0.45797800  0.10251200  0.90532700  1
  Sb  Sb95  1  0.07109700  0.93000500  0.13339100  1
  Sb  Sb96  1  0.67890300  0.31999500  0.36660900  1
  Sb  Sb97  1  0.35251200  0.20797800  0.40532700  1
  Sb  Sb98  1  0.25000000  0.25000000  0.00000000  1
  Sb  Sb99  1  0.56999500  0.42890300  0.86660900  1
  Sb  Sb100  1  0.68000500  0.04661400  0.35890800  1
  Sb  Sb101  1  0.88537100  0.61462900  0.00000000  1
  Sb  Sb102  1  0.61462900  0.88537100  0.00000000  1
  Sb  Sb103  1  0.36462900  0.86462900  0.22925800  1
