# generated using pymatgen
data_Li2IrO3
_symmetry_space_group_name_H-M   'P 1'
_cell_length_a   5.18647547
_cell_length_b   5.18647547
_cell_length_c   24.52324199
_cell_angle_alpha   87.97965345
_cell_angle_beta   87.97965345
_cell_angle_gamma   120.46675451
_symmetry_Int_Tables_number   1
_chemical_formula_structural   Li2IrO3
_chemical_formula_sum   'Li20 Ir10 O30'
_cell_volume   567.14425658
_cell_formula_units_Z   10
loop_
 _symmetry_equiv_pos_site_id
 _symmetry_equiv_pos_as_xyz
  1  'x, y, z'
loop_
 _atom_site_type_symbol
 _atom_site_label
 _atom_site_symmetry_multiplicity
 _atom_site_fract_x
 _atom_site_fract_y
 _atom_site_fract_z
 _atom_site_occupancy
  Li  Li0  1  0.66641200  0.33358800  0.00000000  1
  Li  Li1  1  0.63050900  0.96708500  0.09951400  1
  Li  Li2  1  0.31289000  0.30717800  0.10011700  1
  Li  Li3  1  0.95374900  0.62397400  0.09972200  1
  Li  Li4  1  0.60023400  0.60027100  0.19982000  1
  Li  Li5  1  0.23899800  0.56078400  0.30000300  1
  Li  Li6  1  0.89989900  0.89981000  0.29996300  1
  Li  Li7  1  0.56088600  0.23920900  0.30004800  1
  Li  Li8  1  0.19995500  0.19998500  0.40002500  1
  Li  Li9  1  0.83906700  0.16093300  0.50000000  1
  Li  Li10  1  0.49998400  0.50001600  0.50000000  1
  Li  Li11  1  0.16093000  0.83907000  0.50000000  1
  Li  Li12  1  0.80001500  0.80004500  0.59997500  1
  Li  Li13  1  0.43921600  0.76100200  0.69999700  1
  Li  Li14  1  0.10019000  0.10010100  0.70003700  1
  Li  Li15  1  0.76079100  0.43911400  0.69995200  1
  Li  Li16  1  0.39972900  0.39976600  0.80018000  1
  Li  Li17  1  0.03291500  0.36949100  0.90048600  1
  Li  Li18  1  0.69282200  0.68711000  0.89988300  1
  Li  Li19  1  0.37602600  0.04625100  0.90027800  1
  Ir  Ir20  1  0.33424900  0.66575100  0.00000000  1
  Ir  Ir21  1  0.99896100  0.00103900  0.00000000  1
  Ir  Ir22  1  0.26763600  0.93238000  0.20000800  1
  Ir  Ir23  1  0.93185700  0.26652600  0.19996100  1
  Ir  Ir24  1  0.86726100  0.53278100  0.40000700  1
  Ir  Ir25  1  0.53273800  0.86725300  0.39999800  1
  Ir  Ir26  1  0.13274700  0.46726200  0.60000200  1
  Ir  Ir27  1  0.46721900  0.13273900  0.59999300  1
  Ir  Ir28  1  0.06762000  0.73236400  0.79999200  1
  Ir  Ir29  1  0.73347400  0.06814300  0.80003900  1
  O  O30  1  0.65161000  0.66119500  0.04768500  1
  O  O31  1  0.99535300  0.31805600  0.04730000  1
  O  O32  1  0.30394200  0.97060800  0.04635200  1
  O  O33  1  0.27091300  0.61519200  0.15282700  1
  O  O34  1  0.61583500  0.27199400  0.15221600  1
  O  O35  1  0.96359700  0.96255600  0.15357300  1
  O  O36  1  0.23782600  0.23840100  0.24677600  1
  O  O37  1  0.92840200  0.58438900  0.24710200  1
  O  O38  1  0.58397700  0.92794200  0.24732200  1
  O  O39  1  0.87196500  0.21650900  0.35284500  1
  O  O40  1  0.21644800  0.87200600  0.35284300  1
  O  O41  1  0.56184100  0.56180500  0.35303400  1
  O  O42  1  0.83807600  0.83811800  0.44698700  1
  O  O43  1  0.52803800  0.18355000  0.44715900  1
  O  O44  1  0.18355400  0.52803200  0.44716400  1
  O  O45  1  0.47196800  0.81644600  0.55283600  1
  O  O46  1  0.81645000  0.47196200  0.55284100  1
  O  O47  1  0.16188200  0.16192400  0.55301300  1
  O  O48  1  0.43819500  0.43815900  0.64696600  1
  O  O49  1  0.78349100  0.12803500  0.64715500  1
  O  O50  1  0.12799400  0.78355200  0.64715700  1
  O  O51  1  0.07205800  0.41602300  0.75267800  1
  O  O52  1  0.41561100  0.07159800  0.75289800  1
  O  O53  1  0.76159900  0.76217400  0.75322400  1
  O  O54  1  0.03744400  0.03640300  0.84642700  1
  O  O55  1  0.72800600  0.38416500  0.84778400  1
  O  O56  1  0.38480800  0.72908700  0.84717300  1
  O  O57  1  0.68194400  0.00464700  0.95270000  1
  O  O58  1  0.02939200  0.69605800  0.95364800  1
  O  O59  1  0.33880500  0.34839000  0.95231500  1
