# generated using pymatgen
data_Na2B8O13
_symmetry_space_group_name_H-M   'P 1'
_cell_length_a   18.01312400
_cell_length_b   6.62301900
_cell_length_c   8.55123918
_cell_angle_alpha   84.96062954
_cell_angle_beta   90.00000000
_cell_angle_gamma   90.00000000
_symmetry_Int_Tables_number   1
_chemical_formula_structural   Na2B8O13
_chemical_formula_sum   'Na8 B32 O52'
_cell_volume   1016.23022472
_cell_formula_units_Z   4
loop_
 _symmetry_equiv_pos_site_id
 _symmetry_equiv_pos_as_xyz
  1  'x, y, z'
loop_
 _atom_site_type_symbol
 _atom_site_label
 _atom_site_symmetry_multiplicity
 _atom_site_fract_x
 _atom_site_fract_y
 _atom_site_fract_z
 _atom_site_occupancy
  Na  Na0  1  0.36186100  0.57829500  0.03947400  1
  Na  Na1  1  0.86186100  0.92170500  0.96052600  1
  Na  Na2  1  0.63813900  0.42170500  0.96052600  1
  Na  Na3  1  0.13813900  0.07829500  0.03947400  1
  Na  Na4  1  0.40003900  0.95970600  0.57903300  1
  Na  Na5  1  0.90003900  0.54029400  0.42096700  1
  Na  Na6  1  0.59996100  0.04029400  0.42096700  1
  Na  Na7  1  0.09996100  0.45970600  0.57903300  1
  B  B8  1  0.51115400  0.59728700  0.79983800  1
  B  B9  1  0.01115400  0.90271300  0.20016200  1
  B  B10  1  0.48884600  0.40271300  0.20016200  1
  B  B11  1  0.98884600  0.09728700  0.79983800  1
  B  B12  1  0.49407000  0.24536500  0.74410000  1
  B  B13  1  0.99407000  0.25463500  0.25590000  1
  B  B14  1  0.50593000  0.75463500  0.25590000  1
  B  B15  1  0.00593000  0.74536500  0.74410000  1
  B  B16  1  0.39205200  0.49359500  0.68280400  1
  B  B17  1  0.89205200  0.00640500  0.31719600  1
  B  B18  1  0.60794800  0.50640500  0.31719600  1
  B  B19  1  0.10794800  0.99359500  0.68280400  1
  B  B20  1  0.29720400  0.55257200  0.47496700  1
  B  B21  1  0.79720400  0.94742800  0.52503300  1
  B  B22  1  0.70279600  0.44742800  0.52503300  1
  B  B23  1  0.20279600  0.05257200  0.47496700  1
  B  B24  1  0.25531400  0.47572200  0.74003800  1
  B  B25  1  0.75531400  0.02427800  0.25996200  1
  B  B26  1  0.74468600  0.52427800  0.25996200  1
  B  B27  1  0.24468600  0.97572200  0.74003800  1
  B  B28  1  0.21579000  0.58005400  0.23555700  1
  B  B29  1  0.71579000  0.91994600  0.76444300  1
  B  B30  1  0.78421000  0.41994600  0.76444300  1
  B  B31  1  0.28421000  0.08005400  0.23555700  1
  B  B32  1  0.17355300  0.51365800  0.97992700  1
  B  B33  1  0.67355300  0.98634200  0.02007300  1
  B  B34  1  0.82644700  0.48634200  0.02007300  1
  B  B35  1  0.32644700  0.01365800  0.97992700  1
  B  B36  1  0.08152700  0.55823300  0.18752600  1
  B  B37  1  0.58152700  0.94176700  0.81247400  1
  B  B38  1  0.91847300  0.44176700  0.81247400  1
  B  B39  1  0.41847300  0.05823300  0.18752600  1
  O  O40  1  0.56231200  0.72714200  0.85039900  1
  O  O41  1  0.06231200  0.77285800  0.14960100  1
  O  O42  1  0.43768800  0.27285800  0.14960100  1
  O  O43  1  0.93768800  0.22714200  0.85039900  1
  O  O44  1  0.53302200  0.39227300  0.81772300  1
  O  O45  1  0.03302200  0.10772700  0.18227700  1
  O  O46  1  0.46697800  0.60772700  0.18227700  1
  O  O47  1  0.96697800  0.89227300  0.81772300  1
  O  O48  1  0.52160800  0.05561000  0.73099900  1
  O  O49  1  0.02160800  0.44439000  0.26900100  1
  O  O50  1  0.47839200  0.94439000  0.26900100  1
  O  O51  1  0.97839200  0.55561000  0.73099900  1
  O  O52  1  0.42674900  0.29434200  0.67500900  1
  O  O53  1  0.92674900  0.20565800  0.32499100  1
  O  O54  1  0.57325100  0.70565800  0.32499100  1
  O  O55  1  0.07325100  0.79434200  0.67500900  1
  O  O56  1  0.44211800  0.64617900  0.74141500  1
  O  O57  1  0.94211800  0.85382100  0.25858500  1
  O  O58  1  0.55788200  0.35382100  0.25858500  1
  O  O59  1  0.05788200  0.14617900  0.74141500  1
  O  O60  1  0.36748200  0.57441200  0.52532200  1
  O  O61  1  0.86748200  0.92558800  0.47467800  1
  O  O62  1  0.63251800  0.42558800  0.47467800  1
  O  O63  1  0.13251800  0.07441200  0.52532200  1
  O  O64  1  0.23988700  0.49102500  0.57898300  1
  O  O65  1  0.73988700  0.00897500  0.42101700  1
  O  O66  1  0.76011300  0.50897500  0.42101700  1
  O  O67  1  0.26011300  0.99102500  0.57898300  1
  O  O68  1  0.19159400  0.46338100  0.83098600  1
  O  O69  1  0.69159400  0.03661900  0.16901400  1
  O  O70  1  0.80840600  0.53661900  0.16901400  1
  O  O71  1  0.30840600  0.96338100  0.83098600  1
  O  O72  1  0.32588900  0.47223000  0.79434800  1
  O  O73  1  0.82588900  0.02777000  0.20565200  1
  O  O74  1  0.67411100  0.52777000  0.20565200  1
  O  O75  1  0.17411100  0.97223000  0.79434800  1
  O  O76  1  0.28149400  0.59372500  0.31757800  1
  O  O77  1  0.78149400  0.90627500  0.68242200  1
  O  O78  1  0.71850600  0.40627500  0.68242200  1
  O  O79  1  0.21850600  0.09372500  0.31757800  1
  O  O80  1  0.22892200  0.59146100  0.07251800  1
  O  O81  1  0.72892200  0.90853900  0.92748200  1
  O  O82  1  0.77107800  0.40853900  0.92748200  1
  O  O83  1  0.27107800  0.09146100  0.07251800  1
  O  O84  1  0.10498200  0.47333400  0.03883200  1
  O  O85  1  0.60498200  0.02666600  0.96116800  1
  O  O86  1  0.89501800  0.52666600  0.96116800  1
  O  O87  1  0.39501800  0.97333400  0.03883200  1
  O  O88  1  0.14745300  0.55555500  0.29790600  1
  O  O89  1  0.64745300  0.94444500  0.70209400  1
  O  O90  1  0.85254700  0.44444500  0.70209400  1
  O  O91  1  0.35254700  0.05555500  0.29790600  1
