# generated using pymatgen
data_Sr3Fe2(SeO3)6
_symmetry_space_group_name_H-M   'P 1'
_cell_length_a   14.35921045
_cell_length_b   14.35921045
_cell_length_c   14.35921042
_cell_angle_alpha   36.19376963
_cell_angle_beta   36.19376963
_cell_angle_gamma   36.19376840
_symmetry_Int_Tables_number   1
_chemical_formula_structural   Sr3Fe2(SeO3)6
_chemical_formula_sum   'Sr6 Fe4 Se12 O36'
_cell_volume   923.74190615
_cell_formula_units_Z   2
loop_
 _symmetry_equiv_pos_site_id
 _symmetry_equiv_pos_as_xyz
  1  'x, y, z'
loop_
 _atom_site_type_symbol
 _atom_site_label
 _atom_site_symmetry_multiplicity
 _atom_site_fract_x
 _atom_site_fract_y
 _atom_site_fract_z
 _atom_site_occupancy
  Sr  Sr0  1  0.83834600  0.66165400  0.25000000  1
  Sr  Sr1  1  0.25000000  0.83834600  0.66165400  1
  Sr  Sr2  1  0.16165400  0.33834600  0.75000000  1
  Sr  Sr3  1  0.75000000  0.16165400  0.33834600  1
  Sr  Sr4  1  0.33834600  0.75000000  0.16165400  1
  Sr  Sr5  1  0.66165400  0.25000000  0.83834600  1
  Fe  Fe6  1  0.50000000  0.50000000  0.50000000  1
  Fe  Fe7  1  0.00000000  0.00000000  0.00000000  1
  Fe  Fe8  1  0.25000000  0.25000000  0.25000000  1
  Fe  Fe9  1  0.75000000  0.75000000  0.75000000  1
  Se  Se10  1  0.91204400  0.19339600  0.48299700  1
  Se  Se11  1  0.80660400  0.51700300  0.08795600  1
  Se  Se12  1  0.01700300  0.30660400  0.58795600  1
  Se  Se13  1  0.19339600  0.48299700  0.91204400  1
  Se  Se14  1  0.58795600  0.01700300  0.30660400  1
  Se  Se15  1  0.48299700  0.91204400  0.19339600  1
  Se  Se16  1  0.98299700  0.69339600  0.41204400  1
  Se  Se17  1  0.51700300  0.08795600  0.80660400  1
  Se  Se18  1  0.69339600  0.41204400  0.98299700  1
  Se  Se19  1  0.08795600  0.80660400  0.51700300  1
  Se  Se20  1  0.41204400  0.98299700  0.69339600  1
  Se  Se21  1  0.30660400  0.58795600  0.01700300  1
  O  O22  1  0.55131800  0.84664000  0.43717800  1
  O  O23  1  0.66245300  0.68356300  0.99462400  1
  O  O24  1  0.15336000  0.56282200  0.44868200  1
  O  O25  1  0.93717800  0.34664000  0.05131800  1
  O  O26  1  0.33289600  0.57233200  0.68801100  1
  O  O27  1  0.81198900  0.92766800  0.16710400  1
  O  O28  1  0.06282200  0.65336000  0.94868200  1
  O  O29  1  0.00537600  0.33754700  0.31643700  1
  O  O30  1  0.94868200  0.06282200  0.65336000  1
  O  O31  1  0.07233200  0.83289600  0.18801100  1
  O  O32  1  0.81643700  0.83754700  0.50537600  1
  O  O33  1  0.16245300  0.49462400  0.18356300  1
  O  O34  1  0.31198900  0.66710400  0.42766800  1
  O  O35  1  0.99462400  0.66245300  0.68356300  1
  O  O36  1  0.68801100  0.33289600  0.57233200  1
  O  O37  1  0.50537600  0.81643700  0.83754700  1
  O  O38  1  0.44868200  0.15336000  0.56282200  1
  O  O39  1  0.57233200  0.68801100  0.33289600  1
  O  O40  1  0.66710400  0.42766800  0.31198900  1
  O  O41  1  0.84664000  0.43717800  0.55131800  1
  O  O42  1  0.05131800  0.93717800  0.34664000  1
  O  O43  1  0.31643700  0.00537600  0.33754700  1
  O  O44  1  0.56282200  0.44868200  0.15336000  1
  O  O45  1  0.34664000  0.05131800  0.93717800  1
  O  O46  1  0.18356300  0.16245300  0.49462400  1
  O  O47  1  0.49462400  0.18356300  0.16245300  1
  O  O48  1  0.33754700  0.31643700  0.00537600  1
  O  O49  1  0.92766800  0.16710400  0.81198900  1
  O  O50  1  0.43717800  0.55131800  0.84664000  1
  O  O51  1  0.83289600  0.18801100  0.07233200  1
  O  O52  1  0.65336000  0.94868200  0.06282200  1
  O  O53  1  0.18801100  0.07233200  0.83289600  1
  O  O54  1  0.83754700  0.50537600  0.81643700  1
  O  O55  1  0.68356300  0.99462400  0.66245300  1
  O  O56  1  0.16710400  0.81198900  0.92766800  1
  O  O57  1  0.42766800  0.31198900  0.66710400  1
