# generated using pymatgen
data_CsLu(NbCl3)6
_symmetry_space_group_name_H-M   'P 1'
_cell_length_a   9.40630827
_cell_length_b   9.40630827
_cell_length_c   17.50666400
_cell_angle_alpha   90.00000000
_cell_angle_beta   90.00000000
_cell_angle_gamma   120.00000193
_symmetry_Int_Tables_number   1
_chemical_formula_structural   CsLu(NbCl3)6
_chemical_formula_sum   'Cs2 Lu2 Nb12 Cl36'
_cell_volume   1341.44365450
_cell_formula_units_Z   2
loop_
 _symmetry_equiv_pos_site_id
 _symmetry_equiv_pos_as_xyz
  1  'x, y, z'
loop_
 _atom_site_type_symbol
 _atom_site_label
 _atom_site_symmetry_multiplicity
 _atom_site_fract_x
 _atom_site_fract_y
 _atom_site_fract_z
 _atom_site_occupancy
  Cs  Cs0  1  0.66666700  0.33333300  0.75000000  1
  Cs  Cs1  1  0.33333300  0.66666700  0.25000000  1
  Lu  Lu2  1  0.33333300  0.66666700  0.75000000  1
  Lu  Lu3  1  0.66666700  0.33333300  0.25000000  1
  Nb  Nb4  1  0.15524000  0.19724500  0.93177400  1
  Nb  Nb5  1  0.84476000  0.80275500  0.06822600  1
  Nb  Nb6  1  0.04200500  0.19724500  0.56822600  1
  Nb  Nb7  1  0.19724500  0.04200500  0.06822600  1
  Nb  Nb8  1  0.80275500  0.95799500  0.93177400  1
  Nb  Nb9  1  0.80275500  0.84476000  0.56822600  1
  Nb  Nb10  1  0.95799500  0.80275500  0.43177400  1
  Nb  Nb11  1  0.04200500  0.84476000  0.93177400  1
  Nb  Nb12  1  0.84476000  0.04200500  0.43177400  1
  Nb  Nb13  1  0.15524000  0.95799500  0.56822600  1
  Nb  Nb14  1  0.19724500  0.15524000  0.43177400  1
  Nb  Nb15  1  0.95799500  0.15524000  0.06822600  1
  Cl  Cl16  1  0.45172800  0.09389000  0.16327400  1
  Cl  Cl17  1  0.13826300  0.41626700  0.00152700  1
  Cl  Cl18  1  0.45172800  0.35783800  0.33672600  1
  Cl  Cl19  1  0.58373300  0.86173700  0.49847300  1
  Cl  Cl20  1  0.81488100  0.76592800  0.83997500  1
  Cl  Cl21  1  0.41626700  0.13826300  0.50152700  1
  Cl  Cl22  1  0.23407200  0.04895300  0.83997500  1
  Cl  Cl23  1  0.86173700  0.27800400  0.50152700  1
  Cl  Cl24  1  0.35783800  0.90611000  0.66327400  1
  Cl  Cl25  1  0.41626700  0.27800400  0.99847300  1
  Cl  Cl26  1  0.23407200  0.18511900  0.66002500  1
  Cl  Cl27  1  0.09389000  0.64216200  0.83672600  1
  Cl  Cl28  1  0.90611000  0.35783800  0.16327400  1
  Cl  Cl29  1  0.64216200  0.54827200  0.16327400  1
  Cl  Cl30  1  0.86173700  0.58373300  0.99847300  1
  Cl  Cl31  1  0.54827200  0.90611000  0.83672600  1
  Cl  Cl32  1  0.72199600  0.58373300  0.50152700  1
  Cl  Cl33  1  0.81488100  0.04895300  0.66002500  1
  Cl  Cl34  1  0.90611000  0.54827200  0.33672600  1
  Cl  Cl35  1  0.95104700  0.76592800  0.66002500  1
  Cl  Cl36  1  0.18511900  0.23407200  0.16002500  1
  Cl  Cl37  1  0.95104700  0.18511900  0.83997500  1
  Cl  Cl38  1  0.04895300  0.81488100  0.16002500  1
  Cl  Cl39  1  0.09389000  0.45172800  0.66327400  1
  Cl  Cl40  1  0.54827200  0.64216200  0.66327400  1
  Cl  Cl41  1  0.27800400  0.41626700  0.49847300  1
  Cl  Cl42  1  0.76592800  0.95104700  0.16002500  1
  Cl  Cl43  1  0.76592800  0.81488100  0.33997500  1
  Cl  Cl44  1  0.58373300  0.72199600  0.00152700  1
  Cl  Cl45  1  0.13826300  0.72199600  0.49847300  1
  Cl  Cl46  1  0.72199600  0.13826300  0.99847300  1
  Cl  Cl47  1  0.35783800  0.45172800  0.83672600  1
  Cl  Cl48  1  0.04895300  0.23407200  0.33997500  1
  Cl  Cl49  1  0.27800400  0.86173700  0.00152700  1
  Cl  Cl50  1  0.64216200  0.09389000  0.33672600  1
  Cl  Cl51  1  0.18511900  0.95104700  0.33997500  1
