# generated using pymatgen
data_LiTaGeO5
_symmetry_space_group_name_H-M   'P 1'
_cell_length_a   8.18259200
_cell_length_b   7.60534700
_cell_length_c   7.68250440
_cell_angle_alpha   60.33913877
_cell_angle_beta   90.00000000
_cell_angle_gamma   90.00000000
_symmetry_Int_Tables_number   1
_chemical_formula_structural   LiTaGeO5
_chemical_formula_sum   'Li4 Ta4 Ge4 O20'
_cell_volume   415.44870687
_cell_formula_units_Z   4
loop_
 _symmetry_equiv_pos_site_id
 _symmetry_equiv_pos_as_xyz
  1  'x, y, z'
loop_
 _atom_site_type_symbol
 _atom_site_label
 _atom_site_symmetry_multiplicity
 _atom_site_fract_x
 _atom_site_fract_y
 _atom_site_fract_z
 _atom_site_occupancy
  Li  Li0  1  0.55885100  0.70906000  0.74977500  1
  Li  Li1  1  0.44114900  0.29094000  0.25022500  1
  Li  Li2  1  0.05885100  0.79094000  0.25022500  1
  Li  Li3  1  0.94114900  0.20906000  0.74977500  1
  Ta  Ta4  1  0.74207700  0.00735400  0.25059000  1
  Ta  Ta5  1  0.24207700  0.49264600  0.74941000  1
  Ta  Ta6  1  0.75792300  0.50735400  0.25059000  1
  Ta  Ta7  1  0.25792300  0.99264600  0.74941000  1
  Ge  Ge8  1  0.88899700  0.75700100  0.74971400  1
  Ge  Ge9  1  0.61100300  0.25700100  0.74971400  1
  Ge  Ge10  1  0.11100300  0.24299900  0.25028600  1
  Ge  Ge11  1  0.38899700  0.74299900  0.25028600  1
  O  O12  1  0.48752900  0.44819500  0.74814700  1
  O  O13  1  0.98752900  0.05180500  0.25185300  1
  O  O14  1  0.98594500  0.43173200  0.25119100  1
  O  O15  1  0.25278100  0.34984700  0.05086900  1
  O  O16  1  0.68224100  0.25199600  0.24911500  1
  O  O17  1  0.01405500  0.56826800  0.74880900  1
  O  O18  1  0.81775900  0.75199600  0.24911500  1
  O  O19  1  0.31775900  0.74800400  0.75088500  1
  O  O20  1  0.75389500  0.34875600  0.55159100  1
  O  O21  1  0.51405500  0.93173200  0.25119100  1
  O  O22  1  0.48594500  0.06826800  0.74880900  1
  O  O23  1  0.24721900  0.84984700  0.05086900  1
  O  O24  1  0.01247100  0.94819500  0.74814700  1
  O  O25  1  0.18224100  0.24800400  0.75088500  1
  O  O26  1  0.25389500  0.15124400  0.44840900  1
  O  O27  1  0.75278100  0.15015300  0.94913100  1
  O  O28  1  0.51247100  0.55180500  0.25185300  1
  O  O29  1  0.74721900  0.65015300  0.94913100  1
  O  O30  1  0.24610500  0.65124400  0.44840900  1
  O  O31  1  0.74610500  0.84875600  0.55159100  1
