# generated using pymatgen
data_Na3InBi2
_symmetry_space_group_name_H-M   'P 1'
_cell_length_a   9.66402500
_cell_length_b   13.16199000
_cell_length_c   19.56803456
_cell_angle_alpha   80.91974729
_cell_angle_beta   90.00000000
_cell_angle_gamma   90.00000000
_symmetry_Int_Tables_number   1
_chemical_formula_structural   Na3InBi2
_chemical_formula_sum   'Na36 In12 Bi24'
_cell_volume   2457.81931133
_cell_formula_units_Z   12
loop_
 _symmetry_equiv_pos_site_id
 _symmetry_equiv_pos_as_xyz
  1  'x, y, z'
loop_
 _atom_site_type_symbol
 _atom_site_label
 _atom_site_symmetry_multiplicity
 _atom_site_fract_x
 _atom_site_fract_y
 _atom_site_fract_z
 _atom_site_occupancy
  Na  Na0  1  0.57370100  0.02038400  0.40896900  1
  Na  Na1  1  0.07370100  0.47961600  0.59103100  1
  Na  Na2  1  0.92749300  0.19128500  0.06955500  1
  Na  Na3  1  0.17851700  0.07171400  0.44813700  1
  Na  Na4  1  0.65392100  0.74274900  0.38801900  1
  Na  Na5  1  0.18337000  0.39005900  0.28552400  1
  Na  Na6  1  0.80980700  0.91454900  0.04998800  1
  Na  Na7  1  0.68337000  0.10994100  0.71447600  1
  Na  Na8  1  0.92629900  0.52038400  0.40896900  1
  Na  Na9  1  0.07250700  0.80871500  0.93044500  1
  Na  Na10  1  0.93114300  0.85110900  0.23731200  1
  Na  Na11  1  0.34607900  0.25725100  0.61198100  1
  Na  Na12  1  0.67373100  0.07458400  0.21832300  1
  Na  Na13  1  0.81260000  0.26604500  0.88059600  1
  Na  Na14  1  0.06885700  0.14889100  0.76268800  1
  Na  Na15  1  0.84607900  0.24274900  0.38801900  1
  Na  Na16  1  0.67851700  0.42828600  0.55186300  1
  Na  Na17  1  0.57250700  0.69128500  0.06955500  1
  Na  Na18  1  0.18740000  0.73395500  0.11940400  1
  Na  Na19  1  0.42629900  0.97961600  0.59103100  1
  Na  Na20  1  0.19019300  0.08545100  0.95001200  1
  Na  Na21  1  0.31260000  0.23395500  0.11940400  1
  Na  Na22  1  0.17373100  0.42541600  0.78167700  1
  Na  Na23  1  0.31663000  0.89005900  0.28552400  1
  Na  Na24  1  0.81663000  0.60994100  0.71447600  1
  Na  Na25  1  0.32626900  0.92541600  0.78167700  1
  Na  Na26  1  0.56885700  0.35110900  0.23731200  1
  Na  Na27  1  0.82626900  0.57458400  0.21832300  1
  Na  Na28  1  0.15392100  0.75725100  0.61198100  1
  Na  Na29  1  0.42749300  0.30871500  0.93044500  1
  Na  Na30  1  0.68740000  0.76604500  0.88059600  1
  Na  Na31  1  0.32148300  0.57171400  0.44813700  1
  Na  Na32  1  0.82148300  0.92828600  0.55186300  1
  Na  Na33  1  0.69019300  0.41454900  0.04998800  1
  Na  Na34  1  0.30980700  0.58545100  0.95001200  1
  Na  Na35  1  0.43114300  0.64889100  0.76268800  1
  In  In36  1  0.06693800  0.44952500  0.09395600  1
  In  In37  1  0.57732700  0.38572000  0.74860900  1
  In  In38  1  0.93306200  0.55047500  0.90604400  1
  In  In39  1  0.07732700  0.11428000  0.25139100  1
  In  In40  1  0.43374200  0.28369700  0.41716600  1
  In  In41  1  0.56625800  0.71630300  0.58283400  1
  In  In42  1  0.93374200  0.21630300  0.58283400  1
  In  In43  1  0.42267300  0.61428000  0.25139100  1
  In  In44  1  0.43306200  0.94952500  0.09395600  1
  In  In45  1  0.92267300  0.88572000  0.74860900  1
  In  In46  1  0.06625800  0.78369700  0.41716600  1
  In  In47  1  0.56693800  0.05047500  0.90604400  1
  Bi  Bi48  1  0.37745800  0.15355400  0.29621500  1
  Bi  Bi49  1  0.40282100  0.51491400  0.63292100  1
  Bi  Bi50  1  0.13311300  0.33033600  0.46917800  1
  Bi  Bi51  1  0.36688700  0.83033600  0.46917800  1
  Bi  Bi52  1  0.10171100  0.68895900  0.79251800  1
  Bi  Bi53  1  0.63311300  0.16966400  0.53082200  1
  Bi  Bi54  1  0.10344700  0.35435900  0.95732800  1
  Bi  Bi55  1  0.12254200  0.65355400  0.29621500  1
  Bi  Bi56  1  0.86688700  0.66966400  0.53082200  1
  Bi  Bi57  1  0.89655300  0.64564100  0.04267200  1
  Bi  Bi58  1  0.89828900  0.31104100  0.20748200  1
  Bi  Bi59  1  0.09717900  0.01491400  0.63292100  1
  Bi  Bi60  1  0.39828900  0.18895900  0.79251800  1
  Bi  Bi61  1  0.39655300  0.85435900  0.95732800  1
  Bi  Bi62  1  0.37066600  0.49644300  0.12423700  1
  Bi  Bi63  1  0.90282100  0.98508600  0.36707900  1
  Bi  Bi64  1  0.87745800  0.34644600  0.70378500  1
  Bi  Bi65  1  0.87066600  0.00355700  0.87576300  1
  Bi  Bi66  1  0.62933400  0.50355700  0.87576300  1
  Bi  Bi67  1  0.60344700  0.14564100  0.04267200  1
  Bi  Bi68  1  0.59717900  0.48508600  0.36707900  1
  Bi  Bi69  1  0.60171100  0.81104100  0.20748200  1
  Bi  Bi70  1  0.62254200  0.84644600  0.70378500  1
  Bi  Bi71  1  0.12933400  0.99644300  0.12423700  1
