# generated using pymatgen
data_NaSrFeF6
_symmetry_space_group_name_H-M   'P 1'
_cell_length_a   5.47359500
_cell_length_b   9.46797900
_cell_length_c   10.51844500
_cell_angle_alpha   90.00000000
_cell_angle_beta   90.00000000
_cell_angle_gamma   90.00000000
_symmetry_Int_Tables_number   1
_chemical_formula_structural   NaSrFeF6
_chemical_formula_sum   'Na4 Sr4 Fe4 F24'
_cell_volume   545.10665792
_cell_formula_units_Z   4
loop_
 _symmetry_equiv_pos_site_id
 _symmetry_equiv_pos_as_xyz
  1  'x, y, z'
loop_
 _atom_site_type_symbol
 _atom_site_label
 _atom_site_symmetry_multiplicity
 _atom_site_fract_x
 _atom_site_fract_y
 _atom_site_fract_z
 _atom_site_occupancy
  Na  Na0  1  0.04274400  0.64740700  0.08427300  1
  Na  Na1  1  0.54274400  0.85259300  0.91572700  1
  Na  Na2  1  0.45725600  0.35259300  0.58427300  1
  Na  Na3  1  0.95725600  0.14740700  0.41572700  1
  Sr  Sr4  1  0.49304000  0.81516100  0.32327000  1
  Sr  Sr5  1  0.50696000  0.31516100  0.17673000  1
  Sr  Sr6  1  0.00696000  0.18483900  0.82327000  1
  Sr  Sr7  1  0.99304000  0.68483900  0.67673000  1
  Fe  Fe8  1  0.03683700  0.00076000  0.12630300  1
  Fe  Fe9  1  0.53683700  0.49924000  0.87369700  1
  Fe  Fe10  1  0.96316300  0.50076000  0.37369700  1
  Fe  Fe11  1  0.46316300  0.99924000  0.62630300  1
  F  F12  1  0.21009200  0.62252900  0.29578900  1
  F  F13  1  0.14030000  0.49610700  0.53449400  1
  F  F14  1  0.78840500  0.64328900  0.91305300  1
  F  F15  1  0.71159500  0.35671100  0.41305300  1
  F  F16  1  0.85970000  0.99610700  0.96550600  1
  F  F17  1  0.78109600  0.65947700  0.45166400  1
  F  F18  1  0.34129800  0.66153400  0.81760300  1
  F  F19  1  0.15870200  0.33846600  0.31760300  1
  F  F20  1  0.64030000  0.00389300  0.46550600  1
  F  F21  1  0.35970000  0.50389300  0.03449400  1
  F  F22  1  0.21939200  0.02115300  0.28557300  1
  F  F23  1  0.28109600  0.84052300  0.54833600  1
  F  F24  1  0.21890400  0.15947700  0.04833600  1
  F  F25  1  0.78060800  0.52115300  0.21442700  1
  F  F26  1  0.71890400  0.34052300  0.95166400  1
  F  F27  1  0.28060800  0.97884700  0.78557300  1
  F  F28  1  0.71939200  0.47884700  0.71442700  1
  F  F29  1  0.78990800  0.12252900  0.20421100  1
  F  F30  1  0.21159500  0.14328900  0.58694700  1
  F  F31  1  0.28990800  0.37747100  0.79578900  1
  F  F32  1  0.28840500  0.85671100  0.08694700  1
  F  F33  1  0.71009200  0.87747100  0.70421100  1
  F  F34  1  0.65870200  0.16153400  0.68239700  1
  F  F35  1  0.84129800  0.83846600  0.18239700  1
