# generated using pymatgen
data_Rb2Nb3Cl7O5
_symmetry_space_group_name_H-M   'P 1'
_cell_length_a   9.75144006
_cell_length_b   9.75144006
_cell_length_c   11.32404034
_cell_angle_alpha   71.34652800
_cell_angle_beta   71.34652800
_cell_angle_gamma   55.20745878
_symmetry_Int_Tables_number   1
_chemical_formula_structural   Rb2Nb3Cl7O5
_chemical_formula_sum   'Rb4 Nb6 Cl14 O10'
_cell_volume   824.69428014
_cell_formula_units_Z   2
loop_
 _symmetry_equiv_pos_site_id
 _symmetry_equiv_pos_as_xyz
  1  'x, y, z'
loop_
 _atom_site_type_symbol
 _atom_site_label
 _atom_site_symmetry_multiplicity
 _atom_site_fract_x
 _atom_site_fract_y
 _atom_site_fract_z
 _atom_site_occupancy
  Rb  Rb0  1  0.83767200  0.75772700  0.85607400  1
  Rb  Rb1  1  0.16232800  0.24227300  0.14392600  1
  Rb  Rb2  1  0.24227300  0.16232800  0.64392600  1
  Rb  Rb3  1  0.75772700  0.83767200  0.35607400  1
  Nb  Nb4  1  0.46526700  0.53473300  0.75000000  1
  Nb  Nb5  1  0.21388600  0.79110200  0.02643000  1
  Nb  Nb6  1  0.20889800  0.78611400  0.47357000  1
  Nb  Nb7  1  0.79110200  0.21388600  0.52643000  1
  Nb  Nb8  1  0.53473300  0.46526700  0.25000000  1
  Nb  Nb9  1  0.78611400  0.20889800  0.97357000  1
  Cl  Cl10  1  0.93825300  0.36013000  0.87504100  1
  Cl  Cl11  1  0.06174700  0.63987000  0.12495900  1
  Cl  Cl12  1  0.57816100  0.71919400  0.66912400  1
  Cl  Cl13  1  0.09299800  0.90700200  0.25000000  1
  Cl  Cl14  1  0.36256000  0.94337100  0.95782100  1
  Cl  Cl15  1  0.05662900  0.63744000  0.54217900  1
  Cl  Cl16  1  0.94337100  0.36256000  0.45782100  1
  Cl  Cl17  1  0.71919400  0.57816100  0.16912400  1
  Cl  Cl18  1  0.42183900  0.28080600  0.33087600  1
  Cl  Cl19  1  0.36013000  0.93825300  0.37504100  1
  Cl  Cl20  1  0.90700200  0.09299800  0.75000000  1
  Cl  Cl21  1  0.63987000  0.06174700  0.62495900  1
  Cl  Cl22  1  0.28080600  0.42183900  0.83087600  1
  Cl  Cl23  1  0.63744000  0.05662900  0.04217900  1
  O  O24  1  0.71345600  0.28908400  0.37912800  1
  O  O25  1  0.60089800  0.39613200  0.87435900  1
  O  O26  1  0.39910200  0.60386800  0.12564100  1
  O  O27  1  0.71091600  0.28654400  0.12087200  1
  O  O28  1  0.28908400  0.71345600  0.87912900  1
  O  O29  1  0.00000000  0.00000000  0.00000000  1
  O  O30  1  0.28654400  0.71091600  0.62087200  1
  O  O31  1  0.39613200  0.60089800  0.37435900  1
  O  O32  1  0.60386800  0.39910200  0.62564100  1
  O  O33  1  0.00000000  0.00000000  0.50000000  1
