# generated using pymatgen
data_CsZnPO4
_symmetry_space_group_name_H-M   'P 1'
_cell_length_a   5.51492700
_cell_length_b   9.36537300
_cell_length_c   18.76988845
_cell_angle_alpha   89.62901953
_cell_angle_beta   90.00000000
_cell_angle_gamma   90.00000000
_symmetry_Int_Tables_number   1
_chemical_formula_structural   CsZnPO4
_chemical_formula_sum   'Cs8 Zn8 P8 O32'
_cell_volume   969.43218697
_cell_formula_units_Z   8
loop_
 _symmetry_equiv_pos_site_id
 _symmetry_equiv_pos_as_xyz
  1  'x, y, z'
loop_
 _atom_site_type_symbol
 _atom_site_label
 _atom_site_symmetry_multiplicity
 _atom_site_fract_x
 _atom_site_fract_y
 _atom_site_fract_z
 _atom_site_occupancy
  Cs  Cs0  1  0.24235100  0.79354800  0.00329300  1
  Cs  Cs1  1  0.25764900  0.79354800  0.50329300  1
  Cs  Cs2  1  0.28071200  0.68958900  0.74933900  1
  Cs  Cs3  1  0.78071200  0.31041100  0.75066100  1
  Cs  Cs4  1  0.71928800  0.31041100  0.25066100  1
  Cs  Cs5  1  0.74235100  0.20645200  0.49670700  1
  Cs  Cs6  1  0.21928800  0.68958900  0.24933900  1
  Cs  Cs7  1  0.75764900  0.20645200  0.99670700  1
  Zn  Zn8  1  0.78507200  0.91249400  0.66665600  1
  Zn  Zn9  1  0.21492800  0.08750600  0.33334400  1
  Zn  Zn10  1  0.71492800  0.91249400  0.16665600  1
  Zn  Zn11  1  0.25320900  0.41542100  0.08780000  1
  Zn  Zn12  1  0.75320900  0.58457900  0.41220000  1
  Zn  Zn13  1  0.74679100  0.58457900  0.91220000  1
  Zn  Zn14  1  0.28507200  0.08750600  0.83334400  1
  Zn  Zn15  1  0.24679100  0.41542100  0.58780000  1
  P  P16  1  0.25289300  0.41709400  0.40342700  1
  P  P17  1  0.71785800  0.90761000  0.34508400  1
  P  P18  1  0.21785800  0.09239000  0.15491600  1
  P  P19  1  0.24710700  0.41709400  0.90342700  1
  P  P20  1  0.78214200  0.90761000  0.84508400  1
  P  P21  1  0.74710700  0.58290600  0.59657300  1
  P  P22  1  0.75289300  0.58290600  0.09657300  1
  P  P23  1  0.28214200  0.09239000  0.65491600  1
  O  O24  1  0.26104000  0.14658500  0.73263800  1
  O  O25  1  0.18702700  0.21040300  0.60336700  1
  O  O26  1  0.75176600  0.56126600  0.51553800  1
  O  O27  1  0.74823400  0.56126600  0.01553800  1
  O  O28  1  0.81297300  0.78959700  0.39663300  1
  O  O29  1  0.81194300  0.74093400  0.11360000  1
  O  O30  1  0.23896000  0.14658500  0.23263800  1
  O  O31  1  0.45116400  0.51531500  0.36914200  1
  O  O32  1  0.31297300  0.21040300  0.10336700  1
  O  O33  1  0.99601800  0.54004100  0.63017900  1
  O  O34  1  0.04883600  0.51531500  0.86914200  1
  O  O35  1  0.55199100  0.05996300  0.63590500  1
  O  O36  1  0.12720000  0.95498800  0.64356400  1
  O  O37  1  0.68702700  0.78959700  0.89663300  1
  O  O38  1  0.76104000  0.85341500  0.76736200  1
  O  O39  1  0.44800900  0.94003700  0.36409500  1
  O  O40  1  0.00398200  0.45995900  0.36982100  1
  O  O41  1  0.54883600  0.48468500  0.63085800  1
  O  O42  1  0.95116400  0.48468500  0.13085800  1
  O  O43  1  0.25176600  0.43873400  0.98446200  1
  O  O44  1  0.73896000  0.85341500  0.26736200  1
  O  O45  1  0.37280000  0.95498800  0.14356400  1
  O  O46  1  0.18805700  0.25906600  0.88640000  1
  O  O47  1  0.62720000  0.04501200  0.85643600  1
  O  O48  1  0.24823400  0.43873400  0.48446200  1
  O  O49  1  0.05199100  0.94003700  0.86409500  1
  O  O50  1  0.31194300  0.25906600  0.38640000  1
  O  O51  1  0.49601800  0.45995900  0.86982100  1
  O  O52  1  0.68805700  0.74093400  0.61360000  1
  O  O53  1  0.87280000  0.04501200  0.35643600  1
  O  O54  1  0.50398200  0.54004100  0.13017900  1
  O  O55  1  0.94800900  0.05996300  0.13590500  1
