# generated using pymatgen
data_CrCdF6
_symmetry_space_group_name_H-M   'P 1'
_cell_length_a   5.67561756
_cell_length_b   5.67561756
_cell_length_c   5.67561725
_cell_angle_alpha   55.73532945
_cell_angle_beta   55.73532945
_cell_angle_gamma   55.73531846
_symmetry_Int_Tables_number   1
_chemical_formula_structural   CrCdF6
_chemical_formula_sum   'Cr1 Cd1 F6'
_cell_volume   116.49017572
_cell_formula_units_Z   1
loop_
 _symmetry_equiv_pos_site_id
 _symmetry_equiv_pos_as_xyz
  1  'x, y, z'
loop_
 _atom_site_type_symbol
 _atom_site_label
 _atom_site_symmetry_multiplicity
 _atom_site_fract_x
 _atom_site_fract_y
 _atom_site_fract_z
 _atom_site_occupancy
  Cr  Cr0  1  0.00000000  0.00000000  0.00000000  1
  Cd  Cd1  1  0.50000000  0.50000000  0.50000000  1
  F  F2  1  0.09082800  0.35325800  0.78227600  1
  F  F3  1  0.78227600  0.09082800  0.35325800  1
  F  F4  1  0.64674200  0.21772400  0.90917200  1
  F  F5  1  0.21772400  0.90917200  0.64674200  1
  F  F6  1  0.90917200  0.64674200  0.21772400  1
  F  F7  1  0.35325800  0.78227600  0.09082800  1
