# generated using pymatgen
data_Cs2Te13
_symmetry_space_group_name_H-M   'P 1'
_cell_length_a   7.39533500
_cell_length_b   14.11112000
_cell_length_c   23.45118100
_cell_angle_alpha   90.00000000
_cell_angle_beta   90.00000000
_cell_angle_gamma   90.00000000
_symmetry_Int_Tables_number   1
_chemical_formula_structural   Cs2Te13
_chemical_formula_sum   'Cs8 Te52'
_cell_volume   2447.28222319
_cell_formula_units_Z   4
loop_
 _symmetry_equiv_pos_site_id
 _symmetry_equiv_pos_as_xyz
  1  'x, y, z'
loop_
 _atom_site_type_symbol
 _atom_site_label
 _atom_site_symmetry_multiplicity
 _atom_site_fract_x
 _atom_site_fract_y
 _atom_site_fract_z
 _atom_site_occupancy
  Cs  Cs0  1  0.88551100  0.25000000  0.50000000  1
  Cs  Cs1  1  0.11448900  0.75000000  0.00000000  1
  Cs  Cs2  1  0.11448900  0.75000000  0.50000000  1
  Cs  Cs3  1  0.88551100  0.25000000  0.00000000  1
  Cs  Cs4  1  0.64298100  0.52579600  0.25000000  1
  Cs  Cs5  1  0.64298100  0.97420400  0.75000000  1
  Cs  Cs6  1  0.35701900  0.02579600  0.25000000  1
  Cs  Cs7  1  0.35701900  0.47420400  0.75000000  1
  Te  Te8  1  0.29602800  0.09596600  0.45206000  1
  Te  Te9  1  0.29602800  0.40403400  0.54794000  1
  Te  Te10  1  0.70397200  0.59596600  0.04794000  1
  Te  Te11  1  0.70397200  0.90403400  0.95206000  1
  Te  Te12  1  0.70397200  0.90403400  0.54794000  1
  Te  Te13  1  0.70397200  0.59596600  0.45206000  1
  Te  Te14  1  0.29602800  0.40403400  0.95206000  1
  Te  Te15  1  0.29602800  0.09596600  0.04794000  1
  Te  Te16  1  0.06523600  0.96571900  0.39781300  1
  Te  Te17  1  0.06523600  0.53428100  0.60218700  1
  Te  Te18  1  0.93476400  0.46571900  0.10218700  1
  Te  Te19  1  0.93476400  0.03428100  0.89781300  1
  Te  Te20  1  0.93476400  0.03428100  0.60218700  1
  Te  Te21  1  0.93476400  0.46571900  0.39781300  1
  Te  Te22  1  0.06523600  0.53428100  0.89781300  1
  Te  Te23  1  0.06523600  0.96571900  0.10218700  1
  Te  Te24  1  0.69286600  0.02810800  0.42890300  1
  Te  Te25  1  0.69286600  0.47189200  0.57109700  1
  Te  Te26  1  0.30713400  0.52810800  0.07109700  1
  Te  Te27  1  0.30713400  0.97189200  0.92890300  1
  Te  Te28  1  0.30713400  0.97189200  0.57109700  1
  Te  Te29  1  0.30713400  0.52810800  0.42890300  1
  Te  Te30  1  0.69286600  0.47189200  0.92890300  1
  Te  Te31  1  0.69286600  0.02810800  0.07109700  1
  Te  Te32  1  0.74153500  0.16716700  0.33540100  1
  Te  Te33  1  0.74153500  0.33283300  0.66459900  1
  Te  Te34  1  0.25846500  0.66716700  0.16459900  1
  Te  Te35  1  0.25846500  0.83283300  0.83540100  1
  Te  Te36  1  0.25846500  0.83283300  0.66459900  1
  Te  Te37  1  0.25846500  0.66716700  0.33540100  1
  Te  Te38  1  0.74153500  0.33283300  0.83540100  1
  Te  Te39  1  0.74153500  0.16716700  0.16459900  1
  Te  Te40  1  0.54538300  0.32492300  0.37249300  1
  Te  Te41  1  0.54538300  0.17507700  0.62750700  1
  Te  Te42  1  0.45461700  0.82492300  0.12750700  1
  Te  Te43  1  0.45461700  0.67507700  0.87249300  1
  Te  Te44  1  0.45461700  0.67507700  0.62750700  1
  Te  Te45  1  0.45461700  0.82492300  0.37249300  1
  Te  Te46  1  0.54538300  0.17507700  0.87249300  1
  Te  Te47  1  0.54538300  0.32492300  0.12750700  1
  Te  Te48  1  0.18906600  0.26122800  0.34522800  1
  Te  Te49  1  0.18906600  0.23877200  0.65477200  1
  Te  Te50  1  0.81093400  0.76122800  0.15477200  1
  Te  Te51  1  0.81093400  0.73877200  0.84522800  1
  Te  Te52  1  0.81093400  0.73877200  0.65477200  1
  Te  Te53  1  0.81093400  0.76122800  0.34522800  1
  Te  Te54  1  0.18906600  0.23877200  0.84522800  1
  Te  Te55  1  0.18906600  0.26122800  0.15477200  1
  Te  Te56  1  0.11049600  0.37745100  0.25000000  1
  Te  Te57  1  0.11049600  0.12254900  0.75000000  1
  Te  Te58  1  0.88950400  0.87745100  0.25000000  1
  Te  Te59  1  0.88950400  0.62254900  0.75000000  1
