# generated using pymatgen
data_NbPO5
_symmetry_space_group_name_H-M   'P 1'
_cell_length_a   5.44111700
_cell_length_b   6.81240100
_cell_length_c   11.47289500
_cell_angle_alpha   90.00000000
_cell_angle_beta   90.00000000
_cell_angle_gamma   90.00000000
_symmetry_Int_Tables_number   1
_chemical_formula_structural   NbPO5
_chemical_formula_sum   'Nb4 P4 O20'
_cell_volume   425.26661230
_cell_formula_units_Z   4
loop_
 _symmetry_equiv_pos_site_id
 _symmetry_equiv_pos_as_xyz
  1  'x, y, z'
loop_
 _atom_site_type_symbol
 _atom_site_label
 _atom_site_symmetry_multiplicity
 _atom_site_fract_x
 _atom_site_fract_y
 _atom_site_fract_z
 _atom_site_occupancy
  Nb  Nb0  1  0.25000000  0.16887100  0.93707000  1
  Nb  Nb1  1  0.75000000  0.83112900  0.06293000  1
  Nb  Nb2  1  0.75000000  0.66887100  0.56293000  1
  Nb  Nb3  1  0.25000000  0.33112900  0.43707000  1
  P  P4  1  0.25000000  0.97239800  0.65378400  1
  P  P5  1  0.75000000  0.02760200  0.34621600  1
  P  P6  1  0.75000000  0.47239800  0.84621600  1
  P  P7  1  0.25000000  0.52760200  0.15378400  1
  O  O8  1  0.25000000  0.03030200  0.78426200  1
  O  O9  1  0.75000000  0.96969800  0.21573800  1
  O  O10  1  0.75000000  0.53030200  0.71573800  1
  O  O11  1  0.25000000  0.46969800  0.28426200  1
  O  O12  1  0.51691200  0.14604200  0.37181400  1
  O  O13  1  0.01691200  0.85395800  0.62818600  1
  O  O14  1  0.48308800  0.64604200  0.12818600  1
  O  O15  1  0.98308800  0.35395800  0.87181400  1
  O  O16  1  0.00000000  0.00000000  0.00000000  1
  O  O17  1  0.50000000  0.00000000  0.00000000  1
  O  O18  1  0.00000000  0.50000000  0.50000000  1
  O  O19  1  0.50000000  0.50000000  0.50000000  1
  O  O20  1  0.25000000  0.33613800  0.08136700  1
  O  O21  1  0.75000000  0.66386200  0.91863300  1
  O  O22  1  0.75000000  0.83613800  0.41863300  1
  O  O23  1  0.25000000  0.16386200  0.58136700  1
  O  O24  1  0.01691200  0.64604200  0.12818600  1
  O  O25  1  0.51691200  0.35395800  0.87181400  1
  O  O26  1  0.98308800  0.14604200  0.37181400  1
  O  O27  1  0.48308800  0.85395800  0.62818600  1
