# generated using pymatgen
data_Pd(Se4Cl)2
_symmetry_space_group_name_H-M   'P 1'
_cell_length_a   9.21511000
_cell_length_b   10.26084800
_cell_length_c   14.46839900
_cell_angle_alpha   90.00000000
_cell_angle_beta   90.00000000
_cell_angle_gamma   90.00000000
_symmetry_Int_Tables_number   1
_chemical_formula_structural   Pd(Se4Cl)2
_chemical_formula_sum   'Pd4 Se32 Cl8'
_cell_volume   1368.05719610
_cell_formula_units_Z   4
loop_
 _symmetry_equiv_pos_site_id
 _symmetry_equiv_pos_as_xyz
  1  'x, y, z'
loop_
 _atom_site_type_symbol
 _atom_site_label
 _atom_site_symmetry_multiplicity
 _atom_site_fract_x
 _atom_site_fract_y
 _atom_site_fract_z
 _atom_site_occupancy
  Pd  Pd0  1  0.50000000  0.00000000  0.00000000  1
  Pd  Pd1  1  0.50000000  0.50000000  0.50000000  1
  Pd  Pd2  1  0.00000000  0.50000000  0.00000000  1
  Pd  Pd3  1  0.00000000  0.00000000  0.50000000  1
  Se  Se4  1  0.30517500  0.03096300  0.88659200  1
  Se  Se5  1  0.13022400  0.15373200  0.97290100  1
  Se  Se6  1  0.92320900  0.62292200  0.62247600  1
  Se  Se7  1  0.19482500  0.53096300  0.11340800  1
  Se  Se8  1  0.57679100  0.12292200  0.37752400  1
  Se  Se9  1  0.86977600  0.84626800  0.02709900  1
  Se  Se10  1  0.36977600  0.65373200  0.02709900  1
  Se  Se11  1  0.69482500  0.96903700  0.11340800  1
  Se  Se12  1  0.08777400  0.19424900  0.28235300  1
  Se  Se13  1  0.19482500  0.03096300  0.38659200  1
  Se  Se14  1  0.92320900  0.12292200  0.87752400  1
  Se  Se15  1  0.30517500  0.53096300  0.61340800  1
  Se  Se16  1  0.91222600  0.80575100  0.71764700  1
  Se  Se17  1  0.63022400  0.34626800  0.97290100  1
  Se  Se18  1  0.41222600  0.19424900  0.78235300  1
  Se  Se19  1  0.86977600  0.34626800  0.47290100  1
  Se  Se20  1  0.80517500  0.96903700  0.61340800  1
  Se  Se21  1  0.41222600  0.69424900  0.71764700  1
  Se  Se22  1  0.91222600  0.30575100  0.78235300  1
  Se  Se23  1  0.07679100  0.37707800  0.37752400  1
  Se  Se24  1  0.42320900  0.87707800  0.62247600  1
  Se  Se25  1  0.57679100  0.62292200  0.12247600  1
  Se  Se26  1  0.69482500  0.46903700  0.38659200  1
  Se  Se27  1  0.58777400  0.30575100  0.28235300  1
  Se  Se28  1  0.42320900  0.37707800  0.87752400  1
  Se  Se29  1  0.08777400  0.69424900  0.21764700  1
  Se  Se30  1  0.07679100  0.87707800  0.12247600  1
  Se  Se31  1  0.36977600  0.15373200  0.47290100  1
  Se  Se32  1  0.13022400  0.65373200  0.52709900  1
  Se  Se33  1  0.80517500  0.46903700  0.88659200  1
  Se  Se34  1  0.63022400  0.84626800  0.52709900  1
  Se  Se35  1  0.58777400  0.80575100  0.21764700  1
  Cl  Cl36  1  0.90877500  0.34452100  0.10248700  1
  Cl  Cl37  1  0.90877500  0.84452100  0.39751300  1
  Cl  Cl38  1  0.09122500  0.15547900  0.60248700  1
  Cl  Cl39  1  0.40877500  0.15547900  0.10248700  1
  Cl  Cl40  1  0.59122500  0.34452100  0.60248700  1
  Cl  Cl41  1  0.09122500  0.65547900  0.89751300  1
  Cl  Cl42  1  0.40877500  0.65547900  0.39751300  1
  Cl  Cl43  1  0.59122500  0.84452100  0.89751300  1
