# generated using pymatgen
data_K3Nb3(BO6)2
_symmetry_space_group_name_H-M   'P 1'
_cell_length_a   8.91678360
_cell_length_b   8.91678360
_cell_length_c   4.03286500
_cell_angle_alpha   90.00000000
_cell_angle_beta   90.00000000
_cell_angle_gamma   119.99999702
_symmetry_Int_Tables_number   1
_chemical_formula_structural   K3Nb3(BO6)2
_chemical_formula_sum   'K3 Nb3 B2 O12'
_cell_volume   277.69034670
_cell_formula_units_Z   1
loop_
 _symmetry_equiv_pos_site_id
 _symmetry_equiv_pos_as_xyz
  1  'x, y, z'
loop_
 _atom_site_type_symbol
 _atom_site_label
 _atom_site_symmetry_multiplicity
 _atom_site_fract_x
 _atom_site_fract_y
 _atom_site_fract_z
 _atom_site_occupancy
  K  K0  1  0.00000000  0.59660700  0.49833900  1
  K  K1  1  0.59660700  0.00000000  0.49833900  1
  K  K2  1  0.40339300  0.40339300  0.49833900  1
  Nb  Nb3  1  0.24714900  0.00000000  0.02011100  1
  Nb  Nb4  1  0.75285100  0.75285100  0.02011100  1
  Nb  Nb5  1  0.00000000  0.24714900  0.02011100  1
  B  B6  1  0.33333300  0.66666700  0.98223900  1
  B  B7  1  0.66666700  0.33333300  0.98223900  1
  O  O8  1  0.26230100  0.00000000  0.48144500  1
  O  O9  1  0.31637000  0.81194300  0.98178400  1
  O  O10  1  0.18805700  0.50442800  0.98178400  1
  O  O11  1  0.82090800  0.00000000  0.98634500  1
  O  O12  1  0.81194300  0.31637000  0.98178400  1
  O  O13  1  0.49557200  0.68363000  0.98178400  1
  O  O14  1  0.00000000  0.82090800  0.98634500  1
  O  O15  1  0.17909200  0.17909200  0.98634500  1
  O  O16  1  0.68363000  0.49557200  0.98178400  1
  O  O17  1  0.73769900  0.73769900  0.48144500  1
  O  O18  1  0.50442800  0.18805700  0.98178400  1
  O  O19  1  0.00000000  0.26230100  0.48144500  1
