# generated using pymatgen
data_Er10W2O21
_symmetry_space_group_name_H-M   'P 1'
_cell_length_a   10.52108800
_cell_length_b   10.60351200
_cell_length_c   15.90663900
_cell_angle_alpha   90.00000000
_cell_angle_beta   90.00000000
_cell_angle_gamma   90.00000000
_symmetry_Int_Tables_number   1
_chemical_formula_structural   Er10W2O21
_chemical_formula_sum   'Er40 W8 O84'
_cell_volume   1774.55232754
_cell_formula_units_Z   4
loop_
 _symmetry_equiv_pos_site_id
 _symmetry_equiv_pos_as_xyz
  1  'x, y, z'
loop_
 _atom_site_type_symbol
 _atom_site_label
 _atom_site_symmetry_multiplicity
 _atom_site_fract_x
 _atom_site_fract_y
 _atom_site_fract_z
 _atom_site_occupancy
  Er  Er0  1  0.74835900  0.62605100  0.27187700  1
  Er  Er1  1  0.48608100  0.85788300  0.24299600  1
  Er  Er2  1  0.48608100  0.64211700  0.75700400  1
  Er  Er3  1  0.47896600  0.39037600  0.91042600  1
  Er  Er4  1  0.24998700  0.34218800  0.09947400  1
  Er  Er5  1  0.25001300  0.84218800  0.40052600  1
  Er  Er6  1  0.75001300  0.65781200  0.90052600  1
  Er  Er7  1  0.47896600  0.10962400  0.08957400  1
  Er  Er8  1  0.48879400  0.36488900  0.58050900  1
  Er  Er9  1  0.52103400  0.60962400  0.08957400  1
  Er  Er10  1  0.01120600  0.86488900  0.91949100  1
  Er  Er11  1  0.52103400  0.89037600  0.91042600  1
  Er  Er12  1  0.25164100  0.12605100  0.27187700  1
  Er  Er13  1  0.25164100  0.37394900  0.72812300  1
  Er  Er14  1  0.01120600  0.63511100  0.08050900  1
  Er  Er15  1  0.51391900  0.35788300  0.24299600  1
  Er  Er16  1  0.97896600  0.10962400  0.41042600  1
  Er  Er17  1  0.75001300  0.84218800  0.09947400  1
  Er  Er18  1  0.24998700  0.15781200  0.90052600  1
  Er  Er19  1  0.51120600  0.86488900  0.58050900  1
  Er  Er20  1  0.98608100  0.85788300  0.25700400  1
  Er  Er21  1  0.74998700  0.15781200  0.59947400  1
  Er  Er22  1  0.02103400  0.89037600  0.58957400  1
  Er  Er23  1  0.51120600  0.63511100  0.41949100  1
  Er  Er24  1  0.75164100  0.37394900  0.77187700  1
  Er  Er25  1  0.97896600  0.39037600  0.58957400  1
  Er  Er26  1  0.74835900  0.87394900  0.72812300  1
  Er  Er27  1  0.98879400  0.13511100  0.08050900  1
  Er  Er28  1  0.02103400  0.60962400  0.41042600  1
  Er  Er29  1  0.74998700  0.34218800  0.40052600  1
  Er  Er30  1  0.25001300  0.65781200  0.59947400  1
  Er  Er31  1  0.51391900  0.14211700  0.75700400  1
  Er  Er32  1  0.98608100  0.64211700  0.74299600  1
  Er  Er33  1  0.01391900  0.35788300  0.25700400  1
  Er  Er34  1  0.98879400  0.36488900  0.91949100  1
  Er  Er35  1  0.24835900  0.87394900  0.77187700  1
  Er  Er36  1  0.75164100  0.12605100  0.22812300  1
  Er  Er37  1  0.48879400  0.13511100  0.41949100  1
  Er  Er38  1  0.24835900  0.62605100  0.22812300  1
  Er  Er39  1  0.01391900  0.14211700  0.74299600  1
  W  W40  1  0.24840400  0.12323100  0.58595900  1
  W  W41  1  0.75159600  0.87676900  0.41404100  1
  W  W42  1  0.74840400  0.37676900  0.08595900  1
  W  W43  1  0.24840400  0.37676900  0.41404100  1
  W  W44  1  0.25159600  0.62323100  0.91404100  1
  W  W45  1  0.74840400  0.12323100  0.91404100  1
  W  W46  1  0.75159600  0.62323100  0.58595900  1
  W  W47  1  0.25159600  0.87676900  0.08595900  1
  O  O48  1  0.61327300  0.25000000  0.50000000  1
  O  O49  1  0.18653300  0.01639600  0.67181500  1
  O  O50  1  0.89293700  0.48979100  0.32905500  1
  O  O51  1  0.12878600  0.78503200  0.15777900  1
  O  O52  1  0.39293700  0.48979100  0.17094500  1
  O  O53  1  0.12183300  0.72861200  0.32115100  1
  O  O54  1  0.62183300  0.77138800  0.82115100  1
  O  O55  1  0.37112700  0.74950900  0.13351800  1
  O  O56  1  0.87721400  0.55497400  0.51219300  1
  O  O57  1  0.10706300  0.51020900  0.67094500  1
  O  O58  1  0.87112700  0.74950900  0.36648200  1
  O  O59  1  0.12887300  0.25049100  0.63351800  1
  O  O60  1  0.37112700  0.75049100  0.86648200  1
  O  O61  1  0.31346700  0.51639600  0.82818500  1
  O  O62  1  0.87931200  0.47947900  0.04188400  1
  O  O63  1  0.62068800  0.97947900  0.45811600  1
  O  O64  1  0.12034000  0.28566800  0.82241600  1
  O  O65  1  0.87966000  0.78566800  0.82241600  1
  O  O66  1  0.38535000  0.99263000  0.34206300  1
  O  O67  1  0.38672700  0.75000000  0.50000000  1
  O  O68  1  0.60706300  0.98979100  0.17094500  1
  O  O69  1  0.37931200  0.47947900  0.45811600  1
  O  O70  1  0.18793700  0.75000000  0.00000000  1
  O  O71  1  0.68653300  0.01639600  0.82818500  1
  O  O72  1  0.12068800  0.97947900  0.04188400  1
  O  O73  1  0.87121400  0.21496800  0.84222100  1
  O  O74  1  0.37121400  0.21496800  0.65777900  1
  O  O75  1  0.18653300  0.48360400  0.32818500  1
  O  O76  1  0.12034000  0.21433200  0.17758400  1
  O  O77  1  0.37816700  0.27138800  0.82115100  1
  O  O78  1  0.12878600  0.71496800  0.84222100  1
  O  O79  1  0.10706300  0.98979100  0.32905500  1
  O  O80  1  0.37931200  0.02052100  0.54188400  1
  O  O81  1  0.62068800  0.52052100  0.54188400  1
  O  O82  1  0.39293700  0.01020900  0.82905500  1
  O  O83  1  0.37721400  0.55497400  0.98780700  1
  O  O84  1  0.87966000  0.71433200  0.17758400  1
  O  O85  1  0.61465000  0.00737000  0.65793700  1
  O  O86  1  0.68793700  0.75000000  0.50000000  1
  O  O87  1  0.31206300  0.25000000  0.50000000  1
  O  O88  1  0.87121400  0.28503200  0.15777900  1
  O  O89  1  0.11465000  0.00737000  0.84206300  1
  O  O90  1  0.38535000  0.50737000  0.65793700  1
  O  O91  1  0.81346700  0.51639600  0.67181500  1
  O  O92  1  0.87112700  0.75049100  0.63351800  1
  O  O93  1  0.89293700  0.01020900  0.67094500  1
  O  O94  1  0.62278600  0.44502600  0.01219300  1
  O  O95  1  0.88076100  0.25000000  0.50000000  1
  O  O96  1  0.12068800  0.52052100  0.95811600  1
  O  O97  1  0.81206300  0.25000000  0.00000000  1
  O  O98  1  0.37966000  0.78566800  0.67758400  1
  O  O99  1  0.62887300  0.25049100  0.86648200  1
  O  O100  1  0.61465000  0.49263000  0.34206300  1
  O  O101  1  0.87721400  0.94502600  0.48780700  1
  O  O102  1  0.12887300  0.24950900  0.36648200  1
  O  O103  1  0.11465000  0.49263000  0.15793700  1
  O  O104  1  0.12183300  0.77138800  0.67884900  1
  O  O105  1  0.68653300  0.48360400  0.17181500  1
  O  O106  1  0.62034000  0.28566800  0.67758400  1
  O  O107  1  0.81346700  0.98360400  0.32818500  1
  O  O108  1  0.88672700  0.75000000  0.00000000  1
  O  O109  1  0.37816700  0.22861200  0.17884900  1
  O  O110  1  0.37121400  0.28503200  0.34222100  1
  O  O111  1  0.88535000  0.50737000  0.84206300  1
  O  O112  1  0.87931200  0.02052100  0.95811600  1
  O  O113  1  0.12278600  0.05497400  0.51219300  1
  O  O114  1  0.37721400  0.94502600  0.01219300  1
  O  O115  1  0.88535000  0.99263000  0.15793700  1
  O  O116  1  0.62183300  0.72861200  0.17884900  1
  O  O117  1  0.87816700  0.22861200  0.32115100  1
  O  O118  1  0.62278600  0.05497400  0.98780700  1
  O  O119  1  0.60706300  0.51020900  0.82905500  1
  O  O120  1  0.11327300  0.25000000  0.00000000  1
  O  O121  1  0.61923900  0.75000000  0.00000000  1
  O  O122  1  0.62034000  0.21433200  0.32241600  1
  O  O123  1  0.37966000  0.71433200  0.32241600  1
  O  O124  1  0.87816700  0.27138800  0.67884900  1
  O  O125  1  0.12278600  0.44502600  0.48780700  1
  O  O126  1  0.11923900  0.75000000  0.50000000  1
  O  O127  1  0.31346700  0.98360400  0.17181500  1
  O  O128  1  0.38076100  0.25000000  0.00000000  1
  O  O129  1  0.62878600  0.78503200  0.34222100  1
  O  O130  1  0.62878600  0.71496800  0.65777900  1
  O  O131  1  0.62887300  0.24950900  0.13351800  1
