# generated using pymatgen
data_MgUB2O7
_symmetry_space_group_name_H-M   'P 1'
_cell_length_a   7.39399200
_cell_length_b   8.02298800
_cell_length_c   9.87627700
_cell_angle_alpha   90.00000000
_cell_angle_beta   90.00000000
_cell_angle_gamma   90.00000000
_symmetry_Int_Tables_number   1
_chemical_formula_structural   MgUB2O7
_chemical_formula_sum   'Mg4 U4 B8 O28'
_cell_volume   585.87960632
_cell_formula_units_Z   4
loop_
 _symmetry_equiv_pos_site_id
 _symmetry_equiv_pos_as_xyz
  1  'x, y, z'
loop_
 _atom_site_type_symbol
 _atom_site_label
 _atom_site_symmetry_multiplicity
 _atom_site_fract_x
 _atom_site_fract_y
 _atom_site_fract_z
 _atom_site_occupancy
  Mg  Mg0  1  0.23443700  0.75000000  0.45204500  1
  Mg  Mg1  1  0.76556300  0.75000000  0.95204500  1
  Mg  Mg2  1  0.23443700  0.25000000  0.04795500  1
  Mg  Mg3  1  0.76556300  0.25000000  0.54795500  1
  U  U4  1  0.22434400  0.25000000  0.44783200  1
  U  U5  1  0.77565600  0.75000000  0.55216800  1
  U  U6  1  0.77565600  0.25000000  0.94783200  1
  U  U7  1  0.22434400  0.75000000  0.05216800  1
  B  B8  1  0.87178000  0.25000000  0.24118200  1
  B  B9  1  0.12822000  0.75000000  0.75881800  1
  B  B10  1  0.53155700  0.75000000  0.21234300  1
  B  B11  1  0.53155700  0.25000000  0.28765700  1
  B  B12  1  0.12822000  0.25000000  0.74118200  1
  B  B13  1  0.46844300  0.25000000  0.78765700  1
  B  B14  1  0.46844300  0.75000000  0.71234300  1
  B  B15  1  0.87178000  0.75000000  0.25881800  1
  O  O16  1  0.54296500  0.75000000  0.07405300  1
  O  O17  1  0.07254500  0.25000000  0.87142100  1
  O  O18  1  0.36092900  0.25000000  0.23361100  1
  O  O19  1  0.77168900  0.02076900  0.95107900  1
  O  O20  1  0.22831100  0.52076900  0.04892100  1
  O  O21  1  0.77168900  0.47923100  0.95107900  1
  O  O22  1  0.68464500  0.75000000  0.29716600  1
  O  O23  1  0.22831100  0.02076900  0.45107900  1
  O  O24  1  0.92745500  0.75000000  0.12857900  1
  O  O25  1  0.45703500  0.75000000  0.57405300  1
  O  O26  1  0.02012000  0.75000000  0.86983500  1
  O  O27  1  0.97988000  0.25000000  0.13016500  1
  O  O28  1  0.63907100  0.75000000  0.76638900  1
  O  O29  1  0.97988000  0.75000000  0.36983500  1
  O  O30  1  0.31535500  0.25000000  0.70283400  1
  O  O31  1  0.77168900  0.97923100  0.54892100  1
  O  O32  1  0.92745500  0.25000000  0.37142100  1
  O  O33  1  0.22831100  0.97923100  0.04892100  1
  O  O34  1  0.45703500  0.25000000  0.92594700  1
  O  O35  1  0.22831100  0.47923100  0.45107900  1
  O  O36  1  0.68464500  0.25000000  0.20283400  1
  O  O37  1  0.63907100  0.25000000  0.73361100  1
  O  O38  1  0.02012000  0.25000000  0.63016500  1
  O  O39  1  0.77168900  0.52076900  0.54892100  1
  O  O40  1  0.07254500  0.75000000  0.62857900  1
  O  O41  1  0.31535500  0.75000000  0.79716600  1
  O  O42  1  0.54296500  0.25000000  0.42594700  1
  O  O43  1  0.36092900  0.75000000  0.26638900  1
