# generated using pymatgen
data_Tl2SeO4
_symmetry_space_group_name_H-M   'P 1'
_cell_length_a   6.43887000
_cell_length_b   8.09823200
_cell_length_c   10.92421600
_cell_angle_alpha   90.00000000
_cell_angle_beta   90.00000000
_cell_angle_gamma   90.00000000
_symmetry_Int_Tables_number   1
_chemical_formula_structural   Tl2SeO4
_chemical_formula_sum   'Tl8 Se4 O16'
_cell_volume   569.62645365
_cell_formula_units_Z   4
loop_
 _symmetry_equiv_pos_site_id
 _symmetry_equiv_pos_as_xyz
  1  'x, y, z'
loop_
 _atom_site_type_symbol
 _atom_site_label
 _atom_site_symmetry_multiplicity
 _atom_site_fract_x
 _atom_site_fract_y
 _atom_site_fract_z
 _atom_site_occupancy
  Tl  Tl0  1  0.47546900  0.74445400  0.28878400  1
  Tl  Tl1  1  0.97546900  0.75554600  0.71121600  1
  Tl  Tl2  1  0.97164900  0.92644400  0.08149500  1
  Tl  Tl3  1  0.02453100  0.25554600  0.78878400  1
  Tl  Tl4  1  0.52835100  0.07355600  0.58149500  1
  Tl  Tl5  1  0.52453100  0.24445400  0.21121600  1
  Tl  Tl6  1  0.02835100  0.42644400  0.41850500  1
  Tl  Tl7  1  0.47164900  0.57355600  0.91850500  1
  Se  Se8  1  0.98986100  0.45504400  0.08350100  1
  Se  Se9  1  0.48986100  0.04495600  0.91649900  1
  Se  Se10  1  0.01013900  0.95504400  0.41649900  1
  Se  Se11  1  0.51013900  0.54495600  0.58350100  1
  O  O12  1  0.42796300  0.24268700  0.94534500  1
  O  O13  1  0.30292200  0.53018600  0.67731100  1
  O  O14  1  0.45254600  0.45071000  0.44968700  1
  O  O15  1  0.69707800  0.03018600  0.82268900  1
  O  O16  1  0.21470700  0.04794100  0.35031900  1
  O  O17  1  0.04745400  0.54929000  0.94968700  1
  O  O18  1  0.07203700  0.75731300  0.44534500  1
  O  O19  1  0.54745400  0.95071000  0.05031300  1
  O  O20  1  0.19707800  0.46981400  0.17731100  1
  O  O21  1  0.80292200  0.96981400  0.32268900  1
  O  O22  1  0.28529300  0.95205900  0.85031900  1
  O  O23  1  0.92796300  0.25731300  0.05465500  1
  O  O24  1  0.71470700  0.45205900  0.64968100  1
  O  O25  1  0.57203700  0.74268700  0.55465500  1
  O  O26  1  0.95254600  0.04929000  0.55031300  1
  O  O27  1  0.78529300  0.54794100  0.14968100  1
