# generated using pymatgen
data_ZrI4
_symmetry_space_group_name_H-M   'P 1'
_cell_length_a   8.85204700
_cell_length_b   8.94014600
_cell_length_c   18.54825439
_cell_angle_alpha   77.30195474
_cell_angle_beta   90.00000000
_cell_angle_gamma   90.00000000
_symmetry_Int_Tables_number   1
_chemical_formula_structural   ZrI4
_chemical_formula_sum   'Zr6 I24'
_cell_volume   1431.98133555
_cell_formula_units_Z   6
loop_
 _symmetry_equiv_pos_site_id
 _symmetry_equiv_pos_as_xyz
  1  'x, y, z'
loop_
 _atom_site_type_symbol
 _atom_site_label
 _atom_site_symmetry_multiplicity
 _atom_site_fract_x
 _atom_site_fract_y
 _atom_site_fract_z
 _atom_site_occupancy
  Zr  Zr0  1  0.87880500  0.81026300  0.58248700  1
  Zr  Zr1  1  0.12119500  0.18973700  0.41751300  1
  Zr  Zr2  1  0.61030400  0.00000000  0.75000000  1
  Zr  Zr3  1  0.87880500  0.18973700  0.91751300  1
  Zr  Zr4  1  0.12119500  0.81026300  0.08248700  1
  Zr  Zr5  1  0.38969600  0.00000000  0.25000000  1
  I  I6  1  0.10859800  0.39682000  0.90763500  1
  I  I7  1  0.58912600  0.76403100  0.25854200  1
  I  I8  1  0.11684800  0.06554600  0.57579800  1
  I  I9  1  0.35775500  0.37946000  0.42780300  1
  I  I10  1  0.12614300  0.78006400  0.24145200  1
  I  I11  1  0.12614300  0.21993600  0.25854800  1
  I  I12  1  0.11684800  0.93445400  0.92420200  1
  I  I13  1  0.41087400  0.23596900  0.74145800  1
  I  I14  1  0.89140200  0.60318000  0.09236500  1
  I  I15  1  0.87385700  0.21993600  0.75854800  1
  I  I16  1  0.41087400  0.76403100  0.75854200  1
  I  I17  1  0.89140200  0.39682000  0.40763500  1
  I  I18  1  0.58912600  0.23596900  0.24145800  1
  I  I19  1  0.65916400  0.07201000  0.59139600  1
  I  I20  1  0.34083600  0.92799000  0.40860400  1
  I  I21  1  0.87385700  0.78006400  0.74145200  1
  I  I22  1  0.10859800  0.60318000  0.59236500  1
  I  I23  1  0.64224500  0.37946000  0.92780300  1
  I  I24  1  0.34083600  0.07201000  0.09139600  1
  I  I25  1  0.88315200  0.06554600  0.07579800  1
  I  I26  1  0.64224500  0.62054000  0.57219700  1
  I  I27  1  0.65916400  0.92799000  0.90860400  1
  I  I28  1  0.35775500  0.62054000  0.07219700  1
  I  I29  1  0.88315200  0.93445400  0.42420200  1
