# generated using pymatgen
data_Li7MnN4
_symmetry_space_group_name_H-M   'P 1'
_cell_length_a   9.57932900
_cell_length_b   9.57932900
_cell_length_c   9.57932900
_cell_angle_alpha   90.00000000
_cell_angle_beta   90.00000000
_cell_angle_gamma   90.00000000
_symmetry_Int_Tables_number   1
_chemical_formula_structural   Li7MnN4
_chemical_formula_sum   'Li56 Mn8 N32'
_cell_volume   879.03317905
_cell_formula_units_Z   8
loop_
 _symmetry_equiv_pos_site_id
 _symmetry_equiv_pos_as_xyz
  1  'x, y, z'
loop_
 _atom_site_type_symbol
 _atom_site_label
 _atom_site_symmetry_multiplicity
 _atom_site_fract_x
 _atom_site_fract_y
 _atom_site_fract_z
 _atom_site_occupancy
  Li  Li0  1  0.00000000  0.50000000  0.50000000  1
  Li  Li1  1  0.50000000  0.00000000  0.00000000  1
  Li  Li2  1  0.00000000  0.00000000  0.50000000  1
  Li  Li3  1  0.00000000  0.50000000  0.00000000  1
  Li  Li4  1  0.50000000  0.00000000  0.50000000  1
  Li  Li5  1  0.50000000  0.50000000  0.00000000  1
  Li  Li6  1  0.25000000  0.00000000  0.50000000  1
  Li  Li7  1  0.00000000  0.50000000  0.75000000  1
  Li  Li8  1  0.00000000  0.50000000  0.25000000  1
  Li  Li9  1  0.50000000  0.25000000  0.00000000  1
  Li  Li10  1  0.50000000  0.75000000  0.00000000  1
  Li  Li11  1  0.75000000  0.00000000  0.50000000  1
  Li  Li12  1  0.23203500  0.23203500  0.23203500  1
  Li  Li13  1  0.26796500  0.73203500  0.26796500  1
  Li  Li14  1  0.26796500  0.26796500  0.73203500  1
  Li  Li15  1  0.73203500  0.26796500  0.26796500  1
  Li  Li16  1  0.76796500  0.76796500  0.23203500  1
  Li  Li17  1  0.23203500  0.76796500  0.76796500  1
  Li  Li18  1  0.76796500  0.23203500  0.76796500  1
  Li  Li19  1  0.73203500  0.73203500  0.73203500  1
  Li  Li20  1  0.25108000  0.23882600  0.98171000  1
  Li  Li21  1  0.24892000  0.48171000  0.26117400  1
  Li  Li22  1  0.24892000  0.51829000  0.73882600  1
  Li  Li23  1  0.51829000  0.26117400  0.75108100  1
  Li  Li24  1  0.48171000  0.26117400  0.24892000  1
  Li  Li25  1  0.73882600  0.24892000  0.51829000  1
  Li  Li26  1  0.26117400  0.75108100  0.51829000  1
  Li  Li27  1  0.98171000  0.25108000  0.23882600  1
  Li  Li28  1  0.23882600  0.98171000  0.25108000  1
  Li  Li29  1  0.76117400  0.01829000  0.25108000  1
  Li  Li30  1  0.98171000  0.74891900  0.76117400  1
  Li  Li31  1  0.76117400  0.98171000  0.74891900  1
  Li  Li32  1  0.01829000  0.74891900  0.23882600  1
  Li  Li33  1  0.01829000  0.25108000  0.76117400  1
  Li  Li34  1  0.23882600  0.01829000  0.74891900  1
  Li  Li35  1  0.25108000  0.76117400  0.01829000  1
  Li  Li36  1  0.74891900  0.23882600  0.01829000  1
  Li  Li37  1  0.74891900  0.76117400  0.98171000  1
  Li  Li38  1  0.26117400  0.24892000  0.48171000  1
  Li  Li39  1  0.73882600  0.75108100  0.48171000  1
  Li  Li40  1  0.51829000  0.73882600  0.24892000  1
  Li  Li41  1  0.48171000  0.73882600  0.75108100  1
  Li  Li42  1  0.75108100  0.51829000  0.26117400  1
  Li  Li43  1  0.75108100  0.48171000  0.73882600  1
  Li  Li44  1  0.26265600  0.00000000  0.00000000  1
  Li  Li45  1  0.23734400  0.50000000  0.50000000  1
  Li  Li46  1  0.50000000  0.50000000  0.76265600  1
  Li  Li47  1  0.50000000  0.50000000  0.23734400  1
  Li  Li48  1  0.50000000  0.23734400  0.50000000  1
  Li  Li49  1  0.50000000  0.76265600  0.50000000  1
  Li  Li50  1  0.00000000  0.26265600  0.00000000  1
  Li  Li51  1  0.00000000  0.00000000  0.26265600  1
  Li  Li52  1  0.00000000  0.73734400  0.00000000  1
  Li  Li53  1  0.00000000  0.00000000  0.73734400  1
  Li  Li54  1  0.73734400  0.00000000  0.00000000  1
  Li  Li55  1  0.76265600  0.50000000  0.50000000  1
  Mn  Mn56  1  0.50000000  0.50000000  0.50000000  1
  Mn  Mn57  1  0.00000000  0.00000000  0.00000000  1
  Mn  Mn58  1  0.50000000  0.00000000  0.75000000  1
  Mn  Mn59  1  0.75000000  0.50000000  0.00000000  1
  Mn  Mn60  1  0.25000000  0.50000000  0.00000000  1
  Mn  Mn61  1  0.00000000  0.25000000  0.50000000  1
  Mn  Mn62  1  0.00000000  0.75000000  0.50000000  1
  Mn  Mn63  1  0.50000000  0.00000000  0.25000000  1
  N  N64  1  0.60945300  0.60945300  0.60945300  1
  N  N65  1  0.89054700  0.10945300  0.89054700  1
  N  N66  1  0.10945300  0.89054700  0.89054700  1
  N  N67  1  0.89054700  0.89054700  0.10945300  1
  N  N68  1  0.60945300  0.39054700  0.39054700  1
  N  N69  1  0.39054700  0.39054700  0.60945300  1
  N  N70  1  0.39054700  0.60945300  0.39054700  1
  N  N71  1  0.10945300  0.10945300  0.10945300  1
  N  N72  1  0.35642300  0.38313400  0.10675500  1
  N  N73  1  0.14357700  0.60675500  0.11686600  1
  N  N74  1  0.14357700  0.39324500  0.88313400  1
  N  N75  1  0.39324500  0.11686600  0.85642300  1
  N  N76  1  0.60675500  0.11686600  0.14357700  1
  N  N77  1  0.88313400  0.14357700  0.39324500  1
  N  N78  1  0.11686600  0.85642300  0.39324500  1
  N  N79  1  0.10675500  0.35642300  0.38313400  1
  N  N80  1  0.38313400  0.10675500  0.35642300  1
  N  N81  1  0.61686600  0.89324500  0.35642300  1
  N  N82  1  0.10675500  0.64357700  0.61686600  1
  N  N83  1  0.61686600  0.10675500  0.64357700  1
  N  N84  1  0.89324500  0.64357700  0.38313400  1
  N  N85  1  0.89324500  0.35642300  0.61686600  1
  N  N86  1  0.38313400  0.89324500  0.64357700  1
  N  N87  1  0.35642300  0.61686600  0.89324500  1
  N  N88  1  0.64357700  0.38313400  0.89324500  1
  N  N89  1  0.64357700  0.61686600  0.10675500  1
  N  N90  1  0.11686600  0.14357700  0.60675500  1
  N  N91  1  0.88313400  0.85642300  0.60675500  1
  N  N92  1  0.39324500  0.88313400  0.14357700  1
  N  N93  1  0.60675500  0.88313400  0.85642300  1
  N  N94  1  0.85642300  0.39324500  0.11686600  1
  N  N95  1  0.85642300  0.60675500  0.88313400  1
