# generated using pymatgen
data_Rb2(TcSe2)3
_symmetry_space_group_name_H-M   'P 1'
_cell_length_a   10.33360779
_cell_length_b   10.33360779
_cell_length_c   12.70026002
_cell_angle_alpha   88.78367130
_cell_angle_beta   88.78367130
_cell_angle_gamma   59.66772767
_symmetry_Int_Tables_number   1
_chemical_formula_structural   Rb2(TcSe2)3
_chemical_formula_sum   'Rb8 Tc12 Se24'
_cell_volume   1170.18159605
_cell_formula_units_Z   4
loop_
 _symmetry_equiv_pos_site_id
 _symmetry_equiv_pos_as_xyz
  1  'x, y, z'
loop_
 _atom_site_type_symbol
 _atom_site_label
 _atom_site_symmetry_multiplicity
 _atom_site_fract_x
 _atom_site_fract_y
 _atom_site_fract_z
 _atom_site_occupancy
  Rb  Rb0  1  0.61928600  0.38071400  0.25000000  1
  Rb  Rb1  1  0.38071400  0.61928600  0.75000000  1
  Rb  Rb2  1  0.21951800  0.78048200  0.25000000  1
  Rb  Rb3  1  0.78048200  0.21951800  0.75000000  1
  Rb  Rb4  1  0.36268300  0.86277200  0.98119500  1
  Rb  Rb5  1  0.13722800  0.63731700  0.51880500  1
  Rb  Rb6  1  0.63731700  0.13722800  0.01880500  1
  Rb  Rb7  1  0.86277200  0.36268300  0.48119500  1
  Tc  Tc8  1  0.68132000  0.99672200  0.47679500  1
  Tc  Tc9  1  0.00327800  0.31868000  0.02320500  1
  Tc  Tc10  1  0.31868000  0.00327800  0.52320500  1
  Tc  Tc11  1  0.99672200  0.68132000  0.97679500  1
  Tc  Tc12  1  0.53502400  0.88554900  0.37751600  1
  Tc  Tc13  1  0.11445100  0.46497600  0.12248400  1
  Tc  Tc14  1  0.46497600  0.11445100  0.62248400  1
  Tc  Tc15  1  0.88554900  0.53502400  0.87751600  1
  Tc  Tc16  1  0.39994300  0.17715700  0.41779900  1
  Tc  Tc17  1  0.82284300  0.60005700  0.08220100  1
  Tc  Tc18  1  0.60005700  0.82284300  0.58220100  1
  Tc  Tc19  1  0.17715700  0.39994300  0.91779900  1
  Se  Se20  1  0.73701400  0.93231200  0.66889900  1
  Se  Se21  1  0.06768800  0.26298600  0.83110100  1
  Se  Se22  1  0.26298600  0.06768800  0.33110100  1
  Se  Se23  1  0.93231200  0.73701400  0.16889900  1
  Se  Se24  1  0.27953700  0.20107500  0.06327100  1
  Se  Se25  1  0.79892500  0.72046300  0.43672900  1
  Se  Se26  1  0.72046300  0.79892500  0.93672900  1
  Se  Se27  1  0.20107500  0.27953700  0.56327100  1
  Se  Se28  1  0.38695700  0.94821000  0.71501100  1
  Se  Se29  1  0.05179000  0.61304300  0.78498900  1
  Se  Se30  1  0.61304300  0.05179000  0.28498900  1
  Se  Se31  1  0.94821000  0.38695700  0.21501100  1
  Se  Se32  1  0.45700300  0.72291500  0.48273800  1
  Se  Se33  1  0.27708500  0.54299700  0.01726200  1
  Se  Se34  1  0.54299700  0.27708500  0.51726200  1
  Se  Se35  1  0.72291500  0.45700300  0.98273800  1
  Se  Se36  1  0.00349700  0.92793700  0.92263000  1
  Se  Se37  1  0.07206300  0.99650300  0.57737000  1
  Se  Se38  1  0.99650300  0.07206300  0.07737000  1
  Se  Se39  1  0.92793700  0.00349700  0.42263000  1
  Se  Se40  1  0.57297800  0.73056100  0.20163700  1
  Se  Se41  1  0.26943900  0.42702200  0.29836300  1
  Se  Se42  1  0.42702200  0.26943900  0.79836300  1
  Se  Se43  1  0.73056100  0.57297800  0.70163700  1
