# generated using pymatgen
data_Tm2Ni12P7
_symmetry_space_group_name_H-M   'P 1'
_cell_length_a   9.01611420
_cell_length_b   9.01611420
_cell_length_c   3.66147300
_cell_angle_alpha   90.00000000
_cell_angle_beta   90.00000000
_cell_angle_gamma   120.00000148
_symmetry_Int_Tables_number   1
_chemical_formula_structural   Tm2Ni12P7
_chemical_formula_sum   'Tm2 Ni12 P7'
_cell_volume   257.76578453
_cell_formula_units_Z   1
loop_
 _symmetry_equiv_pos_site_id
 _symmetry_equiv_pos_as_xyz
  1  'x, y, z'
loop_
 _atom_site_type_symbol
 _atom_site_label
 _atom_site_symmetry_multiplicity
 _atom_site_fract_x
 _atom_site_fract_y
 _atom_site_fract_z
 _atom_site_occupancy
  Tm  Tm0  1  0.66666700  0.33333300  0.50000000  1
  Tm  Tm1  1  0.33333300  0.66666700  0.00000000  1
  Ni  Ni2  1  0.43510100  0.06095700  0.00000000  1
  Ni  Ni3  1  0.62585600  0.56489900  0.00000000  1
  Ni  Ni4  1  0.93904300  0.37414400  0.00000000  1
  Ni  Ni5  1  0.15310400  0.27522700  0.00000000  1
  Ni  Ni6  1  0.12212300  0.84689600  0.00000000  1
  Ni  Ni7  1  0.72477300  0.87787700  0.00000000  1
  Ni  Ni8  1  0.38233200  0.43182000  0.50000000  1
  Ni  Ni9  1  0.04948800  0.61766800  0.50000000  1
  Ni  Ni10  1  0.56818000  0.95051200  0.50000000  1
  Ni  Ni11  1  0.21768300  0.09459600  0.50000000  1
  Ni  Ni12  1  0.87691300  0.78231700  0.50000000  1
  Ni  Ni13  1  0.90540400  0.12308700  0.50000000  1
  P  P14  1  0.00000000  0.00000000  0.00000000  1
  P  P15  1  0.40819000  0.29318900  0.00000000  1
  P  P16  1  0.88500000  0.59181000  0.00000000  1
  P  P17  1  0.70681100  0.11500000  0.00000000  1
  P  P18  1  0.11268700  0.40675300  0.50000000  1
  P  P19  1  0.29406600  0.88731300  0.50000000  1
  P  P20  1  0.59324700  0.70593400  0.50000000  1
