# generated using pymatgen
data_MoPb3Cl2O5
_symmetry_space_group_name_H-M   'P 1'
_cell_length_a   7.26056698
_cell_length_b   7.26056698
_cell_length_c   11.21520200
_cell_angle_alpha   90.00000000
_cell_angle_beta   90.00000000
_cell_angle_gamma   133.88924206
_symmetry_Int_Tables_number   1
_chemical_formula_structural   MoPb3Cl2O5
_chemical_formula_sum   'Mo2 Pb6 Cl4 O10'
_cell_volume   426.08026737
_cell_formula_units_Z   2
loop_
 _symmetry_equiv_pos_site_id
 _symmetry_equiv_pos_as_xyz
  1  'x, y, z'
loop_
 _atom_site_type_symbol
 _atom_site_label
 _atom_site_symmetry_multiplicity
 _atom_site_fract_x
 _atom_site_fract_y
 _atom_site_fract_z
 _atom_site_occupancy
  Mo  Mo0  1  0.76584000  0.23416000  0.25000000  1
  Mo  Mo1  1  0.23416000  0.76584000  0.75000000  1
  Pb  Pb2  1  0.65258400  0.34741600  0.53125600  1
  Pb  Pb3  1  0.34741600  0.65258400  0.03125600  1
  Pb  Pb4  1  0.65258400  0.34741600  0.96874400  1
  Pb  Pb5  1  0.89835400  0.10164600  0.75000000  1
  Pb  Pb6  1  0.34741600  0.65258400  0.46874400  1
  Pb  Pb7  1  0.10164600  0.89835400  0.25000000  1
  Cl  Cl8  1  0.52202800  0.47797200  0.25000000  1
  Cl  Cl9  1  0.00000000  0.00000000  0.50000000  1
  Cl  Cl10  1  0.47797200  0.52202800  0.75000000  1
  Cl  Cl11  1  0.00000000  0.00000000  0.00000000  1
  O  O12  1  0.49592800  0.03703200  0.36940900  1
  O  O13  1  0.03703200  0.49592800  0.63059100  1
  O  O14  1  0.50407200  0.96296800  0.86940900  1
  O  O15  1  0.50407200  0.96296800  0.63059100  1
  O  O16  1  0.10515000  0.89485000  0.75000000  1
  O  O17  1  0.03703200  0.49592800  0.86940900  1
  O  O18  1  0.49592800  0.03703200  0.13059100  1
  O  O19  1  0.96296800  0.50407200  0.36940900  1
  O  O20  1  0.89485000  0.10515000  0.25000000  1
  O  O21  1  0.96296800  0.50407200  0.13059100  1
