# generated using pymatgen
data_Na2P2PbO7
_symmetry_space_group_name_H-M   'P 1'
_cell_length_a   5.59383800
_cell_length_b   7.02270570
_cell_length_c   9.53670085
_cell_angle_alpha   106.21143073
_cell_angle_beta   96.90996678
_cell_angle_gamma   108.53863097
_symmetry_Int_Tables_number   1
_chemical_formula_structural   Na2P2PbO7
_chemical_formula_sum   'Na4 P4 Pb2 O14'
_cell_volume   331.95935993
_cell_formula_units_Z   2
loop_
 _symmetry_equiv_pos_site_id
 _symmetry_equiv_pos_as_xyz
  1  'x, y, z'
loop_
 _atom_site_type_symbol
 _atom_site_label
 _atom_site_symmetry_multiplicity
 _atom_site_fract_x
 _atom_site_fract_y
 _atom_site_fract_z
 _atom_site_occupancy
  Na  Na0  1  0.34528300  0.63549300  0.77172200  1
  Na  Na1  1  0.09885600  0.28714700  0.99229000  1
  Na  Na2  1  0.90114400  0.71285300  0.00771000  1
  Na  Na3  1  0.65471700  0.36450700  0.22827800  1
  P  P4  1  0.47373100  0.86034200  0.15936100  1
  P  P5  1  0.75032400  0.36086300  0.64020000  1
  P  P6  1  0.24967600  0.63913700  0.35980000  1
  P  P7  1  0.52626900  0.13965800  0.84063900  1
  Pb  Pb8  1  0.86035700  0.86588100  0.62633900  1
  Pb  Pb9  1  0.13964300  0.13411900  0.37366100  1
  O  O10  1  0.34729800  0.68137300  0.52613500  1
  O  O11  1  0.50964000  0.20178200  0.68613600  1
  O  O12  1  0.01297900  0.69541200  0.32110500  1
  O  O13  1  0.24136000  0.02488900  0.83770800  1
  O  O14  1  0.32109000  0.01162600  0.17447100  1
  O  O15  1  0.65270200  0.31862700  0.47386500  1
  O  O16  1  0.78696800  0.59013000  0.73913100  1
  O  O17  1  0.33308700  0.65693500  0.02517400  1
  O  O18  1  0.49036000  0.79821800  0.31386400  1
  O  O19  1  0.66691300  0.34306500  0.97482600  1
  O  O20  1  0.98702100  0.30458800  0.67889500  1
  O  O21  1  0.75864000  0.97511100  0.16229200  1
  O  O22  1  0.21303200  0.40987000  0.26086900  1
  O  O23  1  0.67891000  0.98837400  0.82552900  1
