# generated using pymatgen
data_K2TeClF5
_symmetry_space_group_name_H-M   'P 1'
_cell_length_a   10.75689800
_cell_length_b   4.69917400
_cell_length_c   15.64411420
_cell_angle_alpha   73.49036440
_cell_angle_beta   90.00000000
_cell_angle_gamma   90.00000000
_symmetry_Int_Tables_number   1
_chemical_formula_structural   K2TeClF5
_chemical_formula_sum   'K8 Te4 Cl4 F20'
_cell_volume   758.18445820
_cell_formula_units_Z   4
loop_
 _symmetry_equiv_pos_site_id
 _symmetry_equiv_pos_as_xyz
  1  'x, y, z'
loop_
 _atom_site_type_symbol
 _atom_site_label
 _atom_site_symmetry_multiplicity
 _atom_site_fract_x
 _atom_site_fract_y
 _atom_site_fract_z
 _atom_site_occupancy
  K  K0  1  0.07639700  0.65241600  0.10561900  1
  K  K1  1  0.33931500  0.31498400  0.92079200  1
  K  K2  1  0.16068500  0.31498400  0.42079200  1
  K  K3  1  0.57639700  0.34758400  0.39438100  1
  K  K4  1  0.42360300  0.65241600  0.60561900  1
  K  K5  1  0.66068500  0.68501600  0.07920800  1
  K  K6  1  0.92360300  0.34758400  0.89438100  1
  K  K7  1  0.83931500  0.68501600  0.57920800  1
  Te  Te8  1  0.62975800  0.82219600  0.81790600  1
  Te  Te9  1  0.87024200  0.82219600  0.31790600  1
  Te  Te10  1  0.12975800  0.17780400  0.68209400  1
  Te  Te11  1  0.37024200  0.17780400  0.18209400  1
  Cl  Cl12  1  0.12779900  0.82894400  0.90124500  1
  Cl  Cl13  1  0.37220100  0.82894400  0.40124500  1
  Cl  Cl14  1  0.87220100  0.17105600  0.09875500  1
  Cl  Cl15  1  0.62779900  0.17105600  0.59875500  1
  F  F16  1  0.24497100  0.37402500  0.24113000  1
  F  F17  1  0.72835700  0.87566000  0.39864600  1
  F  F18  1  0.00283600  0.13399600  0.59016000  1
  F  F19  1  0.27164300  0.12434000  0.60135400  1
  F  F20  1  0.50618800  0.38541700  0.22794800  1
  F  F21  1  0.63766600  0.43442400  0.90342700  1
  F  F22  1  0.25502900  0.37402500  0.74113000  1
  F  F23  1  0.50283600  0.86600400  0.90984000  1
  F  F24  1  0.13766600  0.56557600  0.59657300  1
  F  F25  1  0.77164300  0.87566000  0.89864600  1
  F  F26  1  0.99381200  0.38541700  0.72794800  1
  F  F27  1  0.75502900  0.62597500  0.75887000  1
  F  F28  1  0.86233400  0.43442400  0.40342700  1
  F  F29  1  0.36233400  0.56557600  0.09657300  1
  F  F30  1  0.49716400  0.13399600  0.09016000  1
  F  F31  1  0.22835700  0.12434000  0.10135400  1
  F  F32  1  0.00618800  0.61458300  0.27205200  1
  F  F33  1  0.49381200  0.61458300  0.77205200  1
  F  F34  1  0.74497100  0.62597500  0.25887000  1
  F  F35  1  0.99716400  0.86600400  0.40984000  1
