# generated using pymatgen
data_SrCuO2
_symmetry_space_group_name_H-M   'P 1'
_cell_length_a   8.32909336
_cell_length_b   8.32909336
_cell_length_c   3.97426300
_cell_angle_alpha   90.00000000
_cell_angle_beta   90.00000000
_cell_angle_gamma   154.72550936
_symmetry_Int_Tables_number   1
_chemical_formula_structural   SrCuO2
_chemical_formula_sum   'Sr2 Cu2 O4'
_cell_volume   117.71572347
_cell_formula_units_Z   2
loop_
 _symmetry_equiv_pos_site_id
 _symmetry_equiv_pos_as_xyz
  1  'x, y, z'
loop_
 _atom_site_type_symbol
 _atom_site_label
 _atom_site_symmetry_multiplicity
 _atom_site_fract_x
 _atom_site_fract_y
 _atom_site_fract_z
 _atom_site_occupancy
  Sr  Sr0  1  0.66741000  0.33259000  0.25000000  1
  Sr  Sr1  1  0.33259000  0.66741000  0.75000000  1
  Cu  Cu2  1  0.06216500  0.93783500  0.75000000  1
  Cu  Cu3  1  0.93783500  0.06216500  0.25000000  1
  O  O4  1  0.82038100  0.17961900  0.25000000  1
  O  O5  1  0.17961900  0.82038100  0.75000000  1
  O  O6  1  0.94484200  0.05515800  0.75000000  1
  O  O7  1  0.05515800  0.94484200  0.25000000  1
