# generated using pymatgen
data_Tl2(SeO3)3
_symmetry_space_group_name_H-M   'P 1'
_cell_length_a   11.54893600
_cell_length_b   4.79986900
_cell_length_c   17.79638181
_cell_angle_alpha   79.99255359
_cell_angle_beta   90.00000000
_cell_angle_gamma   90.00000000
_symmetry_Int_Tables_number   1
_chemical_formula_structural   Tl2(SeO3)3
_chemical_formula_sum   'Tl8 Se12 O36'
_cell_volume   971.50396322
_cell_formula_units_Z   4
loop_
 _symmetry_equiv_pos_site_id
 _symmetry_equiv_pos_as_xyz
  1  'x, y, z'
loop_
 _atom_site_type_symbol
 _atom_site_label
 _atom_site_symmetry_multiplicity
 _atom_site_fract_x
 _atom_site_fract_y
 _atom_site_fract_z
 _atom_site_occupancy
  Tl  Tl0  1  0.06126400  0.87720900  0.29577700  1
  Tl  Tl1  1  0.56126400  0.12279100  0.20422300  1
  Tl  Tl2  1  0.85164200  0.61531800  0.12718100  1
  Tl  Tl3  1  0.64835800  0.61531800  0.62718100  1
  Tl  Tl4  1  0.93873600  0.12279100  0.70422300  1
  Tl  Tl5  1  0.35164200  0.38468200  0.37281900  1
  Tl  Tl6  1  0.43873600  0.87720900  0.79577700  1
  Tl  Tl7  1  0.14835800  0.38468200  0.87281900  1
  Se  Se8  1  0.32170300  0.62860000  0.19324500  1
  Se  Se9  1  0.05406100  0.18647400  0.09351300  1
  Se  Se10  1  0.17829700  0.62860000  0.69324500  1
  Se  Se11  1  0.39460400  0.27235200  0.94820700  1
  Se  Se12  1  0.89460400  0.72764800  0.55179300  1
  Se  Se13  1  0.60539600  0.72764800  0.05179300  1
  Se  Se14  1  0.94593900  0.81352600  0.90648700  1
  Se  Se15  1  0.67829700  0.37140000  0.80675500  1
  Se  Se16  1  0.55406100  0.81352600  0.40648700  1
  Se  Se17  1  0.82170300  0.37140000  0.30675500  1
  Se  Se18  1  0.44593900  0.18647400  0.59351300  1
  Se  Se19  1  0.10539600  0.27235200  0.44820700  1
  O  O20  1  0.12133400  0.09233500  0.18170600  1
  O  O21  1  0.33582300  0.13912600  0.87027500  1
  O  O22  1  0.83582300  0.86087400  0.62972500  1
  O  O23  1  0.52891600  0.43296500  0.09322800  1
  O  O24  1  0.89413800  0.06521500  0.33757100  1
  O  O25  1  0.03062600  0.54801500  0.08628600  1
  O  O26  1  0.10586200  0.93478500  0.66242900  1
  O  O27  1  0.73701000  0.60169700  0.02568700  1
  O  O28  1  0.66417700  0.86087400  0.12972500  1
  O  O29  1  0.37866600  0.09233500  0.68170600  1
  O  O30  1  0.08944200  0.91309900  0.88986500  1
  O  O31  1  0.53062600  0.45198500  0.41371400  1
  O  O32  1  0.16417700  0.13912600  0.37027500  1
  O  O33  1  0.92676900  0.58193500  0.25032200  1
  O  O34  1  0.23701000  0.39830300  0.47431300  1
  O  O35  1  0.60586200  0.06521500  0.83757100  1
  O  O36  1  0.76299000  0.60169700  0.52568700  1
  O  O37  1  0.75503600  0.33317900  0.72296200  1
  O  O38  1  0.42676900  0.41806500  0.24967800  1
  O  O39  1  0.02891600  0.56703500  0.40677200  1
  O  O40  1  0.62133400  0.90766500  0.31829400  1
  O  O41  1  0.57323100  0.58193500  0.75032200  1
  O  O42  1  0.58944200  0.08690100  0.61013500  1
  O  O43  1  0.39413800  0.93478500  0.16242900  1
  O  O44  1  0.97108400  0.43296500  0.59322800  1
  O  O45  1  0.87866600  0.90766500  0.81829400  1
  O  O46  1  0.24496400  0.66682100  0.27703800  1
  O  O47  1  0.96937400  0.45198500  0.91371400  1
  O  O48  1  0.41055800  0.91309900  0.38986500  1
  O  O49  1  0.91055800  0.08690100  0.11013500  1
  O  O50  1  0.47108400  0.56703500  0.90677200  1
  O  O51  1  0.25503600  0.66682100  0.77703800  1
  O  O52  1  0.46937400  0.54801500  0.58628600  1
  O  O53  1  0.07323100  0.41806500  0.74967800  1
  O  O54  1  0.74496400  0.33317900  0.22296200  1
  O  O55  1  0.26299000  0.39830300  0.97431300  1
