# generated using pymatgen
data_CsLu2Cu3Se5
_symmetry_space_group_name_H-M   'P 1'
_cell_length_a   7.61379743
_cell_length_b   7.61379743
_cell_length_c   17.12074300
_cell_angle_alpha   90.00000000
_cell_angle_beta   90.00000000
_cell_angle_gamma   148.85945378
_symmetry_Int_Tables_number   1
_chemical_formula_structural   CsLu2Cu3Se5
_chemical_formula_sum   'Cs2 Lu4 Cu6 Se10'
_cell_volume   513.25437656
_cell_formula_units_Z   2
loop_
 _symmetry_equiv_pos_site_id
 _symmetry_equiv_pos_as_xyz
  1  'x, y, z'
loop_
 _atom_site_type_symbol
 _atom_site_label
 _atom_site_symmetry_multiplicity
 _atom_site_fract_x
 _atom_site_fract_y
 _atom_site_fract_z
 _atom_site_occupancy
  Cs  Cs0  1  0.06110500  0.93889500  0.75000000  1
  Cs  Cs1  1  0.93889500  0.06110500  0.25000000  1
  Lu  Lu2  1  0.19255200  0.80744800  0.40809100  1
  Lu  Lu3  1  0.19255200  0.80744800  0.09190900  1
  Lu  Lu4  1  0.80744800  0.19255200  0.59190900  1
  Lu  Lu5  1  0.80744800  0.19255200  0.90809100  1
  Cu  Cu6  1  0.65496800  0.34503200  0.25000000  1
  Cu  Cu7  1  0.58222600  0.41777400  0.96663700  1
  Cu  Cu8  1  0.41777400  0.58222600  0.03336300  1
  Cu  Cu9  1  0.34503200  0.65496800  0.75000000  1
  Cu  Cu10  1  0.41777400  0.58222600  0.46663700  1
  Cu  Cu11  1  0.58222600  0.41777400  0.53336300  1
  Se  Se12  1  0.23889300  0.76110700  0.25000000  1
  Se  Se13  1  0.82955300  0.17044700  0.06952800  1
  Se  Se14  1  0.76110700  0.23889300  0.75000000  1
  Se  Se15  1  0.17044700  0.82955300  0.56952800  1
  Se  Se16  1  0.17044700  0.82955300  0.93047200  1
  Se  Se17  1  0.43634400  0.56365600  0.88730500  1
  Se  Se18  1  0.56365600  0.43634400  0.11269500  1
  Se  Se19  1  0.43634400  0.56365600  0.61269500  1
  Se  Se20  1  0.56365600  0.43634400  0.38730500  1
  Se  Se21  1  0.82955300  0.17044700  0.43047200  1
