# generated using pymatgen
data_TmAlRh
_symmetry_space_group_name_H-M   'P 1'
_cell_length_a   4.16057000
_cell_length_b   6.81295500
_cell_length_c   7.95015700
_cell_angle_alpha   90.00000000
_cell_angle_beta   90.00000000
_cell_angle_gamma   90.00000000
_symmetry_Int_Tables_number   1
_chemical_formula_structural   TmAlRh
_chemical_formula_sum   'Tm4 Al4 Rh4'
_cell_volume   225.35337095
_cell_formula_units_Z   4
loop_
 _symmetry_equiv_pos_site_id
 _symmetry_equiv_pos_as_xyz
  1  'x, y, z'
loop_
 _atom_site_type_symbol
 _atom_site_label
 _atom_site_symmetry_multiplicity
 _atom_site_fract_x
 _atom_site_fract_y
 _atom_site_fract_z
 _atom_site_occupancy
  Tm  Tm0  1  0.25000000  0.96414200  0.32152300  1
  Tm  Tm1  1  0.75000000  0.53585800  0.82152300  1
  Tm  Tm2  1  0.25000000  0.46414200  0.17847700  1
  Tm  Tm3  1  0.75000000  0.03585800  0.67847700  1
  Al  Al4  1  0.75000000  0.63668700  0.44122900  1
  Al  Al5  1  0.75000000  0.13668700  0.05877100  1
  Al  Al6  1  0.25000000  0.36331300  0.55877100  1
  Al  Al7  1  0.25000000  0.86331300  0.94122900  1
  Rh  Rh8  1  0.75000000  0.76376100  0.12387900  1
  Rh  Rh9  1  0.75000000  0.26376100  0.37612100  1
  Rh  Rh10  1  0.25000000  0.23623900  0.87612100  1
  Rh  Rh11  1  0.25000000  0.73623900  0.62387900  1
