# generated using pymatgen
data_Co3P4PbO14
_symmetry_space_group_name_H-M   'P 1'
_cell_length_a   7.86420300
_cell_length_b   7.58671500
_cell_length_c   9.60663004
_cell_angle_alpha   68.06060747
_cell_angle_beta   90.00000000
_cell_angle_gamma   90.00000000
_symmetry_Int_Tables_number   1
_chemical_formula_structural   Co3P4PbO14
_chemical_formula_sum   'Co6 P8 Pb2 O28'
_cell_volume   531.65602216
_cell_formula_units_Z   2
loop_
 _symmetry_equiv_pos_site_id
 _symmetry_equiv_pos_as_xyz
  1  'x, y, z'
loop_
 _atom_site_type_symbol
 _atom_site_label
 _atom_site_symmetry_multiplicity
 _atom_site_fract_x
 _atom_site_fract_y
 _atom_site_fract_z
 _atom_site_occupancy
  Co  Co0  1  0.62522600  0.68595600  0.47257400  1
  Co  Co1  1  0.87477400  0.68595600  0.97257400  1
  Co  Co2  1  0.37477400  0.31404400  0.52742600  1
  Co  Co3  1  0.12522600  0.31404400  0.02742600  1
  Co  Co4  1  0.50000000  0.50000000  0.00000000  1
  Co  Co5  1  0.00000000  0.50000000  0.50000000  1
  P  P6  1  0.05540600  0.10544000  0.79896100  1
  P  P7  1  0.29692400  0.60980800  0.69379600  1
  P  P8  1  0.79692400  0.39019200  0.80620400  1
  P  P9  1  0.44459400  0.10544000  0.29896100  1
  P  P10  1  0.70307600  0.39019200  0.30620400  1
  P  P11  1  0.94459400  0.89456000  0.20103900  1
  P  P12  1  0.55540600  0.89456000  0.70103900  1
  P  P13  1  0.20307600  0.60980800  0.19379600  1
  Pb  Pb14  1  0.00000000  0.00000000  0.50000000  1
  Pb  Pb15  1  0.50000000  0.00000000  0.00000000  1
  O  O16  1  0.37086900  0.81496700  0.67791100  1
  O  O17  1  0.11435100  0.22947900  0.63648500  1
  O  O18  1  0.07766200  0.52534000  0.11260000  1
  O  O19  1  0.61435100  0.77052100  0.86351500  1
  O  O20  1  0.42233800  0.52534000  0.61260000  1
  O  O21  1  0.88564900  0.77052100  0.36351500  1
  O  O22  1  0.67568200  0.87377600  0.58338600  1
  O  O23  1  0.37457300  0.65276800  0.11309600  1
  O  O24  1  0.28994000  0.50008800  0.86434000  1
  O  O25  1  0.21006000  0.50008800  0.36434000  1
  O  O26  1  0.87086900  0.18503300  0.82208900  1
  O  O27  1  0.92233800  0.47466000  0.88740000  1
  O  O28  1  0.57766200  0.47466000  0.38740000  1
  O  O29  1  0.82431800  0.87377600  0.08338600  1
  O  O30  1  0.62913100  0.18503300  0.32208900  1
  O  O31  1  0.32431800  0.12622400  0.41661400  1
  O  O32  1  0.17568200  0.12622400  0.91661400  1
  O  O33  1  0.78994000  0.49991200  0.63566000  1
  O  O34  1  0.51795000  0.09701400  0.69063000  1
  O  O35  1  0.12542700  0.65276800  0.61309600  1
  O  O36  1  0.38564900  0.22947900  0.13648500  1
  O  O37  1  0.01795000  0.90298600  0.80937000  1
  O  O38  1  0.62542700  0.34723200  0.88690400  1
  O  O39  1  0.87457300  0.34723200  0.38690400  1
  O  O40  1  0.12913100  0.81496700  0.17791100  1
  O  O41  1  0.98205000  0.09701400  0.19063000  1
  O  O42  1  0.48205000  0.90298600  0.30937000  1
  O  O43  1  0.71006000  0.49991200  0.13566000  1
