# generated using pymatgen
data_HfGaPt
_symmetry_space_group_name_H-M   'P 1'
_cell_length_a   7.17824070
_cell_length_b   7.17824070
_cell_length_c   7.06671700
_cell_angle_alpha   90.00000000
_cell_angle_beta   90.00000000
_cell_angle_gamma   120.00000643
_symmetry_Int_Tables_number   1
_chemical_formula_structural   HfGaPt
_chemical_formula_sum   'Hf6 Ga6 Pt6'
_cell_volume   315.34382904
_cell_formula_units_Z   6
loop_
 _symmetry_equiv_pos_site_id
 _symmetry_equiv_pos_as_xyz
  1  'x, y, z'
loop_
 _atom_site_type_symbol
 _atom_site_label
 _atom_site_symmetry_multiplicity
 _atom_site_fract_x
 _atom_site_fract_y
 _atom_site_fract_z
 _atom_site_occupancy
  Hf  Hf0  1  0.40959400  0.38594200  0.25000000  1
  Hf  Hf1  1  0.59040600  0.97634800  0.75000000  1
  Hf  Hf2  1  0.38594200  0.40959400  0.75000000  1
  Hf  Hf3  1  0.02365200  0.61405800  0.75000000  1
  Hf  Hf4  1  0.97634800  0.59040600  0.25000000  1
  Hf  Hf5  1  0.61405800  0.02365200  0.25000000  1
  Ga  Ga6  1  0.26793100  0.00000000  0.00000000  1
  Ga  Ga7  1  0.26793100  0.00000000  0.50000000  1
  Ga  Ga8  1  0.00000000  0.26793100  0.50000000  1
  Ga  Ga9  1  0.00000000  0.26793100  0.00000000  1
  Ga  Ga10  1  0.73206900  0.73206900  0.00000000  1
  Ga  Ga11  1  0.73206900  0.73206900  0.50000000  1
  Pt  Pt12  1  0.66666700  0.33333300  0.53258600  1
  Pt  Pt13  1  0.00000000  0.00000000  0.75000000  1
  Pt  Pt14  1  0.66666700  0.33333300  0.96741400  1
  Pt  Pt15  1  0.33333300  0.66666700  0.03258600  1
  Pt  Pt16  1  0.33333300  0.66666700  0.46741400  1
  Pt  Pt17  1  0.00000000  0.00000000  0.25000000  1
