# generated using pymatgen
data_RbLaSi(CN2)4
_symmetry_space_group_name_H-M   'P 1'
_cell_length_a   7.01689481
_cell_length_b   7.01689481
_cell_length_c   7.01689481
_cell_angle_alpha   104.18894042
_cell_angle_beta   104.18894042
_cell_angle_gamma   120.64781107
_symmetry_Int_Tables_number   1
_chemical_formula_structural   RbLaSi(CN2)4
_chemical_formula_sum   'Rb1 La1 Si1 C4 N8'
_cell_volume   258.24520506
_cell_formula_units_Z   1
loop_
 _symmetry_equiv_pos_site_id
 _symmetry_equiv_pos_as_xyz
  1  'x, y, z'
loop_
 _atom_site_type_symbol
 _atom_site_label
 _atom_site_symmetry_multiplicity
 _atom_site_fract_x
 _atom_site_fract_y
 _atom_site_fract_z
 _atom_site_occupancy
  Rb  Rb0  1  0.50000000  0.50000000  0.00000000  1
  La  La1  1  0.25000000  0.75000000  0.50000000  1
  Si  Si2  1  0.75000000  0.25000000  0.50000000  1
  C  C3  1  0.05886100  0.14591600  0.46970900  1
  C  C4  1  0.41084800  0.94113900  0.08705500  1
  C  C5  1  0.85408400  0.32379300  0.91294500  1
  C  C6  1  0.67620700  0.58915200  0.53029100  1
  N  N7  1  0.00456800  0.43064400  0.09980000  1
  N  N8  1  0.49264400  0.97211600  0.28402000  1
  N  N9  1  0.79137600  0.50735600  0.47947200  1
  N  N10  1  0.02788400  0.31190400  0.52052800  1
  N  N11  1  0.56935600  0.66915700  0.57392500  1
  N  N12  1  0.09523200  0.99543200  0.42607500  1
  N  N13  1  0.68809600  0.20862400  0.71598000  1
  N  N14  1  0.33084300  0.90476800  0.90020000  1
