# generated using pymatgen
data_Ba3Bi2TeO9
_symmetry_space_group_name_H-M   'P 1'
_cell_length_a   6.26483589
_cell_length_b   6.26483589
_cell_length_c   15.05388500
_cell_angle_alpha   90.00000000
_cell_angle_beta   90.00000000
_cell_angle_gamma   119.99999884
_symmetry_Int_Tables_number   1
_chemical_formula_structural   Ba3Bi2TeO9
_chemical_formula_sum   'Ba6 Bi4 Te2 O18'
_cell_volume   511.68021996
_cell_formula_units_Z   2
loop_
 _symmetry_equiv_pos_site_id
 _symmetry_equiv_pos_as_xyz
  1  'x, y, z'
loop_
 _atom_site_type_symbol
 _atom_site_label
 _atom_site_symmetry_multiplicity
 _atom_site_fract_x
 _atom_site_fract_y
 _atom_site_fract_z
 _atom_site_occupancy
  Ba  Ba0  1  0.33333300  0.66666700  0.08197400  1
  Ba  Ba1  1  0.66666700  0.33333300  0.91802600  1
  Ba  Ba2  1  0.33333300  0.66666700  0.58197400  1
  Ba  Ba3  1  0.66666700  0.33333300  0.41802600  1
  Ba  Ba4  1  0.00000000  0.00000000  0.25000000  1
  Ba  Ba5  1  0.00000000  0.00000000  0.75000000  1
  Bi  Bi6  1  0.33333300  0.66666700  0.83280300  1
  Bi  Bi7  1  0.66666700  0.33333300  0.16719700  1
  Bi  Bi8  1  0.33333300  0.66666700  0.33280300  1
  Bi  Bi9  1  0.66666700  0.33333300  0.66719700  1
  Te  Te10  1  0.00000000  0.00000000  0.00000000  1
  Te  Te11  1  0.00000000  0.00000000  0.50000000  1
  O  O12  1  0.91756100  0.71012000  0.57499900  1
  O  O13  1  0.00000000  0.55629500  0.25000000  1
  O  O14  1  0.20744100  0.28988000  0.92500100  1
  O  O15  1  0.91756100  0.20744100  0.07499900  1
  O  O16  1  0.79255900  0.08243900  0.57499900  1
  O  O17  1  0.79255900  0.71012000  0.07499900  1
  O  O18  1  0.71012000  0.79255900  0.42500100  1
  O  O19  1  0.44370500  0.00000000  0.75000000  1
  O  O20  1  0.55629500  0.55629500  0.75000000  1
  O  O21  1  0.28988000  0.20744100  0.57499900  1
  O  O22  1  0.08243900  0.28988000  0.42500100  1
  O  O23  1  0.20744100  0.91756100  0.42500100  1
  O  O24  1  0.28988000  0.08243900  0.07499900  1
  O  O25  1  0.55629500  0.00000000  0.25000000  1
  O  O26  1  0.44370500  0.44370500  0.25000000  1
  O  O27  1  0.00000000  0.44370500  0.75000000  1
  O  O28  1  0.08243900  0.79255900  0.92500100  1
  O  O29  1  0.71012000  0.91756100  0.92500100  1
