# generated using pymatgen
data_K2U(MoO5)2
_symmetry_space_group_name_H-M   'P 1'
_cell_length_a   13.72691200
_cell_length_b   12.47696900
_cell_length_c   13.26191562
_cell_angle_alpha   85.25236902
_cell_angle_beta   90.00000000
_cell_angle_gamma   90.00000000
_symmetry_Int_Tables_number   1
_chemical_formula_structural   K2U(MoO5)2
_chemical_formula_sum   'K16 U8 Mo16 O80'
_cell_volume   2263.57843117
_cell_formula_units_Z   8
loop_
 _symmetry_equiv_pos_site_id
 _symmetry_equiv_pos_as_xyz
  1  'x, y, z'
loop_
 _atom_site_type_symbol
 _atom_site_label
 _atom_site_symmetry_multiplicity
 _atom_site_fract_x
 _atom_site_fract_y
 _atom_site_fract_z
 _atom_site_occupancy
  K  K0  1  0.67729400  0.03625800  0.19143900  1
  K  K1  1  0.95651000  0.27121700  0.18158500  1
  K  K2  1  0.82270600  0.03625800  0.69143900  1
  K  K3  1  0.13015400  0.23985700  0.71835000  1
  K  K4  1  0.63015400  0.76014300  0.78165000  1
  K  K5  1  0.86984600  0.76014300  0.28165000  1
  K  K6  1  0.17729400  0.96374200  0.30856100  1
  K  K7  1  0.15850700  0.53858400  0.21379800  1
  K  K8  1  0.04349000  0.72878300  0.81841500  1
  K  K9  1  0.54349000  0.27121700  0.68158500  1
  K  K10  1  0.84149300  0.46141600  0.78620200  1
  K  K11  1  0.65850700  0.46141600  0.28620200  1
  K  K12  1  0.36984600  0.23985700  0.21835000  1
  K  K13  1  0.32270600  0.96374200  0.80856100  1
  K  K14  1  0.45651000  0.72878300  0.31841500  1
  K  K15  1  0.34149300  0.53858400  0.71379800  1
  U  U16  1  0.18268600  0.15391000  0.03153800  1
  U  U17  1  0.68268600  0.84609000  0.46846200  1
  U  U18  1  0.81942800  0.33161100  0.51177000  1
  U  U19  1  0.68057200  0.33161100  0.01177000  1
  U  U20  1  0.18057200  0.66838900  0.48823000  1
  U  U21  1  0.81731400  0.84609000  0.96846200  1
  U  U22  1  0.31942800  0.66838900  0.98823000  1
  U  U23  1  0.31731400  0.15391000  0.53153800  1
  Mo  Mo24  1  0.08616000  0.84968600  0.06471500  1
  Mo  Mo25  1  0.58616000  0.15031400  0.43528500  1
  Mo  Mo26  1  0.09626200  0.35826900  0.44947500  1
  Mo  Mo27  1  0.62433500  0.55534100  0.57672600  1
  Mo  Mo28  1  0.61218100  0.05605700  0.89972900  1
  Mo  Mo29  1  0.12433500  0.44465900  0.92327400  1
  Mo  Mo30  1  0.38781900  0.94394300  0.10027100  1
  Mo  Mo31  1  0.37566500  0.44465900  0.42327400  1
  Mo  Mo32  1  0.40373800  0.35826900  0.94947500  1
  Mo  Mo33  1  0.88781900  0.05605700  0.39972900  1
  Mo  Mo34  1  0.59626200  0.64173100  0.05052500  1
  Mo  Mo35  1  0.90373800  0.64173100  0.55052500  1
  Mo  Mo36  1  0.11218100  0.94394300  0.60027100  1
  Mo  Mo37  1  0.91384000  0.15031400  0.93528500  1
  Mo  Mo38  1  0.87566500  0.55534100  0.07672600  1
  Mo  Mo39  1  0.41384000  0.84968600  0.56471500  1
  O  O40  1  0.14575300  0.84846300  0.50665600  1
  O  O41  1  0.80484600  0.46409600  0.00381400  1
  O  O42  1  0.00821800  0.68295900  0.47322200  1
  O  O43  1  0.45911900  0.80006300  0.68367900  1
  O  O44  1  0.80047900  0.29900600  0.64749600  1
  O  O45  1  0.59643000  0.68492800  0.50700500  1
  O  O46  1  0.70237400  0.70612100  0.98894900  1
  O  O47  1  0.65735200  0.03116800  0.41685100  1
  O  O48  1  0.51541200  0.49078000  0.62018300  1
  O  O49  1  0.82914200  0.82293800  0.83438900  1
  O  O50  1  0.32914200  0.17706200  0.66561100  1
  O  O51  1  0.41936800  0.32368300  0.82536300  1
  O  O52  1  0.15735200  0.96883200  0.08314900  1
  O  O53  1  0.80554000  0.87485600  0.10165300  1
  O  O54  1  0.30554000  0.12514400  0.39834700  1
  O  O55  1  0.85424700  0.15153700  0.49334400  1
  O  O56  1  0.66511800  0.24865000  0.48548600  1
  O  O57  1  0.04088100  0.80006300  0.18367900  1
  O  O58  1  0.79762600  0.70612100  0.48894900  1
  O  O59  1  0.30837300  0.41837700  0.31420400  1
  O  O60  1  0.90357000  0.68492800  0.00700500  1
  O  O61  1  0.98509800  0.95597400  0.61058300  1
  O  O62  1  0.35424700  0.84846300  0.00665600  1
  O  O63  1  0.66530900  0.36463000  0.87581100  1
  O  O64  1  0.16530900  0.63537000  0.62418900  1
  O  O65  1  0.19446000  0.12514400  0.89834700  1
  O  O66  1  0.69952100  0.29900600  0.14749600  1
  O  O67  1  0.49178200  0.68295900  0.97322200  1
  O  O68  1  0.11272100  0.50217100  0.44302400  1
  O  O69  1  0.29762600  0.29387900  0.01105100  1
  O  O70  1  0.84264800  0.03116800  0.91685100  1
  O  O71  1  0.16666000  0.07833200  0.57327900  1
  O  O72  1  0.51084800  0.88050100  0.47457300  1
  O  O73  1  0.48915200  0.11949900  0.52542700  1
  O  O74  1  0.08063200  0.32368300  0.32536300  1
  O  O75  1  0.66666000  0.92166800  0.92672100  1
  O  O76  1  0.30484600  0.53590400  0.49618600  1
  O  O77  1  0.64575300  0.15153700  0.99334400  1
  O  O78  1  0.83469100  0.36463000  0.37581100  1
  O  O79  1  0.19515400  0.53590400  0.99618600  1
  O  O80  1  0.33488200  0.75135000  0.51451400  1
  O  O81  1  0.95911900  0.19993700  0.81632100  1
  O  O82  1  0.69446000  0.87485600  0.60165300  1
  O  O83  1  0.69515400  0.46409600  0.50381400  1
  O  O84  1  0.34676900  0.89248000  0.22094700  1
  O  O85  1  0.40357000  0.31507200  0.49299500  1
  O  O86  1  0.15323100  0.89248000  0.72094700  1
  O  O87  1  0.16511800  0.75135000  0.01451400  1
  O  O88  1  0.48458800  0.50922000  0.37981700  1
  O  O89  1  0.01084800  0.11949900  0.02542700  1
  O  O90  1  0.99178200  0.31704100  0.52677800  1
  O  O91  1  0.34264800  0.96883200  0.58314900  1
  O  O92  1  0.65323100  0.10752000  0.77905300  1
  O  O93  1  0.54088100  0.19993700  0.31632100  1
  O  O94  1  0.98915200  0.88050100  0.97457300  1
  O  O95  1  0.50821800  0.31704100  0.02677800  1
  O  O96  1  0.01490200  0.04402600  0.38941700  1
  O  O97  1  0.83488200  0.24865000  0.98548600  1
  O  O98  1  0.20237400  0.29387900  0.51105100  1
  O  O99  1  0.88727900  0.49782900  0.55697600  1
  O  O100  1  0.61272100  0.49782900  0.05697600  1
  O  O101  1  0.30047900  0.70099400  0.85250400  1
  O  O102  1  0.33469100  0.63537000  0.12418900  1
  O  O103  1  0.38727900  0.50217100  0.94302400  1
  O  O104  1  0.84676900  0.10752000  0.27905300  1
  O  O105  1  0.09643000  0.31507200  0.99299500  1
  O  O106  1  0.01541200  0.50922000  0.87981700  1
  O  O107  1  0.80837300  0.58162300  0.18579600  1
  O  O108  1  0.33334000  0.07833200  0.07327900  1
  O  O109  1  0.91936800  0.67631700  0.67463700  1
  O  O110  1  0.69162700  0.58162300  0.68579600  1
  O  O111  1  0.67085800  0.82293800  0.33438900  1
  O  O112  1  0.51490200  0.95597400  0.11058300  1
  O  O113  1  0.19952100  0.70099400  0.35250400  1
  O  O114  1  0.48509800  0.04402600  0.88941700  1
  O  O115  1  0.83334000  0.92166800  0.42672100  1
  O  O116  1  0.58063200  0.67631700  0.17463700  1
  O  O117  1  0.19162700  0.41837700  0.81420400  1
  O  O118  1  0.98458800  0.49078000  0.12018300  1
  O  O119  1  0.17085800  0.17706200  0.16561100  1
