# generated using pymatgen
data_Sr8(MnN3)3
_symmetry_space_group_name_H-M   'P 1'
_cell_length_a   10.69249000
_cell_length_b   7.60110800
_cell_length_c   18.95161181
_cell_angle_alpha   73.79478683
_cell_angle_beta   90.00000000
_cell_angle_gamma   90.00000000
_symmetry_Int_Tables_number   1
_chemical_formula_structural   Sr8(MnN3)3
_chemical_formula_sum   'Sr32 Mn12 N36'
_cell_volume   1479.08965339
_cell_formula_units_Z   4
loop_
 _symmetry_equiv_pos_site_id
 _symmetry_equiv_pos_as_xyz
  1  'x, y, z'
loop_
 _atom_site_type_symbol
 _atom_site_label
 _atom_site_symmetry_multiplicity
 _atom_site_fract_x
 _atom_site_fract_y
 _atom_site_fract_z
 _atom_site_occupancy
  Sr  Sr0  1  0.62691100  0.51933600  0.42297300  1
  Sr  Sr1  1  0.62988100  0.80913400  0.55071700  1
  Sr  Sr2  1  0.37955400  0.78526300  0.06510100  1
  Sr  Sr3  1  0.37308900  0.48066400  0.57702700  1
  Sr  Sr4  1  0.12568400  0.51956500  0.41725200  1
  Sr  Sr5  1  0.12256800  0.92887600  0.14387700  1
  Sr  Sr6  1  0.87743200  0.07112400  0.85612300  1
  Sr  Sr7  1  0.12044600  0.78526300  0.56510100  1
  Sr  Sr8  1  0.63026400  0.25457900  0.72985200  1
  Sr  Sr9  1  0.37311900  0.27753400  0.21889900  1
  Sr  Sr10  1  0.87311900  0.72246600  0.28110100  1
  Sr  Sr11  1  0.62688100  0.72246600  0.78110100  1
  Sr  Sr12  1  0.37956500  0.01044000  0.85442900  1
  Sr  Sr13  1  0.87431600  0.48043500  0.58274800  1
  Sr  Sr14  1  0.13026400  0.74542100  0.77014800  1
  Sr  Sr15  1  0.87955400  0.21473700  0.43489900  1
  Sr  Sr16  1  0.12688100  0.27753400  0.71889900  1
  Sr  Sr17  1  0.86973600  0.25457900  0.22985200  1
  Sr  Sr18  1  0.37011900  0.19086600  0.44928300  1
  Sr  Sr19  1  0.62043500  0.98956000  0.14557100  1
  Sr  Sr20  1  0.62044600  0.21473700  0.93489900  1
  Sr  Sr21  1  0.87011900  0.80913400  0.05071700  1
  Sr  Sr22  1  0.62256800  0.07112400  0.35612300  1
  Sr  Sr23  1  0.62568400  0.48043500  0.08274800  1
  Sr  Sr24  1  0.12988100  0.19086600  0.94928300  1
  Sr  Sr25  1  0.12691100  0.48066400  0.07702700  1
  Sr  Sr26  1  0.37743200  0.92887600  0.64387700  1
  Sr  Sr27  1  0.12043500  0.01044000  0.35442900  1
  Sr  Sr28  1  0.87308900  0.51933600  0.92297300  1
  Sr  Sr29  1  0.87956500  0.98956000  0.64557100  1
  Sr  Sr30  1  0.37431600  0.51956500  0.91725200  1
  Sr  Sr31  1  0.36973600  0.74542100  0.27014800  1
  Mn  Mn32  1  0.36954400  0.20174200  0.06326700  1
  Mn  Mn33  1  0.13045600  0.20174200  0.56326700  1
  Mn  Mn34  1  0.62826500  0.45498700  0.24878400  1
  Mn  Mn35  1  0.11979400  0.79626600  0.93109200  1
  Mn  Mn36  1  0.86954400  0.79825800  0.43673300  1
  Mn  Mn37  1  0.87173500  0.45498700  0.74878400  1
  Mn  Mn38  1  0.12826500  0.54501300  0.25121600  1
  Mn  Mn39  1  0.88020600  0.20373400  0.06890800  1
  Mn  Mn40  1  0.37173500  0.54501300  0.75121600  1
  Mn  Mn41  1  0.63045600  0.79825800  0.93673300  1
  Mn  Mn42  1  0.38020600  0.79626600  0.43109200  1
  Mn  Mn43  1  0.61979400  0.20373400  0.56890800  1
  N  N44  1  0.12804100  0.15117200  0.48011200  1
  N  N45  1  0.38019500  0.42411600  0.06633200  1
  N  N46  1  0.62804100  0.84882800  0.01988800  1
  N  N47  1  0.11541100  0.74351000  0.28309900  1
  N  N48  1  0.12495600  0.99164600  0.85319900  1
  N  N49  1  0.86205800  0.97443300  0.35341100  1
  N  N50  1  0.38216400  0.83065200  0.51820300  1
  N  N51  1  0.88019500  0.57588400  0.43366800  1
  N  N52  1  0.23417500  0.58202700  0.18111300  1
  N  N53  1  0.61783600  0.16934800  0.48179700  1
  N  N54  1  0.63794200  0.97443300  0.85341100  1
  N  N55  1  0.37195900  0.15117200  0.98011200  1
  N  N56  1  0.12322100  0.57364100  0.92319300  1
  N  N57  1  0.76582500  0.41797300  0.81888700  1
  N  N58  1  0.87677900  0.42635900  0.07680700  1
  N  N59  1  0.87195900  0.84882800  0.51988800  1
  N  N60  1  0.73417500  0.41797300  0.31888700  1
  N  N61  1  0.13794200  0.02556700  0.64658900  1
  N  N62  1  0.43763600  0.34443900  0.80047000  1
  N  N63  1  0.62322100  0.42635900  0.57680700  1
  N  N64  1  0.61541100  0.25649000  0.21690100  1
  N  N65  1  0.87504400  0.00835400  0.14680100  1
  N  N66  1  0.36205800  0.02556700  0.14658900  1
  N  N67  1  0.88216400  0.16934800  0.98179700  1
  N  N68  1  0.56236400  0.65556100  0.19953000  1
  N  N69  1  0.06236400  0.34443900  0.30047000  1
  N  N70  1  0.61980500  0.57588400  0.93366800  1
  N  N71  1  0.11980500  0.42411600  0.56633200  1
  N  N72  1  0.11783600  0.83065200  0.01820300  1
  N  N73  1  0.93763600  0.65556100  0.69953000  1
  N  N74  1  0.37504400  0.99164600  0.35319900  1
  N  N75  1  0.37677900  0.57364100  0.42319300  1
  N  N76  1  0.62495600  0.00835400  0.64680100  1
  N  N77  1  0.38458900  0.74351000  0.78309900  1
  N  N78  1  0.88458900  0.25649000  0.71690100  1
  N  N79  1  0.26582500  0.58202700  0.68111300  1
