# generated using pymatgen
data_Cs2MnSe2
_symmetry_space_group_name_H-M   'P 1'
_cell_length_a   8.86743900
_cell_length_b   8.86743900
_cell_length_c   8.86743900
_cell_angle_alpha   134.61828365
_cell_angle_beta   128.97098949
_cell_angle_gamma   70.65187264
_symmetry_Int_Tables_number   1
_chemical_formula_structural   Cs2MnSe2
_chemical_formula_sum   'Cs4 Mn2 Se4'
_cell_volume   378.10238221
_cell_formula_units_Z   2
loop_
 _symmetry_equiv_pos_site_id
 _symmetry_equiv_pos_as_xyz
  1  'x, y, z'
loop_
 _atom_site_type_symbol
 _atom_site_label
 _atom_site_symmetry_multiplicity
 _atom_site_fract_x
 _atom_site_fract_y
 _atom_site_fract_z
 _atom_site_occupancy
  Cs  Cs0  1  0.51639000  0.85260200  0.66378800  1
  Cs  Cs1  1  0.48361000  0.14739800  0.33621200  1
  Cs  Cs2  1  0.81118500  0.64739800  0.16378800  1
  Cs  Cs3  1  0.18881500  0.35260200  0.83621200  1
  Mn  Mn4  1  0.00000000  0.25000000  0.25000000  1
  Mn  Mn5  1  0.00000000  0.75000000  0.75000000  1
  Se  Se6  1  0.08078200  0.90385400  0.17692800  1
  Se  Se7  1  0.72692600  0.40385400  0.32307200  1
  Se  Se8  1  0.91921800  0.09614600  0.82307200  1
  Se  Se9  1  0.27307500  0.59614600  0.67692800  1
