# generated using pymatgen
data_Yb7Al5Ge8
_symmetry_space_group_name_H-M   'P 1'
_cell_length_a   8.31129487
_cell_length_b   8.31129487
_cell_length_c   12.85658863
_cell_angle_alpha   84.50687553
_cell_angle_beta   84.50687553
_cell_angle_gamma   29.68377442
_symmetry_Int_Tables_number   1
_chemical_formula_structural   Yb7Al5Ge8
_chemical_formula_sum   'Yb7 Al5 Ge8'
_cell_volume   437.63776769
_cell_formula_units_Z   1
loop_
 _symmetry_equiv_pos_site_id
 _symmetry_equiv_pos_as_xyz
  1  'x, y, z'
loop_
 _atom_site_type_symbol
 _atom_site_label
 _atom_site_symmetry_multiplicity
 _atom_site_fract_x
 _atom_site_fract_y
 _atom_site_fract_z
 _atom_site_occupancy
  Yb  Yb0  1  0.15991200  0.15991200  0.45758200  1
  Yb  Yb1  1  0.18874800  0.18874800  0.13366300  1
  Yb  Yb2  1  0.01747300  0.01747300  0.70156900  1
  Yb  Yb3  1  0.98252700  0.98252700  0.29843100  1
  Yb  Yb4  1  0.00000000  0.00000000  0.00000000  1
  Yb  Yb5  1  0.84008800  0.84008800  0.54241800  1
  Yb  Yb6  1  0.81125200  0.81125200  0.86633700  1
  Al  Al7  1  0.22402100  0.22402100  0.69835300  1
  Al  Al8  1  0.77597900  0.77597900  0.30164700  1
  Al  Al9  1  0.60892200  0.60892200  0.82899300  1
  Al  Al10  1  0.39107800  0.39107800  0.17100700  1
  Al  Al11  1  0.50000000  0.50000000  0.50000000  1
  Ge  Ge12  1  0.82404300  0.82404300  0.10543100  1
  Ge  Ge13  1  0.34818900  0.34818900  0.37996000  1
  Ge  Ge14  1  0.17595700  0.17595700  0.89456900  1
  Ge  Ge15  1  0.44650000  0.44650000  0.85916800  1
  Ge  Ge16  1  0.55350000  0.55350000  0.14083200  1
  Ge  Ge17  1  0.38714700  0.38714700  0.68413000  1
  Ge  Ge18  1  0.61285300  0.61285300  0.31587000  1
  Ge  Ge19  1  0.65181100  0.65181100  0.62004000  1
