# generated using pymatgen
data_FeAs(H2O3)2
_symmetry_space_group_name_H-M   'P 1'
_cell_length_a   9.04496200
_cell_length_b   10.10360000
_cell_length_c   10.56580700
_cell_angle_alpha   90.00000000
_cell_angle_beta   90.00000000
_cell_angle_gamma   90.00000000
_symmetry_Int_Tables_number   1
_chemical_formula_structural   FeAs(H2O3)2
_chemical_formula_sum   'Fe8 As8 H32 O48'
_cell_volume   965.57400279
_cell_formula_units_Z   8
loop_
 _symmetry_equiv_pos_site_id
 _symmetry_equiv_pos_as_xyz
  1  'x, y, z'
loop_
 _atom_site_type_symbol
 _atom_site_label
 _atom_site_symmetry_multiplicity
 _atom_site_fract_x
 _atom_site_fract_y
 _atom_site_fract_z
 _atom_site_occupancy
  Fe  Fe0  1  0.64680500  0.81758700  0.37128800  1
  Fe  Fe1  1  0.14680500  0.68241300  0.62871200  1
  Fe  Fe2  1  0.35319500  0.31758700  0.12871200  1
  Fe  Fe3  1  0.85319500  0.18241300  0.87128800  1
  Fe  Fe4  1  0.35319500  0.18241300  0.62871200  1
  Fe  Fe5  1  0.85319500  0.31758700  0.37128800  1
  Fe  Fe6  1  0.64680500  0.68241300  0.87128800  1
  Fe  Fe7  1  0.14680500  0.81758700  0.12871200  1
  As  As8  1  0.53491600  0.13653100  0.35027500  1
  As  As9  1  0.03491600  0.36346900  0.64972500  1
  As  As10  1  0.46508400  0.63653100  0.14972500  1
  As  As11  1  0.96508400  0.86346900  0.85027500  1
  As  As12  1  0.46508400  0.86346900  0.64972500  1
  As  As13  1  0.96508400  0.63653100  0.35027500  1
  As  As14  1  0.53491600  0.36346900  0.85027500  1
  As  As15  1  0.03491600  0.13653100  0.14972500  1
  H  H16  1  0.68282800  0.82789500  0.12942400  1
  H  H17  1  0.18282800  0.67210500  0.87057600  1
  H  H18  1  0.31717200  0.32789500  0.37057600  1
  H  H19  1  0.81717200  0.17210500  0.62942400  1
  H  H20  1  0.31717200  0.17210500  0.87057600  1
  H  H21  1  0.81717200  0.32789500  0.12942400  1
  H  H22  1  0.68282800  0.67210500  0.62942400  1
  H  H23  1  0.18282800  0.82789500  0.37057600  1
  H  H24  1  0.83335400  0.89916400  0.18355300  1
  H  H25  1  0.33335400  0.60083600  0.81644700  1
  H  H26  1  0.16664600  0.39916400  0.31644700  1
  H  H27  1  0.66664600  0.10083600  0.68355300  1
  H  H28  1  0.16664600  0.10083600  0.81644700  1
  H  H29  1  0.66664600  0.39916400  0.18355300  1
  H  H30  1  0.83335400  0.60083600  0.68355300  1
  H  H31  1  0.33335400  0.89916400  0.31644700  1
  H  H32  1  0.86069200  0.90639300  0.52563100  1
  H  H33  1  0.36069200  0.59360700  0.47436900  1
  H  H34  1  0.13930800  0.40639300  0.97436900  1
  H  H35  1  0.63930800  0.09360700  0.02563100  1
  H  H36  1  0.13930800  0.09360700  0.47436900  1
  H  H37  1  0.63930800  0.40639300  0.52563100  1
  H  H38  1  0.86069200  0.59360700  0.02563100  1
  H  H39  1  0.36069200  0.90639300  0.97436900  1
  H  H40  1  0.80202400  0.02543400  0.43343600  1
  H  H41  1  0.30202400  0.47456600  0.56656400  1
  H  H42  1  0.19797600  0.52543400  0.06656400  1
  H  H43  1  0.69797600  0.97456600  0.93343600  1
  H  H44  1  0.19797600  0.97456600  0.56656400  1
  H  H45  1  0.69797600  0.52543400  0.43343600  1
  H  H46  1  0.80202400  0.47456600  0.93343600  1
  H  H47  1  0.30202400  0.02543400  0.06656400  1
  O  O48  1  0.50194900  0.96894500  0.35869700  1
  O  O49  1  0.00194900  0.53105500  0.64130300  1
  O  O50  1  0.49805100  0.46894500  0.14130300  1
  O  O51  1  0.99805100  0.03105500  0.85869700  1
  O  O52  1  0.49805100  0.03105500  0.64130300  1
  O  O53  1  0.99805100  0.46894500  0.35869700  1
  O  O54  1  0.50194900  0.53105500  0.85869700  1
  O  O55  1  0.00194900  0.96894500  0.14130300  1
  O  O56  1  0.71752100  0.16047600  0.39208400  1
  O  O57  1  0.21752100  0.33952400  0.60791600  1
  O  O58  1  0.28247900  0.66047600  0.10791600  1
  O  O59  1  0.78247900  0.83952400  0.89208400  1
  O  O60  1  0.28247900  0.83952400  0.60791600  1
  O  O61  1  0.78247900  0.66047600  0.39208400  1
  O  O62  1  0.71752100  0.33952400  0.89208400  1
  O  O63  1  0.21752100  0.16047600  0.10791600  1
  O  O64  1  0.50591500  0.19690000  0.20049700  1
  O  O65  1  0.00591500  0.30310000  0.79950300  1
  O  O66  1  0.49408500  0.69690000  0.29950300  1
  O  O67  1  0.99408500  0.80310000  0.70049700  1
  O  O68  1  0.49408500  0.80310000  0.79950300  1
  O  O69  1  0.99408500  0.69690000  0.20049700  1
  O  O70  1  0.50591500  0.30310000  0.70049700  1
  O  O71  1  0.00591500  0.19690000  0.29950300  1
  O  O72  1  0.41661600  0.22062900  0.45063700  1
  O  O73  1  0.91661600  0.27937100  0.54936300  1
  O  O74  1  0.58338400  0.72062900  0.04936300  1
  O  O75  1  0.08338400  0.77937100  0.95063700  1
  O  O76  1  0.58338400  0.77937100  0.54936300  1
  O  O77  1  0.08338400  0.72062900  0.45063700  1
  O  O78  1  0.41661600  0.27937100  0.95063700  1
  O  O79  1  0.91661600  0.22062900  0.04936300  1
  O  O80  1  0.72563000  0.88485600  0.19852600  1
  O  O81  1  0.22563000  0.61514400  0.80147400  1
  O  O82  1  0.27437000  0.38485600  0.30147400  1
  O  O83  1  0.77437000  0.11514400  0.69852600  1
  O  O84  1  0.27437000  0.11514400  0.80147400  1
  O  O85  1  0.77437000  0.38485600  0.19852600  1
  O  O86  1  0.72563000  0.61514400  0.69852600  1
  O  O87  1  0.22563000  0.88485600  0.30147400  1
  O  O88  1  0.82816200  0.92857800  0.43953300  1
  O  O89  1  0.32816200  0.57142200  0.56046700  1
  O  O90  1  0.17183800  0.42857800  0.06046700  1
  O  O91  1  0.67183800  0.07142200  0.93953300  1
  O  O92  1  0.17183800  0.07142200  0.56046700  1
  O  O93  1  0.67183800  0.42857800  0.43953300  1
  O  O94  1  0.82816200  0.57142200  0.93953300  1
  O  O95  1  0.32816200  0.92857800  0.06046700  1
