# generated using pymatgen
data_KVOF4
_symmetry_space_group_name_H-M   'P 1'
_cell_length_a   14.00243000
_cell_length_b   5.64153400
_cell_length_c   5.68503939
_cell_angle_alpha   84.15390599
_cell_angle_beta   90.00000000
_cell_angle_gamma   90.00000000
_symmetry_Int_Tables_number   1
_chemical_formula_structural   KVOF4
_chemical_formula_sum   'K4 V4 O4 F16'
_cell_volume   446.75505649
_cell_formula_units_Z   4
loop_
 _symmetry_equiv_pos_site_id
 _symmetry_equiv_pos_as_xyz
  1  'x, y, z'
loop_
 _atom_site_type_symbol
 _atom_site_label
 _atom_site_symmetry_multiplicity
 _atom_site_fract_x
 _atom_site_fract_y
 _atom_site_fract_z
 _atom_site_occupancy
  K  K0  1  0.87705600  0.45433500  0.73072600  1
  K  K1  1  0.62294400  0.95433500  0.73072600  1
  K  K2  1  0.12294400  0.54566500  0.26927400  1
  K  K3  1  0.37705600  0.04566500  0.26927400  1
  V  V4  1  0.64605900  0.44445700  0.21595700  1
  V  V5  1  0.85394100  0.94445700  0.21595700  1
  V  V6  1  0.35394100  0.55554300  0.78404300  1
  V  V7  1  0.14605900  0.05554300  0.78404300  1
  O  O8  1  0.58607100  0.66463500  0.29860300  1
  O  O9  1  0.41392900  0.33536500  0.70139700  1
  O  O10  1  0.91392900  0.16463500  0.29860300  1
  O  O11  1  0.08607100  0.83536500  0.70139700  1
  F  F12  1  0.39205700  0.56284900  0.09146700  1
  F  F13  1  0.06551600  0.31039800  0.70390900  1
  F  F14  1  0.24511900  0.39613900  0.91417000  1
  F  F15  1  0.78313300  0.84653000  0.48025300  1
  F  F16  1  0.28313300  0.65347000  0.51974700  1
  F  F17  1  0.10794300  0.06284900  0.09146700  1
  F  F18  1  0.25488100  0.89613900  0.91417000  1
  F  F19  1  0.71686700  0.34653000  0.48025300  1
  F  F20  1  0.89205700  0.93715100  0.90853200  1
  F  F21  1  0.43448400  0.81039800  0.70390900  1
  F  F22  1  0.74511900  0.10386100  0.08583000  1
  F  F23  1  0.93448400  0.68960200  0.29609100  1
  F  F24  1  0.56551600  0.18960200  0.29609100  1
  F  F25  1  0.75488100  0.60386100  0.08583000  1
  F  F26  1  0.21686700  0.15347000  0.51974700  1
  F  F27  1  0.60794300  0.43715100  0.90853200  1
