# generated using pymatgen
data_Ba2(Mo2S3)3
_symmetry_space_group_name_H-M   'P 1'
_cell_length_a   10.81029294
_cell_length_b   10.81029294
_cell_length_c   14.38887000
_cell_angle_alpha   90.00000000
_cell_angle_beta   90.00000000
_cell_angle_gamma   119.99999350
_symmetry_Int_Tables_number   1
_chemical_formula_structural   Ba2(Mo2S3)3
_chemical_formula_sum   'Ba8 Mo24 S36'
_cell_volume   1456.23771392
_cell_formula_units_Z   4
loop_
 _symmetry_equiv_pos_site_id
 _symmetry_equiv_pos_as_xyz
  1  'x, y, z'
loop_
 _atom_site_type_symbol
 _atom_site_label
 _atom_site_symmetry_multiplicity
 _atom_site_fract_x
 _atom_site_fract_y
 _atom_site_fract_z
 _atom_site_occupancy
  Ba  Ba0  1  0.18689600  0.81310400  0.74492400  1
  Ba  Ba1  1  0.18689600  0.37379300  0.74492400  1
  Ba  Ba2  1  0.00000000  0.00000000  0.44720800  1
  Ba  Ba3  1  0.00000000  0.00000000  0.94720800  1
  Ba  Ba4  1  0.62620700  0.81310400  0.74492400  1
  Ba  Ba5  1  0.37379300  0.18689600  0.24492400  1
  Ba  Ba6  1  0.81310400  0.62620700  0.24492400  1
  Ba  Ba7  1  0.81310400  0.18689600  0.24492400  1
  Mo  Mo8  1  0.24283400  0.75716600  0.36114700  1
  Mo  Mo9  1  0.24242000  0.75758000  0.13941500  1
  Mo  Mo10  1  0.16560300  0.58280200  0.51175000  1
  Mo  Mo11  1  0.16602900  0.58301500  0.98819400  1
  Mo  Mo12  1  0.24242000  0.48483900  0.13941500  1
  Mo  Mo13  1  0.41719800  0.83439700  0.51175000  1
  Mo  Mo14  1  0.41698500  0.83397100  0.98819400  1
  Mo  Mo15  1  0.24283400  0.48566800  0.36114700  1
  Mo  Mo16  1  0.41698500  0.58301500  0.98819400  1
  Mo  Mo17  1  0.41719800  0.58280200  0.51175000  1
  Mo  Mo18  1  0.51516100  0.75758000  0.13941500  1
  Mo  Mo19  1  0.51433200  0.75716600  0.36114700  1
  Mo  Mo20  1  0.48483900  0.24242000  0.63941500  1
  Mo  Mo21  1  0.48566800  0.24283400  0.86114700  1
  Mo  Mo22  1  0.58280200  0.41719800  0.01175000  1
  Mo  Mo23  1  0.58301500  0.41698500  0.48819400  1
  Mo  Mo24  1  0.58301500  0.16602900  0.48819400  1
  Mo  Mo25  1  0.75716600  0.51433200  0.86114700  1
  Mo  Mo26  1  0.58280200  0.16560300  0.01175000  1
  Mo  Mo27  1  0.75758000  0.51516100  0.63941500  1
  Mo  Mo28  1  0.83439700  0.41719800  0.01175000  1
  Mo  Mo29  1  0.83397100  0.41698500  0.48819400  1
  Mo  Mo30  1  0.75758000  0.24242000  0.63941500  1
  Mo  Mo31  1  0.75716600  0.24283400  0.86114700  1
  S  S32  1  0.13689600  0.86310400  0.25466700  1
  S  S33  1  0.18107700  0.81892300  0.51168000  1
  S  S34  1  0.18130700  0.81869300  0.98780600  1
  S  S35  1  0.02946400  0.51473200  0.13522600  1
  S  S36  1  0.02912200  0.51456100  0.36476300  1
  S  S37  1  0.33333300  0.66666700  0.25001000  1
  S  S38  1  0.48526800  0.97053600  0.13522600  1
  S  S39  1  0.48543900  0.97087800  0.36476300  1
  S  S40  1  0.33333300  0.66666700  0.64072800  1
  S  S41  1  0.33333300  0.66666700  0.85843900  1
  S  S42  1  0.18130700  0.36261300  0.98780600  1
  S  S43  1  0.13689600  0.27379300  0.25466700  1
  S  S44  1  0.18107700  0.36215400  0.51168000  1
  S  S45  1  0.27379300  0.13689600  0.75466700  1
  S  S46  1  0.48526800  0.51473200  0.13522600  1
  S  S47  1  0.48543900  0.51456100  0.36476300  1
  S  S48  1  0.63738700  0.81869300  0.98780600  1
  S  S49  1  0.63784600  0.81892300  0.51168000  1
  S  S50  1  0.36261300  0.18130700  0.48780600  1
  S  S51  1  0.36215400  0.18107700  0.01168000  1
  S  S52  1  0.51456100  0.48543900  0.86476300  1
  S  S53  1  0.51473200  0.48526800  0.63522600  1
  S  S54  1  0.72620700  0.86310400  0.25466700  1
  S  S55  1  0.66666700  0.33333300  0.14072800  1
  S  S56  1  0.51473200  0.02946400  0.63522600  1
  S  S57  1  0.81892300  0.63784600  0.01168000  1
  S  S58  1  0.66666700  0.33333300  0.35843900  1
  S  S59  1  0.86310400  0.72620700  0.75466700  1
  S  S60  1  0.66666700  0.33333300  0.75001000  1
  S  S61  1  0.81869300  0.63738700  0.48780600  1
  S  S62  1  0.51456100  0.02912200  0.86476300  1
  S  S63  1  0.97087800  0.48543900  0.86476300  1
  S  S64  1  0.97053600  0.48526800  0.63522600  1
  S  S65  1  0.81892300  0.18107700  0.01168000  1
  S  S66  1  0.81869300  0.18130700  0.48780600  1
  S  S67  1  0.86310400  0.13689600  0.75466700  1
