# generated using pymatgen
data_UMn2
_symmetry_space_group_name_H-M   'P 1'
_cell_length_a   5.04887611
_cell_length_b   5.04887611
_cell_length_c   5.04887611
_cell_angle_alpha   128.25911090
_cell_angle_beta   117.53840901
_cell_angle_gamma   85.32164779
_symmetry_Int_Tables_number   1
_chemical_formula_structural   UMn2
_chemical_formula_sum   'U2 Mn4'
_cell_volume   85.64759588
_cell_formula_units_Z   2
loop_
 _symmetry_equiv_pos_site_id
 _symmetry_equiv_pos_as_xyz
  1  'x, y, z'
loop_
 _atom_site_type_symbol
 _atom_site_label
 _atom_site_symmetry_multiplicity
 _atom_site_fract_x
 _atom_site_fract_y
 _atom_site_fract_z
 _atom_site_occupancy
  U  U0  1  0.61527000  0.86527000  0.75000000  1
  U  U1  1  0.38473000  0.13473000  0.25000000  1
  Mn  Mn2  1  0.50000000  0.50000000  0.00000000  1
  Mn  Mn3  1  0.00000000  0.50000000  0.50000000  1
  Mn  Mn4  1  0.00000000  0.00000000  0.50000000  1
  Mn  Mn5  1  0.00000000  0.50000000  0.00000000  1
