# generated using pymatgen
data_RbCrF5
_symmetry_space_group_name_H-M   'P 1'
_cell_length_a   5.65944300
_cell_length_b   7.85281900
_cell_length_c   10.50151800
_cell_angle_alpha   90.00000000
_cell_angle_beta   90.00000000
_cell_angle_gamma   90.00000000
_symmetry_Int_Tables_number   1
_chemical_formula_structural   RbCrF5
_chemical_formula_sum   'Rb4 Cr4 F20'
_cell_volume   466.71456980
_cell_formula_units_Z   4
loop_
 _symmetry_equiv_pos_site_id
 _symmetry_equiv_pos_as_xyz
  1  'x, y, z'
loop_
 _atom_site_type_symbol
 _atom_site_label
 _atom_site_symmetry_multiplicity
 _atom_site_fract_x
 _atom_site_fract_y
 _atom_site_fract_z
 _atom_site_occupancy
  Rb  Rb0  1  0.50000000  0.88706000  0.98160700  1
  Rb  Rb1  1  0.50000000  0.11294000  0.48160700  1
  Rb  Rb2  1  0.00000000  0.37357300  0.12616700  1
  Rb  Rb3  1  0.00000000  0.62642700  0.62616700  1
  Cr  Cr4  1  0.00000000  0.88162700  0.24222000  1
  Cr  Cr5  1  0.50000000  0.57620900  0.33842300  1
  Cr  Cr6  1  0.50000000  0.42379100  0.83842300  1
  Cr  Cr7  1  0.00000000  0.11837300  0.74222000  1
  F  F8  1  0.27197100  0.54746400  0.91760500  1
  F  F9  1  0.74911700  0.70294100  0.24306700  1
  F  F10  1  0.22738100  0.04507100  0.23293200  1
  F  F11  1  0.74911700  0.29705900  0.74306700  1
  F  F12  1  0.50000000  0.25057100  0.95160400  1
  F  F13  1  0.77261900  0.95492900  0.73293200  1
  F  F14  1  0.50000000  0.56042300  0.69855700  1
  F  F15  1  0.22738100  0.95492900  0.73293200  1
  F  F16  1  0.00000000  0.83936600  0.07214600  1
  F  F17  1  0.77261900  0.04507100  0.23293200  1
  F  F18  1  0.50000000  0.43957700  0.19855700  1
  F  F19  1  0.72802900  0.45253600  0.41760500  1
  F  F20  1  0.25088300  0.70294100  0.24306700  1
  F  F21  1  0.00000000  0.86491300  0.41357700  1
  F  F22  1  0.00000000  0.16063400  0.57214600  1
  F  F23  1  0.25088300  0.29705900  0.74306700  1
  F  F24  1  0.00000000  0.13508700  0.91357700  1
  F  F25  1  0.27197100  0.45253600  0.41760500  1
  F  F26  1  0.50000000  0.74942900  0.45160400  1
  F  F27  1  0.72802900  0.54746400  0.91760500  1
