# generated using pymatgen
data_Ga2Te2MoO10
_symmetry_space_group_name_H-M   'P 1'
_cell_length_a   6.16133100
_cell_length_b   8.96499100
_cell_length_c   15.30237600
_cell_angle_alpha   90.00000000
_cell_angle_beta   90.00000000
_cell_angle_gamma   90.00000000
_symmetry_Int_Tables_number   1
_chemical_formula_structural   Ga2Te2MoO10
_chemical_formula_sum   'Ga8 Te8 Mo4 O40'
_cell_volume   845.24627893
_cell_formula_units_Z   4
loop_
 _symmetry_equiv_pos_site_id
 _symmetry_equiv_pos_as_xyz
  1  'x, y, z'
loop_
 _atom_site_type_symbol
 _atom_site_label
 _atom_site_symmetry_multiplicity
 _atom_site_fract_x
 _atom_site_fract_y
 _atom_site_fract_z
 _atom_site_occupancy
  Ga  Ga0  1  0.49562800  0.50614800  0.85219300  1
  Ga  Ga1  1  0.50437200  0.49385200  0.14780700  1
  Ga  Ga2  1  0.49562800  0.00614800  0.64780700  1
  Ga  Ga3  1  0.99562800  0.49385200  0.14780700  1
  Ga  Ga4  1  0.00437200  0.00614800  0.64780700  1
  Ga  Ga5  1  0.99562800  0.99385200  0.35219300  1
  Ga  Ga6  1  0.00437200  0.50614800  0.85219300  1
  Ga  Ga7  1  0.50437200  0.99385200  0.35219300  1
  Te  Te8  1  0.75000000  0.68808600  0.68421700  1
  Te  Te9  1  0.75000000  0.75425700  0.00841200  1
  Te  Te10  1  0.25000000  0.24574300  0.99158800  1
  Te  Te11  1  0.75000000  0.18808600  0.81578300  1
  Te  Te12  1  0.25000000  0.81191400  0.18421700  1
  Te  Te13  1  0.75000000  0.25425700  0.49158800  1
  Te  Te14  1  0.25000000  0.31191400  0.31578300  1
  Te  Te15  1  0.25000000  0.74574300  0.50841200  1
  Mo  Mo16  1  0.25000000  0.32553700  0.66426400  1
  Mo  Mo17  1  0.25000000  0.82553700  0.83573600  1
  Mo  Mo18  1  0.75000000  0.67446300  0.33573600  1
  Mo  Mo19  1  0.75000000  0.17446300  0.16426400  1
  O  O20  1  0.01686000  0.82491400  0.57575800  1
  O  O21  1  0.48555600  0.83295700  0.26568700  1
  O  O22  1  0.98314000  0.67508600  0.07575800  1
  O  O23  1  0.75000000  0.58526900  0.22465000  1
  O  O24  1  0.48314000  0.32491400  0.92424200  1
  O  O25  1  0.75000000  0.08526900  0.27535000  1
  O  O26  1  0.52880700  0.09097000  0.11090600  1
  O  O27  1  0.25000000  0.90364500  0.42330200  1
  O  O28  1  0.48314000  0.82491400  0.57575800  1
  O  O29  1  0.75000000  0.40383600  0.79621200  1
  O  O30  1  0.98314000  0.17508600  0.42424200  1
  O  O31  1  0.97119300  0.09097000  0.11090600  1
  O  O32  1  0.02880700  0.90903000  0.88909400  1
  O  O33  1  0.25000000  0.62537300  0.89526200  1
  O  O34  1  0.25000000  0.91473100  0.72465000  1
  O  O35  1  0.75000000  0.87462700  0.39526200  1
  O  O36  1  0.75000000  0.59635500  0.92330200  1
  O  O37  1  0.52880700  0.59097000  0.38909400  1
  O  O38  1  0.51444400  0.16704300  0.73431300  1
  O  O39  1  0.75000000  0.37462700  0.10473800  1
  O  O40  1  0.25000000  0.40364500  0.07669800  1
  O  O41  1  0.47119300  0.90903000  0.88909400  1
  O  O42  1  0.01444400  0.33295700  0.23431300  1
  O  O43  1  0.98555600  0.66704300  0.76568700  1
  O  O44  1  0.97119300  0.59097000  0.38909400  1
  O  O45  1  0.51444400  0.66704300  0.76568700  1
  O  O46  1  0.25000000  0.12537300  0.60473800  1
  O  O47  1  0.25000000  0.59616400  0.20378800  1
  O  O48  1  0.51686000  0.67508600  0.07575800  1
  O  O49  1  0.51686000  0.17508600  0.42424200  1
  O  O50  1  0.02880700  0.40903000  0.61090600  1
  O  O51  1  0.25000000  0.09616400  0.29621200  1
  O  O52  1  0.98555600  0.16704300  0.73431300  1
  O  O53  1  0.47119300  0.40903000  0.61090600  1
  O  O54  1  0.75000000  0.90383600  0.70378800  1
  O  O55  1  0.48555600  0.33295700  0.23431300  1
  O  O56  1  0.25000000  0.41473100  0.77535000  1
  O  O57  1  0.75000000  0.09635500  0.57669800  1
  O  O58  1  0.01686000  0.32491400  0.92424200  1
  O  O59  1  0.01444400  0.83295700  0.26568700  1
