# generated using pymatgen
data_Cs2Cr4Cd(HO4)4
_symmetry_space_group_name_H-M   'P 1'
_cell_length_a   7.70983900
_cell_length_b   8.13315583
_cell_length_c   8.17140319
_cell_angle_alpha   91.14721732
_cell_angle_beta   116.90365275
_cell_angle_gamma   98.54037523
_symmetry_Int_Tables_number   1
_chemical_formula_structural   Cs2Cr4Cd(HO4)4
_chemical_formula_sum   'Cs2 Cr4 Cd1 H4 O16'
_cell_volume   449.65164608
_cell_formula_units_Z   1
loop_
 _symmetry_equiv_pos_site_id
 _symmetry_equiv_pos_as_xyz
  1  'x, y, z'
loop_
 _atom_site_type_symbol
 _atom_site_label
 _atom_site_symmetry_multiplicity
 _atom_site_fract_x
 _atom_site_fract_y
 _atom_site_fract_z
 _atom_site_occupancy
  Cs  Cs0  1  0.73245800  0.82758500  0.25949300  1
  Cs  Cs1  1  0.26754200  0.17241500  0.74050700  1
  Cr  Cr2  1  0.26354900  0.67491200  0.49818000  1
  Cr  Cr3  1  0.73645100  0.32508800  0.50182000  1
  Cr  Cr4  1  0.71525800  0.84523600  0.77032400  1
  Cr  Cr5  1  0.28474200  0.15476400  0.22967600  1
  Cd  Cd6  1  0.00000000  0.50000000  0.00000000  1
  H  H7  1  0.76200900  0.19422400  0.99204400  1
  H  H8  1  0.81257500  0.28840900  0.18245700  1
  H  H9  1  0.18742500  0.71159100  0.81754300  1
  H  H10  1  0.23799100  0.80577600  0.00795600  1
  O  O11  1  0.89617500  0.92427900  0.73088700  1
  O  O12  1  0.10382500  0.07572100  0.26911300  1
  O  O13  1  0.78015500  0.30716100  0.05243900  1
  O  O14  1  0.82814300  0.22221700  0.39366500  1
  O  O15  1  0.49589200  0.21562200  0.44997700  1
  O  O16  1  0.88129500  0.33947700  0.72688500  1
  O  O17  1  0.71701300  0.50792700  0.43007300  1
  O  O18  1  0.17185700  0.77778300  0.60633500  1
  O  O19  1  0.50410800  0.78437800  0.55002300  1
  O  O20  1  0.76704100  0.68182000  0.88954000  1
  O  O21  1  0.11870500  0.66052300  0.27311500  1
  O  O22  1  0.33198200  0.01528100  0.11410800  1
  O  O23  1  0.66801800  0.98471900  0.88589200  1
  O  O24  1  0.21984500  0.69283900  0.94756100  1
  O  O25  1  0.28298700  0.49207300  0.56992700  1
  O  O26  1  0.23295900  0.31818000  0.11046000  1
