# generated using pymatgen
data_Dy2Ni7Sn3
_symmetry_space_group_name_H-M   'P 1'
_cell_length_a   12.62326547
_cell_length_b   12.62326547
_cell_length_c   7.55798900
_cell_angle_alpha   90.00000000
_cell_angle_beta   90.00000000
_cell_angle_gamma   140.19054275
_symmetry_Int_Tables_number   1
_chemical_formula_structural   Dy2Ni7Sn3
_chemical_formula_sum   'Dy8 Ni28 Sn12'
_cell_volume   771.06345350
_cell_formula_units_Z   4
loop_
 _symmetry_equiv_pos_site_id
 _symmetry_equiv_pos_as_xyz
  1  'x, y, z'
loop_
 _atom_site_type_symbol
 _atom_site_label
 _atom_site_symmetry_multiplicity
 _atom_site_fract_x
 _atom_site_fract_y
 _atom_site_fract_z
 _atom_site_occupancy
  Dy  Dy0  1  0.70667300  0.70667300  0.50000000  1
  Dy  Dy1  1  0.19355000  0.80645000  0.42706100  1
  Dy  Dy2  1  0.79332700  0.79332700  0.00000000  1
  Dy  Dy3  1  0.80645000  0.19355000  0.57293900  1
  Dy  Dy4  1  0.20667300  0.20667300  0.00000000  1
  Dy  Dy5  1  0.29332700  0.29332700  0.50000000  1
  Dy  Dy6  1  0.30645000  0.69355000  0.92706100  1
  Dy  Dy7  1  0.69355000  0.30645000  0.07293900  1
  Ni  Ni8  1  0.16510700  0.83489300  0.80990500  1
  Ni  Ni9  1  0.12321800  0.35558200  0.40816300  1
  Ni  Ni10  1  0.85558200  0.62321800  0.90816300  1
  Ni  Ni11  1  0.45132800  0.84623200  0.57845300  1
  Ni  Ni12  1  0.54867200  0.15376800  0.42154700  1
  Ni  Ni13  1  0.95132800  0.34623200  0.92154700  1
  Ni  Ni14  1  0.87678200  0.64441800  0.59183700  1
  Ni  Ni15  1  0.65376800  0.04867200  0.92154700  1
  Ni  Ni16  1  0.15376800  0.54867200  0.57845300  1
  Ni  Ni17  1  0.60093500  0.39906500  0.44455900  1
  Ni  Ni18  1  0.10093500  0.89906500  0.05544100  1
  Ni  Ni19  1  0.64441800  0.87678200  0.40816300  1
  Ni  Ni20  1  0.66510700  0.33489300  0.69009500  1
  Ni  Ni21  1  0.34623200  0.95132800  0.07845300  1
  Ni  Ni22  1  0.62321800  0.85558200  0.09183700  1
  Ni  Ni23  1  0.04867200  0.65376800  0.07845300  1
  Ni  Ni24  1  0.14441800  0.37678200  0.09183700  1
  Ni  Ni25  1  0.95355300  0.04644700  0.64672500  1
  Ni  Ni26  1  0.89906500  0.10093500  0.94455900  1
  Ni  Ni27  1  0.83489300  0.16510700  0.19009500  1
  Ni  Ni28  1  0.37678200  0.14441800  0.90816300  1
  Ni  Ni29  1  0.84623200  0.45132800  0.42154700  1
  Ni  Ni30  1  0.39906500  0.60093500  0.55544100  1
  Ni  Ni31  1  0.04644700  0.95355300  0.35327500  1
  Ni  Ni32  1  0.54644700  0.45355300  0.14672500  1
  Ni  Ni33  1  0.45355300  0.54644700  0.85327500  1
  Ni  Ni34  1  0.35558200  0.12321800  0.59183700  1
  Ni  Ni35  1  0.33489300  0.66510700  0.30990500  1
  Sn  Sn36  1  0.03150600  0.46849400  0.25000000  1
  Sn  Sn37  1  0.46849400  0.03150600  0.75000000  1
  Sn  Sn38  1  0.43803500  0.56196500  0.20486600  1
  Sn  Sn39  1  0.35605100  0.14394900  0.25000000  1
  Sn  Sn40  1  0.14394900  0.35605100  0.75000000  1
  Sn  Sn41  1  0.06196500  0.93803500  0.70486600  1
  Sn  Sn42  1  0.64394900  0.85605100  0.75000000  1
  Sn  Sn43  1  0.53150600  0.96849400  0.25000000  1
  Sn  Sn44  1  0.56196500  0.43803500  0.79513400  1
  Sn  Sn45  1  0.93803500  0.06196500  0.29513400  1
  Sn  Sn46  1  0.96849400  0.53150600  0.75000000  1
  Sn  Sn47  1  0.85605100  0.64394900  0.25000000  1
