# generated using pymatgen
data_K2(ReS2)3
_symmetry_space_group_name_H-M   'P 1'
_cell_length_a   9.71259734
_cell_length_b   9.71259734
_cell_length_c   12.03462058
_cell_angle_alpha   88.80829371
_cell_angle_beta   88.80829371
_cell_angle_gamma   61.08937037
_symmetry_Int_Tables_number   1
_chemical_formula_structural   K2(ReS2)3
_chemical_formula_sum   'K8 Re12 S24'
_cell_volume   993.50616978
_cell_formula_units_Z   4
loop_
 _symmetry_equiv_pos_site_id
 _symmetry_equiv_pos_as_xyz
  1  'x, y, z'
loop_
 _atom_site_type_symbol
 _atom_site_label
 _atom_site_symmetry_multiplicity
 _atom_site_fract_x
 _atom_site_fract_y
 _atom_site_fract_z
 _atom_site_occupancy
  K  K0  1  0.60094700  0.39905300  0.25000000  1
  K  K1  1  0.39905300  0.60094700  0.75000000  1
  K  K2  1  0.20967000  0.79033000  0.25000000  1
  K  K3  1  0.79033000  0.20967000  0.75000000  1
  K  K4  1  0.35632000  0.87872400  0.98000600  1
  K  K5  1  0.12127600  0.64368000  0.51999400  1
  K  K6  1  0.64368000  0.12127600  0.01999400  1
  K  K7  1  0.87872400  0.35632000  0.48000600  1
  Re  Re8  1  0.69100000  0.99662000  0.47451700  1
  Re  Re9  1  0.00338000  0.30900000  0.02548300  1
  Re  Re10  1  0.30900000  0.00338000  0.52548300  1
  Re  Re11  1  0.99662000  0.69100000  0.97451700  1
  Re  Re12  1  0.53065000  0.88435300  0.36979800  1
  Re  Re13  1  0.11564700  0.46935000  0.13020200  1
  Re  Re14  1  0.46935000  0.11564700  0.63020200  1
  Re  Re15  1  0.88435300  0.53065000  0.86979800  1
  Re  Re16  1  0.39686800  0.18785800  0.41667800  1
  Re  Re17  1  0.81214200  0.60313200  0.08332200  1
  Re  Re18  1  0.60313200  0.81214200  0.58332200  1
  Re  Re19  1  0.18785800  0.39686800  0.91667800  1
  S  S20  1  0.74276200  0.92855400  0.66848000  1
  S  S21  1  0.07144600  0.25723800  0.83152000  1
  S  S22  1  0.25723800  0.07144600  0.33152000  1
  S  S23  1  0.92855400  0.74276200  0.16848000  1
  S  S24  1  0.28055600  0.20457300  0.06834400  1
  S  S25  1  0.79542700  0.71944400  0.43165600  1
  S  S26  1  0.71944400  0.79542700  0.93165600  1
  S  S27  1  0.20457300  0.28055600  0.56834400  1
  S  S28  1  0.38909900  0.93907700  0.71706000  1
  S  S29  1  0.06092300  0.61090100  0.78294000  1
  S  S30  1  0.61090100  0.06092300  0.28294000  1
  S  S31  1  0.93907700  0.38909900  0.21706000  1
  S  S32  1  0.44572900  0.72362400  0.47995700  1
  S  S33  1  0.27637600  0.55427100  0.02004300  1
  S  S34  1  0.55427100  0.27637600  0.52004300  1
  S  S35  1  0.72362400  0.44572900  0.97995700  1
  S  S36  1  0.00076400  0.93936000  0.92663400  1
  S  S37  1  0.06064000  0.99923600  0.57336600  1
  S  S38  1  0.99923600  0.06064000  0.07336600  1
  S  S39  1  0.93936000  0.00076400  0.42663400  1
  S  S40  1  0.56218600  0.73472300  0.19568100  1
  S  S41  1  0.26527700  0.43781400  0.30431900  1
  S  S42  1  0.43781400  0.26527700  0.80431900  1
  S  S43  1  0.73472300  0.56218600  0.69568100  1
