# generated using pymatgen
data_P2Pb(XeF6)3
_symmetry_space_group_name_H-M   'P 1'
_cell_length_a   8.80904319
_cell_length_b   8.80904319
_cell_length_c   11.24166331
_cell_angle_alpha   83.69426777
_cell_angle_beta   83.69426777
_cell_angle_gamma   89.13692192
_symmetry_Int_Tables_number   1
_chemical_formula_structural   P2Pb(XeF6)3
_chemical_formula_sum   'P4 Pb2 Xe6 F36'
_cell_volume   861.81709131
_cell_formula_units_Z   2
loop_
 _symmetry_equiv_pos_site_id
 _symmetry_equiv_pos_as_xyz
  1  'x, y, z'
loop_
 _atom_site_type_symbol
 _atom_site_label
 _atom_site_symmetry_multiplicity
 _atom_site_fract_x
 _atom_site_fract_y
 _atom_site_fract_z
 _atom_site_occupancy
  P  P0  1  0.19926300  0.19926300  0.40558300  1
  P  P1  1  0.50000000  0.00000000  0.00000000  1
  P  P2  1  0.80073700  0.80073700  0.59441700  1
  P  P3  1  0.00000000  0.50000000  0.00000000  1
  Pb  Pb4  1  0.28456900  0.28456900  0.72119700  1
  Pb  Pb5  1  0.71543100  0.71543100  0.27880300  1
  Xe  Xe6  1  0.31874100  0.79414800  0.66391500  1
  Xe  Xe7  1  0.68125900  0.20585200  0.33608500  1
  Xe  Xe8  1  0.20585200  0.68125900  0.33608500  1
  Xe  Xe9  1  0.79414800  0.31874100  0.66391500  1
  Xe  Xe10  1  0.50000000  0.50000000  0.00000000  1
  Xe  Xe11  1  0.00000000  0.00000000  0.00000000  1
  F  F12  1  0.61011600  0.86458600  0.06245100  1
  F  F13  1  0.66692400  0.93070500  0.59106400  1
  F  F14  1  0.13541400  0.38988400  0.93754900  1
  F  F15  1  0.38988400  0.13541400  0.93754900  1
  F  F16  1  0.01886700  0.36363300  0.68803700  1
  F  F17  1  0.62837600  0.02920800  0.88462000  1
  F  F18  1  0.12832300  0.58163100  0.06596100  1
  F  F19  1  0.30360600  0.30360600  0.48884900  1
  F  F20  1  0.53988400  0.53988400  0.17356600  1
  F  F21  1  0.88306300  0.88306300  0.46575200  1
  F  F22  1  0.36363300  0.01886700  0.68803700  1
  F  F23  1  0.37162400  0.97079200  0.11538000  1
  F  F24  1  0.46011600  0.46011600  0.82643400  1
  F  F25  1  0.10081800  0.10081800  0.32917800  1
  F  F26  1  0.87167700  0.41836900  0.93403900  1
  F  F27  1  0.28931500  0.28931500  0.28513200  1
  F  F28  1  0.11693700  0.11693700  0.53424800  1
  F  F29  1  0.69639400  0.69639400  0.51115100  1
  F  F30  1  0.08590200  0.08590200  0.82619100  1
  F  F31  1  0.41836900  0.87167700  0.93403900  1
  F  F32  1  0.06929500  0.33307600  0.40893600  1
  F  F33  1  0.89918200  0.89918200  0.67082200  1
  F  F34  1  0.43172600  0.71972400  0.36668800  1
  F  F35  1  0.56827400  0.28027600  0.63331200  1
  F  F36  1  0.33307600  0.06929500  0.40893600  1
  F  F37  1  0.02920800  0.62837600  0.88462000  1
  F  F38  1  0.86458600  0.61011600  0.06245100  1
  F  F39  1  0.93070500  0.66692400  0.59106400  1
  F  F40  1  0.71972400  0.43172600  0.36668800  1
  F  F41  1  0.97079200  0.37162400  0.11538000  1
  F  F42  1  0.91409800  0.91409800  0.17380900  1
  F  F43  1  0.58163100  0.12832300  0.06596100  1
  F  F44  1  0.98113400  0.63636700  0.31196300  1
  F  F45  1  0.63636700  0.98113300  0.31196300  1
  F  F46  1  0.28027600  0.56827400  0.63331200  1
  F  F47  1  0.71068500  0.71068500  0.71486800  1
