# generated using pymatgen
data_KZrF5
_symmetry_space_group_name_H-M   'P 1'
_cell_length_a   7.50441900
_cell_length_b   8.62215707
_cell_length_c   10.91779745
_cell_angle_alpha   75.21117542
_cell_angle_beta   71.72643609
_cell_angle_gamma   66.21246913
_symmetry_Int_Tables_number   1
_chemical_formula_structural   KZrF5
_chemical_formula_sum   'K6 Zr6 F30'
_cell_volume   607.03707572
_cell_formula_units_Z   6
loop_
 _symmetry_equiv_pos_site_id
 _symmetry_equiv_pos_as_xyz
  1  'x, y, z'
loop_
 _atom_site_type_symbol
 _atom_site_label
 _atom_site_symmetry_multiplicity
 _atom_site_fract_x
 _atom_site_fract_y
 _atom_site_fract_z
 _atom_site_occupancy
  K  K0  1  0.71625600  0.50622000  0.76715800  1
  K  K1  1  0.74547100  0.15717500  0.07157600  1
  K  K2  1  0.22320700  0.17758100  0.57905000  1
  K  K3  1  0.77679300  0.82241900  0.42095000  1
  K  K4  1  0.25452900  0.84282500  0.92842400  1
  K  K5  1  0.28374400  0.49378000  0.23284200  1
  Zr  Zr6  1  0.76619100  0.65919400  0.08065600  1
  Zr  Zr7  1  0.74043000  0.33323100  0.43128100  1
  Zr  Zr8  1  0.25957000  0.66676900  0.56871900  1
  Zr  Zr9  1  0.28120700  0.97194800  0.25493200  1
  Zr  Zr10  1  0.23380900  0.34080600  0.91934400  1
  Zr  Zr11  1  0.71879300  0.02805200  0.74506800  1
  F  F12  1  0.62891100  0.12747900  0.55618400  1
  F  F13  1  0.97974100  0.72091700  0.11230100  1
  F  F14  1  0.32615100  0.12726800  0.06074000  1
  F  F15  1  0.81973300  0.24128000  0.62247600  1
  F  F16  1  0.03565200  0.57700100  0.59820400  1
  F  F17  1  0.38997600  0.11485600  0.80172900  1
  F  F18  1  0.00849800  0.11229100  0.38693800  1
  F  F19  1  0.66421400  0.51043600  0.02411500  1
  F  F20  1  0.57874200  0.23569800  0.86128500  1
  F  F21  1  0.68520500  0.24544700  0.29870900  1
  F  F22  1  0.99185000  0.59777700  0.89809100  1
  F  F23  1  0.05963100  0.99157000  0.17736500  1
  F  F24  1  0.61002400  0.88514400  0.19827100  1
  F  F25  1  0.59242700  0.55779200  0.53539400  1
  F  F26  1  0.34514600  0.16552900  0.28255400  1
  F  F27  1  0.40757300  0.44220800  0.46460600  1
  F  F28  1  0.67384900  0.87273200  0.93926000  1
  F  F29  1  0.02025900  0.27908300  0.88769900  1
  F  F30  1  0.00815000  0.40222300  0.10190900  1
  F  F31  1  0.18026700  0.75872000  0.37752400  1
  F  F32  1  0.65485400  0.83447100  0.71744600  1
  F  F33  1  0.68522000  0.55219200  0.27672900  1
  F  F34  1  0.99150200  0.88770900  0.61306200  1
  F  F35  1  0.42125800  0.76430200  0.13871500  1
  F  F36  1  0.31478000  0.44780800  0.72327100  1
  F  F37  1  0.96434800  0.42299900  0.40179600  1
  F  F38  1  0.94036900  0.00843000  0.82263500  1
  F  F39  1  0.33578600  0.48956400  0.97588500  1
  F  F40  1  0.31479500  0.75455300  0.70129100  1
  F  F41  1  0.37108900  0.87252100  0.44381600  1
