# generated using pymatgen
data_ZnS
_symmetry_space_group_name_H-M   'P 1'
_cell_length_a   3.85201402
_cell_length_b   3.85201402
_cell_length_c   44.10315600
_cell_angle_alpha   90.00000000
_cell_angle_beta   90.00000000
_cell_angle_gamma   120.00000030
_symmetry_Int_Tables_number   1
_chemical_formula_structural   ZnS
_chemical_formula_sum   'Zn14 S14'
_cell_volume   566.72975707
_cell_formula_units_Z   14
loop_
 _symmetry_equiv_pos_site_id
 _symmetry_equiv_pos_as_xyz
  1  'x, y, z'
loop_
 _atom_site_type_symbol
 _atom_site_label
 _atom_site_symmetry_multiplicity
 _atom_site_fract_x
 _atom_site_fract_y
 _atom_site_fract_z
 _atom_site_occupancy
  Zn  Zn0  1  0.00000000  0.00000000  0.14286400  1
  Zn  Zn1  1  0.66666700  0.33333300  0.78573500  1
  Zn  Zn2  1  0.66666700  0.33333300  0.07143300  1
  Zn  Zn3  1  0.00000000  0.00000000  0.57143800  1
  Zn  Zn4  1  0.33333300  0.66666700  0.21428600  1
  Zn  Zn5  1  0.00000000  0.00000000  0.71430400  1
  Zn  Zn6  1  0.66666700  0.33333300  0.64286700  1
  Zn  Zn7  1  0.33333300  0.66666700  0.35716200  1
  Zn  Zn8  1  0.33333300  0.66666700  0.00002000  1
  Zn  Zn9  1  0.00000000  0.00000000  0.42856600  1
  Zn  Zn10  1  0.00000000  0.00000000  0.92856800  1
  Zn  Zn11  1  0.66666700  0.33333300  0.28571300  1
  Zn  Zn12  1  0.66666700  0.33333300  0.49999100  1
  Zn  Zn13  1  0.33333300  0.66666700  0.85713800  1
  S  S14  1  0.00000000  0.00000000  0.98218100  1
  S  S15  1  0.00000000  0.00000000  0.19642800  1
  S  S16  1  0.66666700  0.33333300  0.33932600  1
  S  S17  1  0.66666700  0.33333300  0.69642200  1
  S  S18  1  0.00000000  0.00000000  0.76789700  1
  S  S19  1  0.33333300  0.66666700  0.91066300  1
  S  S20  1  0.33333300  0.66666700  0.26781000  1
  S  S21  1  0.66666700  0.33333300  0.55356400  1
  S  S22  1  0.33333300  0.66666700  0.41070400  1
  S  S23  1  0.33333300  0.66666700  0.05356300  1
  S  S24  1  0.00000000  0.00000000  0.48209100  1
  S  S25  1  0.00000000  0.00000000  0.62499200  1
  S  S26  1  0.66666700  0.33333300  0.83927800  1
  S  S27  1  0.66666700  0.33333300  0.12499500  1
