# generated using pymatgen
data_TiAl3
_symmetry_space_group_name_H-M   'P 1'
_cell_length_a   5.08788711
_cell_length_b   5.08788711
_cell_length_c   5.08788711
_cell_angle_alpha   135.61041778
_cell_angle_beta   135.61041778
_cell_angle_gamma   64.58321390
_symmetry_Int_Tables_number   1
_chemical_formula_structural   TiAl3
_chemical_formula_sum   'Ti1 Al3'
_cell_volume   63.55182301
_cell_formula_units_Z   1
loop_
 _symmetry_equiv_pos_site_id
 _symmetry_equiv_pos_as_xyz
  1  'x, y, z'
loop_
 _atom_site_type_symbol
 _atom_site_label
 _atom_site_symmetry_multiplicity
 _atom_site_fract_x
 _atom_site_fract_y
 _atom_site_fract_z
 _atom_site_occupancy
  Ti  Ti0  1  0.00000000  0.00000000  0.00000000  1
  Al  Al1  1  0.50000000  0.50000000  0.00000000  1
  Al  Al2  1  0.75000000  0.25000000  0.50000000  1
  Al  Al3  1  0.25000000  0.75000000  0.50000000  1
