# generated using pymatgen
data_Cs4Nb2Si8O23
_symmetry_space_group_name_H-M   'P 1'
_cell_length_a   7.10938400
_cell_length_b   8.00472656
_cell_length_c   11.22863681
_cell_angle_alpha   102.95379090
_cell_angle_beta   89.80294556
_cell_angle_gamma   108.23838128
_symmetry_Int_Tables_number   1
_chemical_formula_structural   Cs4Nb2Si8O23
_chemical_formula_sum   'Cs4 Nb2 Si8 O23'
_cell_volume   589.92125651
_cell_formula_units_Z   1
loop_
 _symmetry_equiv_pos_site_id
 _symmetry_equiv_pos_as_xyz
  1  'x, y, z'
loop_
 _atom_site_type_symbol
 _atom_site_label
 _atom_site_symmetry_multiplicity
 _atom_site_fract_x
 _atom_site_fract_y
 _atom_site_fract_z
 _atom_site_occupancy
  Cs  Cs0  1  0.79167600  0.21295900  0.98688500  1
  Cs  Cs1  1  0.17430000  0.71833500  0.36272300  1
  Cs  Cs2  1  0.82570000  0.28166500  0.63727700  1
  Cs  Cs3  1  0.20832400  0.78704100  0.01311500  1
  Nb  Nb4  1  0.70477100  0.74207000  0.18588500  1
  Nb  Nb5  1  0.29522900  0.25793000  0.81411500  1
  Si  Si6  1  0.34159900  0.33046300  0.13201200  1
  Si  Si7  1  0.56623000  0.14066200  0.28708300  1
  Si  Si8  1  0.64754000  0.70320200  0.50173700  1
  Si  Si9  1  0.99529200  0.81286800  0.70438600  1
  Si  Si10  1  0.43377000  0.85933800  0.71291700  1
  Si  Si11  1  0.00470800  0.18713200  0.29561400  1
  Si  Si12  1  0.35246000  0.29679800  0.49826300  1
  Si  Si13  1  0.65840100  0.66953700  0.86798800  1
  O  O14  1  0.45552200  0.15450700  0.41711600  1
  O  O15  1  0.51778400  0.75151900  0.79736600  1
  O  O16  1  0.85868000  0.60015300  0.15217100  1
  O  O17  1  0.30148500  0.22085600  0.98953500  1
  O  O18  1  0.87124800  0.70110200  0.80132400  1
  O  O19  1  0.46924300  0.06569200  0.78011000  1
  O  O20  1  0.43779000  0.54772600  0.14926800  1
  O  O21  1  0.68061100  0.73668400  0.36716700  1
  O  O22  1  0.56221000  0.45227400  0.85073200  1
  O  O23  1  0.13618400  0.26436100  0.42826800  1
  O  O24  1  0.53075700  0.93430800  0.21989000  1
  O  O25  1  0.69851500  0.77914400  0.01046500  1
  O  O26  1  0.12875200  0.29889800  0.19867600  1
  O  O27  1  0.19354800  0.74883300  0.67828500  1
  O  O28  1  0.95122800  0.97228900  0.24197400  1
  O  O29  1  0.86381600  0.73563900  0.57173200  1
  O  O30  1  0.50000000  0.50000000  0.50000000  1
  O  O31  1  0.48221600  0.24848100  0.20263400  1
  O  O32  1  0.14132000  0.39984700  0.84782900  1
  O  O33  1  0.04877200  0.02771100  0.75802600  1
  O  O34  1  0.80645200  0.25116700  0.32171500  1
  O  O35  1  0.31938900  0.26331600  0.63283300  1
  O  O36  1  0.54447800  0.84549300  0.58288400  1
