# generated using pymatgen
data_Cr2Te4O11
_symmetry_space_group_name_H-M   'P 1'
_cell_length_a   7.74043600
_cell_length_b   7.12174100
_cell_length_c   9.92852819
_cell_angle_alpha   80.50600201
_cell_angle_beta   90.00000000
_cell_angle_gamma   90.00000000
_symmetry_Int_Tables_number   1
_chemical_formula_structural   Cr2Te4O11
_chemical_formula_sum   'Cr4 Te8 O22'
_cell_volume   539.81727227
_cell_formula_units_Z   2
loop_
 _symmetry_equiv_pos_site_id
 _symmetry_equiv_pos_as_xyz
  1  'x, y, z'
loop_
 _atom_site_type_symbol
 _atom_site_label
 _atom_site_symmetry_multiplicity
 _atom_site_fract_x
 _atom_site_fract_y
 _atom_site_fract_z
 _atom_site_occupancy
  Cr  Cr0  1  0.49896100  0.68224300  0.38461800  1
  Cr  Cr1  1  0.99896100  0.31775700  0.11538200  1
  Cr  Cr2  1  0.50103900  0.31775700  0.61538200  1
  Cr  Cr3  1  0.00103900  0.68224300  0.88461800  1
  Te  Te4  1  0.14498900  0.85647100  0.17471200  1
  Te  Te5  1  0.64498900  0.14352900  0.32528800  1
  Te  Te6  1  0.85501100  0.14352900  0.82528800  1
  Te  Te7  1  0.35501100  0.85647100  0.67471200  1
  Te  Te8  1  0.13987800  0.32756000  0.41353300  1
  Te  Te9  1  0.63987800  0.67244000  0.08646700  1
  Te  Te10  1  0.86012200  0.67244000  0.58646700  1
  Te  Te11  1  0.36012200  0.32756000  0.91353300  1
  O  O12  1  0.35059800  0.84176400  0.48614000  1
  O  O13  1  0.85059800  0.15823600  0.01386000  1
  O  O14  1  0.64940200  0.15823600  0.51386000  1
  O  O15  1  0.14940200  0.84176400  0.98614000  1
  O  O16  1  0.36029600  0.43712200  0.44963400  1
  O  O17  1  0.86029600  0.56287800  0.05036600  1
  O  O18  1  0.63970400  0.56287800  0.55036600  1
  O  O19  1  0.13970400  0.43712200  0.94963400  1
  O  O20  1  0.63094700  0.53024700  0.26349800  1
  O  O21  1  0.13094700  0.46975300  0.23650200  1
  O  O22  1  0.36905300  0.46975300  0.73650200  1
  O  O23  1  0.86905300  0.53024700  0.76349800  1
  O  O24  1  0.68753700  0.87487900  0.34530000  1
  O  O25  1  0.18753700  0.12512100  0.15470000  1
  O  O26  1  0.31246300  0.12512100  0.65470000  1
  O  O27  1  0.81246300  0.87487900  0.84530000  1
  O  O28  1  0.38259100  0.79556500  0.20859500  1
  O  O29  1  0.88259100  0.20443500  0.29140500  1
  O  O30  1  0.61740900  0.20443500  0.79140500  1
  O  O31  1  0.11740900  0.79556500  0.70859500  1
  O  O32  1  0.00000000  0.50000000  0.50000000  1
  O  O33  1  0.50000000  0.50000000  0.00000000  1
