# generated using pymatgen
data_Ba2CaV2CuF14
_symmetry_space_group_name_H-M   'P 1'
_cell_length_a   7.57709114
_cell_length_b   7.57709114
_cell_length_c   15.13675670
_cell_angle_alpha   88.58219903
_cell_angle_beta   88.58219903
_cell_angle_gamma   42.26913469
_symmetry_Int_Tables_number   1
_chemical_formula_structural   Ba2CaV2CuF14
_chemical_formula_sum   'Ba4 Ca2 V4 Cu2 F28'
_cell_volume   584.32017598
_cell_formula_units_Z   2
loop_
 _symmetry_equiv_pos_site_id
 _symmetry_equiv_pos_as_xyz
  1  'x, y, z'
loop_
 _atom_site_type_symbol
 _atom_site_label
 _atom_site_symmetry_multiplicity
 _atom_site_fract_x
 _atom_site_fract_y
 _atom_site_fract_z
 _atom_site_occupancy
  Ba  Ba0  1  0.10853300  0.26283400  0.87591600  1
  Ba  Ba1  1  0.26283400  0.10853300  0.37591600  1
  Ba  Ba2  1  0.73716600  0.89146700  0.62408400  1
  Ba  Ba3  1  0.89146700  0.73716600  0.12408400  1
  Ca  Ca4  1  0.57816100  0.42183900  0.25000000  1
  Ca  Ca5  1  0.42183900  0.57816100  0.75000000  1
  V  V6  1  0.14735400  0.09684100  0.12420000  1
  V  V7  1  0.90315900  0.85264600  0.37580000  1
  V  V8  1  0.09684100  0.14735400  0.62420000  1
  V  V9  1  0.85264600  0.90315900  0.87580000  1
  Cu  Cu10  1  0.50000000  0.50000000  0.00000000  1
  Cu  Cu11  1  0.50000000  0.50000000  0.50000000  1
  F  F12  1  0.40173500  0.88809600  0.54459100  1
  F  F13  1  0.17465500  0.58938100  0.28814700  1
  F  F14  1  0.58938100  0.17465500  0.78814700  1
  F  F15  1  0.12295300  0.70814800  0.48256300  1
  F  F16  1  0.64090200  0.03803500  0.27786500  1
  F  F17  1  0.92805400  0.08515500  0.34523100  1
  F  F18  1  0.48622000  0.61611100  0.38402600  1
  F  F19  1  0.51378000  0.38388900  0.61597400  1
  F  F20  1  0.08515500  0.92805400  0.84523100  1
  F  F21  1  0.29185200  0.87704700  0.01743700  1
  F  F22  1  0.61611100  0.48622000  0.88402600  1
  F  F23  1  0.07194600  0.91484500  0.65476900  1
  F  F24  1  0.35909800  0.96196500  0.72213500  1
  F  F25  1  0.85449500  0.63919200  0.39851800  1
  F  F26  1  0.91484500  0.07194600  0.15476900  1
  F  F27  1  0.36080800  0.14550500  0.10148200  1
  F  F28  1  0.14550500  0.36080800  0.60148200  1
  F  F29  1  0.41061900  0.82534500  0.21185300  1
  F  F30  1  0.59826500  0.11190400  0.45540900  1
  F  F31  1  0.82534500  0.41061900  0.71185300  1
  F  F32  1  0.11190400  0.59826500  0.95540900  1
  F  F33  1  0.38388900  0.51378000  0.11597400  1
  F  F34  1  0.70814800  0.12295300  0.98256300  1
  F  F35  1  0.63919200  0.85449500  0.89851800  1
  F  F36  1  0.03803500  0.64090200  0.77786500  1
  F  F37  1  0.96196500  0.35909800  0.22213500  1
  F  F38  1  0.88809600  0.40173500  0.04459100  1
  F  F39  1  0.87704700  0.29185200  0.51743700  1
