# generated using pymatgen
data_Ca5Ir
_symmetry_space_group_name_H-M   'P 1'
_cell_length_a   6.79912900
_cell_length_b   7.64539600
_cell_length_c   15.77880600
_cell_angle_alpha   90.00000000
_cell_angle_beta   90.00000000
_cell_angle_gamma   90.00000000
_symmetry_Int_Tables_number   1
_chemical_formula_structural   Ca5Ir
_chemical_formula_sum   'Ca20 Ir4'
_cell_volume   820.21442461
_cell_formula_units_Z   4
loop_
 _symmetry_equiv_pos_site_id
 _symmetry_equiv_pos_as_xyz
  1  'x, y, z'
loop_
 _atom_site_type_symbol
 _atom_site_label
 _atom_site_symmetry_multiplicity
 _atom_site_fract_x
 _atom_site_fract_y
 _atom_site_fract_z
 _atom_site_occupancy
  Ca  Ca0  1  0.15344800  0.09368000  0.25000000  1
  Ca  Ca1  1  0.85766600  0.19245700  0.56657800  1
  Ca  Ca2  1  0.84655200  0.90632000  0.75000000  1
  Ca  Ca3  1  0.82326100  0.46602200  0.14503200  1
  Ca  Ca4  1  0.17673900  0.53397800  0.64503200  1
  Ca  Ca5  1  0.35766600  0.30754300  0.06657800  1
  Ca  Ca6  1  0.34655200  0.59368000  0.25000000  1
  Ca  Ca7  1  0.82326100  0.46602200  0.35496800  1
  Ca  Ca8  1  0.32326100  0.03397800  0.85496800  1
  Ca  Ca9  1  0.14233400  0.80754300  0.06657800  1
  Ca  Ca10  1  0.64233400  0.69245700  0.56657800  1
  Ca  Ca11  1  0.67673900  0.96602200  0.35496800  1
  Ca  Ca12  1  0.64233400  0.69245700  0.93342200  1
  Ca  Ca13  1  0.32326100  0.03397800  0.64503200  1
  Ca  Ca14  1  0.14233400  0.80754300  0.43342200  1
  Ca  Ca15  1  0.65344800  0.40632000  0.75000000  1
  Ca  Ca16  1  0.17673900  0.53397800  0.85496800  1
  Ca  Ca17  1  0.35766600  0.30754300  0.43342200  1
  Ca  Ca18  1  0.67673900  0.96602200  0.14503200  1
  Ca  Ca19  1  0.85766600  0.19245700  0.93342200  1
  Ir  Ir20  1  0.03616000  0.23946100  0.75000000  1
  Ir  Ir21  1  0.46384000  0.73946100  0.75000000  1
  Ir  Ir22  1  0.53616000  0.26053900  0.25000000  1
  Ir  Ir23  1  0.96384000  0.76053900  0.25000000  1
