# generated using pymatgen
data_BaCaSn3
_symmetry_space_group_name_H-M   'P 1'
_cell_length_a   9.36561974
_cell_length_b   9.36561974
_cell_length_c   17.42365000
_cell_angle_alpha   90.00000000
_cell_angle_beta   90.00000000
_cell_angle_gamma   118.56927349
_symmetry_Int_Tables_number   1
_chemical_formula_structural   BaCaSn3
_chemical_formula_sum   'Ba8 Ca8 Sn24'
_cell_volume   1342.22454654
_cell_formula_units_Z   8
loop_
 _symmetry_equiv_pos_site_id
 _symmetry_equiv_pos_as_xyz
  1  'x, y, z'
loop_
 _atom_site_type_symbol
 _atom_site_label
 _atom_site_symmetry_multiplicity
 _atom_site_fract_x
 _atom_site_fract_y
 _atom_site_fract_z
 _atom_site_occupancy
  Ba  Ba0  1  0.32350000  0.32350000  0.91395800  1
  Ba  Ba1  1  0.71654300  0.28345700  0.50000000  1
  Ba  Ba2  1  0.67650000  0.67650000  0.08604200  1
  Ba  Ba3  1  0.17650000  0.17650000  0.41395800  1
  Ba  Ba4  1  0.28345700  0.71654300  0.50000000  1
  Ba  Ba5  1  0.78345700  0.21654300  0.00000000  1
  Ba  Ba6  1  0.82350000  0.82350000  0.58604200  1
  Ba  Ba7  1  0.21654300  0.78345700  0.00000000  1
  Ca  Ca8  1  0.14413700  0.87557900  0.22849000  1
  Ca  Ca9  1  0.12442100  0.85586300  0.77151000  1
  Ca  Ca10  1  0.35586300  0.62442100  0.72849000  1
  Ca  Ca11  1  0.37557900  0.64413700  0.27151000  1
  Ca  Ca12  1  0.62442100  0.35586300  0.72849000  1
  Ca  Ca13  1  0.64413700  0.37557900  0.27151000  1
  Ca  Ca14  1  0.87557900  0.14413700  0.22849000  1
  Ca  Ca15  1  0.85586300  0.12442100  0.77151000  1
  Sn  Sn16  1  0.06640400  0.30320100  0.59190800  1
  Sn  Sn17  1  0.43359600  0.19679900  0.09190800  1
  Sn  Sn18  1  0.43365600  0.43365600  0.58499300  1
  Sn  Sn19  1  0.48802500  0.04124500  0.83637800  1
  Sn  Sn20  1  0.77974600  0.77974600  0.28073900  1
  Sn  Sn21  1  0.98802500  0.54124500  0.66362200  1
  Sn  Sn22  1  0.54124500  0.98802500  0.66362200  1
  Sn  Sn23  1  0.30320100  0.06640400  0.59190800  1
  Sn  Sn24  1  0.01197500  0.45875500  0.33637800  1
  Sn  Sn25  1  0.51197500  0.95875500  0.16362200  1
  Sn  Sn26  1  0.19679900  0.43359600  0.09190800  1
  Sn  Sn27  1  0.72025400  0.72025400  0.78073900  1
  Sn  Sn28  1  0.56634400  0.56634400  0.41500700  1
  Sn  Sn29  1  0.27974600  0.27974600  0.21926100  1
  Sn  Sn30  1  0.56640400  0.80320100  0.90809200  1
  Sn  Sn31  1  0.80320100  0.56640400  0.90809200  1
  Sn  Sn32  1  0.04124500  0.48802500  0.83637800  1
  Sn  Sn33  1  0.06634400  0.06634400  0.08499300  1
  Sn  Sn34  1  0.45875500  0.01197500  0.33637800  1
  Sn  Sn35  1  0.22025400  0.22025400  0.71926100  1
  Sn  Sn36  1  0.69679900  0.93359600  0.40809200  1
  Sn  Sn37  1  0.95875500  0.51197500  0.16362200  1
  Sn  Sn38  1  0.93359600  0.69679900  0.40809200  1
  Sn  Sn39  1  0.93365600  0.93365600  0.91500700  1
