# generated using pymatgen
data_RbSb2
_symmetry_space_group_name_H-M   'P 1'
_cell_length_a   7.40835498
_cell_length_b   7.40835498
_cell_length_c   8.72431741
_cell_angle_alpha   76.46227721
_cell_angle_beta   76.46227721
_cell_angle_gamma   33.24576387
_symmetry_Int_Tables_number   1
_chemical_formula_structural   RbSb2
_chemical_formula_sum   'Rb2 Sb4'
_cell_volume   254.55214259
_cell_formula_units_Z   2
loop_
 _symmetry_equiv_pos_site_id
 _symmetry_equiv_pos_as_xyz
  1  'x, y, z'
loop_
 _atom_site_type_symbol
 _atom_site_label
 _atom_site_symmetry_multiplicity
 _atom_site_fract_x
 _atom_site_fract_y
 _atom_site_fract_z
 _atom_site_occupancy
  Rb  Rb0  1  0.16470900  0.16470900  0.30222700  1
  Rb  Rb1  1  0.83529100  0.83529100  0.69777300  1
  Sb  Sb2  1  0.43471100  0.43471100  0.31364300  1
  Sb  Sb3  1  0.09523300  0.09523300  0.89249500  1
  Sb  Sb4  1  0.90476700  0.90476700  0.10750500  1
  Sb  Sb5  1  0.56528900  0.56528900  0.68635700  1
