# generated using pymatgen
data_Tc2O5F4
_symmetry_space_group_name_H-M   'P 1'
_cell_length_a   15.40852000
_cell_length_b   5.48703100
_cell_length_c   8.63694724
_cell_angle_alpha   89.57176433
_cell_angle_beta   90.00000000
_cell_angle_gamma   90.00000000
_symmetry_Int_Tables_number   1
_chemical_formula_structural   Tc2O5F4
_chemical_formula_sum   'Tc8 O20 F16'
_cell_volume   730.20781454
_cell_formula_units_Z   4
loop_
 _symmetry_equiv_pos_site_id
 _symmetry_equiv_pos_as_xyz
  1  'x, y, z'
loop_
 _atom_site_type_symbol
 _atom_site_label
 _atom_site_symmetry_multiplicity
 _atom_site_fract_x
 _atom_site_fract_y
 _atom_site_fract_z
 _atom_site_occupancy
  Tc  Tc0  1  0.12415900  0.32382700  0.62603800  1
  Tc  Tc1  1  0.37584100  0.82382700  0.62603800  1
  Tc  Tc2  1  0.62415900  0.17617300  0.37396200  1
  Tc  Tc3  1  0.35327200  0.48294000  0.12653400  1
  Tc  Tc4  1  0.85327200  0.01706000  0.87346600  1
  Tc  Tc5  1  0.87584100  0.67617300  0.37396200  1
  Tc  Tc6  1  0.64672800  0.51706000  0.87346600  1
  Tc  Tc7  1  0.14672800  0.98294000  0.12653400  1
  O  O8  1  0.09565100  0.71186000  0.11608600  1
  O  O9  1  0.56345700  0.31825700  0.88757200  1
  O  O10  1  0.59565100  0.78814000  0.88391400  1
  O  O11  1  0.94234600  0.92344100  0.35870600  1
  O  O12  1  0.39464800  0.00394600  0.78239200  1
  O  O13  1  0.09694600  0.48209100  0.46239500  1
  O  O14  1  0.93654300  0.81825700  0.88757200  1
  O  O15  1  0.89464800  0.49605400  0.21760800  1
  O  O16  1  0.90434900  0.28814000  0.88391400  1
  O  O17  1  0.55765400  0.42344100  0.35870600  1
  O  O18  1  0.44234600  0.57655900  0.64129400  1
  O  O19  1  0.10535200  0.50394600  0.78239200  1
  O  O20  1  0.05765400  0.07655900  0.64129400  1
  O  O21  1  0.59694600  0.01790900  0.53760500  1
  O  O22  1  0.60535200  0.99605400  0.21760800  1
  O  O23  1  0.40305400  0.98209100  0.46239500  1
  O  O24  1  0.43654300  0.68174300  0.11242800  1
  O  O25  1  0.06345700  0.18174300  0.11242800  1
  O  O26  1  0.90305400  0.51790900  0.53760500  1
  O  O27  1  0.40434900  0.21186000  0.11608600  1
  F  F28  1  0.31538400  0.50555800  0.92097300  1
  F  F29  1  0.75990200  0.77385100  0.38104900  1
  F  F30  1  0.81538400  0.99444200  0.07902700  1
  F  F31  1  0.16263000  0.99210300  0.34101100  1
  F  F32  1  0.83737000  0.00789700  0.65898900  1
  F  F33  1  0.73337200  0.21248700  0.85519800  1
  F  F34  1  0.66263000  0.50789700  0.65898900  1
  F  F35  1  0.24009800  0.22614900  0.61895100  1
  F  F36  1  0.25990200  0.72614900  0.61895100  1
  F  F37  1  0.26662800  0.78751300  0.14480200  1
  F  F38  1  0.33737000  0.49210300  0.34101100  1
  F  F39  1  0.76662800  0.71248700  0.85519800  1
  F  F40  1  0.23337200  0.28751300  0.14480200  1
  F  F41  1  0.18461600  0.00555800  0.92097300  1
  F  F42  1  0.74009800  0.27385100  0.38104900  1
  F  F43  1  0.68461600  0.49444200  0.07902700  1
