# generated using pymatgen
data_KFePO4
_symmetry_space_group_name_H-M   'P 1'
_cell_length_a   8.84079400
_cell_length_b   9.87956700
_cell_length_c   11.15101708
_cell_angle_alpha   63.06591031
_cell_angle_beta   90.00000000
_cell_angle_gamma   90.00000000
_symmetry_Int_Tables_number   1
_chemical_formula_structural   KFePO4
_chemical_formula_sum   'K8 Fe8 P8 O32'
_cell_volume   868.31787185
_cell_formula_units_Z   8
loop_
 _symmetry_equiv_pos_site_id
 _symmetry_equiv_pos_as_xyz
  1  'x, y, z'
loop_
 _atom_site_type_symbol
 _atom_site_label
 _atom_site_symmetry_multiplicity
 _atom_site_fract_x
 _atom_site_fract_y
 _atom_site_fract_z
 _atom_site_occupancy
  K  K0  1  0.99657100  0.53277200  0.65891000  1
  K  K1  1  0.47426300  0.93744500  0.83071100  1
  K  K2  1  0.00342900  0.46722800  0.34109000  1
  K  K3  1  0.49657100  0.46722800  0.84109000  1
  K  K4  1  0.50342900  0.53277200  0.15891000  1
  K  K5  1  0.52573700  0.06255500  0.16928900  1
  K  K6  1  0.02573700  0.93744500  0.33071100  1
  K  K7  1  0.97426300  0.06255500  0.66928900  1
  Fe  Fe8  1  0.12423800  0.65303200  0.94144700  1
  Fe  Fe9  1  0.62423800  0.34696800  0.55855300  1
  Fe  Fe10  1  0.65202200  0.84838100  0.54449200  1
  Fe  Fe11  1  0.37576200  0.65303200  0.44144700  1
  Fe  Fe12  1  0.84797800  0.84838100  0.04449200  1
  Fe  Fe13  1  0.15202200  0.15161900  0.95550800  1
  Fe  Fe14  1  0.34797800  0.15161900  0.45550800  1
  Fe  Fe15  1  0.87576200  0.34696800  0.05855300  1
  P  P16  1  0.19295200  0.30590800  0.14728800  1
  P  P17  1  0.69295200  0.69409200  0.35271200  1
  P  P18  1  0.71700000  0.19735600  0.37087000  1
  P  P19  1  0.21700000  0.80264400  0.12913000  1
  P  P20  1  0.30704800  0.30590800  0.64728800  1
  P  P21  1  0.78300000  0.19735600  0.87087000  1
  P  P22  1  0.80704800  0.69409200  0.85271200  1
  P  P23  1  0.28300000  0.80264400  0.62913000  1
  O  O24  1  0.79238300  0.31032700  0.23723400  1
  O  O25  1  0.57755600  0.78148600  0.40346000  1
  O  O26  1  0.39140000  0.45838200  0.61526200  1
  O  O27  1  0.60860000  0.54161800  0.38473800  1
  O  O28  1  0.84402300  0.66925700  0.42504300  1
  O  O29  1  0.34402300  0.33074300  0.07495700  1
  O  O30  1  0.95794100  0.21198200  0.85139300  1
  O  O31  1  0.76528600  0.03157000  0.40663000  1
  O  O32  1  0.89140000  0.54161800  0.88473800  1
  O  O33  1  0.04205900  0.78801800  0.14860700  1
  O  O34  1  0.54205900  0.21198200  0.35139300  1
  O  O35  1  0.70317200  0.78869100  0.19767400  1
  O  O36  1  0.26528600  0.96843000  0.09337000  1
  O  O37  1  0.15597700  0.33074300  0.57495700  1
  O  O38  1  0.20317200  0.21130900  0.30232600  1
  O  O39  1  0.07755600  0.21851400  0.09654000  1
  O  O40  1  0.42244400  0.21851400  0.59654000  1
  O  O41  1  0.20761700  0.68967300  0.76276600  1
  O  O42  1  0.73471400  0.03157000  0.90663000  1
  O  O43  1  0.73175400  0.23756000  0.98439300  1
  O  O44  1  0.45794100  0.78801800  0.64860700  1
  O  O45  1  0.10860000  0.45838200  0.11526200  1
  O  O46  1  0.29238300  0.68967300  0.26276600  1
  O  O47  1  0.65597700  0.66925700  0.92504300  1
  O  O48  1  0.26824600  0.76244000  0.01560700  1
  O  O49  1  0.29682800  0.21130900  0.80232600  1
  O  O50  1  0.23175400  0.76244000  0.51560700  1
  O  O51  1  0.79682800  0.78869100  0.69767400  1
  O  O52  1  0.92244400  0.78148600  0.90346000  1
  O  O53  1  0.70761700  0.31032700  0.73723400  1
  O  O54  1  0.23471400  0.96843000  0.59337000  1
  O  O55  1  0.76824600  0.23756000  0.48439300  1
