# generated using pymatgen
data_Na3FeO3
_symmetry_space_group_name_H-M   'P 1'
_cell_length_a   8.61827428
_cell_length_b   8.61827428
_cell_length_c   6.20537038
_cell_angle_alpha   69.49328826
_cell_angle_beta   69.49328826
_cell_angle_gamma   77.72003246
_symmetry_Int_Tables_number   1
_chemical_formula_structural   Na3FeO3
_chemical_formula_sum   'Na12 Fe4 O12'
_cell_volume   402.20708510
_cell_formula_units_Z   4
loop_
 _symmetry_equiv_pos_site_id
 _symmetry_equiv_pos_as_xyz
  1  'x, y, z'
loop_
 _atom_site_type_symbol
 _atom_site_label
 _atom_site_symmetry_multiplicity
 _atom_site_fract_x
 _atom_site_fract_y
 _atom_site_fract_z
 _atom_site_occupancy
  Na  Na0  1  0.74865600  0.79443400  0.61534600  1
  Na  Na1  1  0.64687900  0.17327100  0.48559300  1
  Na  Na2  1  0.79443400  0.74865600  0.11534600  1
  Na  Na3  1  0.27655800  0.23203900  0.03330300  1
  Na  Na4  1  0.98387700  0.03555100  0.77429200  1
  Na  Na5  1  0.93822200  0.36504100  0.99604300  1
  Na  Na6  1  0.23203900  0.27655800  0.53330300  1
  Na  Na7  1  0.03555100  0.98387700  0.27429200  1
  Na  Na8  1  0.36504100  0.93822200  0.49604300  1
  Na  Na9  1  0.56259400  0.47805100  0.05414900  1
  Na  Na10  1  0.47805100  0.56259400  0.55414900  1
  Na  Na11  1  0.17327100  0.64687900  0.98559300  1
  Fe  Fe12  1  0.64634600  0.12335700  0.04434300  1
  Fe  Fe13  1  0.39962900  0.87785500  0.96805100  1
  Fe  Fe14  1  0.87785500  0.39962900  0.46805100  1
  Fe  Fe15  1  0.12335700  0.64634600  0.54434300  1
  O  O16  1  0.31033800  0.76987300  0.31057800  1
  O  O17  1  0.59451600  0.99234600  0.88509100  1
  O  O18  1  0.71908700  0.46783400  0.29665400  1
  O  O19  1  0.99234600  0.59451600  0.38509100  1
  O  O20  1  0.76987300  0.31033800  0.81057800  1
  O  O21  1  0.46783400  0.71908700  0.79665400  1
  O  O22  1  0.21298800  0.45796000  0.74616400  1
  O  O23  1  0.03080700  0.22700200  0.36856000  1
  O  O24  1  0.22700200  0.03080700  0.86856000  1
  O  O25  1  0.78293300  0.98707200  0.22927200  1
  O  O26  1  0.45796000  0.21298800  0.24616400  1
  O  O27  1  0.98707200  0.78293300  0.72927200  1
