# generated using pymatgen
data_Co2(SnSe)3
_symmetry_space_group_name_H-M   'P 1'
_cell_length_a   8.79713471
_cell_length_b   8.79713471
_cell_length_c   8.79713392
_cell_angle_alpha   90.12344334
_cell_angle_beta   90.12344334
_cell_angle_gamma   90.12344289
_symmetry_Int_Tables_number   1
_chemical_formula_structural   Co2(SnSe)3
_chemical_formula_sum   'Co8 Sn12 Se12'
_cell_volume   680.80174473
_cell_formula_units_Z   4
loop_
 _symmetry_equiv_pos_site_id
 _symmetry_equiv_pos_as_xyz
  1  'x, y, z'
loop_
 _atom_site_type_symbol
 _atom_site_label
 _atom_site_symmetry_multiplicity
 _atom_site_fract_x
 _atom_site_fract_y
 _atom_site_fract_z
 _atom_site_occupancy
  Co  Co0  1  0.25832300  0.76207700  0.75541100  1
  Co  Co1  1  0.24458900  0.74167700  0.23792300  1
  Co  Co2  1  0.76207700  0.75541100  0.25832300  1
  Co  Co3  1  0.23792300  0.24458900  0.74167700  1
  Co  Co4  1  0.25852400  0.25852400  0.25852400  1
  Co  Co5  1  0.74147600  0.74147600  0.74147600  1
  Co  Co6  1  0.75541100  0.25832300  0.76207700  1
  Co  Co7  1  0.74167700  0.23792300  0.24458900  1
  Sn  Sn8  1  0.67359100  0.84420300  0.00059000  1
  Sn  Sn9  1  0.49993300  0.82846900  0.34237300  1
  Sn  Sn10  1  0.32640900  0.15579700  0.99941000  1
  Sn  Sn11  1  0.17153100  0.65762700  0.50006700  1
  Sn  Sn12  1  0.00059000  0.67359100  0.84420300  1
  Sn  Sn13  1  0.99941000  0.32640900  0.15579700  1
  Sn  Sn14  1  0.82846900  0.34237300  0.49993300  1
  Sn  Sn15  1  0.50006700  0.17153100  0.65762700  1
  Sn  Sn16  1  0.34237300  0.49993300  0.82846900  1
  Sn  Sn17  1  0.15579700  0.99941000  0.32640900  1
  Sn  Sn18  1  0.65762700  0.50006700  0.17153100  1
  Sn  Sn19  1  0.84420300  0.00059000  0.67359100  1
  Se  Se20  1  0.99858600  0.66027700  0.15659500  1
  Se  Se21  1  0.33972300  0.84340500  0.00141400  1
  Se  Se22  1  0.15659500  0.99858600  0.66027700  1
  Se  Se23  1  0.34451400  0.49778200  0.16113700  1
  Se  Se24  1  0.49778200  0.16113700  0.34451400  1
  Se  Se25  1  0.50221800  0.83886300  0.65548600  1
  Se  Se26  1  0.65548600  0.50221800  0.83886300  1
  Se  Se27  1  0.83886300  0.65548600  0.50221800  1
  Se  Se28  1  0.00141400  0.33972300  0.84340500  1
  Se  Se29  1  0.66027700  0.15659500  0.99858600  1
  Se  Se30  1  0.16113700  0.34451400  0.49778200  1
  Se  Se31  1  0.84340500  0.00141400  0.33972300  1
