# generated using pymatgen
data_Tl4Mo5O17
_symmetry_space_group_name_H-M   'P 1'
_cell_length_a   7.96939000
_cell_length_b   11.04753115
_cell_length_c   11.18268017
_cell_angle_alpha   73.98282043
_cell_angle_beta   80.63286198
_cell_angle_gamma   80.40709521
_symmetry_Int_Tables_number   1
_chemical_formula_structural   Tl4Mo5O17
_chemical_formula_sum   'Tl8 Mo10 O34'
_cell_volume   925.98216637
_cell_formula_units_Z   2
loop_
 _symmetry_equiv_pos_site_id
 _symmetry_equiv_pos_as_xyz
  1  'x, y, z'
loop_
 _atom_site_type_symbol
 _atom_site_label
 _atom_site_symmetry_multiplicity
 _atom_site_fract_x
 _atom_site_fract_y
 _atom_site_fract_z
 _atom_site_occupancy
  Tl  Tl0  1  0.10875900  0.10096700  0.19709600  1
  Tl  Tl1  1  0.25765700  0.57267900  0.90505600  1
  Tl  Tl2  1  0.57090500  0.27040100  0.78698500  1
  Tl  Tl3  1  0.62277400  0.17613000  0.46996400  1
  Tl  Tl4  1  0.42909500  0.72959900  0.21301500  1
  Tl  Tl5  1  0.37722600  0.82387000  0.53003600  1
  Tl  Tl6  1  0.89124100  0.89903300  0.80290400  1
  Tl  Tl7  1  0.74234300  0.42732100  0.09494400  1
  Mo  Mo8  1  0.39259900  0.93787700  0.82926400  1
  Mo  Mo9  1  0.18426800  0.48011800  0.57405100  1
  Mo  Mo10  1  0.92244800  0.76065900  0.18323100  1
  Mo  Mo11  1  0.60740100  0.06212300  0.17073600  1
  Mo  Mo12  1  0.12964600  0.18751300  0.52445200  1
  Mo  Mo13  1  0.87035400  0.81248700  0.47554800  1
  Mo  Mo14  1  0.07755200  0.23934100  0.81676900  1
  Mo  Mo15  1  0.80077400  0.56902600  0.72338600  1
  Mo  Mo16  1  0.81573200  0.51988200  0.42594900  1
  Mo  Mo17  1  0.19922600  0.43097400  0.27661400  1
  O  O18  1  0.02213900  0.39299300  0.45775300  1
  O  O19  1  0.67733500  0.18367000  0.22137500  1
  O  O20  1  0.00694100  0.13983900  0.43232700  1
  O  O21  1  0.97622000  0.41589800  0.72276600  1
  O  O22  1  0.20907300  0.30253300  0.89004300  1
  O  O23  1  0.62937500  0.50195700  0.82862900  1
  O  O24  1  0.78929900  0.92980500  0.15465700  1
  O  O25  1  0.89572600  0.21195400  0.92550800  1
  O  O26  1  0.46456200  0.86597900  0.97577100  1
  O  O27  1  0.09454700  0.37012900  0.18310500  1
  O  O28  1  0.53543800  0.13402100  0.02422900  1
  O  O29  1  0.79092700  0.69746700  0.10995700  1
  O  O30  1  0.21070100  0.07019500  0.84534300  1
  O  O31  1  0.71121300  0.45356400  0.33876100  1
  O  O32  1  0.32266500  0.81633000  0.77862500  1
  O  O33  1  0.57652900  0.99540200  0.73035200  1
  O  O34  1  0.90545300  0.62987100  0.81689500  1
  O  O35  1  0.37062500  0.49804300  0.17137100  1
  O  O36  1  0.74859200  0.69724000  0.37035200  1
  O  O37  1  0.28838100  0.05768900  0.56988900  1
  O  O38  1  0.98376200  0.18081300  0.67391200  1
  O  O39  1  0.70287600  0.72311000  0.62190400  1
  O  O40  1  0.97786100  0.60700700  0.54224700  1
  O  O41  1  0.25140800  0.30276000  0.62964800  1
  O  O42  1  0.28878700  0.54643600  0.66123900  1
  O  O43  1  0.71161900  0.94231100  0.43011100  1
  O  O44  1  0.29712400  0.27689000  0.37809600  1
  O  O45  1  0.10427400  0.78804600  0.07449200  1
  O  O46  1  0.42347100  0.00459800  0.26964800  1
  O  O47  1  0.99305900  0.86016100  0.56767300  1
  O  O48  1  0.01623800  0.81918700  0.32608800  1
  O  O49  1  0.70263000  0.48244500  0.58033900  1
  O  O50  1  0.29737000  0.51755500  0.41966100  1
  O  O51  1  0.02378000  0.58410200  0.27723400  1
