# generated using pymatgen
data_Ba2Ru7O18
_symmetry_space_group_name_H-M   'P 1'
_cell_length_a   6.83651200
_cell_length_b   7.22805226
_cell_length_c   7.64974073
_cell_angle_alpha   93.34926284
_cell_angle_beta   94.60072152
_cell_angle_gamma   115.63633018
_symmetry_Int_Tables_number   1
_chemical_formula_structural   Ba2Ru7O18
_chemical_formula_sum   'Ba2 Ru7 O18'
_cell_volume   337.87049710
_cell_formula_units_Z   1
loop_
 _symmetry_equiv_pos_site_id
 _symmetry_equiv_pos_as_xyz
  1  'x, y, z'
loop_
 _atom_site_type_symbol
 _atom_site_label
 _atom_site_symmetry_multiplicity
 _atom_site_fract_x
 _atom_site_fract_y
 _atom_site_fract_z
 _atom_site_occupancy
  Ba  Ba0  1  0.31992800  0.68755900  0.62151500  1
  Ba  Ba1  1  0.68007200  0.31244100  0.37848500  1
  Ru  Ru2  1  0.38734900  0.27591700  0.88455700  1
  Ru  Ru3  1  0.80236500  0.12786300  0.81581300  1
  Ru  Ru4  1  0.19763500  0.87213700  0.18418700  1
  Ru  Ru5  1  0.61265100  0.72408300  0.11544300  1
  Ru  Ru6  1  0.00000000  0.00000000  0.50000000  1
  Ru  Ru7  1  0.82530600  0.62012400  0.80169500  1
  Ru  Ru8  1  0.17469400  0.37987600  0.19830500  1
  O  O9  1  0.91802800  0.73199900  0.58276100  1
  O  O10  1  0.28785400  0.16773600  0.11435300  1
  O  O11  1  0.32305900  0.51189200  0.98570100  1
  O  O12  1  0.47565100  0.55602700  0.30544300  1
  O  O13  1  0.48953800  0.90886100  0.16617500  1
  O  O14  1  0.90502100  0.40182800  0.73059000  1
  O  O15  1  0.71214600  0.83226400  0.88564700  1
  O  O16  1  0.91777800  0.23358300  0.04875500  1
  O  O17  1  0.67694100  0.48810800  0.01429900  1
  O  O18  1  0.08197200  0.26800100  0.41723900  1
  O  O19  1  0.09686500  0.13181600  0.74985400  1
  O  O20  1  0.72649800  0.00317900  0.57217800  1
  O  O21  1  0.09497900  0.59817200  0.26941000  1
  O  O22  1  0.90313500  0.86818400  0.25014600  1
  O  O23  1  0.08222200  0.76641700  0.95124500  1
  O  O24  1  0.51046200  0.09113900  0.83382500  1
  O  O25  1  0.27350200  0.99682100  0.42782200  1
  O  O26  1  0.52434900  0.44397300  0.69455700  1
