# generated using pymatgen
data_CsSmMnSe3
_symmetry_space_group_name_H-M   'P 1'
_cell_length_a   8.37315576
_cell_length_b   8.37315576
_cell_length_c   11.31891200
_cell_angle_alpha   90.00000000
_cell_angle_beta   90.00000000
_cell_angle_gamma   150.31227297
_symmetry_Int_Tables_number   1
_chemical_formula_structural   CsSmMnSe3
_chemical_formula_sum   'Cs2 Sm2 Mn2 Se6'
_cell_volume   393.03146453
_cell_formula_units_Z   2
loop_
 _symmetry_equiv_pos_site_id
 _symmetry_equiv_pos_as_xyz
  1  'x, y, z'
loop_
 _atom_site_type_symbol
 _atom_site_label
 _atom_site_symmetry_multiplicity
 _atom_site_fract_x
 _atom_site_fract_y
 _atom_site_fract_z
 _atom_site_occupancy
  Cs  Cs0  1  0.74037700  0.25962300  0.25000000  1
  Cs  Cs1  1  0.25962300  0.74037700  0.75000000  1
  Sm  Sm2  1  0.00000000  0.00000000  0.00000000  1
  Sm  Sm3  1  0.00000000  0.00000000  0.50000000  1
  Mn  Mn4  1  0.46057200  0.53942800  0.25000000  1
  Mn  Mn5  1  0.53942800  0.46057200  0.75000000  1
  Se  Se6  1  0.38175000  0.61825000  0.43857600  1
  Se  Se7  1  0.61825000  0.38175000  0.56142400  1
  Se  Se8  1  0.61825000  0.38175000  0.93857600  1
  Se  Se9  1  0.05230100  0.94769900  0.25000000  1
  Se  Se10  1  0.94769900  0.05230100  0.75000000  1
  Se  Se11  1  0.38175000  0.61825000  0.06142400  1
