# generated using pymatgen
data_Li13In3
_symmetry_space_group_name_H-M   'P 1'
_cell_length_a   9.38342295
_cell_length_b   9.38342295
_cell_length_c   9.38342295
_cell_angle_alpha   60.00000000
_cell_angle_beta   60.00000000
_cell_angle_gamma   60.00000000
_symmetry_Int_Tables_number   1
_chemical_formula_structural   Li13In3
_chemical_formula_sum   'Li26 In6'
_cell_volume   584.20985544
_cell_formula_units_Z   2
loop_
 _symmetry_equiv_pos_site_id
 _symmetry_equiv_pos_as_xyz
  1  'x, y, z'
loop_
 _atom_site_type_symbol
 _atom_site_label
 _atom_site_symmetry_multiplicity
 _atom_site_fract_x
 _atom_site_fract_y
 _atom_site_fract_z
 _atom_site_occupancy
  Li  Li0  1  0.75000000  0.75000000  0.75000000  1
  Li  Li1  1  0.50000000  0.50000000  0.50000000  1
  Li  Li2  1  0.12500000  0.62500000  0.12500000  1
  Li  Li3  1  0.12500000  0.12500000  0.62500000  1
  Li  Li4  1  0.62500000  0.12500000  0.12500000  1
  Li  Li5  1  0.12500000  0.12500000  0.12500000  1
  Li  Li6  1  0.38116000  0.85652000  0.38116000  1
  Li  Li7  1  0.86884000  0.86884000  0.39348000  1
  Li  Li8  1  0.39348000  0.86884000  0.86884000  1
  Li  Li9  1  0.86884000  0.86884000  0.86884000  1
  Li  Li10  1  0.85652000  0.38116000  0.38116000  1
  Li  Li11  1  0.38116000  0.38116000  0.38116000  1
  Li  Li12  1  0.38116000  0.38116000  0.85652000  1
  Li  Li13  1  0.86884000  0.39348000  0.86884000  1
  Li  Li14  1  0.00320100  0.00320100  0.49679900  1
  Li  Li15  1  0.75320100  0.24679900  0.24679900  1
  Li  Li16  1  0.24679900  0.75320100  0.75320100  1
  Li  Li17  1  0.75320100  0.75320100  0.24679900  1
  Li  Li18  1  0.75320100  0.24679900  0.75320100  1
  Li  Li19  1  0.24679900  0.75320100  0.24679900  1
  Li  Li20  1  0.49679900  0.00320100  0.49679900  1
  Li  Li21  1  0.49679900  0.00320100  0.00320100  1
  Li  Li22  1  0.00320100  0.49679900  0.49679900  1
  Li  Li23  1  0.00320100  0.49679900  0.00320100  1
  Li  Li24  1  0.24679900  0.24679900  0.75320100  1
  Li  Li25  1  0.49679900  0.49679900  0.00320100  1
  In  In26  1  0.25000000  0.25000000  0.25000000  1
  In  In27  1  0.00000000  0.00000000  0.00000000  1
  In  In28  1  0.62500000  0.12500000  0.62500000  1
  In  In29  1  0.62500000  0.62500000  0.12500000  1
  In  In30  1  0.12500000  0.62500000  0.62500000  1
  In  In31  1  0.62500000  0.62500000  0.62500000  1
