# generated using pymatgen
data_FeTe6O13
_symmetry_space_group_name_H-M   'P 1'
_cell_length_a   8.82009513
_cell_length_b   8.82009513
_cell_length_c   8.82009533
_cell_angle_alpha   72.09594020
_cell_angle_beta   72.09594020
_cell_angle_gamma   72.09593683
_symmetry_Int_Tables_number   1
_chemical_formula_structural   FeTe6O13
_chemical_formula_sum   'Fe2 Te12 O26'
_cell_volume   603.88335317
_cell_formula_units_Z   2
loop_
 _symmetry_equiv_pos_site_id
 _symmetry_equiv_pos_as_xyz
  1  'x, y, z'
loop_
 _atom_site_type_symbol
 _atom_site_label
 _atom_site_symmetry_multiplicity
 _atom_site_fract_x
 _atom_site_fract_y
 _atom_site_fract_z
 _atom_site_occupancy
  Fe  Fe0  1  0.74375000  0.74375000  0.74375000  1
  Fe  Fe1  1  0.25625000  0.25625000  0.25625000  1
  Te  Te2  1  0.66658700  0.05726600  0.98915300  1
  Te  Te3  1  0.46866600  0.17653300  0.57761000  1
  Te  Te4  1  0.17653300  0.57761000  0.46866600  1
  Te  Te5  1  0.94273400  0.01084700  0.33341300  1
  Te  Te6  1  0.42239000  0.53133400  0.82346700  1
  Te  Te7  1  0.53133400  0.82346700  0.42239000  1
  Te  Te8  1  0.82346700  0.42239000  0.53133400  1
  Te  Te9  1  0.05726600  0.98915300  0.66658700  1
  Te  Te10  1  0.33341300  0.94273400  0.01084700  1
  Te  Te11  1  0.01084700  0.33341300  0.94273400  1
  Te  Te12  1  0.98915300  0.66658700  0.05726600  1
  Te  Te13  1  0.57761000  0.46866600  0.17653300  1
  O  O14  1  0.38732300  0.70115000  0.62526000  1
  O  O15  1  0.91164900  0.91164900  0.91164900  1
  O  O16  1  0.89921800  0.91987100  0.60080000  1
  O  O17  1  0.37474000  0.61267700  0.29885000  1
  O  O18  1  0.63616400  0.88542200  0.54358400  1
  O  O19  1  0.20055000  0.69741900  0.94389000  1
  O  O20  1  0.39920000  0.10078200  0.08012900  1
  O  O21  1  0.08835100  0.08835100  0.08835100  1
  O  O22  1  0.30258100  0.05611000  0.79945000  1
  O  O23  1  0.45641600  0.36383600  0.11457800  1
  O  O24  1  0.61267700  0.29885000  0.37474000  1
  O  O25  1  0.36383600  0.11457800  0.45641600  1
  O  O26  1  0.88542200  0.54358400  0.63616400  1
  O  O27  1  0.94389000  0.20055000  0.69741900  1
  O  O28  1  0.60080000  0.89921800  0.91987100  1
  O  O29  1  0.91987100  0.60080000  0.89921800  1
  O  O30  1  0.10078200  0.08012900  0.39920000  1
  O  O31  1  0.69741900  0.94389000  0.20055000  1
  O  O32  1  0.70115000  0.62526000  0.38732300  1
  O  O33  1  0.05611000  0.79945000  0.30258100  1
  O  O34  1  0.08012900  0.39920000  0.10078200  1
  O  O35  1  0.54358400  0.63616400  0.88542200  1
  O  O36  1  0.62526000  0.38732300  0.70115000  1
  O  O37  1  0.29885000  0.37474000  0.61267700  1
  O  O38  1  0.79945000  0.30258100  0.05611000  1
  O  O39  1  0.11457800  0.45641600  0.36383600  1
