# generated using pymatgen
data_TaAgS3
_symmetry_space_group_name_H-M   'P 1'
_cell_length_a   7.37772243
_cell_length_b   7.37772243
_cell_length_c   7.78599500
_cell_angle_alpha   90.00000000
_cell_angle_beta   90.00000000
_cell_angle_gamma   153.41907371
_symmetry_Int_Tables_number   1
_chemical_formula_structural   TaAgS3
_chemical_formula_sum   'Ta2 Ag2 S6'
_cell_volume   189.63317688
_cell_formula_units_Z   2
loop_
 _symmetry_equiv_pos_site_id
 _symmetry_equiv_pos_as_xyz
  1  'x, y, z'
loop_
 _atom_site_type_symbol
 _atom_site_label
 _atom_site_symmetry_multiplicity
 _atom_site_fract_x
 _atom_site_fract_y
 _atom_site_fract_z
 _atom_site_occupancy
  Ta  Ta0  1  0.73699000  0.26301000  0.75000000  1
  Ta  Ta1  1  0.26301000  0.73699000  0.25000000  1
  Ag  Ag2  1  0.00000000  0.00000000  0.50000000  1
  Ag  Ag3  1  0.00000000  0.00000000  0.00000000  1
  S  S4  1  0.32539800  0.67460200  0.92964800  1
  S  S5  1  0.67460200  0.32539800  0.07035200  1
  S  S6  1  0.67460200  0.32539800  0.42964800  1
  S  S7  1  0.32539800  0.67460200  0.57035200  1
  S  S8  1  0.10430400  0.89569600  0.75000000  1
  S  S9  1  0.89569600  0.10430400  0.25000000  1
