# generated using pymatgen
data_KLaCr2O8
_symmetry_space_group_name_H-M   'P 1'
_cell_length_a   7.59660400
_cell_length_b   8.90803700
_cell_length_c   11.16379619
_cell_angle_alpha   87.51158916
_cell_angle_beta   90.00000000
_cell_angle_gamma   90.00000000
_symmetry_Int_Tables_number   1
_chemical_formula_structural   KLaCr2O8
_chemical_formula_sum   'K4 La4 Cr8 O32'
_cell_volume   754.75096494
_cell_formula_units_Z   4
loop_
 _symmetry_equiv_pos_site_id
 _symmetry_equiv_pos_as_xyz
  1  'x, y, z'
loop_
 _atom_site_type_symbol
 _atom_site_label
 _atom_site_symmetry_multiplicity
 _atom_site_fract_x
 _atom_site_fract_y
 _atom_site_fract_z
 _atom_site_occupancy
  K  K0  1  0.15190000  0.43232900  0.83811200  1
  K  K1  1  0.65190000  0.56767100  0.66188800  1
  K  K2  1  0.84810000  0.56767100  0.16188800  1
  K  K3  1  0.34810000  0.43232900  0.33811200  1
  La  La4  1  0.83711300  0.05944100  0.65507700  1
  La  La5  1  0.33711300  0.94055900  0.84492300  1
  La  La6  1  0.16288700  0.94055900  0.34492300  1
  La  La7  1  0.66288700  0.05944100  0.15507700  1
  Cr  Cr8  1  0.66427500  0.28008500  0.91163400  1
  Cr  Cr9  1  0.16427500  0.71991500  0.58836600  1
  Cr  Cr10  1  0.33572500  0.71991500  0.08836600  1
  Cr  Cr11  1  0.83572500  0.28008500  0.41163400  1
  Cr  Cr12  1  0.83647100  0.81020100  0.89353400  1
  Cr  Cr13  1  0.33647100  0.18979900  0.60646600  1
  Cr  Cr14  1  0.16352900  0.18979900  0.10646600  1
  Cr  Cr15  1  0.66352900  0.81020100  0.39353400  1
  O  O16  1  0.81897800  0.25782800  0.80644200  1
  O  O17  1  0.31897800  0.74217200  0.69355800  1
  O  O18  1  0.18102200  0.74217200  0.19355800  1
  O  O19  1  0.68102200  0.25782800  0.30644200  1
  O  O20  1  0.55895100  0.11533000  0.93861300  1
  O  O21  1  0.05895100  0.88467000  0.56138700  1
  O  O22  1  0.44104900  0.88467000  0.06138700  1
  O  O23  1  0.94104900  0.11533000  0.43861300  1
  O  O24  1  0.75221300  0.30596000  0.04605500  1
  O  O25  1  0.25221300  0.69404000  0.45394500  1
  O  O26  1  0.24778700  0.69404000  0.95394500  1
  O  O27  1  0.74778700  0.30596000  0.54605500  1
  O  O28  1  0.52668700  0.41253800  0.87023400  1
  O  O29  1  0.02668700  0.58746200  0.62976600  1
  O  O30  1  0.47331300  0.58746200  0.12976600  1
  O  O31  1  0.97331300  0.41253800  0.37023400  1
  O  O32  1  0.65932200  0.85547500  0.80846000  1
  O  O33  1  0.15932200  0.14452500  0.69154000  1
  O  O34  1  0.34067800  0.14452500  0.19154000  1
  O  O35  1  0.84067800  0.85547500  0.30846000  1
  O  O36  1  0.00134500  0.90734400  0.82283700  1
  O  O37  1  0.50134500  0.09265600  0.67716300  1
  O  O38  1  0.99865500  0.09265600  0.17716300  1
  O  O39  1  0.49865500  0.90734400  0.32283700  1
  O  O40  1  0.86889200  0.62956500  0.89485500  1
  O  O41  1  0.36889200  0.37043500  0.60514500  1
  O  O42  1  0.13110800  0.37043500  0.10514500  1
  O  O43  1  0.63110800  0.62956500  0.39485500  1
  O  O44  1  0.81052100  0.86353300  0.03299600  1
  O  O45  1  0.31052100  0.13646700  0.46700400  1
  O  O46  1  0.18947900  0.13646700  0.96700400  1
  O  O47  1  0.68947900  0.86353300  0.53299600  1
