# generated using pymatgen
data_Na3Al2(AsO4)3
_symmetry_space_group_name_H-M   'P 1'
_cell_length_a   10.01853562
_cell_length_b   10.01853562
_cell_length_c   9.92456069
_cell_angle_alpha   84.89288864
_cell_angle_beta   84.89288864
_cell_angle_gamma   84.84411288
_symmetry_Int_Tables_number   1
_chemical_formula_structural   Na3Al2(AsO4)3
_chemical_formula_sum   'Na12 Al8 As12 O48'
_cell_volume   984.86831377
_cell_formula_units_Z   4
loop_
 _symmetry_equiv_pos_site_id
 _symmetry_equiv_pos_as_xyz
  1  'x, y, z'
loop_
 _atom_site_type_symbol
 _atom_site_label
 _atom_site_symmetry_multiplicity
 _atom_site_fract_x
 _atom_site_fract_y
 _atom_site_fract_z
 _atom_site_occupancy
  Na  Na0  1  0.82637000  0.54448000  0.51622400  1
  Na  Na1  1  0.29858200  0.29789400  0.82639200  1
  Na  Na2  1  0.99857900  0.50016500  0.23411500  1
  Na  Na3  1  0.45552000  0.17363000  0.48377600  1
  Na  Na4  1  0.49983500  0.00142100  0.76588500  1
  Na  Na5  1  0.70210600  0.70141800  0.17360800  1
  Na  Na6  1  0.27115200  0.36022200  0.26390300  1
  Na  Na7  1  0.77304700  0.02604200  0.59055900  1
  Na  Na8  1  0.24242600  0.95976800  0.92584600  1
  Na  Na9  1  0.04023200  0.75757400  0.07415400  1
  Na  Na10  1  0.97395800  0.22695300  0.40944100  1
  Na  Na11  1  0.63977800  0.72884800  0.73609700  1
  Al  Al12  1  0.47106800  0.52893200  0.50000000  1
  Al  Al13  1  0.03093300  0.74465100  0.71994100  1
  Al  Al14  1  0.97054700  0.24732300  0.77796000  1
  Al  Al15  1  0.53175200  0.46824800  0.00000000  1
  Al  Al16  1  0.75291800  0.24708200  0.00000000  1
  Al  Al17  1  0.25534900  0.96906700  0.28005900  1
  Al  Al18  1  0.25327100  0.74672900  0.50000000  1
  Al  Al19  1  0.75267700  0.02945300  0.22204000  1
  As  As20  1  0.67453200  0.33882500  0.29757100  1
  As  As21  1  0.54895000  0.83855400  0.42658500  1
  As  As22  1  0.33749400  0.66383900  0.19875500  1
  As  As23  1  0.16144600  0.45105000  0.57341500  1
  As  As24  1  0.17102100  0.04181900  0.59423800  1
  As  As25  1  0.45854100  0.15838000  0.08304600  1
  As  As26  1  0.95818100  0.82897900  0.40576200  1
  As  As27  1  0.33616100  0.66250600  0.80124500  1
  As  As28  1  0.83232600  0.95093700  0.90945300  1
  As  As29  1  0.66117500  0.32546800  0.70242900  1
  As  As30  1  0.84162000  0.54145900  0.91695400  1
  As  As31  1  0.04906300  0.16767400  0.09054700  1
  O  O32  1  0.98404700  0.87088400  0.85187800  1
  O  O33  1  0.33238400  0.83566100  0.16634400  1
  O  O34  1  0.70528500  0.90768100  0.82933800  1
  O  O35  1  0.12298400  0.62756600  0.57730600  1
  O  O36  1  0.16986800  0.86482400  0.62976700  1
  O  O37  1  0.29925500  0.09346100  0.66893500  1
  O  O38  1  0.59334900  0.90357300  0.56466600  1
  O  O39  1  0.33340000  0.41238200  0.57388100  1
  O  O40  1  0.33711900  0.62175400  0.37915100  1
  O  O41  1  0.83507200  0.12832100  0.87144500  1
  O  O42  1  0.13517600  0.83013200  0.37023300  1
  O  O43  1  0.88049400  0.98313300  0.35198000  1
  O  O44  1  0.37931500  0.09972700  0.23503700  1
  O  O45  1  0.37824600  0.66288100  0.62084900  1
  O  O46  1  0.60103000  0.47712300  0.62510200  1
  O  O47  1  0.59845600  0.19104300  0.64991100  1
  O  O48  1  0.17926200  0.08027300  0.42029100  1
  O  O49  1  0.90653900  0.70074500  0.33106500  1
  O  O50  1  0.88216500  0.36512600  0.91872300  1
  O  O51  1  0.83344700  0.32512600  0.66538200  1
  O  O52  1  0.40549800  0.79586800  0.84780800  1
  O  O53  1  0.89350500  0.60104200  0.05393600  1
  O  O54  1  0.09231900  0.29471500  0.17066200  1
  O  O55  1  0.91972700  0.82073800  0.57970900  1
  O  O56  1  0.40412700  0.51199600  0.87261300  1
  O  O57  1  0.90027300  0.62068500  0.76496300  1
  O  O58  1  0.48800400  0.59587300  0.12738700  1
  O  O59  1  0.12911600  0.01595300  0.14812200  1
  O  O60  1  0.42709200  0.33072700  0.08376300  1
  O  O61  1  0.16433900  0.66761600  0.83365600  1
  O  O62  1  0.62314700  0.32400900  0.88069200  1
  O  O63  1  0.67487400  0.16655300  0.33461800  1
  O  O64  1  0.67599100  0.37685300  0.11930800  1
  O  O65  1  0.87167900  0.16492800  0.12855500  1
  O  O66  1  0.08611800  0.17175300  0.91640100  1
  O  O67  1  0.82824700  0.91388200  0.08359900  1
  O  O68  1  0.20413200  0.59450200  0.15219200  1
  O  O69  1  0.58761800  0.66660000  0.42611900  1
  O  O70  1  0.09694000  0.37091300  0.72145400  1
  O  O71  1  0.09642700  0.40665100  0.43533400  1
  O  O72  1  0.01686700  0.11950600  0.64802000  1
  O  O73  1  0.62908700  0.90306000  0.27854600  1
  O  O74  1  0.80895700  0.40154400  0.35008900  1
  O  O75  1  0.63487400  0.11783500  0.08127700  1
  O  O76  1  0.39895800  0.10649500  0.94606400  1
  O  O77  1  0.66927300  0.57290800  0.91623700  1
  O  O78  1  0.37243400  0.87701600  0.42269400  1
  O  O79  1  0.52287700  0.39897000  0.37489800  1
