# generated using pymatgen
data_Ca9Cr(PO4)7
_symmetry_space_group_name_H-M   'P 1'
_cell_length_a   13.88175292
_cell_length_b   13.88175292
_cell_length_c   13.88175254
_cell_angle_alpha   44.13205288
_cell_angle_beta   44.13205288
_cell_angle_gamma   44.13205369
_symmetry_Int_Tables_number   1
_chemical_formula_structural   Ca9Cr(PO4)7
_chemical_formula_sum   'Ca18 Cr2 P14 O56'
_cell_volume   1178.36218990
_cell_formula_units_Z   2
loop_
 _symmetry_equiv_pos_site_id
 _symmetry_equiv_pos_as_xyz
  1  'x, y, z'
loop_
 _atom_site_type_symbol
 _atom_site_label
 _atom_site_symmetry_multiplicity
 _atom_site_fract_x
 _atom_site_fract_y
 _atom_site_fract_z
 _atom_site_occupancy
  Ca  Ca0  1  0.09261000  0.06575300  0.64297800  1
  Ca  Ca1  1  0.43434400  0.41963200  0.84368800  1
  Ca  Ca2  1  0.34368800  0.91963200  0.93434400  1
  Ca  Ca3  1  0.14297800  0.56575300  0.59261000  1
  Ca  Ca4  1  0.04473400  0.44897100  0.02554700  1
  Ca  Ca5  1  0.54473400  0.52554700  0.94897100  1
  Ca  Ca6  1  0.41963200  0.84368800  0.43434400  1
  Ca  Ca7  1  0.56575300  0.59261000  0.14297800  1
  Ca  Ca8  1  0.94897100  0.54473400  0.52554700  1
  Ca  Ca9  1  0.06575300  0.64297800  0.09261000  1
  Ca  Ca10  1  0.91963200  0.93434400  0.34368800  1
  Ca  Ca11  1  0.93434400  0.34368800  0.91963200  1
  Ca  Ca12  1  0.59261000  0.14297800  0.56575300  1
  Ca  Ca13  1  0.64297800  0.09261000  0.06575300  1
  Ca  Ca14  1  0.02554700  0.04473400  0.44897100  1
  Ca  Ca15  1  0.44897100  0.02554700  0.04473400  1
  Ca  Ca16  1  0.84368800  0.43434400  0.41963200  1
  Ca  Ca17  1  0.52554700  0.94897100  0.54473400  1
  Cr  Cr18  1  0.49794100  0.49794100  0.49794100  1
  Cr  Cr19  1  0.99794100  0.99794100  0.99794100  1
  P  P20  1  0.81044800  0.31384300  0.27897300  1
  P  P21  1  0.81384300  0.31044800  0.77897300  1
  P  P22  1  0.31384300  0.27897300  0.81044800  1
  P  P23  1  0.77897300  0.81384300  0.31044800  1
  P  P24  1  0.72112200  0.17918100  0.68722900  1
  P  P25  1  0.67918100  0.22112200  0.18722900  1
  P  P26  1  0.22112200  0.18722900  0.67918100  1
  P  P27  1  0.18722900  0.67918100  0.22112200  1
  P  P28  1  0.68722900  0.72112200  0.17918100  1
  P  P29  1  0.27897300  0.81044800  0.31384300  1
  P  P30  1  0.22932900  0.22932900  0.22932900  1
  P  P31  1  0.31044800  0.77897300  0.81384300  1
  P  P32  1  0.17918100  0.68722900  0.72112200  1
  P  P33  1  0.72932900  0.72932900  0.72932900  1
  O  O34  1  0.63110800  0.38667100  0.36758400  1
  O  O35  1  0.73275300  0.88860500  0.60522100  1
  O  O36  1  0.64068400  0.73502000  0.09661000  1
  O  O37  1  0.13110800  0.86758400  0.88667100  1
  O  O38  1  0.14154300  0.36035600  0.62979500  1
  O  O39  1  0.16436600  0.61074000  0.88272800  1
  O  O40  1  0.35979200  0.61563300  0.62287700  1
  O  O41  1  0.62979500  0.14154300  0.36035600  1
  O  O42  1  0.88272800  0.16436600  0.61074000  1
  O  O43  1  0.33516400  0.86072900  0.14568100  1
  O  O44  1  0.62287700  0.35979200  0.61563300  1
  O  O45  1  0.34997300  0.60631900  0.90766700  1
  O  O46  1  0.12979500  0.86035600  0.64154300  1
  O  O47  1  0.11563300  0.85979200  0.12287700  1
  O  O48  1  0.86072900  0.14568100  0.33516400  1
  O  O49  1  0.18791300  0.18791300  0.18791300  1
  O  O50  1  0.32349500  0.31439500  0.88504600  1
  O  O51  1  0.86758400  0.88667100  0.13110800  1
  O  O52  1  0.86035600  0.64154300  0.12979500  1
  O  O53  1  0.68791300  0.68791300  0.68791300  1
  O  O54  1  0.31439500  0.88504600  0.32349500  1
  O  O55  1  0.36035600  0.62979500  0.14154300  1
  O  O56  1  0.84997300  0.40766700  0.10631900  1
  O  O57  1  0.64568100  0.36072900  0.83516400  1
  O  O58  1  0.36072900  0.83516400  0.64568100  1
  O  O59  1  0.14568100  0.33516400  0.86072900  1
  O  O60  1  0.60631900  0.90766700  0.34997300  1
  O  O61  1  0.14068400  0.59661000  0.23502000  1
  O  O62  1  0.36758400  0.63110800  0.38667100  1
  O  O63  1  0.09661000  0.64068400  0.73502000  1
  O  O64  1  0.10631900  0.84997300  0.40766700  1
  O  O65  1  0.61074000  0.88272800  0.16436600  1
  O  O66  1  0.59661000  0.23502000  0.14068400  1
  O  O67  1  0.64154300  0.12979500  0.86035600  1
  O  O68  1  0.38860500  0.23275300  0.10522100  1
  O  O69  1  0.60522100  0.73275300  0.88860500  1
  O  O70  1  0.81439500  0.82349500  0.38504600  1
  O  O71  1  0.23502000  0.14068400  0.59661000  1
  O  O72  1  0.66436600  0.38272800  0.11074000  1
  O  O73  1  0.38272800  0.11074000  0.66436600  1
  O  O74  1  0.12287700  0.11563300  0.85979200  1
  O  O75  1  0.38504600  0.81439500  0.82349500  1
  O  O76  1  0.85979200  0.12287700  0.11563300  1
  O  O77  1  0.61563300  0.62287700  0.35979200  1
  O  O78  1  0.11074000  0.66436600  0.38272800  1
  O  O79  1  0.83516400  0.64568100  0.36072900  1
  O  O80  1  0.40766700  0.10631900  0.84997300  1
  O  O81  1  0.88667100  0.13110800  0.86758400  1
  O  O82  1  0.23275300  0.10522100  0.38860500  1
  O  O83  1  0.88860500  0.60522100  0.73275300  1
  O  O84  1  0.73502000  0.09661000  0.64068400  1
  O  O85  1  0.90766700  0.34997300  0.60631900  1
  O  O86  1  0.82349500  0.38504600  0.81439500  1
  O  O87  1  0.10522100  0.38860500  0.23275300  1
  O  O88  1  0.38667100  0.36758400  0.63110800  1
  O  O89  1  0.88504600  0.32349500  0.31439500  1
