# generated using pymatgen
data_Ba14Na7CaN6
_symmetry_space_group_name_H-M   'P 1'
_cell_length_a   22.10833205
_cell_length_b   22.10833205
_cell_length_c   22.10833232
_cell_angle_alpha   29.88911294
_cell_angle_beta   29.88911294
_cell_angle_gamma   29.88911258
_symmetry_Int_Tables_number   1
_chemical_formula_structural   Ba14Na7CaN6
_chemical_formula_sum   'Ba28 Na14 Ca2 N12'
_cell_volume   2376.54139634
_cell_formula_units_Z   2
loop_
 _symmetry_equiv_pos_site_id
 _symmetry_equiv_pos_as_xyz
  1  'x, y, z'
loop_
 _atom_site_type_symbol
 _atom_site_label
 _atom_site_symmetry_multiplicity
 _atom_site_fract_x
 _atom_site_fract_y
 _atom_site_fract_z
 _atom_site_occupancy
  Ba  Ba0  1  0.84427500  0.13047700  0.38523400  1
  Ba  Ba1  1  0.61476600  0.15572500  0.86952300  1
  Ba  Ba2  1  0.38523400  0.84427500  0.13047700  1
  Ba  Ba3  1  0.55269300  0.55269300  0.55269300  1
  Ba  Ba4  1  0.05269300  0.05269300  0.05269300  1
  Ba  Ba5  1  0.44730700  0.44730700  0.44730700  1
  Ba  Ba6  1  0.15572500  0.86952300  0.61476600  1
  Ba  Ba7  1  0.63047700  0.34427500  0.88523400  1
  Ba  Ba8  1  0.88523400  0.63047700  0.34427500  1
  Ba  Ba9  1  0.53137200  0.18759400  0.72924300  1
  Ba  Ba10  1  0.18759400  0.72924300  0.53137200  1
  Ba  Ba11  1  0.34427500  0.88523400  0.63047700  1
  Ba  Ba12  1  0.03137200  0.22924300  0.68759400  1
  Ba  Ba13  1  0.22924300  0.68759400  0.03137200  1
  Ba  Ba14  1  0.46862800  0.81240600  0.27075700  1
  Ba  Ba15  1  0.94730700  0.94730700  0.94730700  1
  Ba  Ba16  1  0.11476600  0.36952300  0.65572500  1
  Ba  Ba17  1  0.36952300  0.65572500  0.11476600  1
  Ba  Ba18  1  0.72924300  0.53137200  0.18759400  1
  Ba  Ba19  1  0.86952300  0.61476600  0.15572500  1
  Ba  Ba20  1  0.31240600  0.96862800  0.77075700  1
  Ba  Ba21  1  0.81240600  0.27075700  0.46862800  1
  Ba  Ba22  1  0.27075700  0.46862800  0.81240600  1
  Ba  Ba23  1  0.65572500  0.11476600  0.36952300  1
  Ba  Ba24  1  0.68759400  0.03137200  0.22924300  1
  Ba  Ba25  1  0.13047700  0.38523400  0.84427500  1
  Ba  Ba26  1  0.96862800  0.77075700  0.31240600  1
  Ba  Ba27  1  0.77075700  0.31240600  0.96862800  1
  Na  Na28  1  0.66472800  0.66472800  0.66472800  1
  Na  Na29  1  0.54068800  0.95931200  0.25000000  1
  Na  Na30  1  0.75000000  0.45931200  0.04068800  1
  Na  Na31  1  0.22169100  0.22169100  0.22169100  1
  Na  Na32  1  0.72169100  0.72169100  0.72169100  1
  Na  Na33  1  0.25000000  0.54068800  0.95931200  1
  Na  Na34  1  0.16472800  0.16472800  0.16472800  1
  Na  Na35  1  0.83527200  0.83527200  0.83527200  1
  Na  Na36  1  0.27830900  0.27830900  0.27830900  1
  Na  Na37  1  0.33527200  0.33527200  0.33527200  1
  Na  Na38  1  0.95931200  0.25000000  0.54068800  1
  Na  Na39  1  0.77830900  0.77830900  0.77830900  1
  Na  Na40  1  0.04068800  0.75000000  0.45931200  1
  Na  Na41  1  0.45931200  0.04068800  0.75000000  1
  Ca  Ca42  1  0.00000000  0.00000000  0.00000000  1
  Ca  Ca43  1  0.50000000  0.50000000  0.50000000  1
  N  N44  1  0.82530700  0.05755200  0.18777900  1
  N  N45  1  0.32530700  0.68777900  0.55755200  1
  N  N46  1  0.31222100  0.44244800  0.67469300  1
  N  N47  1  0.18777900  0.82530700  0.05755200  1
  N  N48  1  0.44244800  0.67469300  0.31222100  1
  N  N49  1  0.55755200  0.32530700  0.68777900  1
  N  N50  1  0.05755200  0.18777900  0.82530700  1
  N  N51  1  0.68777900  0.55755200  0.32530700  1
  N  N52  1  0.67469300  0.31222100  0.44244800  1
  N  N53  1  0.17469300  0.94244800  0.81222100  1
  N  N54  1  0.94244800  0.81222100  0.17469300  1
  N  N55  1  0.81222100  0.17469300  0.94244800  1
