# generated using pymatgen
data_K2ZrS4
_symmetry_space_group_name_H-M   'P 1'
_cell_length_a   6.80780600
_cell_length_b   9.57239300
_cell_length_c   23.55265300
_cell_angle_alpha   90.00000000
_cell_angle_beta   90.00000000
_cell_angle_gamma   90.00000000
_symmetry_Int_Tables_number   1
_chemical_formula_structural   K2ZrS4
_chemical_formula_sum   'K16 Zr8 S32'
_cell_volume   1534.85560851
_cell_formula_units_Z   8
loop_
 _symmetry_equiv_pos_site_id
 _symmetry_equiv_pos_as_xyz
  1  'x, y, z'
loop_
 _atom_site_type_symbol
 _atom_site_label
 _atom_site_symmetry_multiplicity
 _atom_site_fract_x
 _atom_site_fract_y
 _atom_site_fract_z
 _atom_site_occupancy
  K  K0  1  0.06497000  0.06918900  0.19831600  1
  K  K1  1  0.56497000  0.43081100  0.19831600  1
  K  K2  1  0.20331900  0.85769600  0.96872600  1
  K  K3  1  0.20331900  0.35769600  0.53127400  1
  K  K4  1  0.79668100  0.64230400  0.46872600  1
  K  K5  1  0.56497000  0.93081100  0.30168400  1
  K  K6  1  0.43503000  0.06918900  0.69831600  1
  K  K7  1  0.43503000  0.56918900  0.80168400  1
  K  K8  1  0.70331900  0.14230400  0.53127400  1
  K  K9  1  0.93503000  0.43081100  0.69831600  1
  K  K10  1  0.93503000  0.93081100  0.80168400  1
  K  K11  1  0.06497000  0.56918900  0.30168400  1
  K  K12  1  0.29668100  0.35769600  0.03127400  1
  K  K13  1  0.70331900  0.64230400  0.96872600  1
  K  K14  1  0.29668100  0.85769600  0.46872600  1
  K  K15  1  0.79668100  0.14230400  0.03127400  1
  Zr  Zr16  1  0.55315600  0.82856600  0.13144200  1
  Zr  Zr17  1  0.44684400  0.17143400  0.86855800  1
  Zr  Zr18  1  0.05315600  0.67143400  0.13144200  1
  Zr  Zr19  1  0.94684400  0.32856600  0.86855800  1
  Zr  Zr20  1  0.44684400  0.67143400  0.63144200  1
  Zr  Zr21  1  0.94684400  0.82856600  0.63144200  1
  Zr  Zr22  1  0.55315600  0.32856600  0.36855800  1
  Zr  Zr23  1  0.05315600  0.17143400  0.36855800  1
  S  S24  1  0.42887300  0.91020600  0.83943800  1
  S  S25  1  0.42887300  0.41020600  0.66056200  1
  S  S26  1  0.86402000  0.33233900  0.43375800  1
  S  S27  1  0.61070300  0.94796100  0.91041800  1
  S  S28  1  0.71082700  0.23064300  0.79576700  1
  S  S29  1  0.88929700  0.94796100  0.41041800  1
  S  S30  1  0.88929700  0.44796100  0.08958200  1
  S  S31  1  0.21082700  0.76935700  0.70423300  1
  S  S32  1  0.71082700  0.73064300  0.70423300  1
  S  S33  1  0.86402000  0.83233900  0.06624200  1
  S  S34  1  0.92887300  0.08979400  0.66056200  1
  S  S35  1  0.38929700  0.05203900  0.08958200  1
  S  S36  1  0.57112700  0.08979400  0.16056200  1
  S  S37  1  0.13598000  0.66766100  0.56624200  1
  S  S38  1  0.21082700  0.26935700  0.79576700  1
  S  S39  1  0.78917300  0.23064300  0.29576700  1
  S  S40  1  0.07112700  0.91020600  0.33943800  1
  S  S41  1  0.11070300  0.55203900  0.91041800  1
  S  S42  1  0.36402000  0.66766100  0.06624200  1
  S  S43  1  0.63598000  0.33233900  0.93375800  1
  S  S44  1  0.61070300  0.44796100  0.58958200  1
  S  S45  1  0.38929700  0.55203900  0.41041800  1
  S  S46  1  0.36402000  0.16766100  0.43375800  1
  S  S47  1  0.78917300  0.73064300  0.20423300  1
  S  S48  1  0.92887300  0.58979400  0.83943800  1
  S  S49  1  0.28917300  0.76935700  0.20423300  1
  S  S50  1  0.57112700  0.58979400  0.33943800  1
  S  S51  1  0.28917300  0.26935700  0.29576700  1
  S  S52  1  0.07112700  0.41020600  0.16056200  1
  S  S53  1  0.63598000  0.83233900  0.56624200  1
  S  S54  1  0.13598000  0.16766100  0.93375800  1
  S  S55  1  0.11070300  0.05203900  0.58958200  1
