# generated using pymatgen
data_Pb2CO4
_symmetry_space_group_name_H-M   'P 1'
_cell_length_a   5.25264400
_cell_length_b   9.49909700
_cell_length_c   9.50266200
_cell_angle_alpha   90.00000000
_cell_angle_beta   90.00000000
_cell_angle_gamma   90.00000000
_symmetry_Int_Tables_number   1
_chemical_formula_structural   Pb2CO4
_chemical_formula_sum   'Pb8 C4 O16'
_cell_volume   474.13888268
_cell_formula_units_Z   4
loop_
 _symmetry_equiv_pos_site_id
 _symmetry_equiv_pos_as_xyz
  1  'x, y, z'
loop_
 _atom_site_type_symbol
 _atom_site_label
 _atom_site_symmetry_multiplicity
 _atom_site_fract_x
 _atom_site_fract_y
 _atom_site_fract_z
 _atom_site_occupancy
  Pb  Pb0  1  0.01208700  0.54538300  0.58759200  1
  Pb  Pb1  1  0.51208700  0.95461700  0.41240800  1
  Pb  Pb2  1  0.98791300  0.04538300  0.91240800  1
  Pb  Pb3  1  0.48791300  0.45461700  0.08759200  1
  Pb  Pb4  1  0.95044300  0.24461200  0.35009400  1
  Pb  Pb5  1  0.45044300  0.25538800  0.64990600  1
  Pb  Pb6  1  0.04955700  0.74461200  0.14990600  1
  Pb  Pb7  1  0.54955700  0.75538800  0.85009400  1
  C  C8  1  0.98990300  0.49424400  0.90268400  1
  C  C9  1  0.48990300  0.00575600  0.09731600  1
  C  C10  1  0.01009700  0.99424400  0.59731600  1
  C  C11  1  0.51009700  0.50575600  0.40268400  1
  O  O12  1  0.20484400  0.48690200  0.83743600  1
  O  O13  1  0.70484400  0.01309800  0.16256400  1
  O  O14  1  0.79515600  0.98690200  0.66256400  1
  O  O15  1  0.29515600  0.51309800  0.33743600  1
  O  O16  1  0.72196900  0.49088900  0.33290400  1
  O  O17  1  0.22196900  0.00911100  0.66709600  1
  O  O18  1  0.27803100  0.99088900  0.16709600  1
  O  O19  1  0.77803100  0.50911100  0.83290400  1
  O  O20  1  0.01791900  0.98649700  0.45945700  1
  O  O21  1  0.51791900  0.51350300  0.54054300  1
  O  O22  1  0.98208100  0.48649700  0.04054300  1
  O  O23  1  0.48208100  0.01350300  0.95945700  1
  O  O24  1  0.04503900  0.31428000  0.57091000  1
  O  O25  1  0.54503900  0.18572000  0.42909000  1
  O  O26  1  0.95496100  0.81428000  0.92909000  1
  O  O27  1  0.45496100  0.68572000  0.07091000  1
