# generated using pymatgen
data_Sc6Si7Ni16
_symmetry_space_group_name_H-M   'P 1'
_cell_length_a   8.06636869
_cell_length_b   8.06636869
_cell_length_c   8.06636869
_cell_angle_alpha   60.00000000
_cell_angle_beta   60.00000000
_cell_angle_gamma   60.00000000
_symmetry_Int_Tables_number   1
_chemical_formula_structural   Sc6Si7Ni16
_chemical_formula_sum   'Sc6 Si7 Ni16'
_cell_volume   371.12414277
_cell_formula_units_Z   1
loop_
 _symmetry_equiv_pos_site_id
 _symmetry_equiv_pos_as_xyz
  1  'x, y, z'
loop_
 _atom_site_type_symbol
 _atom_site_label
 _atom_site_symmetry_multiplicity
 _atom_site_fract_x
 _atom_site_fract_y
 _atom_site_fract_z
 _atom_site_occupancy
  Sc  Sc0  1  0.70588000  0.70588000  0.29412000  1
  Sc  Sc1  1  0.29412000  0.70588000  0.29412000  1
  Sc  Sc2  1  0.70588000  0.29412000  0.29412000  1
  Sc  Sc3  1  0.29412000  0.29412000  0.70588000  1
  Sc  Sc4  1  0.70588000  0.29412000  0.70588000  1
  Sc  Sc5  1  0.29412000  0.70588000  0.70588000  1
  Si  Si6  1  0.00000000  0.00000000  0.00000000  1
  Si  Si7  1  0.00000000  0.00000000  0.50000000  1
  Si  Si8  1  0.50000000  0.00000000  0.50000000  1
  Si  Si9  1  0.00000000  0.50000000  0.50000000  1
  Si  Si10  1  0.50000000  0.50000000  0.00000000  1
  Si  Si11  1  0.00000000  0.50000000  0.00000000  1
  Si  Si12  1  0.50000000  0.00000000  0.00000000  1
  Ni  Ni13  1  0.88100400  0.88100400  0.35698700  1
  Ni  Ni14  1  0.88100400  0.35698700  0.88100400  1
  Ni  Ni15  1  0.35698700  0.88100400  0.88100400  1
  Ni  Ni16  1  0.88100400  0.88100400  0.88100400  1
  Ni  Ni17  1  0.11899600  0.11899600  0.64301300  1
  Ni  Ni18  1  0.11899600  0.64301300  0.11899600  1
  Ni  Ni19  1  0.64301300  0.11899600  0.11899600  1
  Ni  Ni20  1  0.11899600  0.11899600  0.11899600  1
  Ni  Ni21  1  0.66871100  0.66871100  0.99386600  1
  Ni  Ni22  1  0.66871100  0.99386600  0.66871100  1
  Ni  Ni23  1  0.99386600  0.66871100  0.66871100  1
  Ni  Ni24  1  0.66871100  0.66871100  0.66871100  1
  Ni  Ni25  1  0.33128900  0.33128900  0.00613400  1
  Ni  Ni26  1  0.33128900  0.00613400  0.33128900  1
  Ni  Ni27  1  0.00613400  0.33128900  0.33128900  1
  Ni  Ni28  1  0.33128900  0.33128900  0.33128900  1
