# generated using pymatgen
data_Dy2MgSi2
_symmetry_space_group_name_H-M   'P 1'
_cell_length_a   7.16017100
_cell_length_b   7.16017100
_cell_length_c   4.22644500
_cell_angle_alpha   90.00000000
_cell_angle_beta   90.00000000
_cell_angle_gamma   90.00000000
_symmetry_Int_Tables_number   1
_chemical_formula_structural   Dy2MgSi2
_chemical_formula_sum   'Dy4 Mg2 Si4'
_cell_volume   216.68158830
_cell_formula_units_Z   2
loop_
 _symmetry_equiv_pos_site_id
 _symmetry_equiv_pos_as_xyz
  1  'x, y, z'
loop_
 _atom_site_type_symbol
 _atom_site_label
 _atom_site_symmetry_multiplicity
 _atom_site_fract_x
 _atom_site_fract_y
 _atom_site_fract_z
 _atom_site_occupancy
  Dy  Dy0  1  0.82201800  0.67798200  0.50000000  1
  Dy  Dy1  1  0.17798200  0.32201800  0.50000000  1
  Dy  Dy2  1  0.32201800  0.82201800  0.50000000  1
  Dy  Dy3  1  0.67798200  0.17798200  0.50000000  1
  Mg  Mg4  1  0.00000000  0.00000000  0.00000000  1
  Mg  Mg5  1  0.50000000  0.50000000  0.00000000  1
  Si  Si6  1  0.88184700  0.38184700  0.00000000  1
  Si  Si7  1  0.11815300  0.61815300  0.00000000  1
  Si  Si8  1  0.38184700  0.11815300  0.00000000  1
  Si  Si9  1  0.61815300  0.88184700  0.00000000  1
