# generated using pymatgen
data_Mg3Si(O2F)2
_symmetry_space_group_name_H-M   'P 1'
_cell_length_a   4.76019800
_cell_length_b   8.84190200
_cell_length_c   10.39113700
_cell_angle_alpha   90.00000000
_cell_angle_beta   90.00000000
_cell_angle_gamma   90.00000000
_symmetry_Int_Tables_number   1
_chemical_formula_structural   Mg3Si(O2F)2
_chemical_formula_sum   'Mg12 Si4 O16 F8'
_cell_volume   437.35468724
_cell_formula_units_Z   4
loop_
 _symmetry_equiv_pos_site_id
 _symmetry_equiv_pos_as_xyz
  1  'x, y, z'
loop_
 _atom_site_type_symbol
 _atom_site_label
 _atom_site_symmetry_multiplicity
 _atom_site_fract_x
 _atom_site_fract_y
 _atom_site_fract_z
 _atom_site_occupancy
  Mg  Mg0  1  0.98997200  0.43036700  0.36676000  1
  Mg  Mg1  1  0.99399900  0.25000000  0.09294100  1
  Mg  Mg2  1  0.51002800  0.06963300  0.86676000  1
  Mg  Mg3  1  0.98997200  0.06963300  0.36676000  1
  Mg  Mg4  1  0.00600100  0.75000000  0.90705900  1
  Mg  Mg5  1  0.50600100  0.25000000  0.59294100  1
  Mg  Mg6  1  0.01002800  0.93036700  0.63324000  1
  Mg  Mg7  1  0.51002800  0.43036700  0.86676000  1
  Mg  Mg8  1  0.49399900  0.75000000  0.40705900  1
  Mg  Mg9  1  0.01002800  0.56963300  0.63324000  1
  Mg  Mg10  1  0.48997200  0.56963300  0.13324000  1
  Mg  Mg11  1  0.48997200  0.93036700  0.13324000  1
  Si  Si12  1  0.08030600  0.25000000  0.78046100  1
  Si  Si13  1  0.41969400  0.25000000  0.28046100  1
  Si  Si14  1  0.91969400  0.75000000  0.21953900  1
  Si  Si15  1  0.58030600  0.75000000  0.71953900  1
  O  O16  1  0.73162800  0.89650800  0.79111000  1
  O  O17  1  0.26837200  0.10349200  0.20889000  1
  O  O18  1  0.23770500  0.75000000  0.72108300  1
  O  O19  1  0.77772600  0.75000000  0.07423300  1
  O  O20  1  0.27772600  0.25000000  0.42576700  1
  O  O21  1  0.72227400  0.75000000  0.57423300  1
  O  O22  1  0.76837200  0.89650800  0.29111000  1
  O  O23  1  0.76229500  0.25000000  0.27891700  1
  O  O24  1  0.26837200  0.39650800  0.20889000  1
  O  O25  1  0.73162800  0.60349200  0.79111000  1
  O  O26  1  0.26229500  0.75000000  0.22108300  1
  O  O27  1  0.23162800  0.10349200  0.70889000  1
  O  O28  1  0.22227400  0.25000000  0.92576700  1
  O  O29  1  0.76837200  0.60349200  0.29111000  1
  O  O30  1  0.73770500  0.25000000  0.77891700  1
  O  O31  1  0.23162800  0.39650800  0.70889000  1
  F  F32  1  0.27236400  0.91591600  0.96738800  1
  F  F33  1  0.22763600  0.58408400  0.46738800  1
  F  F34  1  0.72763600  0.08408400  0.03261200  1
  F  F35  1  0.72763600  0.41591600  0.03261200  1
  F  F36  1  0.77236400  0.41591600  0.53261200  1
  F  F37  1  0.22763600  0.91591600  0.46738800  1
  F  F38  1  0.77236400  0.08408400  0.53261200  1
  F  F39  1  0.27236400  0.58408400  0.96738800  1
