# generated using pymatgen
data_Cs3ZnCl5
_symmetry_space_group_name_H-M   'P 1'
_cell_length_a   9.93930887
_cell_length_b   9.93930887
_cell_length_c   9.93930887
_cell_angle_alpha   123.47224328
_cell_angle_beta   123.47224328
_cell_angle_gamma   84.08425407
_symmetry_Int_Tables_number   1
_chemical_formula_structural   Cs3ZnCl5
_chemical_formula_sum   'Cs6 Zn2 Cl10'
_cell_volume   654.05584182
_cell_formula_units_Z   2
loop_
 _symmetry_equiv_pos_site_id
 _symmetry_equiv_pos_as_xyz
  1  'x, y, z'
loop_
 _atom_site_type_symbol
 _atom_site_label
 _atom_site_symmetry_multiplicity
 _atom_site_fract_x
 _atom_site_fract_y
 _atom_site_fract_z
 _atom_site_occupancy
  Cs  Cs0  1  0.16586600  0.66586600  0.83173200  1
  Cs  Cs1  1  0.33413400  0.16586600  0.50000000  1
  Cs  Cs2  1  0.25000000  0.25000000  0.00000000  1
  Cs  Cs3  1  0.83413400  0.33413400  0.16826800  1
  Cs  Cs4  1  0.75000000  0.75000000  0.00000000  1
  Cs  Cs5  1  0.66586600  0.83413400  0.50000000  1
  Zn  Zn6  1  0.75000000  0.25000000  0.50000000  1
  Zn  Zn7  1  0.25000000  0.75000000  0.50000000  1
  Cl  Cl8  1  0.98056000  0.20374800  0.50000000  1
  Cl  Cl9  1  0.70374800  0.48056000  0.50000000  1
  Cl  Cl10  1  0.01944000  0.79625200  0.50000000  1
  Cl  Cl11  1  0.00000000  0.00000000  0.00000000  1
  Cl  Cl12  1  0.20374800  0.70374800  0.22318800  1
  Cl  Cl13  1  0.79625200  0.29625200  0.77681200  1
  Cl  Cl14  1  0.48056000  0.98056000  0.77681200  1
  Cl  Cl15  1  0.29625200  0.51944000  0.50000000  1
  Cl  Cl16  1  0.51944000  0.01944000  0.22318800  1
  Cl  Cl17  1  0.50000000  0.50000000  0.00000000  1
