# generated using pymatgen
data_RbFeCl4
_symmetry_space_group_name_H-M   'P 1'
_cell_length_a   7.27898400
_cell_length_b   9.53221300
_cell_length_c   11.54698600
_cell_angle_alpha   90.00000000
_cell_angle_beta   90.00000000
_cell_angle_gamma   90.00000000
_symmetry_Int_Tables_number   1
_chemical_formula_structural   RbFeCl4
_chemical_formula_sum   'Rb4 Fe4 Cl16'
_cell_volume   801.18561341
_cell_formula_units_Z   4
loop_
 _symmetry_equiv_pos_site_id
 _symmetry_equiv_pos_as_xyz
  1  'x, y, z'
loop_
 _atom_site_type_symbol
 _atom_site_label
 _atom_site_symmetry_multiplicity
 _atom_site_fract_x
 _atom_site_fract_y
 _atom_site_fract_z
 _atom_site_occupancy
  Rb  Rb0  1  0.25000000  0.16236600  0.67984200  1
  Rb  Rb1  1  0.75000000  0.83763400  0.32015800  1
  Rb  Rb2  1  0.75000000  0.66236600  0.82015800  1
  Rb  Rb3  1  0.25000000  0.33763400  0.17984200  1
  Fe  Fe4  1  0.25000000  0.68921500  0.56755000  1
  Fe  Fe5  1  0.75000000  0.31078500  0.43245000  1
  Fe  Fe6  1  0.75000000  0.18921500  0.93245000  1
  Fe  Fe7  1  0.25000000  0.81078500  0.06755000  1
  Cl  Cl8  1  0.25000000  0.54525800  0.71678700  1
  Cl  Cl9  1  0.75000000  0.45474200  0.28321300  1
  Cl  Cl10  1  0.75000000  0.04525800  0.78321300  1
  Cl  Cl11  1  0.25000000  0.95474200  0.21678700  1
  Cl  Cl12  1  0.25000000  0.57623400  0.40166800  1
  Cl  Cl13  1  0.75000000  0.42376600  0.59833200  1
  Cl  Cl14  1  0.75000000  0.07623400  0.09833200  1
  Cl  Cl15  1  0.25000000  0.92376600  0.90166800  1
  Cl  Cl16  1  0.00363300  0.82533600  0.58125000  1
  Cl  Cl17  1  0.50363300  0.17466400  0.41875000  1
  Cl  Cl18  1  0.99636700  0.32533600  0.91875000  1
  Cl  Cl19  1  0.49636700  0.67466400  0.08125000  1
  Cl  Cl20  1  0.99636700  0.17466400  0.41875000  1
  Cl  Cl21  1  0.49636700  0.82533600  0.58125000  1
  Cl  Cl22  1  0.00363300  0.67466400  0.08125000  1
  Cl  Cl23  1  0.50363300  0.32533600  0.91875000  1
