# generated using pymatgen
data_Cs3NdCl6
_symmetry_space_group_name_H-M   'P 1'
_cell_length_a   8.39529800
_cell_length_b   13.57909500
_cell_length_c   27.09991200
_cell_angle_alpha   90.00000000
_cell_angle_beta   90.00000000
_cell_angle_gamma   90.00000000
_symmetry_Int_Tables_number   1
_chemical_formula_structural   Cs3NdCl6
_chemical_formula_sum   'Cs24 Nd8 Cl48'
_cell_volume   3089.40484843
_cell_formula_units_Z   8
loop_
 _symmetry_equiv_pos_site_id
 _symmetry_equiv_pos_as_xyz
  1  'x, y, z'
loop_
 _atom_site_type_symbol
 _atom_site_label
 _atom_site_symmetry_multiplicity
 _atom_site_fract_x
 _atom_site_fract_y
 _atom_site_fract_z
 _atom_site_occupancy
  Cs  Cs0  1  0.18271700  0.75560700  0.83734200  1
  Cs  Cs1  1  0.26062800  0.08562800  0.55029200  1
  Cs  Cs2  1  0.73937200  0.91437200  0.05029200  1
  Cs  Cs3  1  0.81728300  0.25560700  0.66265800  1
  Cs  Cs4  1  0.73937200  0.58562800  0.94970800  1
  Cs  Cs5  1  0.73937200  0.91437200  0.44970800  1
  Cs  Cs6  1  0.30944800  0.40929300  0.65318200  1
  Cs  Cs7  1  0.69055200  0.90929300  0.65318200  1
  Cs  Cs8  1  0.26062800  0.41437200  0.44970800  1
  Cs  Cs9  1  0.81728300  0.24439300  0.33734200  1
  Cs  Cs10  1  0.26062800  0.41437200  0.05029200  1
  Cs  Cs11  1  0.69055200  0.59070700  0.15318200  1
  Cs  Cs12  1  0.69055200  0.90929300  0.84681800  1
  Cs  Cs13  1  0.30944800  0.40929300  0.84681800  1
  Cs  Cs14  1  0.30944800  0.09070700  0.15318200  1
  Cs  Cs15  1  0.30944800  0.09070700  0.34681800  1
  Cs  Cs16  1  0.18271700  0.74439300  0.33734200  1
  Cs  Cs17  1  0.69055200  0.59070700  0.34681800  1
  Cs  Cs18  1  0.73937200  0.58562800  0.55029200  1
  Cs  Cs19  1  0.81728300  0.25560700  0.83734200  1
  Cs  Cs20  1  0.81728300  0.24439300  0.16265800  1
  Cs  Cs21  1  0.26062800  0.08562800  0.94970800  1
  Cs  Cs22  1  0.18271700  0.75560700  0.66265800  1
  Cs  Cs23  1  0.18271700  0.74439300  0.16265800  1
  Nd  Nd24  1  0.25862400  0.08224000  0.75000000  1
  Nd  Nd25  1  0.74137600  0.58224000  0.75000000  1
  Nd  Nd26  1  0.78790500  0.25000000  0.00000000  1
  Nd  Nd27  1  0.21209500  0.75000000  0.00000000  1
  Nd  Nd28  1  0.74137600  0.91776000  0.25000000  1
  Nd  Nd29  1  0.25862400  0.41776000  0.25000000  1
  Nd  Nd30  1  0.78790500  0.25000000  0.50000000  1
  Nd  Nd31  1  0.21209500  0.75000000  0.50000000  1
  Cl  Cl32  1  0.45746600  0.36345100  0.32650100  1
  Cl  Cl33  1  0.03273900  0.31996600  0.94147800  1
  Cl  Cl34  1  0.43695800  0.84015800  0.55869100  1
  Cl  Cl35  1  0.77686100  0.41560600  0.44308300  1
  Cl  Cl36  1  0.77686100  0.08439400  0.55691700  1
  Cl  Cl37  1  0.22313900  0.58439400  0.94308300  1
  Cl  Cl38  1  0.56304200  0.34015800  0.94130900  1
  Cl  Cl39  1  0.45746600  0.13654900  0.82650100  1
  Cl  Cl40  1  0.43695800  0.65984200  0.05869100  1
  Cl  Cl41  1  0.94846600  0.52566400  0.82331300  1
  Cl  Cl42  1  0.59957900  0.39845900  0.75000000  1
  Cl  Cl43  1  0.03273900  0.31996600  0.55852200  1
  Cl  Cl44  1  0.03273900  0.18003400  0.05852200  1
  Cl  Cl45  1  0.22313900  0.58439400  0.55691700  1
  Cl  Cl46  1  0.03273900  0.18003400  0.44147800  1
  Cl  Cl47  1  0.56304200  0.15984200  0.05869100  1
  Cl  Cl48  1  0.54253400  0.63654900  0.82650100  1
  Cl  Cl49  1  0.54253400  0.86345100  0.32650100  1
  Cl  Cl50  1  0.56304200  0.34015800  0.55869100  1
  Cl  Cl51  1  0.12514300  0.26866300  0.75000000  1
  Cl  Cl52  1  0.96726100  0.68003400  0.05852200  1
  Cl  Cl53  1  0.43695800  0.65984200  0.44130900  1
  Cl  Cl54  1  0.77686100  0.08439400  0.94308300  1
  Cl  Cl55  1  0.59957900  0.10154100  0.25000000  1
  Cl  Cl56  1  0.05153400  0.02566400  0.67668700  1
  Cl  Cl57  1  0.56304200  0.15984200  0.44130900  1
  Cl  Cl58  1  0.96726100  0.68003400  0.44147800  1
  Cl  Cl59  1  0.94846600  0.97433600  0.32331300  1
  Cl  Cl60  1  0.22313900  0.91560600  0.05691700  1
  Cl  Cl61  1  0.05153400  0.47433600  0.17668700  1
  Cl  Cl62  1  0.40042100  0.89845900  0.75000000  1
  Cl  Cl63  1  0.96726100  0.81996600  0.94147800  1
  Cl  Cl64  1  0.45746600  0.36345100  0.17349900  1
  Cl  Cl65  1  0.12514300  0.23133700  0.25000000  1
  Cl  Cl66  1  0.96726100  0.81996600  0.55852200  1
  Cl  Cl67  1  0.05153400  0.47433600  0.32331300  1
  Cl  Cl68  1  0.94846600  0.52566400  0.67668700  1
  Cl  Cl69  1  0.77686100  0.41560600  0.05691700  1
  Cl  Cl70  1  0.87485700  0.73133700  0.25000000  1
  Cl  Cl71  1  0.45746600  0.13654900  0.67349900  1
  Cl  Cl72  1  0.87485700  0.76866300  0.75000000  1
  Cl  Cl73  1  0.22313900  0.91560600  0.44308300  1
  Cl  Cl74  1  0.54253400  0.86345100  0.17349900  1
  Cl  Cl75  1  0.05153400  0.02566400  0.82331300  1
  Cl  Cl76  1  0.43695800  0.84015800  0.94130900  1
  Cl  Cl77  1  0.40042100  0.60154100  0.25000000  1
  Cl  Cl78  1  0.94846600  0.97433600  0.17668700  1
  Cl  Cl79  1  0.54253400  0.63654900  0.67349900  1
