# generated using pymatgen
data_Eu3BWO9
_symmetry_space_group_name_H-M   'P 1'
_cell_length_a   8.82343041
_cell_length_b   8.82343041
_cell_length_c   5.53684300
_cell_angle_alpha   90.00000000
_cell_angle_beta   90.00000000
_cell_angle_gamma   120.00000306
_symmetry_Int_Tables_number   1
_chemical_formula_structural   Eu3BWO9
_chemical_formula_sum   'Eu6 B2 W2 O18'
_cell_volume   373.30839520
_cell_formula_units_Z   2
loop_
 _symmetry_equiv_pos_site_id
 _symmetry_equiv_pos_as_xyz
  1  'x, y, z'
loop_
 _atom_site_type_symbol
 _atom_site_label
 _atom_site_symmetry_multiplicity
 _atom_site_fract_x
 _atom_site_fract_y
 _atom_site_fract_z
 _atom_site_occupancy
  Eu  Eu0  1  0.71934400  0.07569000  0.20814500  1
  Eu  Eu1  1  0.35634600  0.28065600  0.20814500  1
  Eu  Eu2  1  0.07569000  0.35634600  0.70814500  1
  Eu  Eu3  1  0.28065600  0.92431000  0.70814500  1
  Eu  Eu4  1  0.64365400  0.71934400  0.70814500  1
  Eu  Eu5  1  0.92431000  0.64365400  0.20814500  1
  B  B6  1  0.00000000  0.00000000  0.87788300  1
  B  B7  1  0.00000000  0.00000000  0.37788300  1
  W  W8  1  0.66666700  0.33333300  0.74852600  1
  W  W9  1  0.33333300  0.66666700  0.24852600  1
  O  O10  1  0.79497700  0.26173700  0.54071000  1
  O  O11  1  0.13513000  0.61185000  0.46761500  1
  O  O12  1  0.05594800  0.17650500  0.37119400  1
  O  O13  1  0.73826300  0.53324000  0.54071000  1
  O  O14  1  0.94405200  0.82349500  0.87119400  1
  O  O15  1  0.87944300  0.05594800  0.87119400  1
  O  O16  1  0.38815000  0.52328000  0.46761500  1
  O  O17  1  0.53324000  0.79497700  0.04071000  1
  O  O18  1  0.20502300  0.73826300  0.04071000  1
  O  O19  1  0.17650500  0.12055700  0.87119400  1
  O  O20  1  0.46676000  0.20502300  0.54071000  1
  O  O21  1  0.47672000  0.86487000  0.46761500  1
  O  O22  1  0.52328000  0.13513000  0.96761500  1
  O  O23  1  0.86487000  0.38815000  0.96761500  1
  O  O24  1  0.26173700  0.46676000  0.04071000  1
  O  O25  1  0.61185000  0.47672000  0.96761500  1
  O  O26  1  0.12055700  0.94405200  0.37119400  1
  O  O27  1  0.82349500  0.87944300  0.37119400  1
