# generated using pymatgen
data_Pr3OsI3
_symmetry_space_group_name_H-M   'P 1'
_cell_length_a   4.37538700
_cell_length_b   9.43649300
_cell_length_c   12.74279166
_cell_angle_alpha   86.91677795
_cell_angle_beta   90.00000000
_cell_angle_gamma   90.00000000
_symmetry_Int_Tables_number   1
_chemical_formula_structural   Pr3OsI3
_chemical_formula_sum   'Pr6 Os2 I6'
_cell_volume   525.36672690
_cell_formula_units_Z   2
loop_
 _symmetry_equiv_pos_site_id
 _symmetry_equiv_pos_as_xyz
  1  'x, y, z'
loop_
 _atom_site_type_symbol
 _atom_site_label
 _atom_site_symmetry_multiplicity
 _atom_site_fract_x
 _atom_site_fract_y
 _atom_site_fract_z
 _atom_site_occupancy
  Pr  Pr0  1  0.75000000  0.69151000  0.11890900  1
  Pr  Pr1  1  0.25000000  0.88363900  0.33145800  1
  Pr  Pr2  1  0.25000000  0.30849000  0.88109100  1
  Pr  Pr3  1  0.25000000  0.90569400  0.89041900  1
  Pr  Pr4  1  0.75000000  0.11636100  0.66854200  1
  Pr  Pr5  1  0.75000000  0.09430600  0.10958100  1
  Os  Os6  1  0.25000000  0.88952800  0.12020400  1
  Os  Os7  1  0.75000000  0.11047200  0.87979600  1
  I  I8  1  0.25000000  0.39498100  0.13167500  1
  I  I9  1  0.75000000  0.13024900  0.38168400  1
  I  I10  1  0.75000000  0.60501900  0.86832500  1
  I  I11  1  0.25000000  0.36483900  0.62399600  1
  I  I12  1  0.75000000  0.63516100  0.37600400  1
  I  I13  1  0.25000000  0.86975100  0.61831600  1
