# generated using pymatgen
data_PrTa3O9
_symmetry_space_group_name_H-M   'P 1'
_cell_length_a   7.63920800
_cell_length_b   5.47263000
_cell_length_c   8.30222966
_cell_angle_alpha   87.54215898
_cell_angle_beta   90.00000000
_cell_angle_gamma   90.00000000
_symmetry_Int_Tables_number   1
_chemical_formula_structural   PrTa3O9
_chemical_formula_sum   'Pr2 Ta6 O18'
_cell_volume   346.76834881
_cell_formula_units_Z   2
loop_
 _symmetry_equiv_pos_site_id
 _symmetry_equiv_pos_as_xyz
  1  'x, y, z'
loop_
 _atom_site_type_symbol
 _atom_site_label
 _atom_site_symmetry_multiplicity
 _atom_site_fract_x
 _atom_site_fract_y
 _atom_site_fract_z
 _atom_site_occupancy
  Pr  Pr0  1  0.25000000  0.96543900  0.43419300  1
  Pr  Pr1  1  0.75000000  0.03456100  0.56580700  1
  Ta  Ta2  1  0.49331300  0.52642500  0.69858500  1
  Ta  Ta3  1  0.00668700  0.52642500  0.69858500  1
  Ta  Ta4  1  0.99331300  0.47357500  0.30141500  1
  Ta  Ta5  1  0.00000000  0.00000000  0.00000000  1
  Ta  Ta6  1  0.50668700  0.47357500  0.30141500  1
  Ta  Ta7  1  0.50000000  0.00000000  0.00000000  1
  O  O8  1  0.95486100  0.68286900  0.12232400  1
  O  O9  1  0.04513900  0.31713100  0.87767600  1
  O  O10  1  0.05364700  0.15524300  0.21279200  1
  O  O11  1  0.75000000  0.35721000  0.33832400  1
  O  O12  1  0.03666400  0.26630000  0.53291700  1
  O  O13  1  0.44635300  0.15524300  0.21279200  1
  O  O14  1  0.54513900  0.68286900  0.12232400  1
  O  O15  1  0.53666400  0.73370000  0.46708300  1
  O  O16  1  0.75000000  0.07924500  0.01555000  1
  O  O17  1  0.94635300  0.84475700  0.78720800  1
  O  O18  1  0.75000000  0.44411300  0.68767300  1
  O  O19  1  0.55364700  0.84475700  0.78720800  1
  O  O20  1  0.25000000  0.55588700  0.31232700  1
  O  O21  1  0.45486100  0.31713100  0.87767600  1
  O  O22  1  0.96333600  0.73370000  0.46708300  1
  O  O23  1  0.46333600  0.26630000  0.53291700  1
  O  O24  1  0.25000000  0.64279000  0.66167600  1
  O  O25  1  0.25000000  0.92075500  0.98445000  1
