# generated using pymatgen
data_Na2TiFe5(Si3O10)2
_symmetry_space_group_name_H-M   'P 1'
_cell_length_a   9.06161100
_cell_length_b   9.84138503
_cell_length_c   10.55470166
_cell_angle_alpha   115.11618673
_cell_angle_beta   83.24148425
_cell_angle_gamma   114.19552948
_symmetry_Int_Tables_number   1
_chemical_formula_structural   Na2TiFe5(Si3O10)2
_chemical_formula_sum   'Na4 Ti2 Fe10 Si12 O40'
_cell_volume   775.58283499
_cell_formula_units_Z   2
loop_
 _symmetry_equiv_pos_site_id
 _symmetry_equiv_pos_as_xyz
  1  'x, y, z'
loop_
 _atom_site_type_symbol
 _atom_site_label
 _atom_site_symmetry_multiplicity
 _atom_site_fract_x
 _atom_site_fract_y
 _atom_site_fract_z
 _atom_site_occupancy
  Na  Na0  1  0.62921600  0.38581900  0.04954900  1
  Na  Na1  1  0.37078400  0.61418100  0.95045100  1
  Na  Na2  1  0.38632700  0.63138000  0.42216100  1
  Na  Na3  1  0.61367300  0.36862000  0.57783900  1
  Ti  Ti4  1  0.25771000  0.74345200  0.74637400  1
  Ti  Ti5  1  0.74229000  0.25654800  0.25362600  1
  Fe  Fe6  1  0.82099300  0.14741600  0.46876400  1
  Fe  Fe7  1  0.84760000  0.18051400  0.94650500  1
  Fe  Fe8  1  0.94877600  0.06102400  0.15750700  1
  Fe  Fe9  1  0.17900700  0.85258400  0.53123600  1
  Fe  Fe10  1  0.06637400  0.94264100  0.34712600  1
  Fe  Fe11  1  0.50000000  0.00000000  0.00000000  1
  Fe  Fe12  1  0.15240000  0.81948600  0.05349500  1
  Fe  Fe13  1  0.93362600  0.05735900  0.65287400  1
  Fe  Fe14  1  0.05122400  0.93897600  0.84249300  1
  Fe  Fe15  1  0.00000000  0.50000000  0.50000000  1
  Si  Si16  1  0.22416600  0.33623100  0.05827700  1
  Si  Si17  1  0.05059900  0.55889100  0.20688200  1
  Si  Si18  1  0.55431600  0.05533600  0.70447300  1
  Si  Si19  1  0.94940100  0.44110900  0.79311800  1
  Si  Si20  1  0.65449700  0.76431000  0.75035700  1
  Si  Si21  1  0.75882900  0.65896600  0.44955700  1
  Si  Si22  1  0.67070900  0.76731100  0.24477100  1
  Si  Si23  1  0.44568400  0.94466400  0.29552700  1
  Si  Si24  1  0.24117100  0.34103400  0.55044300  1
  Si  Si25  1  0.77583400  0.66376900  0.94172300  1
  Si  Si26  1  0.34550300  0.23569000  0.24964300  1
  Si  Si27  1  0.32929100  0.23268900  0.75522900  1
  O  O28  1  0.87496700  0.39748900  0.14911400  1
  O  O29  1  0.63071300  0.67502400  0.57696900  1
  O  O30  1  0.17955000  0.06824300  0.20702000  1
  O  O31  1  0.70175400  0.04579200  0.60128000  1
  O  O32  1  0.73680600  0.07816300  0.09148700  1
  O  O33  1  0.82045000  0.93175700  0.79298000  1
  O  O34  1  0.26319400  0.92183700  0.90851300  1
  O  O35  1  0.50808400  0.80468800  0.29620600  1
  O  O36  1  0.39549200  0.87688000  0.64028700  1
  O  O37  1  0.11714000  0.60801700  0.36496100  1
  O  O38  1  0.07932200  0.73810700  0.66979800  1
  O  O39  1  0.93655300  0.83309000  0.99077300  1
  O  O40  1  0.06344700  0.16691000  0.00922700  1
  O  O41  1  0.35023100  0.33787300  0.92945700  1
  O  O42  1  0.67926600  0.63657300  0.80442500  1
  O  O43  1  0.18658000  0.49854800  0.09885200  1
  O  O44  1  0.83590500  0.93152500  0.29017000  1
  O  O45  1  0.07445000  0.17332100  0.50773700  1
  O  O46  1  0.12503300  0.60251100  0.85088600  1
  O  O47  1  0.60878700  0.12036000  0.87019500  1
  O  O48  1  0.36928700  0.32497600  0.42303100  1
  O  O49  1  0.60450800  0.12312000  0.35971300  1
  O  O50  1  0.29824600  0.95420800  0.39872000  1
  O  O51  1  0.81342000  0.50145200  0.90114800  1
  O  O52  1  0.51540600  0.22567600  0.18523100  1
  O  O53  1  0.64976900  0.66212700  0.07054300  1
  O  O54  1  0.92067800  0.26189300  0.33020200  1
  O  O55  1  0.22576300  0.51230900  0.58311500  1
  O  O56  1  0.77423700  0.48769100  0.41688500  1
  O  O57  1  0.16409500  0.06847500  0.70983000  1
  O  O58  1  0.92555000  0.82667900  0.49226300  1
  O  O59  1  0.49191600  0.19531200  0.70379400  1
  O  O60  1  0.66335500  0.64041600  0.31249400  1
  O  O61  1  0.88286000  0.39198300  0.63503900  1
  O  O62  1  0.39121300  0.87964000  0.12980500  1
  O  O63  1  0.95821300  0.28775000  0.81133900  1
  O  O64  1  0.04178700  0.71225000  0.18866100  1
  O  O65  1  0.32073400  0.36342700  0.19557500  1
  O  O66  1  0.48459400  0.77432400  0.81476900  1
  O  O67  1  0.33664500  0.35958400  0.68750600  1
