# generated using pymatgen
data_KMn5(SeO3)6
_symmetry_space_group_name_H-M   'P 1'
_cell_length_a   10.43598625
_cell_length_b   10.43598625
_cell_length_c   9.76410826
_cell_angle_alpha   88.78250834
_cell_angle_beta   88.78250834
_cell_angle_gamma   60.00242015
_symmetry_Int_Tables_number   1
_chemical_formula_structural   KMn5(SeO3)6
_chemical_formula_sum   'K2 Mn10 Se12 O36'
_cell_volume   920.68284412
_cell_formula_units_Z   2
loop_
 _symmetry_equiv_pos_site_id
 _symmetry_equiv_pos_as_xyz
  1  'x, y, z'
loop_
 _atom_site_type_symbol
 _atom_site_label
 _atom_site_symmetry_multiplicity
 _atom_site_fract_x
 _atom_site_fract_y
 _atom_site_fract_z
 _atom_site_occupancy
  K  K0  1  0.99963900  0.00036100  0.75000000  1
  K  K1  1  0.00036100  0.99963900  0.25000000  1
  Mn  Mn2  1  0.33081500  0.33192000  0.16670600  1
  Mn  Mn3  1  0.62442900  0.00140500  0.24928000  1
  Mn  Mn4  1  0.37557100  0.99859500  0.75072000  1
  Mn  Mn5  1  0.99859500  0.37557100  0.25072000  1
  Mn  Mn6  1  0.38653100  0.61346900  0.25000000  1
  Mn  Mn7  1  0.00140500  0.62442900  0.74928000  1
  Mn  Mn8  1  0.66808000  0.66918500  0.33329400  1
  Mn  Mn9  1  0.66918500  0.66808000  0.83329400  1
  Mn  Mn10  1  0.33192000  0.33081500  0.66670600  1
  Mn  Mn11  1  0.61346900  0.38653100  0.75000000  1
  Se  Se12  1  0.30535100  0.08064400  0.41689100  1
  Se  Se13  1  0.31182500  0.61371600  0.91577600  1
  Se  Se14  1  0.08064400  0.30535100  0.91689100  1
  Se  Se15  1  0.69464900  0.91935600  0.58310900  1
  Se  Se16  1  0.61264500  0.08886400  0.91099400  1
  Se  Se17  1  0.38628400  0.68817500  0.58422400  1
  Se  Se18  1  0.91113600  0.38735500  0.58900600  1
  Se  Se19  1  0.61371600  0.31182500  0.41577600  1
  Se  Se20  1  0.38735500  0.91113600  0.08900600  1
  Se  Se21  1  0.91935600  0.69464900  0.08310900  1
  Se  Se22  1  0.68817500  0.38628400  0.08422400  1
  Se  Se23  1  0.08886400  0.61264500  0.41099400  1
  O  O24  1  0.45910200  0.14747600  0.81094200  1
  O  O25  1  0.84190900  0.69635100  0.92531000  1
  O  O26  1  0.39281600  0.15098600  0.31118700  1
  O  O27  1  0.45307800  0.40518900  0.31146200  1
  O  O28  1  0.86522700  0.30400200  0.14243300  1
  O  O29  1  0.31182400  0.53171100  0.07242300  1
  O  O30  1  0.69363600  0.19165300  0.84873300  1
  O  O31  1  0.17177800  0.12419100  0.86414100  1
  O  O32  1  0.60718400  0.84901400  0.68881300  1
  O  O33  1  0.30400200  0.86522700  0.64243300  1
  O  O34  1  0.46828900  0.68817600  0.42757700  1
  O  O35  1  0.82822200  0.87580900  0.13585900  1
  O  O36  1  0.40518900  0.45307800  0.81146200  1
  O  O37  1  0.15098600  0.39281600  0.81118700  1
  O  O38  1  0.46449400  0.83845100  0.93031600  1
  O  O39  1  0.83845100  0.46449400  0.43031600  1
  O  O40  1  0.54089800  0.85252400  0.18905800  1
  O  O41  1  0.15809100  0.30364900  0.07469000  1
  O  O42  1  0.85252400  0.54089800  0.68905800  1
  O  O43  1  0.53550600  0.16154900  0.06968400  1
  O  O44  1  0.69599800  0.13477300  0.35756700  1
  O  O45  1  0.30636400  0.80834700  0.15126700  1
  O  O46  1  0.59481100  0.54692200  0.18853800  1
  O  O47  1  0.80834700  0.30636400  0.65126700  1
  O  O48  1  0.19165300  0.69363600  0.34873300  1
  O  O49  1  0.16154900  0.53550600  0.56968400  1
  O  O50  1  0.84901400  0.60718400  0.18881300  1
  O  O51  1  0.30364900  0.15809100  0.57469000  1
  O  O52  1  0.53171100  0.31182400  0.57242300  1
  O  O53  1  0.54692200  0.59481100  0.68853800  1
  O  O54  1  0.12419100  0.17177800  0.36414100  1
  O  O55  1  0.87580900  0.82822200  0.63585900  1
  O  O56  1  0.13477300  0.69599800  0.85756700  1
  O  O57  1  0.14747600  0.45910200  0.31094200  1
  O  O58  1  0.69635100  0.84190900  0.42531000  1
  O  O59  1  0.68817600  0.46828900  0.92757700  1
