# generated using pymatgen
data_TmBi2IO4
_symmetry_space_group_name_H-M   'P 1'
_cell_length_a   3.92136100
_cell_length_b   3.92136100
_cell_length_c   9.67314600
_cell_angle_alpha   90.00000000
_cell_angle_beta   90.00000000
_cell_angle_gamma   90.00000000
_symmetry_Int_Tables_number   1
_chemical_formula_structural   TmBi2IO4
_chemical_formula_sum   'Tm1 Bi2 I1 O4'
_cell_volume   148.74466340
_cell_formula_units_Z   1
loop_
 _symmetry_equiv_pos_site_id
 _symmetry_equiv_pos_as_xyz
  1  'x, y, z'
loop_
 _atom_site_type_symbol
 _atom_site_label
 _atom_site_symmetry_multiplicity
 _atom_site_fract_x
 _atom_site_fract_y
 _atom_site_fract_z
 _atom_site_occupancy
  Tm  Tm0  1  0.00000000  0.00000000  0.00000000  1
  Bi  Bi1  1  0.50000000  0.50000000  0.25569300  1
  Bi  Bi2  1  0.50000000  0.50000000  0.74430700  1
  I  I3  1  0.00000000  0.00000000  0.50000000  1
  O  O4  1  0.00000000  0.50000000  0.13954200  1
  O  O5  1  0.50000000  0.00000000  0.86045800  1
  O  O6  1  0.50000000  0.00000000  0.13954200  1
  O  O7  1  0.00000000  0.50000000  0.86045800  1
