# generated using pymatgen
data_La4C2Br5
_symmetry_space_group_name_H-M   'P 1'
_cell_length_a   10.40072959
_cell_length_b   10.40072959
_cell_length_c   10.40072959
_cell_angle_alpha   157.55003951
_cell_angle_beta   132.56616424
_cell_angle_gamma   53.08320918
_symmetry_Int_Tables_number   1
_chemical_formula_structural   La4C2Br5
_chemical_formula_sum   'La4 C2 Br5'
_cell_volume   315.23038840
_cell_formula_units_Z   1
loop_
 _symmetry_equiv_pos_site_id
 _symmetry_equiv_pos_as_xyz
  1  'x, y, z'
loop_
 _atom_site_type_symbol
 _atom_site_label
 _atom_site_symmetry_multiplicity
 _atom_site_fract_x
 _atom_site_fract_y
 _atom_site_fract_z
 _atom_site_occupancy
  La  La0  1  0.70415400  0.50000000  0.20415400  1
  La  La1  1  0.33803400  0.83803400  0.50000000  1
  La  La2  1  0.29584600  0.50000000  0.79584600  1
  La  La3  1  0.66196600  0.16196600  0.50000000  1
  C  C4  1  0.53805900  0.03805900  0.50000000  1
  C  C5  1  0.46194100  0.96194100  0.50000000  1
  Br  Br6  1  0.93885600  0.66451800  0.27433800  1
  Br  Br7  1  0.39017900  0.66451800  0.72566200  1
  Br  Br8  1  0.60982100  0.33548200  0.27433800  1
  Br  Br9  1  0.06114400  0.33548200  0.72566200  1
  Br  Br10  1  0.00000000  0.00000000  0.00000000  1
