# generated using pymatgen
data_CsYO2
_symmetry_space_group_name_H-M   'P 1'
_cell_length_a   3.56759397
_cell_length_b   3.56759397
_cell_length_c   13.75331500
_cell_angle_alpha   90.00000000
_cell_angle_beta   90.00000000
_cell_angle_gamma   119.99999945
_symmetry_Int_Tables_number   1
_chemical_formula_structural   CsYO2
_chemical_formula_sum   'Cs2 Y2 O4'
_cell_volume   151.59639248
_cell_formula_units_Z   2
loop_
 _symmetry_equiv_pos_site_id
 _symmetry_equiv_pos_as_xyz
  1  'x, y, z'
loop_
 _atom_site_type_symbol
 _atom_site_label
 _atom_site_symmetry_multiplicity
 _atom_site_fract_x
 _atom_site_fract_y
 _atom_site_fract_z
 _atom_site_occupancy
  Cs  Cs0  1  0.33333300  0.66666700  0.25000000  1
  Cs  Cs1  1  0.66666700  0.33333300  0.75000000  1
  Y  Y2  1  0.00000000  0.00000000  0.00000000  1
  Y  Y3  1  0.00000000  0.00000000  0.50000000  1
  O  O4  1  0.33333300  0.66666700  0.91706000  1
  O  O5  1  0.33333300  0.66666700  0.58294000  1
  O  O6  1  0.66666700  0.33333300  0.08294000  1
  O  O7  1  0.66666700  0.33333300  0.41706000  1
