# generated using pymatgen
data_Ag4TeO5
_symmetry_space_group_name_H-M   'P 1'
_cell_length_a   8.81618073
_cell_length_b   8.81618073
_cell_length_c   11.55659458
_cell_angle_alpha   74.71046308
_cell_angle_beta   74.71046308
_cell_angle_gamma   41.97125662
_symmetry_Int_Tables_number   1
_chemical_formula_structural   Ag4TeO5
_chemical_formula_sum   'Ag16 Te4 O20'
_cell_volume   576.24684913
_cell_formula_units_Z   4
loop_
 _symmetry_equiv_pos_site_id
 _symmetry_equiv_pos_as_xyz
  1  'x, y, z'
loop_
 _atom_site_type_symbol
 _atom_site_label
 _atom_site_symmetry_multiplicity
 _atom_site_fract_x
 _atom_site_fract_y
 _atom_site_fract_z
 _atom_site_occupancy
  Ag  Ag0  1  0.17300500  0.70515100  0.51989400  1
  Ag  Ag1  1  0.92542100  0.07457900  0.25000000  1
  Ag  Ag2  1  0.07457900  0.92542100  0.75000000  1
  Ag  Ag3  1  0.71481600  0.46737100  0.75054300  1
  Ag  Ag4  1  0.53262900  0.28518400  0.74945700  1
  Ag  Ag5  1  0.28518400  0.53262900  0.24945700  1
  Ag  Ag6  1  0.09453100  0.30054400  0.26932600  1
  Ag  Ag7  1  0.46737100  0.71481600  0.25054300  1
  Ag  Ag8  1  0.69945600  0.90546900  0.23067400  1
  Ag  Ag9  1  0.50000000  0.00000000  0.00000000  1
  Ag  Ag10  1  0.70515100  0.17300500  0.01989400  1
  Ag  Ag11  1  0.30054400  0.09453100  0.76932600  1
  Ag  Ag12  1  0.29484900  0.82699500  0.98010600  1
  Ag  Ag13  1  0.90546900  0.69945600  0.73067400  1
  Ag  Ag14  1  0.00000000  0.50000000  0.50000000  1
  Ag  Ag15  1  0.82699500  0.29484900  0.48010600  1
  Te  Te16  1  0.42719100  0.87496700  0.50473700  1
  Te  Te17  1  0.57280900  0.12503300  0.49526300  1
  Te  Te18  1  0.12503300  0.57280900  0.99526300  1
  Te  Te19  1  0.87496700  0.42719100  0.00473700  1
  O  O20  1  0.86679200  0.60916900  0.09386900  1
  O  O21  1  0.90554100  0.84804800  0.88992300  1
  O  O22  1  0.49532200  0.62273400  0.60848400  1
  O  O23  1  0.70293500  0.66386000  0.39582200  1
  O  O24  1  0.39083100  0.13320800  0.40613100  1
  O  O25  1  0.60916900  0.86679200  0.59386900  1
  O  O26  1  0.84804800  0.90554100  0.38992300  1
  O  O27  1  0.50467800  0.37726600  0.39151600  1
  O  O28  1  0.13320800  0.39083100  0.90613100  1
  O  O29  1  0.37726600  0.50467800  0.89151600  1
  O  O30  1  0.94091200  0.24095800  0.89878100  1
  O  O31  1  0.05908800  0.75904200  0.10121900  1
  O  O32  1  0.33614000  0.29706500  0.10417800  1
  O  O33  1  0.29706500  0.33614000  0.60417800  1
  O  O34  1  0.62273400  0.49532200  0.10848400  1
  O  O35  1  0.75904200  0.05908800  0.60121900  1
  O  O36  1  0.66386000  0.70293500  0.89582200  1
  O  O37  1  0.24095800  0.94091200  0.39878100  1
  O  O38  1  0.09445900  0.15195200  0.11007700  1
  O  O39  1  0.15195200  0.09445900  0.61007700  1
