# generated using pymatgen
data_Ti3PbO7
_symmetry_space_group_name_H-M   'P 1'
_cell_length_a   3.83645000
_cell_length_b   6.68049400
_cell_length_c   10.83378318
_cell_angle_alpha   82.19975491
_cell_angle_beta   90.00000000
_cell_angle_gamma   90.00000000
_symmetry_Int_Tables_number   1
_chemical_formula_structural   Ti3PbO7
_chemical_formula_sum   'Ti6 Pb2 O14'
_cell_volume   275.09401398
_cell_formula_units_Z   2
loop_
 _symmetry_equiv_pos_site_id
 _symmetry_equiv_pos_as_xyz
  1  'x, y, z'
loop_
 _atom_site_type_symbol
 _atom_site_label
 _atom_site_symmetry_multiplicity
 _atom_site_fract_x
 _atom_site_fract_y
 _atom_site_fract_z
 _atom_site_occupancy
  Ti  Ti0  1  0.25000000  0.44885800  0.89868000  1
  Ti  Ti1  1  0.75000000  0.55114200  0.10132000  1
  Ti  Ti2  1  0.25000000  0.30590400  0.56416900  1
  Ti  Ti3  1  0.75000000  0.69409600  0.43583100  1
  Ti  Ti4  1  0.25000000  0.74523400  0.65615600  1
  Ti  Ti5  1  0.75000000  0.25476600  0.34384400  1
  Pb  Pb6  1  0.25000000  0.99497300  0.15135600  1
  Pb  Pb7  1  0.75000000  0.00502700  0.84864400  1
  O  O8  1  0.25000000  0.52359400  0.07407700  1
  O  O9  1  0.75000000  0.47640600  0.92592300  1
  O  O10  1  0.25000000  0.25696800  0.38134100  1
  O  O11  1  0.75000000  0.74303200  0.61865900  1
  O  O12  1  0.25000000  0.64557000  0.47842100  1
  O  O13  1  0.75000000  0.35443000  0.52157900  1
  O  O14  1  0.25000000  0.17062000  0.94316200  1
  O  O15  1  0.75000000  0.82938000  0.05683800  1
  O  O16  1  0.25000000  0.04556900  0.62786400  1
  O  O17  1  0.75000000  0.95443100  0.37213600  1
  O  O18  1  0.25000000  0.43567900  0.71447800  1
  O  O19  1  0.75000000  0.56432100  0.28552200  1
  O  O20  1  0.25000000  0.75283000  0.82410900  1
  O  O21  1  0.75000000  0.24717000  0.17589100  1
