# generated using pymatgen
data_Rb2MgP2WO10
_symmetry_space_group_name_H-M   'P 1'
_cell_length_a   10.00743000
_cell_length_b   12.85786500
_cell_length_c   15.68649100
_cell_angle_alpha   90.00000000
_cell_angle_beta   90.00000000
_cell_angle_gamma   90.00000000
_symmetry_Int_Tables_number   1
_chemical_formula_structural   Rb2MgP2WO10
_chemical_formula_sum   'Rb16 Mg8 P16 W8 O80'
_cell_volume   2018.44642826
_cell_formula_units_Z   8
loop_
 _symmetry_equiv_pos_site_id
 _symmetry_equiv_pos_as_xyz
  1  'x, y, z'
loop_
 _atom_site_type_symbol
 _atom_site_label
 _atom_site_symmetry_multiplicity
 _atom_site_fract_x
 _atom_site_fract_y
 _atom_site_fract_z
 _atom_site_occupancy
  Rb  Rb0  1  0.60571200  0.86723100  0.10769300  1
  Rb  Rb1  1  0.10764400  0.17334700  0.34571500  1
  Rb  Rb2  1  0.39235600  0.82665300  0.84571500  1
  Rb  Rb3  1  0.89235600  0.67334700  0.15428500  1
  Rb  Rb4  1  0.60764400  0.17334700  0.15428500  1
  Rb  Rb5  1  0.39428800  0.36723100  0.39230700  1
  Rb  Rb6  1  0.89428800  0.36723100  0.10769300  1
  Rb  Rb7  1  0.60571200  0.63276900  0.60769300  1
  Rb  Rb8  1  0.10764400  0.32665300  0.84571500  1
  Rb  Rb9  1  0.10571200  0.86723100  0.39230700  1
  Rb  Rb10  1  0.39235600  0.67334700  0.34571500  1
  Rb  Rb11  1  0.89428800  0.13276900  0.60769300  1
  Rb  Rb12  1  0.39428800  0.13276900  0.89230700  1
  Rb  Rb13  1  0.60764400  0.32665300  0.65428500  1
  Rb  Rb14  1  0.10571200  0.63276900  0.89230700  1
  Rb  Rb15  1  0.89235600  0.82665300  0.65428500  1
  Mg  Mg16  1  0.00029500  0.87435700  0.00239300  1
  Mg  Mg17  1  0.99970500  0.12564300  0.99760700  1
  Mg  Mg18  1  0.00029500  0.62564300  0.50239300  1
  Mg  Mg19  1  0.99970500  0.37435700  0.49760700  1
  Mg  Mg20  1  0.50029500  0.87435700  0.49760700  1
  Mg  Mg21  1  0.49970500  0.37435700  0.00239300  1
  Mg  Mg22  1  0.50029500  0.62564300  0.99760700  1
  Mg  Mg23  1  0.49970500  0.12564300  0.50239300  1
  P  P24  1  0.07655600  0.99511300  0.83457400  1
  P  P25  1  0.42344400  0.00488700  0.33457400  1
  P  P26  1  0.07655600  0.50488700  0.33457400  1
  P  P27  1  0.25788700  0.74417500  0.59238700  1
  P  P28  1  0.57655600  0.99511300  0.66542600  1
  P  P29  1  0.24211300  0.25582500  0.09238700  1
  P  P30  1  0.75788700  0.74417500  0.90761300  1
  P  P31  1  0.74211300  0.25582500  0.40761300  1
  P  P32  1  0.92344400  0.49511300  0.66542600  1
  P  P33  1  0.42344400  0.49511300  0.83457400  1
  P  P34  1  0.25788700  0.75582500  0.09238700  1
  P  P35  1  0.75788700  0.75582500  0.40761300  1
  P  P36  1  0.24211300  0.24417500  0.59238700  1
  P  P37  1  0.74211300  0.24417500  0.90761300  1
  P  P38  1  0.57655600  0.50488700  0.16542600  1
  P  P39  1  0.92344400  0.00488700  0.16542600  1
  W  W40  1  0.74943600  0.49256900  0.85737800  1
  W  W41  1  0.75056400  0.99256900  0.85737800  1
  W  W42  1  0.25056400  0.99256900  0.64262200  1
  W  W43  1  0.74943600  0.00743100  0.35737800  1
  W  W44  1  0.24943600  0.49256900  0.64262200  1
  W  W45  1  0.75056400  0.50743100  0.35737800  1
  W  W46  1  0.24943600  0.00743100  0.14262200  1
  W  W47  1  0.25056400  0.50743100  0.14262200  1
  O  O48  1  0.72893700  0.35285800  0.34625200  1
  O  O49  1  0.35996800  0.50057400  0.04915600  1
  O  O50  1  0.59199800  0.60543900  0.11320200  1
  O  O51  1  0.59125300  0.97737000  0.90662400  1
  O  O52  1  0.43869000  0.50142000  0.21352900  1
  O  O53  1  0.09199800  0.60543900  0.38679800  1
  O  O54  1  0.56131000  0.00142000  0.28647100  1
  O  O55  1  0.14003200  0.00057400  0.04915600  1
  O  O56  1  0.09125300  0.52263000  0.09337600  1
  O  O57  1  0.37733100  0.25923200  0.04833100  1
  O  O58  1  0.64003200  0.49942600  0.95084400  1
  O  O59  1  0.93869000  0.50142000  0.28647100  1
  O  O60  1  0.62376100  0.24851600  0.46844100  1
  O  O61  1  0.12266900  0.74076800  0.54833100  1
  O  O62  1  0.37623900  0.74851600  0.03155900  1
  O  O63  1  0.09880900  0.09609900  0.88532300  1
  O  O64  1  0.30990800  0.49142000  0.76497600  1
  O  O65  1  0.26660400  0.66278000  0.15817000  1
  O  O66  1  0.62376100  0.25148400  0.96844100  1
  O  O67  1  0.76660400  0.66278000  0.34183000  1
  O  O68  1  0.37733100  0.24076800  0.54833100  1
  O  O69  1  0.80990800  0.00858000  0.23502400  1
  O  O70  1  0.37623900  0.75148400  0.53155900  1
  O  O71  1  0.40119100  0.59609900  0.88532300  1
  O  O72  1  0.27106300  0.64714200  0.65374800  1
  O  O73  1  0.40119100  0.90390100  0.38532300  1
  O  O74  1  0.23339600  0.16278000  0.15817000  1
  O  O75  1  0.77106300  0.85285800  0.34625200  1
  O  O76  1  0.43869000  0.99858000  0.71352900  1
  O  O77  1  0.12376100  0.25148400  0.53155900  1
  O  O78  1  0.27106300  0.85285800  0.15374800  1
  O  O79  1  0.87623900  0.74851600  0.46844100  1
  O  O80  1  0.85996800  0.99942600  0.95084400  1
  O  O81  1  0.73339600  0.16278000  0.34183000  1
  O  O82  1  0.59199800  0.89456100  0.61320200  1
  O  O83  1  0.90874700  0.47737000  0.90662400  1
  O  O84  1  0.40800200  0.39456100  0.88679800  1
  O  O85  1  0.90119100  0.59609900  0.61467700  1
  O  O86  1  0.87733100  0.25923200  0.45166900  1
  O  O87  1  0.30990800  0.00858000  0.26497600  1
  O  O88  1  0.77106300  0.64714200  0.84625200  1
  O  O89  1  0.22893700  0.35285800  0.15374800  1
  O  O90  1  0.80990800  0.49142000  0.73502400  1
  O  O91  1  0.85996800  0.50057400  0.45084400  1
  O  O92  1  0.87733100  0.24076800  0.95166900  1
  O  O93  1  0.19009200  0.50858000  0.26497600  1
  O  O94  1  0.93869000  0.99858000  0.78647100  1
  O  O95  1  0.09199800  0.89456100  0.88679800  1
  O  O96  1  0.23339600  0.33722000  0.65817000  1
  O  O97  1  0.72893700  0.14714200  0.84625200  1
  O  O98  1  0.26660400  0.83722000  0.65817000  1
  O  O99  1  0.64003200  0.00057400  0.45084400  1
  O  O100  1  0.90800200  0.39456100  0.61320200  1
  O  O101  1  0.62266900  0.74076800  0.95166900  1
  O  O102  1  0.73339600  0.33722000  0.84183000  1
  O  O103  1  0.22893700  0.14714200  0.65374800  1
  O  O104  1  0.40874700  0.47737000  0.59337600  1
  O  O105  1  0.62266900  0.75923200  0.45166900  1
  O  O106  1  0.90800200  0.10543900  0.11320200  1
  O  O107  1  0.12376100  0.24851600  0.03155900  1
  O  O108  1  0.90874700  0.02263000  0.40662400  1
  O  O109  1  0.35996800  0.99942600  0.54915600  1
  O  O110  1  0.06131000  0.00142000  0.21352900  1
  O  O111  1  0.40874700  0.02263000  0.09337600  1
  O  O112  1  0.76660400  0.83722000  0.84183000  1
  O  O113  1  0.56131000  0.49858000  0.78647100  1
  O  O114  1  0.40800200  0.10543900  0.38679800  1
  O  O115  1  0.69009200  0.50858000  0.23502400  1
  O  O116  1  0.12266900  0.75923200  0.04833100  1
  O  O117  1  0.06131000  0.49858000  0.71352900  1
  O  O118  1  0.87623900  0.75148400  0.96844100  1
  O  O119  1  0.59880900  0.40390100  0.11467700  1
  O  O120  1  0.14003200  0.49942600  0.54915600  1
  O  O121  1  0.09125300  0.97737000  0.59337600  1
  O  O122  1  0.09880900  0.40390100  0.38532300  1
  O  O123  1  0.69009200  0.99142000  0.73502400  1
  O  O124  1  0.59880900  0.09609900  0.61467700  1
  O  O125  1  0.59125300  0.52263000  0.40662400  1
  O  O126  1  0.90119100  0.90390100  0.11467700  1
  O  O127  1  0.19009200  0.99142000  0.76497600  1
