# generated using pymatgen
data_Gd2MoO6
_symmetry_space_group_name_H-M   'P 1'
_cell_length_a   10.07504334
_cell_length_b   10.07504334
_cell_length_c   5.47713943
_cell_angle_alpha   75.07873598
_cell_angle_beta   75.07873598
_cell_angle_gamma   68.23311713
_symmetry_Int_Tables_number   1
_chemical_formula_structural   Gd2MoO6
_chemical_formula_sum   'Gd8 Mo4 O24'
_cell_volume   490.71742178
_cell_formula_units_Z   4
loop_
 _symmetry_equiv_pos_site_id
 _symmetry_equiv_pos_as_xyz
  1  'x, y, z'
loop_
 _atom_site_type_symbol
 _atom_site_label
 _atom_site_symmetry_multiplicity
 _atom_site_fract_x
 _atom_site_fract_y
 _atom_site_fract_z
 _atom_site_occupancy
  Gd  Gd0  1  0.78505800  0.55305300  0.61958700  1
  Gd  Gd1  1  0.21494200  0.44694700  0.38041300  1
  Gd  Gd2  1  0.60852800  0.39147200  0.25000000  1
  Gd  Gd3  1  0.39147200  0.60852800  0.75000000  1
  Gd  Gd4  1  0.55305300  0.78505800  0.11958700  1
  Gd  Gd5  1  0.13535600  0.86464400  0.25000000  1
  Gd  Gd6  1  0.44694700  0.21494200  0.88041300  1
  Gd  Gd7  1  0.86464400  0.13535600  0.75000000  1
  Mo  Mo8  1  0.29640800  0.01117100  0.55972600  1
  Mo  Mo9  1  0.70359200  0.98882900  0.44027400  1
  Mo  Mo10  1  0.98882900  0.70359200  0.94027400  1
  Mo  Mo11  1  0.01117100  0.29640800  0.05972600  1
  O  O12  1  0.39118800  0.42527000  0.57847500  1
  O  O13  1  0.56904200  0.97516800  0.74063100  1
  O  O14  1  0.81948900  0.71196500  0.86265400  1
  O  O15  1  0.67309200  0.11581400  0.13467600  1
  O  O16  1  0.11581400  0.67309200  0.63467600  1
  O  O17  1  0.32690800  0.88418600  0.86532400  1
  O  O18  1  0.28803500  0.18051100  0.63734600  1
  O  O19  1  0.97516800  0.56904200  0.24063100  1
  O  O20  1  0.57473000  0.60881200  0.92152500  1
  O  O21  1  0.43095800  0.02483200  0.25936900  1
  O  O22  1  0.11276000  0.04730600  0.51568100  1
  O  O23  1  0.19083900  0.66302300  0.08531500  1
  O  O24  1  0.80916100  0.33697700  0.91468500  1
  O  O25  1  0.33697700  0.80916100  0.41468500  1
  O  O26  1  0.88418600  0.32690800  0.36532400  1
  O  O27  1  0.95269400  0.88724000  0.98431900  1
  O  O28  1  0.88724000  0.95269400  0.48431900  1
  O  O29  1  0.66302300  0.19083900  0.58531500  1
  O  O30  1  0.71196500  0.81948900  0.36265400  1
  O  O31  1  0.04730600  0.11276000  0.01568100  1
  O  O32  1  0.18051100  0.28803500  0.13734600  1
  O  O33  1  0.60881200  0.57473000  0.42152500  1
  O  O34  1  0.42527000  0.39118800  0.07847500  1
  O  O35  1  0.02483200  0.43095800  0.75936900  1
