# generated using pymatgen
data_K2Ce(Si2O5)3
_symmetry_space_group_name_H-M   'P 1'
_cell_length_a   9.96865229
_cell_length_b   9.96865229
_cell_length_c   12.01320511
_cell_angle_alpha   52.99235242
_cell_angle_beta   52.99235242
_cell_angle_gamma   52.62659996
_symmetry_Int_Tables_number   1
_chemical_formula_structural   K2Ce(Si2O5)3
_chemical_formula_sum   'K4 Ce2 Si12 O30'
_cell_volume   702.99775652
_cell_formula_units_Z   2
loop_
 _symmetry_equiv_pos_site_id
 _symmetry_equiv_pos_as_xyz
  1  'x, y, z'
loop_
 _atom_site_type_symbol
 _atom_site_label
 _atom_site_symmetry_multiplicity
 _atom_site_fract_x
 _atom_site_fract_y
 _atom_site_fract_z
 _atom_site_occupancy
  K  K0  1  0.90280800  0.25395500  0.49873300  1
  K  K1  1  0.74604500  0.09719200  0.00126700  1
  K  K2  1  0.09719200  0.74604500  0.50126700  1
  K  K3  1  0.25395500  0.90280800  0.99873300  1
  Ce  Ce4  1  0.16716900  0.83283100  0.75000000  1
  Ce  Ce5  1  0.83283100  0.16716900  0.25000000  1
  Si  Si6  1  0.25349900  0.19661200  0.12288600  1
  Si  Si7  1  0.80338800  0.74650100  0.37711400  1
  Si  Si8  1  0.56353000  0.62753800  0.22579800  1
  Si  Si9  1  0.43647000  0.37246200  0.77420200  1
  Si  Si10  1  0.42662300  0.90128600  0.35554400  1
  Si  Si11  1  0.19661200  0.25349900  0.62288600  1
  Si  Si12  1  0.62753800  0.56353000  0.72579800  1
  Si  Si13  1  0.57337700  0.09871400  0.64445600  1
  Si  Si14  1  0.37246200  0.43647000  0.27420200  1
  Si  Si15  1  0.90128600  0.42662300  0.85554400  1
  Si  Si16  1  0.74650100  0.80338800  0.87711400  1
  Si  Si17  1  0.09871400  0.57337700  0.14445600  1
  O  O18  1  0.62746300  0.77485700  0.05544600  1
  O  O19  1  0.27801200  0.53132900  0.15654000  1
  O  O20  1  0.72198800  0.46867100  0.84346000  1
  O  O21  1  0.60697600  0.39302400  0.75000000  1
  O  O22  1  0.46867100  0.72198800  0.34346000  1
  O  O23  1  0.59343300  0.92175900  0.80141100  1
  O  O24  1  0.39302400  0.60697600  0.25000000  1
  O  O25  1  0.60552400  0.86665400  0.36061500  1
  O  O26  1  0.27251800  0.56700400  0.74338200  1
  O  O27  1  0.39447600  0.13334600  0.63938500  1
  O  O28  1  0.43299600  0.72748200  0.75661800  1
  O  O29  1  0.40656700  0.07824100  0.19858900  1
  O  O30  1  0.07824100  0.40656700  0.69858900  1
  O  O31  1  0.87652800  0.90815300  0.79503200  1
  O  O32  1  0.22514300  0.37253700  0.44455400  1
  O  O33  1  0.77485700  0.62746300  0.55544600  1
  O  O34  1  0.53132900  0.27801200  0.65654000  1
  O  O35  1  0.86665400  0.60552400  0.86061500  1
  O  O36  1  0.24242100  0.93797500  0.49852500  1
  O  O37  1  0.56700400  0.27251800  0.24338200  1
  O  O38  1  0.12347200  0.09184700  0.20496800  1
  O  O39  1  0.06202500  0.75757900  0.00147500  1
  O  O40  1  0.09184700  0.12347200  0.70496800  1
  O  O41  1  0.90815300  0.87652800  0.29503200  1
  O  O42  1  0.93797500  0.24242100  0.99852500  1
  O  O43  1  0.92175900  0.59343300  0.30141100  1
  O  O44  1  0.72748200  0.43299600  0.25661800  1
  O  O45  1  0.75757900  0.06202500  0.50147500  1
  O  O46  1  0.13334600  0.39447600  0.13938500  1
  O  O47  1  0.37253700  0.22514300  0.94455400  1
