# generated using pymatgen
data_Nd2Mo(SeO5)2
_symmetry_space_group_name_H-M   'P 1'
_cell_length_a   5.45685200
_cell_length_b   6.97035585
_cell_length_c   12.76402082
_cell_angle_alpha   85.58831695
_cell_angle_beta   83.70154465
_cell_angle_gamma   69.94050697
_symmetry_Int_Tables_number   1
_chemical_formula_structural   Nd2Mo(SeO5)2
_chemical_formula_sum   'Nd4 Mo2 Se4 O20'
_cell_volume   452.88895566
_cell_formula_units_Z   2
loop_
 _symmetry_equiv_pos_site_id
 _symmetry_equiv_pos_as_xyz
  1  'x, y, z'
loop_
 _atom_site_type_symbol
 _atom_site_label
 _atom_site_symmetry_multiplicity
 _atom_site_fract_x
 _atom_site_fract_y
 _atom_site_fract_z
 _atom_site_occupancy
  Nd  Nd0  1  0.91449100  0.11321400  0.64776200  1
  Nd  Nd1  1  0.83210700  0.30343200  0.95246000  1
  Nd  Nd2  1  0.16789300  0.69656800  0.04754000  1
  Nd  Nd3  1  0.08550900  0.88678600  0.35223800  1
  Mo  Mo4  1  0.63647900  0.72231900  0.55884700  1
  Mo  Mo5  1  0.36352100  0.27768100  0.44115300  1
  Se  Se6  1  0.39449800  0.10290400  0.13121000  1
  Se  Se7  1  0.73826800  0.57690300  0.22306900  1
  Se  Se8  1  0.26173200  0.42309700  0.77693100  1
  Se  Se9  1  0.60550200  0.89709600  0.86879000  1
  O  O10  1  0.81926800  0.83530400  0.75812200  1
  O  O11  1  0.41280800  0.71797700  0.20259500  1
  O  O12  1  0.14255800  0.49189800  0.90491100  1
  O  O13  1  0.85309000  0.87529500  0.52996500  1
  O  O14  1  0.17336500  0.52611900  0.39401200  1
  O  O15  1  0.47914200  0.28657200  0.56612300  1
  O  O16  1  0.64487100  0.15834300  0.35309500  1
  O  O17  1  0.56115000  0.66730200  0.91907200  1
  O  O18  1  0.43885000  0.33269800  0.08092800  1
  O  O19  1  0.18323900  0.05830100  0.04490600  1
  O  O20  1  0.58719200  0.28202300  0.79740500  1
  O  O21  1  0.18073200  0.16469600  0.24187800  1
  O  O22  1  0.11894800  0.23271500  0.78026300  1
  O  O23  1  0.85744200  0.50810200  0.09508900  1
  O  O24  1  0.88105200  0.76728500  0.21973700  1
  O  O25  1  0.81676100  0.94169900  0.95509400  1
  O  O26  1  0.82663500  0.47388100  0.60598800  1
  O  O27  1  0.52085800  0.71342800  0.43387700  1
  O  O28  1  0.14691000  0.12470500  0.47003500  1
  O  O29  1  0.35512900  0.84165700  0.64690500  1
