# generated using pymatgen
data_Si4Rh3
_symmetry_space_group_name_H-M   'P 1'
_cell_length_a   3.65173600
_cell_length_b   5.86451200
_cell_length_c   18.95551000
_cell_angle_alpha   90.00000000
_cell_angle_beta   90.00000000
_cell_angle_gamma   90.00000000
_symmetry_Int_Tables_number   1
_chemical_formula_structural   Si4Rh3
_chemical_formula_sum   'Si16 Rh12'
_cell_volume   405.94456001
_cell_formula_units_Z   4
loop_
 _symmetry_equiv_pos_site_id
 _symmetry_equiv_pos_as_xyz
  1  'x, y, z'
loop_
 _atom_site_type_symbol
 _atom_site_label
 _atom_site_symmetry_multiplicity
 _atom_site_fract_x
 _atom_site_fract_y
 _atom_site_fract_z
 _atom_site_occupancy
  Si  Si0  1  0.25000000  0.38730300  0.14325500  1
  Si  Si1  1  0.75000000  0.61269700  0.85674500  1
  Si  Si2  1  0.75000000  0.88730300  0.35674500  1
  Si  Si3  1  0.25000000  0.11269700  0.64325500  1
  Si  Si4  1  0.75000000  0.22019800  0.23184900  1
  Si  Si5  1  0.25000000  0.77980200  0.76815100  1
  Si  Si6  1  0.25000000  0.72019800  0.26815100  1
  Si  Si7  1  0.75000000  0.27980200  0.73184900  1
  Si  Si8  1  0.25000000  0.43090200  0.40966100  1
  Si  Si9  1  0.75000000  0.56909800  0.59033900  1
  Si  Si10  1  0.75000000  0.93090200  0.09033900  1
  Si  Si11  1  0.25000000  0.06909800  0.90966100  1
  Si  Si12  1  0.75000000  0.47926500  0.04935400  1
  Si  Si13  1  0.25000000  0.52073500  0.95064600  1
  Si  Si14  1  0.25000000  0.97926500  0.45064600  1
  Si  Si15  1  0.75000000  0.02073500  0.54935400  1
  Rh  Rh16  1  0.25000000  0.18791100  0.03194700  1
  Rh  Rh17  1  0.75000000  0.81208900  0.96805300  1
  Rh  Rh18  1  0.75000000  0.68791100  0.46805300  1
  Rh  Rh19  1  0.25000000  0.31208900  0.53194700  1
  Rh  Rh20  1  0.25000000  0.00323200  0.17616400  1
  Rh  Rh21  1  0.75000000  0.99676800  0.82383600  1
  Rh  Rh22  1  0.75000000  0.50323200  0.32383600  1
  Rh  Rh23  1  0.25000000  0.49676800  0.67616400  1
  Rh  Rh24  1  0.25000000  0.11410800  0.32543100  1
  Rh  Rh25  1  0.75000000  0.88589200  0.67456900  1
  Rh  Rh26  1  0.75000000  0.61410800  0.17456900  1
  Rh  Rh27  1  0.25000000  0.38589200  0.82543100  1
