# generated using pymatgen
data_Ag2Se
_symmetry_space_group_name_H-M   'P 1'
_cell_length_a   4.49748100
_cell_length_b   7.11325500
_cell_length_c   7.67068200
_cell_angle_alpha   90.00000000
_cell_angle_beta   90.00000000
_cell_angle_gamma   90.00000000
_symmetry_Int_Tables_number   1
_chemical_formula_structural   Ag2Se
_chemical_formula_sum   'Ag8 Se4'
_cell_volume   245.39838141
_cell_formula_units_Z   4
loop_
 _symmetry_equiv_pos_site_id
 _symmetry_equiv_pos_as_xyz
  1  'x, y, z'
loop_
 _atom_site_type_symbol
 _atom_site_label
 _atom_site_symmetry_multiplicity
 _atom_site_fract_x
 _atom_site_fract_y
 _atom_site_fract_z
 _atom_site_occupancy
  Ag  Ag0  1  0.02200600  0.22646400  0.86460100  1
  Ag  Ag1  1  0.65454200  0.88494800  0.95244100  1
  Ag  Ag2  1  0.47799400  0.77353600  0.36460100  1
  Ag  Ag3  1  0.15454200  0.61505200  0.04755900  1
  Ag  Ag4  1  0.84545800  0.11505200  0.45244100  1
  Ag  Ag5  1  0.97799400  0.72646400  0.63539900  1
  Ag  Ag6  1  0.34545800  0.38494800  0.54755900  1
  Ag  Ag7  1  0.52200600  0.27353600  0.13539900  1
  Se  Se8  1  0.87879900  0.49677300  0.34555500  1
  Se  Se9  1  0.12120100  0.99677300  0.15444500  1
  Se  Se10  1  0.37879900  0.00322700  0.65444500  1
  Se  Se11  1  0.62120100  0.50322700  0.84555500  1
