# generated using pymatgen
data_La3C2I3
_symmetry_space_group_name_H-M   'P 1'
_cell_length_a   10.82548566
_cell_length_b   10.82548566
_cell_length_c   17.88202700
_cell_angle_alpha   90.00000000
_cell_angle_beta   90.00000000
_cell_angle_gamma   111.69778442
_symmetry_Int_Tables_number   1
_chemical_formula_structural   La3C2I3
_chemical_formula_sum   'La24 C16 I24'
_cell_volume   1947.13423177
_cell_formula_units_Z   8
loop_
 _symmetry_equiv_pos_site_id
 _symmetry_equiv_pos_as_xyz
  1  'x, y, z'
loop_
 _atom_site_type_symbol
 _atom_site_label
 _atom_site_symmetry_multiplicity
 _atom_site_fract_x
 _atom_site_fract_y
 _atom_site_fract_z
 _atom_site_occupancy
  La  La0  1  0.15679700  0.89425200  0.00036900  1
  La  La1  1  0.74087400  0.76926500  0.40058000  1
  La  La2  1  0.61567600  0.32341900  0.97929700  1
  La  La3  1  0.63112200  0.36887800  0.75000000  1
  La  La4  1  0.55213400  0.00995800  0.60330900  1
  La  La5  1  0.38432400  0.67658100  0.47929700  1
  La  La6  1  0.76926500  0.74087400  0.59942000  1
  La  La7  1  0.47065000  0.97383100  0.38123100  1
  La  La8  1  0.97383100  0.47065000  0.61876900  1
  La  La9  1  0.52935000  0.02616900  0.88123100  1
  La  La10  1  0.44786600  0.99004200  0.10330900  1
  La  La11  1  0.10574800  0.84320300  0.49963100  1
  La  La12  1  0.32341900  0.61567600  0.02070300  1
  La  La13  1  0.00995800  0.55213400  0.39669100  1
  La  La14  1  0.83124800  0.16875200  0.75000000  1
  La  La15  1  0.23073500  0.25912600  0.09942000  1
  La  La16  1  0.25912600  0.23073500  0.90058000  1
  La  La17  1  0.99004200  0.44786600  0.89669100  1
  La  La18  1  0.67658100  0.38432400  0.52070300  1
  La  La19  1  0.16875200  0.83124800  0.25000000  1
  La  La20  1  0.84320300  0.10574800  0.50036900  1
  La  La21  1  0.02616900  0.52935000  0.11876900  1
  La  La22  1  0.36887800  0.63112200  0.25000000  1
  La  La23  1  0.89425200  0.15679700  0.99963100  1
  C  C24  1  0.28042100  0.72490200  0.34988800  1
  C  C25  1  0.90262500  0.59090000  0.52868300  1
  C  C26  1  0.65668700  0.85304900  0.52353000  1
  C  C27  1  0.59090000  0.90262500  0.47131700  1
  C  C28  1  0.71957900  0.27509800  0.84988800  1
  C  C29  1  0.78132000  0.22506000  0.90414300  1
  C  C30  1  0.21868000  0.77494000  0.40414300  1
  C  C31  1  0.27509800  0.71957900  0.15011200  1
  C  C32  1  0.72490200  0.28042100  0.65011200  1
  C  C33  1  0.34331300  0.14695100  0.02353000  1
  C  C34  1  0.85304900  0.65668700  0.47647000  1
  C  C35  1  0.14695100  0.34331300  0.97647000  1
  C  C36  1  0.22506000  0.78132000  0.09585700  1
  C  C37  1  0.09737500  0.40910000  0.02868300  1
  C  C38  1  0.40910000  0.09737500  0.97131700  1
  C  C39  1  0.77494000  0.21868000  0.59585700  1
  I  I40  1  0.36296800  0.09886700  0.74315100  1
  I  I41  1  0.86320700  0.62986100  0.99392100  1
  I  I42  1  0.90113300  0.63703200  0.75684900  1
  I  I43  1  0.50122500  0.51767100  0.88088800  1
  I  I44  1  0.14174700  0.37048000  0.75434900  1
  I  I45  1  0.37013900  0.13679300  0.50607900  1
  I  I46  1  0.48232900  0.49877500  0.61911200  1
  I  I47  1  0.98674100  0.97953800  0.13264500  1
  I  I48  1  0.49877500  0.48232900  0.38088800  1
  I  I49  1  0.13679300  0.37013900  0.49392100  1
  I  I50  1  0.74601900  0.25973300  0.36725400  1
  I  I51  1  0.97953800  0.98674100  0.86735500  1
  I  I52  1  0.02046200  0.01325900  0.36735500  1
  I  I53  1  0.25973300  0.74601900  0.63274600  1
  I  I54  1  0.74026700  0.25398100  0.13274600  1
  I  I55  1  0.25398100  0.74026700  0.86725400  1
  I  I56  1  0.62986100  0.86320700  0.00607900  1
  I  I57  1  0.09886700  0.36296800  0.25684900  1
  I  I58  1  0.01325900  0.02046200  0.63264500  1
  I  I59  1  0.37048000  0.14174700  0.24565100  1
  I  I60  1  0.63703200  0.90113300  0.24315100  1
  I  I61  1  0.62952000  0.85825300  0.74565100  1
  I  I62  1  0.51767100  0.50122500  0.11911200  1
  I  I63  1  0.85825300  0.62952000  0.25434900  1
