# generated using pymatgen
data_Ce4Co2Sn5
_symmetry_space_group_name_H-M   'P 1'
_cell_length_a   7.37309341
_cell_length_b   7.37309341
_cell_length_c   10.99466943
_cell_angle_alpha   53.94571322
_cell_angle_beta   53.94571322
_cell_angle_gamma   34.93270421
_symmetry_Int_Tables_number   1
_chemical_formula_structural   Ce4Co2Sn5
_chemical_formula_sum   'Ce4 Co2 Sn5'
_cell_volume   269.33839208
_cell_formula_units_Z   1
loop_
 _symmetry_equiv_pos_site_id
 _symmetry_equiv_pos_as_xyz
  1  'x, y, z'
loop_
 _atom_site_type_symbol
 _atom_site_label
 _atom_site_symmetry_multiplicity
 _atom_site_fract_x
 _atom_site_fract_y
 _atom_site_fract_z
 _atom_site_occupancy
  Ce  Ce0  1  0.06824500  0.06824500  0.77794700  1
  Ce  Ce1  1  0.93175500  0.93175500  0.22205300  1
  Ce  Ce2  1  0.33351800  0.33351800  0.78075900  1
  Ce  Ce3  1  0.66648200  0.66648200  0.21924100  1
  Co  Co4  1  0.76521900  0.76521900  0.65138100  1
  Co  Co5  1  0.23478100  0.23478100  0.34861900  1
  Sn  Sn6  1  0.37467400  0.37467400  0.04661400  1
  Sn  Sn7  1  0.62532600  0.62532600  0.95338600  1
  Sn  Sn8  1  0.00000000  0.00000000  0.50000000  1
  Sn  Sn9  1  0.35006200  0.35006200  0.47450300  1
  Sn  Sn10  1  0.64993800  0.64993800  0.52549700  1
