# generated using pymatgen
data_Ag2Hg2(TeO4)3
_symmetry_space_group_name_H-M   'P 1'
_cell_length_a   6.30647400
_cell_length_b   6.58043100
_cell_length_c   14.52721645
_cell_angle_alpha   67.15655439
_cell_angle_beta   90.00000000
_cell_angle_gamma   90.00000000
_symmetry_Int_Tables_number   1
_chemical_formula_structural   Ag2Hg2(TeO4)3
_chemical_formula_sum   'Ag4 Hg4 Te6 O24'
_cell_volume   555.58592575
_cell_formula_units_Z   2
loop_
 _symmetry_equiv_pos_site_id
 _symmetry_equiv_pos_as_xyz
  1  'x, y, z'
loop_
 _atom_site_type_symbol
 _atom_site_label
 _atom_site_symmetry_multiplicity
 _atom_site_fract_x
 _atom_site_fract_y
 _atom_site_fract_z
 _atom_site_occupancy
  Ag  Ag0  1  0.86733900  0.89462700  0.78979400  1
  Ag  Ag1  1  0.63266100  0.89462700  0.28979400  1
  Ag  Ag2  1  0.36733900  0.10537300  0.71020600  1
  Ag  Ag3  1  0.13266100  0.10537300  0.21020600  1
  Hg  Hg4  1  0.54203200  0.29352200  0.40063800  1
  Hg  Hg5  1  0.95796800  0.29352200  0.90063800  1
  Hg  Hg6  1  0.04203200  0.70647800  0.09936200  1
  Hg  Hg7  1  0.45796800  0.70647800  0.59936200  1
  Te  Te8  1  0.59391100  0.40975300  0.10669600  1
  Te  Te9  1  0.09391100  0.59024700  0.39330400  1
  Te  Te10  1  0.40608900  0.59024700  0.89330400  1
  Te  Te11  1  0.50000000  0.00000000  0.00000000  1
  Te  Te12  1  0.90608900  0.40975300  0.60669600  1
  Te  Te13  1  0.00000000  0.00000000  0.50000000  1
  O  O14  1  0.21756500  0.00073700  0.05576300  1
  O  O15  1  0.87116500  0.11746000  0.59500000  1
  O  O16  1  0.78243500  0.99926300  0.94423700  1
  O  O17  1  0.88462800  0.39953000  0.14812600  1
  O  O18  1  0.28243500  0.00073700  0.55576300  1
  O  O19  1  0.06048300  0.29070300  0.39095200  1
  O  O20  1  0.37116500  0.88254000  0.90500000  1
  O  O21  1  0.31369400  0.45138300  0.03762400  1
  O  O22  1  0.03209500  0.26379300  0.73274900  1
  O  O23  1  0.43951700  0.29070300  0.89095200  1
  O  O24  1  0.71756500  0.99926300  0.44423700  1
  O  O25  1  0.62883500  0.11746000  0.09500000  1
  O  O26  1  0.56048300  0.70929700  0.10904800  1
  O  O27  1  0.46790500  0.26379300  0.23274900  1
  O  O28  1  0.93951700  0.70929700  0.60904800  1
  O  O29  1  0.53209500  0.73620700  0.76725100  1
  O  O30  1  0.18630600  0.45138300  0.53762400  1
  O  O31  1  0.38462800  0.60047000  0.35187400  1
  O  O32  1  0.11537200  0.60047000  0.85187400  1
  O  O33  1  0.12883500  0.88254000  0.40500000  1
  O  O34  1  0.81369400  0.54861700  0.46237600  1
  O  O35  1  0.68630600  0.54861700  0.96237600  1
  O  O36  1  0.96790500  0.73620700  0.26725100  1
  O  O37  1  0.61537200  0.39953000  0.64812600  1
