# generated using pymatgen
data_CsTm2Cu3Se5
_symmetry_space_group_name_H-M   'P 1'
_cell_length_a   7.62349281
_cell_length_b   7.62349281
_cell_length_c   17.24349400
_cell_angle_alpha   90.00000000
_cell_angle_beta   90.00000000
_cell_angle_gamma   148.67788336
_symmetry_Int_Tables_number   1
_chemical_formula_structural   CsTm2Cu3Se5
_chemical_formula_sum   'Cs2 Tm4 Cu6 Se10'
_cell_volume   520.96721190
_cell_formula_units_Z   2
loop_
 _symmetry_equiv_pos_site_id
 _symmetry_equiv_pos_as_xyz
  1  'x, y, z'
loop_
 _atom_site_type_symbol
 _atom_site_label
 _atom_site_symmetry_multiplicity
 _atom_site_fract_x
 _atom_site_fract_y
 _atom_site_fract_z
 _atom_site_occupancy
  Cs  Cs0  1  0.06111500  0.93888500  0.75000000  1
  Cs  Cs1  1  0.93888500  0.06111500  0.25000000  1
  Tm  Tm2  1  0.19237400  0.80762600  0.09157200  1
  Tm  Tm3  1  0.80762600  0.19237400  0.59157200  1
  Tm  Tm4  1  0.80762600  0.19237400  0.90842800  1
  Tm  Tm5  1  0.19237400  0.80762600  0.40842800  1
  Cu  Cu6  1  0.58290500  0.41709500  0.53298900  1
  Cu  Cu7  1  0.65577800  0.34422200  0.25000000  1
  Cu  Cu8  1  0.41709500  0.58290500  0.46701100  1
  Cu  Cu9  1  0.41709500  0.58290500  0.03298900  1
  Cu  Cu10  1  0.34422200  0.65577800  0.75000000  1
  Cu  Cu11  1  0.58290500  0.41709500  0.96701100  1
  Se  Se12  1  0.43720700  0.56279300  0.88784700  1
  Se  Se13  1  0.83027400  0.16972600  0.43022100  1
  Se  Se14  1  0.56279300  0.43720700  0.11215300  1
  Se  Se15  1  0.76191800  0.23808200  0.75000000  1
  Se  Se16  1  0.16972600  0.83027400  0.93022100  1
  Se  Se17  1  0.16972600  0.83027400  0.56977900  1
  Se  Se18  1  0.56279300  0.43720700  0.38784700  1
  Se  Se19  1  0.23808200  0.76191800  0.25000000  1
  Se  Se20  1  0.83027400  0.16972600  0.06977900  1
  Se  Se21  1  0.43720700  0.56279300  0.61215300  1
