# generated using pymatgen
data_Ta4Se9I8
_symmetry_space_group_name_H-M   'P 1'
_cell_length_a   13.66602300
_cell_length_b   15.04542100
_cell_length_c   15.52433100
_cell_angle_alpha   90.00000000
_cell_angle_beta   90.00000000
_cell_angle_gamma   90.00000000
_symmetry_Int_Tables_number   1
_chemical_formula_structural   Ta4Se9I8
_chemical_formula_sum   'Ta16 Se36 I32'
_cell_volume   3191.97429911
_cell_formula_units_Z   4
loop_
 _symmetry_equiv_pos_site_id
 _symmetry_equiv_pos_as_xyz
  1  'x, y, z'
loop_
 _atom_site_type_symbol
 _atom_site_label
 _atom_site_symmetry_multiplicity
 _atom_site_fract_x
 _atom_site_fract_y
 _atom_site_fract_z
 _atom_site_occupancy
  Ta  Ta0  1  0.26132100  0.31385600  0.49899900  1
  Ta  Ta1  1  0.38387900  0.82111000  0.19365500  1
  Ta  Ta2  1  0.26132100  0.81385600  0.00100100  1
  Ta  Ta3  1  0.88387900  0.17889000  0.80634500  1
  Ta  Ta4  1  0.88387900  0.67889000  0.69365500  1
  Ta  Ta5  1  0.04560300  0.79074300  0.10974000  1
  Ta  Ta6  1  0.16670200  0.79772200  0.29787500  1
  Ta  Ta7  1  0.66670200  0.70227800  0.79787500  1
  Ta  Ta8  1  0.16670200  0.29772200  0.20212500  1
  Ta  Ta9  1  0.76132100  0.18614400  0.99899900  1
  Ta  Ta10  1  0.04560300  0.29074300  0.39026000  1
  Ta  Ta11  1  0.38387900  0.32111000  0.30634500  1
  Ta  Ta12  1  0.66670200  0.20227800  0.70212500  1
  Ta  Ta13  1  0.54560300  0.20925700  0.89026000  1
  Ta  Ta14  1  0.76132100  0.68614400  0.50100100  1
  Ta  Ta15  1  0.54560300  0.70925700  0.60974000  1
  Se  Se16  1  0.58117400  0.71160700  0.43979200  1
  Se  Se17  1  0.08117400  0.78839300  0.93979200  1
  Se  Se18  1  0.97562300  0.77257900  0.26916600  1
  Se  Se19  1  0.10932800  0.42381600  0.48747300  1
  Se  Se20  1  0.28776000  0.93434200  0.29484000  1
  Se  Se21  1  0.35709100  0.94611800  0.07618200  1
  Se  Se22  1  0.34826700  0.80457100  0.36230800  1
  Se  Se23  1  0.84826700  0.69542900  0.86230800  1
  Se  Se24  1  0.22260400  0.73933500  0.14875700  1
  Se  Se25  1  0.97562300  0.27257900  0.23083400  1
  Se  Se26  1  0.72260400  0.26066500  0.85124300  1
  Se  Se27  1  0.84826700  0.19542900  0.63769200  1
  Se  Se28  1  0.35709100  0.44611800  0.42381800  1
  Se  Se29  1  0.78776000  0.06565800  0.70516000  1
  Se  Se30  1  0.54215200  0.58657400  0.73346000  1
  Se  Se31  1  0.47562300  0.72742100  0.76916600  1
  Se  Se32  1  0.78776000  0.56565800  0.79484000  1
  Se  Se33  1  0.85709100  0.05388200  0.92381800  1
  Se  Se34  1  0.85709100  0.55388200  0.57618200  1
  Se  Se35  1  0.45438500  0.32299300  0.46808900  1
  Se  Se36  1  0.95438500  0.17700700  0.96808900  1
  Se  Se37  1  0.08117400  0.28839300  0.56020800  1
  Se  Se38  1  0.04215200  0.41342600  0.26654000  1
  Se  Se39  1  0.54215200  0.08657400  0.76654000  1
  Se  Se40  1  0.95438500  0.67700700  0.53191100  1
  Se  Se41  1  0.45438500  0.82299300  0.03191100  1
  Se  Se42  1  0.60932800  0.07618400  0.98747300  1
  Se  Se43  1  0.10932800  0.92381600  0.01252700  1
  Se  Se44  1  0.22260400  0.23933500  0.35124300  1
  Se  Se45  1  0.60932800  0.57618400  0.51252700  1
  Se  Se46  1  0.04215200  0.91342600  0.23346000  1
  Se  Se47  1  0.58117400  0.21160700  0.06020800  1
  Se  Se48  1  0.72260400  0.76066500  0.64875700  1
  Se  Se49  1  0.47562300  0.22742100  0.73083400  1
  Se  Se50  1  0.28776000  0.43434200  0.20516000  1
  Se  Se51  1  0.34826700  0.30457100  0.13769200  1
  I  I52  1  0.85697600  0.33982400  0.43270300  1
  I  I53  1  0.05558900  0.59697900  0.74041000  1
  I  I54  1  0.67241400  0.88500700  0.84105700  1
  I  I55  1  0.29287200  0.64206100  0.94925200  1
  I  I56  1  0.11101000  0.34739600  0.03717500  1
  I  I57  1  0.80314100  0.10860400  0.15623900  1
  I  I58  1  0.17241400  0.11499300  0.15894300  1
  I  I59  1  0.55558900  0.90302100  0.24041000  1
  I  I60  1  0.01188000  0.11153000  0.40891900  1
  I  I61  1  0.80314100  0.60860400  0.34376100  1
  I  I62  1  0.51188000  0.88847000  0.59108100  1
  I  I63  1  0.61101000  0.65260400  0.96282500  1
  I  I64  1  0.55558900  0.40302100  0.25959000  1
  I  I65  1  0.95715900  0.84865800  0.70285100  1
  I  I66  1  0.67241400  0.38500700  0.65894300  1
  I  I67  1  0.79287200  0.85793900  0.44925200  1
  I  I68  1  0.35697600  0.66017600  0.56729700  1
  I  I69  1  0.51188000  0.38847000  0.90891900  1
  I  I70  1  0.30314100  0.39139600  0.65623900  1
  I  I71  1  0.79287200  0.35793900  0.05074800  1
  I  I72  1  0.30314100  0.89139600  0.84376100  1
  I  I73  1  0.35697600  0.16017600  0.93270300  1
  I  I74  1  0.45715900  0.65134200  0.20285100  1
  I  I75  1  0.05558900  0.09697900  0.75959000  1
  I  I76  1  0.11101000  0.84739600  0.46282500  1
  I  I77  1  0.61101000  0.15260400  0.53717500  1
  I  I78  1  0.45715900  0.15134200  0.29714900  1
  I  I79  1  0.29287200  0.14206100  0.55074800  1
  I  I80  1  0.95715900  0.34865800  0.79714900  1
  I  I81  1  0.85697600  0.83982400  0.06729700  1
  I  I82  1  0.01188000  0.61153000  0.09108100  1
  I  I83  1  0.17241400  0.61499300  0.34105700  1
