# generated using pymatgen
data_KMnF3
_symmetry_space_group_name_H-M   'P 1'
_cell_length_a   6.00742500
_cell_length_b   6.03319400
_cell_length_c   8.49788500
_cell_angle_alpha   90.00000000
_cell_angle_beta   90.00000000
_cell_angle_gamma   90.00000000
_symmetry_Int_Tables_number   1
_chemical_formula_structural   KMnF3
_chemical_formula_sum   'K4 Mn4 F12'
_cell_volume   307.99700798
_cell_formula_units_Z   4
loop_
 _symmetry_equiv_pos_site_id
 _symmetry_equiv_pos_as_xyz
  1  'x, y, z'
loop_
 _atom_site_type_symbol
 _atom_site_label
 _atom_site_symmetry_multiplicity
 _atom_site_fract_x
 _atom_site_fract_y
 _atom_site_fract_z
 _atom_site_occupancy
  K  K0  1  0.99111800  0.00195000  0.25000000  1
  K  K1  1  0.49111800  0.49805000  0.25000000  1
  K  K2  1  0.50888200  0.50195000  0.75000000  1
  K  K3  1  0.00888200  0.99805000  0.75000000  1
  Mn  Mn4  1  0.00000000  0.50000000  0.00000000  1
  Mn  Mn5  1  0.50000000  0.00000000  0.50000000  1
  Mn  Mn6  1  0.50000000  0.00000000  0.00000000  1
  Mn  Mn7  1  0.00000000  0.50000000  0.50000000  1
  F  F8  1  0.73517000  0.26481100  0.47748100  1
  F  F9  1  0.23517000  0.23518900  0.02251900  1
  F  F10  1  0.76483000  0.76481100  0.52251900  1
  F  F11  1  0.26483000  0.73518900  0.97748100  1
  F  F12  1  0.26483000  0.73518900  0.52251900  1
  F  F13  1  0.76483000  0.76481100  0.97748100  1
  F  F14  1  0.23517000  0.23518900  0.47748100  1
  F  F15  1  0.73517000  0.26481100  0.02251900  1
  F  F16  1  0.50325700  0.95653900  0.25000000  1
  F  F17  1  0.00325700  0.54346100  0.25000000  1
  F  F18  1  0.99674300  0.45653900  0.75000000  1
  F  F19  1  0.49674300  0.04346100  0.75000000  1
