# generated using pymatgen
data_K(RuO2)4
_symmetry_space_group_name_H-M   'P 1'
_cell_length_a   7.23774809
_cell_length_b   7.23774809
_cell_length_c   7.23774809
_cell_angle_alpha   92.77366403
_cell_angle_beta   92.77366403
_cell_angle_gamma   154.58442662
_symmetry_Int_Tables_number   1
_chemical_formula_structural   K(RuO2)4
_chemical_formula_sum   'K1 Ru4 O8'
_cell_volume   158.73762216
_cell_formula_units_Z   1
loop_
 _symmetry_equiv_pos_site_id
 _symmetry_equiv_pos_as_xyz
  1  'x, y, z'
loop_
 _atom_site_type_symbol
 _atom_site_label
 _atom_site_symmetry_multiplicity
 _atom_site_fract_x
 _atom_site_fract_y
 _atom_site_fract_z
 _atom_site_occupancy
  K  K0  1  0.50000000  0.50000000  0.00000000  1
  Ru  Ru1  1  0.64804600  0.16670000  0.81474600  1
  Ru  Ru2  1  0.35195400  0.83330000  0.18525400  1
  Ru  Ru3  1  0.16670000  0.35195400  0.51865300  1
  Ru  Ru4  1  0.83330000  0.64804600  0.48134700  1
  O  O5  1  0.84386900  0.45339100  0.29726000  1
  O  O6  1  0.45339100  0.15613100  0.60952200  1
  O  O7  1  0.54660900  0.84386900  0.39047800  1
  O  O8  1  0.15613100  0.54660900  0.70274000  1
  O  O9  1  0.79973600  0.84953000  0.64926600  1
  O  O10  1  0.20026400  0.15047000  0.35073400  1
  O  O11  1  0.15047000  0.79973600  0.95020600  1
  O  O12  1  0.84953000  0.20026400  0.04979400  1
