# generated using pymatgen
data_Ba8Sb6S17
_symmetry_space_group_name_H-M   'P 1'
_cell_length_a   14.01549400
_cell_length_b   11.61829700
_cell_length_c   22.88945479
_cell_angle_alpha   88.93154534
_cell_angle_beta   90.00000000
_cell_angle_gamma   90.00000000
_symmetry_Int_Tables_number   1
_chemical_formula_structural   Ba8Sb6S17
_chemical_formula_sum   'Ba32 Sb24 S68'
_cell_volume   3726.58314097
_cell_formula_units_Z   4
loop_
 _symmetry_equiv_pos_site_id
 _symmetry_equiv_pos_as_xyz
  1  'x, y, z'
loop_
 _atom_site_type_symbol
 _atom_site_label
 _atom_site_symmetry_multiplicity
 _atom_site_fract_x
 _atom_site_fract_y
 _atom_site_fract_z
 _atom_site_occupancy
  Ba  Ba0  1  0.84239800  0.75719200  0.92973300  1
  Ba  Ba1  1  0.15760200  0.75719200  0.42973300  1
  Ba  Ba2  1  0.34323200  0.00000000  0.75000000  1
  Ba  Ba3  1  0.49516600  0.24030100  0.10145200  1
  Ba  Ba4  1  0.51602100  0.79917900  0.61815000  1
  Ba  Ba5  1  0.51602100  0.20082100  0.88185000  1
  Ba  Ba6  1  0.50483400  0.75969900  0.89854800  1
  Ba  Ba7  1  0.16169800  0.17956900  0.88426600  1
  Ba  Ba8  1  0.48397900  0.20082100  0.38185000  1
  Ba  Ba9  1  0.49718600  0.50000000  0.75000000  1
  Ba  Ba10  1  0.83830200  0.17956900  0.38426600  1
  Ba  Ba11  1  0.84135100  0.14291100  0.88551600  1
  Ba  Ba12  1  0.16169800  0.82043100  0.61573400  1
  Ba  Ba13  1  0.15864900  0.85708900  0.11448400  1
  Ba  Ba14  1  0.49516600  0.75969900  0.39854800  1
  Ba  Ba15  1  0.16931000  0.50000000  0.75000000  1
  Ba  Ba16  1  0.83069000  0.50000000  0.25000000  1
  Ba  Ba17  1  0.16911900  0.77127800  0.91027700  1
  Ba  Ba18  1  0.15864900  0.14291100  0.38551600  1
  Ba  Ba19  1  0.48397900  0.79917900  0.11815000  1
  Ba  Ba20  1  0.84239800  0.24280800  0.57026700  1
  Ba  Ba21  1  0.15303500  0.50000000  0.25000000  1
  Ba  Ba22  1  0.15760200  0.24280800  0.07026700  1
  Ba  Ba23  1  0.65676800  0.00000000  0.25000000  1
  Ba  Ba24  1  0.84135100  0.85708900  0.61448400  1
  Ba  Ba25  1  0.83830200  0.82043100  0.11573400  1
  Ba  Ba26  1  0.50281400  0.50000000  0.25000000  1
  Ba  Ba27  1  0.50483400  0.24030100  0.60145200  1
  Ba  Ba28  1  0.16911900  0.22872200  0.58972300  1
  Ba  Ba29  1  0.83088100  0.22872200  0.08972300  1
  Ba  Ba30  1  0.83088100  0.77127800  0.41027700  1
  Ba  Ba31  1  0.84696500  0.50000000  0.75000000  1
  Sb  Sb32  1  0.30834500  0.43811300  0.42431600  1
  Sb  Sb33  1  0.01712600  0.43194800  0.42485300  1
  Sb  Sb34  1  0.99842100  0.84162700  0.27975500  1
  Sb  Sb35  1  0.33258800  0.46433500  0.90897600  1
  Sb  Sb36  1  0.34703000  0.01963200  0.99419900  1
  Sb  Sb37  1  0.99842100  0.15837300  0.22024500  1
  Sb  Sb38  1  0.30834500  0.56188700  0.07568400  1
  Sb  Sb39  1  0.32087300  0.15434400  0.22320100  1
  Sb  Sb40  1  0.01712600  0.56805200  0.07514700  1
  Sb  Sb41  1  0.69165500  0.43811300  0.92431600  1
  Sb  Sb42  1  0.66741200  0.46433500  0.40897600  1
  Sb  Sb43  1  0.66741200  0.53566500  0.09102400  1
  Sb  Sb44  1  0.98287400  0.56805200  0.57514700  1
  Sb  Sb45  1  0.32087300  0.84565600  0.27679900  1
  Sb  Sb46  1  0.65297000  0.98036800  0.00580100  1
  Sb  Sb47  1  0.98287400  0.43194800  0.92485300  1
  Sb  Sb48  1  0.67912700  0.15434400  0.72320100  1
  Sb  Sb49  1  0.67912700  0.84565600  0.77679900  1
  Sb  Sb50  1  0.65297000  0.01963200  0.49419900  1
  Sb  Sb51  1  0.00157900  0.84162700  0.77975500  1
  Sb  Sb52  1  0.34703000  0.98036800  0.50580100  1
  Sb  Sb53  1  0.69165500  0.56188700  0.57568400  1
  Sb  Sb54  1  0.33258800  0.53566500  0.59102400  1
  Sb  Sb55  1  0.00157900  0.15837300  0.72024500  1
  S  S56  1  0.84724100  0.53674700  0.04949000  1
  S  S57  1  0.33239000  0.26379700  0.48543500  1
  S  S58  1  0.00285000  0.04510500  0.62962200  1
  S  S59  1  0.99261100  0.65525200  0.83334500  1
  S  S60  1  0.17437300  0.99282000  0.50302500  1
  S  S61  1  0.64280800  0.01744800  0.11352100  1
  S  S62  1  0.71071700  0.33705000  0.83183100  1
  S  S63  1  0.02087000  0.75239900  0.02041700  1
  S  S64  1  0.82562700  0.99282000  0.00302500  1
  S  S65  1  0.17100500  0.17583700  0.74002900  1
  S  S66  1  0.28928300  0.33705000  0.33183100  1
  S  S67  1  0.33443000  0.96366800  0.36692400  1
  S  S68  1  0.64415200  0.23183900  0.48777800  1
  S  S69  1  0.28928300  0.66295000  0.16816900  1
  S  S70  1  0.29532600  0.33587000  0.17033700  1
  S  S71  1  0.32744600  0.66779200  0.67280600  1
  S  S72  1  0.66557000  0.96366800  0.86692400  1
  S  S73  1  0.49030500  0.19411200  0.24215800  1
  S  S74  1  0.32744600  0.33220800  0.82719400  1
  S  S75  1  0.99261100  0.34474800  0.66665500  1
  S  S76  1  0.52556700  0.48654100  0.89732300  1
  S  S77  1  0.33239000  0.73620300  0.01456500  1
  S  S78  1  0.50969500  0.80588800  0.75784200  1
  S  S79  1  0.02087000  0.24760100  0.47958300  1
  S  S80  1  0.32493000  0.37224100  0.66002900  1
  S  S81  1  0.66761000  0.73620300  0.51456500  1
  S  S82  1  0.67255400  0.66779200  0.17280600  1
  S  S83  1  0.82899500  0.17583700  0.24002900  1
  S  S84  1  0.00738900  0.34474800  0.16665500  1
  S  S85  1  0.00212700  0.34066700  0.32945600  1
  S  S86  1  0.52556700  0.51345900  0.60267700  1
  S  S87  1  0.29532600  0.66413000  0.32966300  1
  S  S88  1  0.17437300  0.00718000  0.99697500  1
  S  S89  1  0.66761000  0.26379700  0.98543500  1
  S  S90  1  0.70467400  0.66413000  0.82966300  1
  S  S91  1  0.67507000  0.37224100  0.16002900  1
  S  S92  1  0.15275900  0.46325300  0.95051000  1
  S  S93  1  0.84724100  0.46325300  0.45051000  1
  S  S94  1  0.67255400  0.33220800  0.32719400  1
  S  S95  1  0.47443300  0.51345900  0.10267700  1
  S  S96  1  0.97913000  0.75239900  0.52041700  1
  S  S97  1  0.35584800  0.23183900  0.98777800  1
  S  S98  1  0.35584800  0.76816100  0.51222200  1
  S  S99  1  0.15275900  0.53674700  0.54949000  1
  S  S100  1  0.99787300  0.65933300  0.67054400  1
  S  S101  1  0.32493000  0.62775900  0.83997100  1
  S  S102  1  0.50969500  0.19411200  0.74215800  1
  S  S103  1  0.00738900  0.65525200  0.33334500  1
  S  S104  1  0.82899500  0.82416300  0.25997100  1
  S  S105  1  0.99715000  0.04510500  0.12962200  1
  S  S106  1  0.66557000  0.03633200  0.63307600  1
  S  S107  1  0.17100500  0.82416300  0.75997100  1
  S  S108  1  0.82562700  0.00718000  0.49697500  1
  S  S109  1  0.35719200  0.01744800  0.61352100  1
  S  S110  1  0.64415200  0.76816100  0.01222200  1
  S  S111  1  0.99787300  0.34066700  0.82945600  1
  S  S112  1  0.97913000  0.24760100  0.97958300  1
  S  S113  1  0.49030500  0.80588800  0.25784200  1
  S  S114  1  0.33443000  0.03633200  0.13307600  1
  S  S115  1  0.67507000  0.62775900  0.33997100  1
  S  S116  1  0.47443300  0.48654100  0.39732300  1
  S  S117  1  0.64280800  0.98255200  0.38647900  1
  S  S118  1  0.70467400  0.33587000  0.67033700  1
  S  S119  1  0.00212700  0.65933300  0.17054400  1
  S  S120  1  0.71071700  0.66295000  0.66816900  1
  S  S121  1  0.99715000  0.95489500  0.37037800  1
  S  S122  1  0.35719200  0.98255200  0.88647900  1
  S  S123  1  0.00285000  0.95489500  0.87037800  1
