# generated using pymatgen
data_Zn2P2O7
_symmetry_space_group_name_H-M   'P 1'
_cell_length_a   5.02255400
_cell_length_b   13.50761600
_cell_length_c   16.67657300
_cell_angle_alpha   90.00000000
_cell_angle_beta   90.00000000
_cell_angle_gamma   90.00000000
_symmetry_Int_Tables_number   1
_chemical_formula_structural   Zn2P2O7
_chemical_formula_sum   'Zn16 P16 O56'
_cell_volume   1131.38425223
_cell_formula_units_Z   8
loop_
 _symmetry_equiv_pos_site_id
 _symmetry_equiv_pos_as_xyz
  1  'x, y, z'
loop_
 _atom_site_type_symbol
 _atom_site_label
 _atom_site_symmetry_multiplicity
 _atom_site_fract_x
 _atom_site_fract_y
 _atom_site_fract_z
 _atom_site_occupancy
  Zn  Zn0  1  0.67925600  0.75786300  0.65677700  1
  Zn  Zn1  1  0.32074400  0.25786300  0.84322300  1
  Zn  Zn2  1  0.90893500  0.54560800  0.91362000  1
  Zn  Zn3  1  0.09106500  0.45439200  0.08638000  1
  Zn  Zn4  1  0.90893500  0.54560800  0.58638000  1
  Zn  Zn5  1  0.32074400  0.25786300  0.65677700  1
  Zn  Zn6  1  0.67925600  0.75786300  0.84322300  1
  Zn  Zn7  1  0.90893500  0.95439200  0.41362000  1
  Zn  Zn8  1  0.90893500  0.95439200  0.08638000  1
  Zn  Zn9  1  0.09106500  0.04560800  0.58638000  1
  Zn  Zn10  1  0.67925600  0.74213700  0.34322300  1
  Zn  Zn11  1  0.32074400  0.24213700  0.15677700  1
  Zn  Zn12  1  0.09106500  0.45439200  0.41362000  1
  Zn  Zn13  1  0.67925600  0.74213700  0.15677700  1
  Zn  Zn14  1  0.32074400  0.24213700  0.34322300  1
  Zn  Zn15  1  0.09106500  0.04560800  0.91362000  1
  P  P16  1  0.17317300  0.84973200  0.25000000  1
  P  P17  1  0.42145600  0.85605800  0.99722700  1
  P  P18  1  0.82682700  0.34973200  0.25000000  1
  P  P19  1  0.04162000  0.44384600  0.75000000  1
  P  P20  1  0.42145600  0.64394200  0.00277300  1
  P  P21  1  0.57854400  0.14394200  0.49722700  1
  P  P22  1  0.82682700  0.15026800  0.75000000  1
  P  P23  1  0.04162000  0.05615400  0.25000000  1
  P  P24  1  0.42145600  0.85605800  0.50277300  1
  P  P25  1  0.17317300  0.65026800  0.75000000  1
  P  P26  1  0.57854400  0.14394200  0.00277300  1
  P  P27  1  0.95838000  0.94384600  0.75000000  1
  P  P28  1  0.42145600  0.64394200  0.49722700  1
  P  P29  1  0.95838000  0.55615400  0.25000000  1
  P  P30  1  0.57854400  0.35605800  0.50277300  1
  P  P31  1  0.57854400  0.35605800  0.99722700  1
  O  O32  1  0.98635100  0.16882300  0.67235100  1
  O  O33  1  0.01364900  0.66882300  0.82764900  1
  O  O34  1  0.11845500  0.95180000  0.82691200  1
  O  O35  1  0.01364900  0.83117700  0.32764900  1
  O  O36  1  0.19728700  0.93357900  0.00271300  1
  O  O37  1  0.98635100  0.33117700  0.32764900  1
  O  O38  1  0.88154500  0.45180000  0.67308800  1
  O  O39  1  0.19728700  0.93357900  0.49728700  1
  O  O40  1  0.26805500  0.75000000  0.50000000  1
  O  O41  1  0.43837800  0.79273900  0.25000000  1
  O  O42  1  0.88154500  0.45180000  0.82691200  1
  O  O43  1  0.73194500  0.25000000  0.50000000  1
  O  O44  1  0.41791500  0.13811600  0.07942100  1
  O  O45  1  0.88154500  0.04820000  0.17308800  1
  O  O46  1  0.43837800  0.70726100  0.75000000  1
  O  O47  1  0.74179800  0.03539800  0.75000000  1
  O  O48  1  0.11845500  0.54820000  0.32691200  1
  O  O49  1  0.11845500  0.95180000  0.67308800  1
  O  O50  1  0.59893900  0.85958000  0.07336900  1
  O  O51  1  0.11845500  0.54820000  0.17308800  1
  O  O52  1  0.01364900  0.66882300  0.67235100  1
  O  O53  1  0.98635100  0.16882300  0.82764900  1
  O  O54  1  0.59893900  0.64042000  0.92663100  1
  O  O55  1  0.80271300  0.06642100  0.50271300  1
  O  O56  1  0.40106100  0.35958000  0.07336900  1
  O  O57  1  0.73194500  0.25000000  0.00000000  1
  O  O58  1  0.41791500  0.13811600  0.42057900  1
  O  O59  1  0.41791500  0.36188400  0.57942100  1
  O  O60  1  0.59893900  0.85958000  0.42663100  1
  O  O61  1  0.56162200  0.29273900  0.25000000  1
  O  O62  1  0.80271300  0.43357900  0.00271300  1
  O  O63  1  0.19728700  0.56642100  0.50271300  1
  O  O64  1  0.58208500  0.86188400  0.57942100  1
  O  O65  1  0.40106100  0.35958000  0.42663100  1
  O  O66  1  0.25820200  0.53539800  0.75000000  1
  O  O67  1  0.80271300  0.43357900  0.49728700  1
  O  O68  1  0.40106100  0.14042000  0.57336900  1
  O  O69  1  0.58208500  0.63811600  0.42057900  1
  O  O70  1  0.58208500  0.63811600  0.07942100  1
  O  O71  1  0.21219800  0.34911000  0.75000000  1
  O  O72  1  0.56162200  0.20726100  0.75000000  1
  O  O73  1  0.98635100  0.33117700  0.17235100  1
  O  O74  1  0.78780200  0.84911000  0.75000000  1
  O  O75  1  0.26805500  0.75000000  0.00000000  1
  O  O76  1  0.01364900  0.83117700  0.17235100  1
  O  O77  1  0.88154500  0.04820000  0.32691200  1
  O  O78  1  0.40106100  0.14042000  0.92663100  1
  O  O79  1  0.58208500  0.86188400  0.92057900  1
  O  O80  1  0.19728700  0.56642100  0.99728700  1
  O  O81  1  0.78780200  0.65089000  0.25000000  1
  O  O82  1  0.25820200  0.96460200  0.25000000  1
  O  O83  1  0.21219800  0.15089000  0.25000000  1
  O  O84  1  0.74179800  0.46460200  0.25000000  1
  O  O85  1  0.41791500  0.36188400  0.92057900  1
  O  O86  1  0.80271300  0.06642100  0.99728700  1
  O  O87  1  0.59893900  0.64042000  0.57336900  1
