# generated using pymatgen
data_Ti3SiC2
_symmetry_space_group_name_H-M   'P 1'
_cell_length_a   3.07510248
_cell_length_b   3.07510248
_cell_length_c   17.73591300
_cell_angle_alpha   90.00000000
_cell_angle_beta   90.00000000
_cell_angle_gamma   120.00001022
_symmetry_Int_Tables_number   1
_chemical_formula_structural   Ti3SiC2
_chemical_formula_sum   'Ti6 Si2 C4'
_cell_volume   145.24571287
_cell_formula_units_Z   2
loop_
 _symmetry_equiv_pos_site_id
 _symmetry_equiv_pos_as_xyz
  1  'x, y, z'
loop_
 _atom_site_type_symbol
 _atom_site_label
 _atom_site_symmetry_multiplicity
 _atom_site_fract_x
 _atom_site_fract_y
 _atom_site_fract_z
 _atom_site_occupancy
  Ti  Ti0  1  0.00000000  0.00000000  0.50000000  1
  Ti  Ti1  1  0.00000000  0.00000000  0.00000000  1
  Ti  Ti2  1  0.66666700  0.33333300  0.36510900  1
  Ti  Ti3  1  0.33333300  0.66666700  0.63489100  1
  Ti  Ti4  1  0.33333300  0.66666700  0.86510900  1
  Ti  Ti5  1  0.66666700  0.33333300  0.13489100  1
  Si  Si6  1  0.00000000  0.00000000  0.25000000  1
  Si  Si7  1  0.00000000  0.00000000  0.75000000  1
  C  C8  1  0.66666700  0.33333300  0.92770600  1
  C  C9  1  0.33333300  0.66666700  0.07229400  1
  C  C10  1  0.33333300  0.66666700  0.42770600  1
  C  C11  1  0.66666700  0.33333300  0.57229400  1
