# generated using pymatgen
data_Na2V3P2O13
_symmetry_space_group_name_H-M   'P 1'
_cell_length_a   8.39521900
_cell_length_b   10.53482000
_cell_length_c   12.22326500
_cell_angle_alpha   90.00000000
_cell_angle_beta   90.00000000
_cell_angle_gamma   90.00000000
_symmetry_Int_Tables_number   1
_chemical_formula_structural   Na2V3P2O13
_chemical_formula_sum   'Na8 V12 P8 O52'
_cell_volume   1081.05148246
_cell_formula_units_Z   4
loop_
 _symmetry_equiv_pos_site_id
 _symmetry_equiv_pos_as_xyz
  1  'x, y, z'
loop_
 _atom_site_type_symbol
 _atom_site_label
 _atom_site_symmetry_multiplicity
 _atom_site_fract_x
 _atom_site_fract_y
 _atom_site_fract_z
 _atom_site_occupancy
  Na  Na0  1  0.89656300  0.71921200  0.53652200  1
  Na  Na1  1  0.10343700  0.21921200  0.03652200  1
  Na  Na2  1  0.60343700  0.28078800  0.03652200  1
  Na  Na3  1  0.89656300  0.78078800  0.96347800  1
  Na  Na4  1  0.60343700  0.21921200  0.46347800  1
  Na  Na5  1  0.39656300  0.78078800  0.53652200  1
  Na  Na6  1  0.10343700  0.28078800  0.46347800  1
  Na  Na7  1  0.39656300  0.71921200  0.96347800  1
  V  V8  1  0.93232200  0.75000000  0.25000000  1
  V  V9  1  0.25524000  0.48027200  0.13410500  1
  V  V10  1  0.25524000  0.01972800  0.36589500  1
  V  V11  1  0.43232200  0.75000000  0.25000000  1
  V  V12  1  0.24476000  0.98027200  0.86589500  1
  V  V13  1  0.74476000  0.98027200  0.63410500  1
  V  V14  1  0.56767800  0.25000000  0.75000000  1
  V  V15  1  0.74476000  0.51972800  0.86589500  1
  V  V16  1  0.06767800  0.25000000  0.75000000  1
  V  V17  1  0.75524000  0.01972800  0.13410500  1
  V  V18  1  0.75524000  0.48027200  0.36589500  1
  V  V19  1  0.24476000  0.51972800  0.63410500  1
  P  P20  1  0.86874500  0.49114600  0.12047300  1
  P  P21  1  0.86874500  0.00885400  0.37952700  1
  P  P22  1  0.36874500  0.00885400  0.12047300  1
  P  P23  1  0.63125500  0.99114600  0.87952700  1
  P  P24  1  0.63125500  0.50885400  0.62047300  1
  P  P25  1  0.13125500  0.50885400  0.87952700  1
  P  P26  1  0.13125500  0.99114600  0.62047300  1
  P  P27  1  0.36874500  0.49114600  0.37952700  1
  O  O28  1  0.24979000  0.94371600  0.70892100  1
  O  O29  1  0.74979000  0.94371600  0.79107900  1
  O  O30  1  0.25021000  0.05628400  0.20892100  1
  O  O31  1  0.80080400  0.05735800  0.48989800  1
  O  O32  1  0.85076900  0.14534200  0.08898400  1
  O  O33  1  0.69919600  0.55735800  0.51010200  1
  O  O34  1  0.61135200  0.39650800  0.84641100  1
  O  O35  1  0.85076900  0.35465800  0.41101600  1
  O  O36  1  0.87073200  0.25000000  0.75000000  1
  O  O37  1  0.25021000  0.44371600  0.29107900  1
  O  O38  1  0.46635800  0.57431400  0.63871700  1
  O  O39  1  0.19919600  0.94264200  0.51010200  1
  O  O40  1  0.03364200  0.42568600  0.13871700  1
  O  O41  1  0.88652100  0.63698400  0.11996600  1
  O  O42  1  0.30080400  0.05735800  0.01010200  1
  O  O43  1  0.24979000  0.55628400  0.79107900  1
  O  O44  1  0.75021000  0.44371600  0.20892100  1
  O  O45  1  0.74979000  0.55628400  0.70892100  1
  O  O46  1  0.38864800  0.89650800  0.34641100  1
  O  O47  1  0.96635800  0.57431400  0.86128300  1
  O  O48  1  0.53364200  0.07431400  0.13871700  1
  O  O49  1  0.69919600  0.94264200  0.98989800  1
  O  O50  1  0.62926800  0.75000000  0.25000000  1
  O  O51  1  0.35076900  0.14534200  0.41101600  1
  O  O52  1  0.80080400  0.44264200  0.01010200  1
  O  O53  1  0.88864800  0.89650800  0.15358900  1
  O  O54  1  0.88652100  0.86301600  0.38003400  1
  O  O55  1  0.30080400  0.44264200  0.48989800  1
  O  O56  1  0.46635800  0.92568600  0.86128300  1
  O  O57  1  0.14923100  0.85465800  0.91101600  1
  O  O58  1  0.11135200  0.39650800  0.65358900  1
  O  O59  1  0.12926800  0.75000000  0.25000000  1
  O  O60  1  0.64923100  0.85465800  0.58898400  1
  O  O61  1  0.11347900  0.13698400  0.61996600  1
  O  O62  1  0.37073200  0.25000000  0.75000000  1
  O  O63  1  0.53364200  0.42568600  0.36128300  1
  O  O64  1  0.38652100  0.63698400  0.38003400  1
  O  O65  1  0.61347900  0.36301600  0.61996600  1
  O  O66  1  0.14923100  0.64534200  0.58898400  1
  O  O67  1  0.11135200  0.10349200  0.84641100  1
  O  O68  1  0.64923100  0.64534200  0.91101600  1
  O  O69  1  0.35076900  0.35465800  0.08898400  1
  O  O70  1  0.61135200  0.10349200  0.65358900  1
  O  O71  1  0.38864800  0.60349200  0.15358900  1
  O  O72  1  0.11347900  0.36301600  0.88003400  1
  O  O73  1  0.61347900  0.13698400  0.88003400  1
  O  O74  1  0.88864800  0.60349200  0.34641100  1
  O  O75  1  0.03364200  0.07431400  0.36128300  1
  O  O76  1  0.75021000  0.05628400  0.29107900  1
  O  O77  1  0.96635800  0.92568600  0.63871700  1
  O  O78  1  0.38652100  0.86301600  0.11996600  1
  O  O79  1  0.19919600  0.55735800  0.98989800  1
