# generated using pymatgen
data_Sr9YbV7O28
_symmetry_space_group_name_H-M   'P 1'
_cell_length_a   14.95423912
_cell_length_b   14.95423912
_cell_length_c   14.95423954
_cell_angle_alpha   44.65909986
_cell_angle_beta   44.65909986
_cell_angle_gamma   44.65909887
_symmetry_Int_Tables_number   1
_chemical_formula_structural   Sr9YbV7O28
_chemical_formula_sum   'Sr18 Yb2 V14 O56'
_cell_volume   1502.72235492
_cell_formula_units_Z   2
loop_
 _symmetry_equiv_pos_site_id
 _symmetry_equiv_pos_as_xyz
  1  'x, y, z'
loop_
 _atom_site_type_symbol
 _atom_site_label
 _atom_site_symmetry_multiplicity
 _atom_site_fract_x
 _atom_site_fract_y
 _atom_site_fract_z
 _atom_site_occupancy
  Sr  Sr0  1  0.95002300  0.54496500  0.52719400  1
  Sr  Sr1  1  0.65073100  0.09029800  0.06341900  1
  Sr  Sr2  1  0.43321700  0.42443500  0.84403500  1
  Sr  Sr3  1  0.34403500  0.92443500  0.93321700  1
  Sr  Sr4  1  0.42443500  0.84403500  0.43321700  1
  Sr  Sr5  1  0.54496500  0.52719400  0.95002300  1
  Sr  Sr6  1  0.92443500  0.93321700  0.34403500  1
  Sr  Sr7  1  0.56341900  0.59029800  0.15073100  1
  Sr  Sr8  1  0.93321700  0.34403500  0.92443500  1
  Sr  Sr9  1  0.45002300  0.02719400  0.04496500  1
  Sr  Sr10  1  0.06341900  0.65073100  0.09029800  1
  Sr  Sr11  1  0.02719400  0.04496500  0.45002300  1
  Sr  Sr12  1  0.59029800  0.15073100  0.56341900  1
  Sr  Sr13  1  0.04496500  0.45002300  0.02719400  1
  Sr  Sr14  1  0.52719400  0.95002300  0.54496500  1
  Sr  Sr15  1  0.15073100  0.56341900  0.59029800  1
  Sr  Sr16  1  0.84403500  0.43321700  0.42443500  1
  Sr  Sr17  1  0.09029800  0.06341900  0.65073100  1
  Yb  Yb18  1  0.00009000  0.00009000  0.00009000  1
  Yb  Yb19  1  0.50009000  0.50009000  0.50009000  1
  V  V20  1  0.68041300  0.22382600  0.19234600  1
  V  V21  1  0.31111300  0.27993900  0.81261900  1
  V  V22  1  0.22382600  0.19234600  0.68041300  1
  V  V23  1  0.81111300  0.31261900  0.77993900  1
  V  V24  1  0.27993900  0.81261900  0.31111300  1
  V  V25  1  0.19234600  0.68041300  0.22382600  1
  V  V26  1  0.18041300  0.69234600  0.72382600  1
  V  V27  1  0.69234600  0.72382600  0.18041300  1
  V  V28  1  0.31261900  0.77993900  0.81111300  1
  V  V29  1  0.81261900  0.31111300  0.27993900  1
  V  V30  1  0.72382600  0.18041300  0.69234600  1
  V  V31  1  0.77993900  0.81111300  0.31261900  1
  V  V32  1  0.72941000  0.72941000  0.72941000  1
  V  V33  1  0.22941000  0.22941000  0.22941000  1
  O  O34  1  0.10549400  0.66211700  0.39471700  1
  O  O35  1  0.60153000  0.23227300  0.14059600  1
  O  O36  1  0.14388100  0.37340900  0.62122900  1
  O  O37  1  0.39630500  0.22507700  0.10180100  1
  O  O38  1  0.16211700  0.60549400  0.89471700  1
  O  O39  1  0.60549400  0.89471700  0.16211700  1
  O  O40  1  0.10180100  0.39630500  0.22507700  1
  O  O41  1  0.23227300  0.14059600  0.60153000  1
  O  O42  1  0.63071600  0.38454500  0.36644600  1
  O  O43  1  0.66211700  0.39471700  0.10549400  1
  O  O44  1  0.13071600  0.86644600  0.88454500  1
  O  O45  1  0.35695200  0.60072500  0.90574400  1
  O  O46  1  0.82495500  0.39192500  0.81264600  1
  O  O47  1  0.39192500  0.81264600  0.82495500  1
  O  O48  1  0.89630500  0.60180100  0.72507700  1
  O  O49  1  0.36644600  0.63071600  0.38454500  1
  O  O50  1  0.10153000  0.64059600  0.73227300  1
  O  O51  1  0.32495500  0.31264600  0.89192500  1
  O  O52  1  0.89471700  0.16211700  0.60549400  1
  O  O53  1  0.38454500  0.36644600  0.63071600  1
  O  O54  1  0.12502900  0.86285700  0.12605100  1
  O  O55  1  0.36719400  0.84585900  0.63404400  1
  O  O56  1  0.34585900  0.86719400  0.13404400  1
  O  O57  1  0.89192500  0.32495500  0.31264600  1
  O  O58  1  0.64059600  0.73227300  0.10153000  1
  O  O59  1  0.72507700  0.89630500  0.60180100  1
  O  O60  1  0.18599000  0.18599000  0.18599000  1
  O  O61  1  0.31264600  0.89192500  0.32495500  1
  O  O62  1  0.86644600  0.88454500  0.13071600  1
  O  O63  1  0.13404400  0.34585900  0.86719400  1
  O  O64  1  0.87340900  0.64388100  0.12122900  1
  O  O65  1  0.86719400  0.13404400  0.34585900  1
  O  O66  1  0.12605100  0.12502900  0.86285700  1
  O  O67  1  0.62122900  0.14388100  0.37340900  1
  O  O68  1  0.14059600  0.60153000  0.23227300  1
  O  O69  1  0.88454500  0.13071600  0.86644600  1
  O  O70  1  0.36285700  0.62502900  0.62605100  1
  O  O71  1  0.90574400  0.35695200  0.60072500  1
  O  O72  1  0.81264600  0.82495500  0.39192500  1
  O  O73  1  0.85695200  0.40574400  0.10072500  1
  O  O74  1  0.62605100  0.36285700  0.62502900  1
  O  O75  1  0.12122900  0.87340900  0.64388100  1
  O  O76  1  0.37340900  0.62122900  0.14388100  1
  O  O77  1  0.68599000  0.68599000  0.68599000  1
  O  O78  1  0.62502900  0.62605100  0.36285700  1
  O  O79  1  0.60180100  0.72507700  0.89630500  1
  O  O80  1  0.60072500  0.90574400  0.35695200  1
  O  O81  1  0.63404400  0.36719400  0.84585900  1
  O  O82  1  0.86285700  0.12605100  0.12502900  1
  O  O83  1  0.73227300  0.10153000  0.64059600  1
  O  O84  1  0.84585900  0.63404400  0.36719400  1
  O  O85  1  0.40574400  0.10072500  0.85695200  1
  O  O86  1  0.39471700  0.10549400  0.66211700  1
  O  O87  1  0.22507700  0.10180100  0.39630500  1
  O  O88  1  0.10072500  0.85695200  0.40574400  1
  O  O89  1  0.64388100  0.12122900  0.87340900  1
