# generated using pymatgen
data_Cs8Tl8O
_symmetry_space_group_name_H-M   'P 1'
_cell_length_a   12.14201024
_cell_length_b   12.14201024
_cell_length_c   12.14200952
_cell_angle_alpha   44.45691876
_cell_angle_beta   44.45691876
_cell_angle_gamma   44.45691760
_symmetry_Int_Tables_number   1
_chemical_formula_structural   Cs8Tl8O
_chemical_formula_sum   'Cs8 Tl8 O1'
_cell_volume   798.28941850
_cell_formula_units_Z   1
loop_
 _symmetry_equiv_pos_site_id
 _symmetry_equiv_pos_as_xyz
  1  'x, y, z'
loop_
 _atom_site_type_symbol
 _atom_site_label
 _atom_site_symmetry_multiplicity
 _atom_site_fract_x
 _atom_site_fract_y
 _atom_site_fract_z
 _atom_site_occupancy
  Cs  Cs0  1  0.67143300  0.67143300  0.67143300  1
  Cs  Cs1  1  0.32856700  0.32856700  0.32856700  1
  Cs  Cs2  1  0.46197800  0.33151900  0.85197100  1
  Cs  Cs3  1  0.33151900  0.85197100  0.46197800  1
  Cs  Cs4  1  0.14802900  0.53802200  0.66848100  1
  Cs  Cs5  1  0.85197100  0.46197800  0.33151900  1
  Cs  Cs6  1  0.66848100  0.14802900  0.53802200  1
  Cs  Cs7  1  0.53802200  0.66848100  0.14802900  1
  Tl  Tl8  1  0.11919400  0.11919400  0.11919400  1
  Tl  Tl9  1  0.75185300  0.95809800  0.17117000  1
  Tl  Tl10  1  0.17117000  0.75185300  0.95809800  1
  Tl  Tl11  1  0.95809800  0.17117000  0.75185300  1
  Tl  Tl12  1  0.82883000  0.24814700  0.04190200  1
  Tl  Tl13  1  0.24814700  0.04190200  0.82883000  1
  Tl  Tl14  1  0.88080600  0.88080600  0.88080600  1
  Tl  Tl15  1  0.04190200  0.82883000  0.24814700  1
  O  O16  1  0.50000000  0.50000000  0.50000000  1
