# generated using pymatgen
data_Lu5Ir2
_symmetry_space_group_name_H-M   'P 1'
_cell_length_a   8.27351042
_cell_length_b   8.27351042
_cell_length_c   7.11135312
_cell_angle_alpha   83.46826953
_cell_angle_beta   83.46826953
_cell_angle_gamma   45.43826185
_symmetry_Int_Tables_number   1
_chemical_formula_structural   Lu5Ir2
_chemical_formula_sum   'Lu10 Ir4'
_cell_volume   344.18009436
_cell_formula_units_Z   2
loop_
 _symmetry_equiv_pos_site_id
 _symmetry_equiv_pos_as_xyz
  1  'x, y, z'
loop_
 _atom_site_type_symbol
 _atom_site_label
 _atom_site_symmetry_multiplicity
 _atom_site_fract_x
 _atom_site_fract_y
 _atom_site_fract_z
 _atom_site_occupancy
  Lu  Lu0  1  0.42850900  0.57149100  0.75000000  1
  Lu  Lu1  1  0.34539400  0.21253700  0.31802000  1
  Lu  Lu2  1  0.21237300  0.96951900  0.08012000  1
  Lu  Lu3  1  0.78762700  0.03048100  0.91988000  1
  Lu  Lu4  1  0.96951900  0.21237300  0.58012000  1
  Lu  Lu5  1  0.65460600  0.78746300  0.68198000  1
  Lu  Lu6  1  0.21253700  0.34539400  0.81802000  1
  Lu  Lu7  1  0.78746300  0.65460600  0.18198000  1
  Lu  Lu8  1  0.03048100  0.78762700  0.41988000  1
  Lu  Lu9  1  0.57149100  0.42850900  0.25000000  1
  Ir  Ir10  1  0.39078300  0.82712900  0.42716600  1
  Ir  Ir11  1  0.17287100  0.60921700  0.07283400  1
  Ir  Ir12  1  0.82712900  0.39078300  0.92716600  1
  Ir  Ir13  1  0.60921700  0.17287100  0.57283400  1
