# generated using pymatgen
data_Hf3Tl2(CuSe4)2
_symmetry_space_group_name_H-M   'P 1'
_cell_length_a   7.70721822
_cell_length_b   7.70721822
_cell_length_c   14.50273627
_cell_angle_alpha   66.17114885
_cell_angle_beta   66.17114885
_cell_angle_gamma   28.71131101
_symmetry_Int_Tables_number   1
_chemical_formula_structural   Hf3Tl2(CuSe4)2
_chemical_formula_sum   'Hf3 Tl2 Cu2 Se8'
_cell_volume   376.14769211
_cell_formula_units_Z   1
loop_
 _symmetry_equiv_pos_site_id
 _symmetry_equiv_pos_as_xyz
  1  'x, y, z'
loop_
 _atom_site_type_symbol
 _atom_site_label
 _atom_site_symmetry_multiplicity
 _atom_site_fract_x
 _atom_site_fract_y
 _atom_site_fract_z
 _atom_site_occupancy
  Hf  Hf0  1  0.34489500  0.34489500  0.38017300  1
  Hf  Hf1  1  0.65510500  0.65510500  0.61982700  1
  Hf  Hf2  1  0.50000000  0.50000000  0.00000000  1
  Tl  Tl3  1  0.66848600  0.66848600  0.19837300  1
  Tl  Tl4  1  0.33151400  0.33151400  0.80162700  1
  Cu  Cu5  1  0.95926100  0.95926100  0.19797900  1
  Cu  Cu6  1  0.04073900  0.04073900  0.80202100  1
  Se  Se7  1  0.10728300  0.10728300  0.03960600  1
  Se  Se8  1  0.97974700  0.97974700  0.35544000  1
  Se  Se9  1  0.02025300  0.02025300  0.64456000  1
  Se  Se10  1  0.29523400  0.29523400  0.58136900  1
  Se  Se11  1  0.70476600  0.70476600  0.41863100  1
  Se  Se12  1  0.64318600  0.64318600  0.80920100  1
  Se  Se13  1  0.35681400  0.35681400  0.19079900  1
  Se  Se14  1  0.89271700  0.89271700  0.96039400  1
