# generated using pymatgen
data_CeNiSnH2
_symmetry_space_group_name_H-M   'P 1'
_cell_length_a   4.36963482
_cell_length_b   4.36963482
_cell_length_c   8.36400900
_cell_angle_alpha   90.00000000
_cell_angle_beta   90.00000000
_cell_angle_gamma   120.00001247
_symmetry_Int_Tables_number   1
_chemical_formula_structural   CeNiSnH2
_chemical_formula_sum   'Ce2 Ni2 Sn2 H4'
_cell_volume   138.30419601
_cell_formula_units_Z   2
loop_
 _symmetry_equiv_pos_site_id
 _symmetry_equiv_pos_as_xyz
  1  'x, y, z'
loop_
 _atom_site_type_symbol
 _atom_site_label
 _atom_site_symmetry_multiplicity
 _atom_site_fract_x
 _atom_site_fract_y
 _atom_site_fract_z
 _atom_site_occupancy
  Ce  Ce0  1  0.00000000  0.00000000  0.50000000  1
  Ce  Ce1  1  0.00000000  0.00000000  0.00000000  1
  Ni  Ni2  1  0.66666700  0.33333300  0.75000000  1
  Ni  Ni3  1  0.33333300  0.66666700  0.25000000  1
  Sn  Sn4  1  0.33333300  0.66666700  0.75000000  1
  Sn  Sn5  1  0.66666700  0.33333300  0.25000000  1
  H  H6  1  0.33333300  0.66666700  0.44339500  1
  H  H7  1  0.66666700  0.33333300  0.55660500  1
  H  H8  1  0.33333300  0.66666700  0.05660500  1
  H  H9  1  0.66666700  0.33333300  0.94339500  1
