# generated using pymatgen
data_KP4N7
_symmetry_space_group_name_H-M   'P 1'
_cell_length_a   4.70484400
_cell_length_b   9.95160600
_cell_length_c   12.34376600
_cell_angle_alpha   90.00000000
_cell_angle_beta   90.00000000
_cell_angle_gamma   90.00000000
_symmetry_Int_Tables_number   1
_chemical_formula_structural   KP4N7
_chemical_formula_sum   'K4 P16 N28'
_cell_volume   577.94442860
_cell_formula_units_Z   4
loop_
 _symmetry_equiv_pos_site_id
 _symmetry_equiv_pos_as_xyz
  1  'x, y, z'
loop_
 _atom_site_type_symbol
 _atom_site_label
 _atom_site_symmetry_multiplicity
 _atom_site_fract_x
 _atom_site_fract_y
 _atom_site_fract_z
 _atom_site_occupancy
  K  K0  1  0.25813700  0.15060500  0.75000000  1
  K  K1  1  0.75813700  0.34939500  0.25000000  1
  K  K2  1  0.74186300  0.84939500  0.25000000  1
  K  K3  1  0.24186300  0.65060500  0.75000000  1
  P  P4  1  0.78954800  0.41174000  0.86939100  1
  P  P5  1  0.28954800  0.08826000  0.13060900  1
  P  P6  1  0.21045200  0.58826000  0.36939100  1
  P  P7  1  0.71045200  0.91174000  0.63060900  1
  P  P8  1  0.21045200  0.58826000  0.13060900  1
  P  P9  1  0.71045200  0.91174000  0.86939100  1
  P  P10  1  0.78954800  0.41174000  0.63060900  1
  P  P11  1  0.28954800  0.08826000  0.36939100  1
  P  P12  1  0.78046000  0.15696100  0.99976300  1
  P  P13  1  0.28046000  0.34303900  0.00023700  1
  P  P14  1  0.21954000  0.84303900  0.49976300  1
  P  P15  1  0.71954000  0.65696100  0.50023700  1
  P  P16  1  0.21954000  0.84303900  0.00023700  1
  P  P17  1  0.71954000  0.65696100  0.99976300  1
  P  P18  1  0.78046000  0.15696100  0.50023700  1
  P  P19  1  0.28046000  0.34303900  0.49976300  1
  N  N20  1  0.70243100  0.36817800  0.75000000  1
  N  N21  1  0.20243100  0.13182200  0.25000000  1
  N  N22  1  0.29756900  0.63182200  0.25000000  1
  N  N23  1  0.79756900  0.86817800  0.75000000  1
  N  N24  1  0.12171400  0.38558800  0.89232100  1
  N  N25  1  0.62171400  0.11441200  0.10767900  1
  N  N26  1  0.87828600  0.61441200  0.39232100  1
  N  N27  1  0.37828600  0.88558800  0.60767900  1
  N  N28  1  0.87828600  0.61441200  0.10767900  1
  N  N29  1  0.37828600  0.88558800  0.89232100  1
  N  N30  1  0.12171400  0.38558800  0.60767900  1
  N  N31  1  0.62171400  0.11441200  0.39232100  1
  N  N32  1  0.81379200  0.06186400  0.89702000  1
  N  N33  1  0.31379200  0.43813600  0.10298000  1
  N  N34  1  0.18620800  0.93813600  0.39702000  1
  N  N35  1  0.68620800  0.56186400  0.60298000  1
  N  N36  1  0.18620800  0.93813600  0.10298000  1
  N  N37  1  0.68620800  0.56186400  0.89702000  1
  N  N38  1  0.81379200  0.06186400  0.60298000  1
  N  N39  1  0.31379200  0.43813600  0.39702000  1
  N  N40  1  0.61950000  0.30193400  0.95802800  1
  N  N41  1  0.11950000  0.19806600  0.04197200  1
  N  N42  1  0.38050000  0.69806600  0.45802800  1
  N  N43  1  0.88050000  0.80193400  0.54197200  1
  N  N44  1  0.38050000  0.69806600  0.04197200  1
  N  N45  1  0.88050000  0.80193400  0.95802800  1
  N  N46  1  0.61950000  0.30193400  0.54197200  1
  N  N47  1  0.11950000  0.19806600  0.45802800  1
