# generated using pymatgen
data_U4Re7Si6
_symmetry_space_group_name_H-M   'P 1'
_cell_length_a   7.14886824
_cell_length_b   7.14886824
_cell_length_c   7.14886824
_cell_angle_alpha   109.47122063
_cell_angle_beta   109.47122063
_cell_angle_gamma   109.47122063
_symmetry_Int_Tables_number   1
_chemical_formula_structural   U4Re7Si6
_chemical_formula_sum   'U4 Re7 Si6'
_cell_volume   281.24835210
_cell_formula_units_Z   1
loop_
 _symmetry_equiv_pos_site_id
 _symmetry_equiv_pos_as_xyz
  1  'x, y, z'
loop_
 _atom_site_type_symbol
 _atom_site_label
 _atom_site_symmetry_multiplicity
 _atom_site_fract_x
 _atom_site_fract_y
 _atom_site_fract_z
 _atom_site_occupancy
  U  U0  1  0.50000000  0.50000000  0.50000000  1
  U  U1  1  0.00000000  0.00000000  0.50000000  1
  U  U2  1  0.50000000  0.00000000  0.00000000  1
  U  U3  1  0.00000000  0.50000000  0.00000000  1
  Re  Re4  1  0.75000000  0.25000000  0.50000000  1
  Re  Re5  1  0.50000000  0.25000000  0.75000000  1
  Re  Re6  1  0.50000000  0.75000000  0.25000000  1
  Re  Re7  1  0.25000000  0.50000000  0.75000000  1
  Re  Re8  1  0.75000000  0.50000000  0.25000000  1
  Re  Re9  1  0.25000000  0.75000000  0.50000000  1
  Re  Re10  1  0.00000000  0.00000000  0.00000000  1
  Si  Si11  1  0.30958600  0.30958600  0.00000000  1
  Si  Si12  1  0.00000000  0.30958600  0.30958600  1
  Si  Si13  1  0.00000000  0.69041400  0.69041400  1
  Si  Si14  1  0.69041400  0.00000000  0.69041400  1
  Si  Si15  1  0.30958600  0.00000000  0.30958600  1
  Si  Si16  1  0.69041400  0.69041400  0.00000000  1
