# generated using pymatgen
data_SmMoClO4
_symmetry_space_group_name_H-M   'P 1'
_cell_length_a   6.43232448
_cell_length_b   6.43232448
_cell_length_c   7.00646969
_cell_angle_alpha   76.38562807
_cell_angle_beta   76.38562807
_cell_angle_gamma   71.06176811
_symmetry_Int_Tables_number   1
_chemical_formula_structural   SmMoClO4
_chemical_formula_sum   'Sm2 Mo2 Cl2 O8'
_cell_volume   262.47879219
_cell_formula_units_Z   2
loop_
 _symmetry_equiv_pos_site_id
 _symmetry_equiv_pos_as_xyz
  1  'x, y, z'
loop_
 _atom_site_type_symbol
 _atom_site_label
 _atom_site_symmetry_multiplicity
 _atom_site_fract_x
 _atom_site_fract_y
 _atom_site_fract_z
 _atom_site_occupancy
  Sm  Sm0  1  0.77826600  0.77826600  0.11320200  1
  Sm  Sm1  1  0.22173400  0.22173400  0.88679800  1
  Mo  Mo2  1  0.36255600  0.36255600  0.26831500  1
  Mo  Mo3  1  0.63744400  0.63744400  0.73168500  1
  Cl  Cl4  1  0.98893900  0.98893900  0.76495600  1
  Cl  Cl5  1  0.01106100  0.01106100  0.23504400  1
  O  O6  1  0.88388200  0.50983200  0.84881500  1
  O  O7  1  0.29323300  0.29323300  0.53067000  1
  O  O8  1  0.53977200  0.53977200  0.20662500  1
  O  O9  1  0.70676700  0.70676700  0.46933000  1
  O  O10  1  0.46022800  0.46022800  0.79337500  1
  O  O11  1  0.49016800  0.11611800  0.15118500  1
  O  O12  1  0.11611800  0.49016800  0.15118500  1
  O  O13  1  0.50983200  0.88388200  0.84881500  1
