# generated using pymatgen
data_Ag2TeO4
_symmetry_space_group_name_H-M   'P 1'
_cell_length_a   6.58034808
_cell_length_b   6.58034808
_cell_length_c   13.94802336
_cell_angle_alpha   88.88283344
_cell_angle_beta   88.88283344
_cell_angle_gamma   91.60913404
_symmetry_Int_Tables_number   1
_chemical_formula_structural   Ag2TeO4
_chemical_formula_sum   'Ag12 Te6 O24'
_cell_volume   603.48874769
_cell_formula_units_Z   6
loop_
 _symmetry_equiv_pos_site_id
 _symmetry_equiv_pos_as_xyz
  1  'x, y, z'
loop_
 _atom_site_type_symbol
 _atom_site_label
 _atom_site_symmetry_multiplicity
 _atom_site_fract_x
 _atom_site_fract_y
 _atom_site_fract_z
 _atom_site_occupancy
  Ag  Ag0  1  0.27472200  0.72527800  0.75000000  1
  Ag  Ag1  1  0.73427500  0.61007300  0.67323800  1
  Ag  Ag2  1  0.05151900  0.94848100  0.25000000  1
  Ag  Ag3  1  0.72527800  0.27472200  0.25000000  1
  Ag  Ag4  1  0.94848100  0.05151900  0.75000000  1
  Ag  Ag5  1  0.26572500  0.38992700  0.32676200  1
  Ag  Ag6  1  0.48281600  0.78104200  0.93235100  1
  Ag  Ag7  1  0.21895800  0.51718400  0.56764900  1
  Ag  Ag8  1  0.38992700  0.26572500  0.82676200  1
  Ag  Ag9  1  0.78104200  0.48281600  0.43235100  1
  Ag  Ag10  1  0.61007300  0.73427500  0.17323800  1
  Ag  Ag11  1  0.51718400  0.21895800  0.06764900  1
  Te  Te12  1  0.49671400  0.08660900  0.60348800  1
  Te  Te13  1  0.50328600  0.91339100  0.39651200  1
  Te  Te14  1  0.91339100  0.50328600  0.89651200  1
  Te  Te15  1  0.00000000  0.00000000  0.50000000  1
  Te  Te16  1  0.08660900  0.49671400  0.10348800  1
  Te  Te17  1  0.00000000  0.00000000  0.00000000  1
  O  O18  1  0.95303000  0.72482800  0.54671200  1
  O  O19  1  0.81889200  0.50872900  0.03450500  1
  O  O20  1  0.64390700  0.52752900  0.85164600  1
  O  O21  1  0.11031400  0.79986400  0.09693400  1
  O  O22  1  0.52752900  0.64390700  0.35164600  1
  O  O23  1  0.47247100  0.35609300  0.64835400  1
  O  O24  1  0.79986400  0.11031400  0.59693400  1
  O  O25  1  0.95426800  0.80647300  0.89221000  1
  O  O26  1  0.35609300  0.47247100  0.14835400  1
  O  O27  1  0.72482800  0.95303000  0.04671200  1
  O  O28  1  0.20013600  0.88968600  0.40306600  1
  O  O29  1  0.04697000  0.27517200  0.45328800  1
  O  O30  1  0.48488100  0.04751600  0.27437800  1
  O  O31  1  0.80647300  0.95426800  0.39221000  1
  O  O32  1  0.18110800  0.49127100  0.96549500  1
  O  O33  1  0.04751600  0.48488100  0.77437800  1
  O  O34  1  0.88968600  0.20013600  0.90306600  1
  O  O35  1  0.27517200  0.04697000  0.95328800  1
  O  O36  1  0.51511900  0.95248400  0.72562200  1
  O  O37  1  0.50872900  0.81889200  0.53450500  1
  O  O38  1  0.04573200  0.19352700  0.10779000  1
  O  O39  1  0.19352700  0.04573200  0.60779000  1
  O  O40  1  0.95248400  0.51511900  0.22562200  1
  O  O41  1  0.49127100  0.18110800  0.46549500  1
