# generated using pymatgen
data_NaLi3SiO4
_symmetry_space_group_name_H-M   'P 1'
_cell_length_a   9.98410102
_cell_length_b   9.98410102
_cell_length_c   9.98410102
_cell_angle_alpha   114.00610549
_cell_angle_beta   114.00610549
_cell_angle_gamma   100.73880210
_symmetry_Int_Tables_number   1
_chemical_formula_structural   NaLi3SiO4
_chemical_formula_sum   'Na8 Li24 Si8 O32'
_cell_volume   753.08113304
_cell_formula_units_Z   8
loop_
 _symmetry_equiv_pos_site_id
 _symmetry_equiv_pos_as_xyz
  1  'x, y, z'
loop_
 _atom_site_type_symbol
 _atom_site_label
 _atom_site_symmetry_multiplicity
 _atom_site_fract_x
 _atom_site_fract_y
 _atom_site_fract_z
 _atom_site_occupancy
  Na  Na0  1  0.45589800  0.99908200  0.01410900  1
  Na  Na1  1  0.98497400  0.44178900  0.98589100  1
  Na  Na2  1  0.00091800  0.01502600  0.45681500  1
  Na  Na3  1  0.29410200  0.25091800  0.48589100  1
  Na  Na4  1  0.19178900  0.70589800  0.95681500  1
  Na  Na5  1  0.74908200  0.23497400  0.04318500  1
  Na  Na6  1  0.55821100  0.54410200  0.54318500  1
  Na  Na7  1  0.76502600  0.80821100  0.51410900  1
  Li  Li8  1  0.84188300  0.47158400  0.68993200  1
  Li  Li9  1  0.29858800  0.66105600  0.32137000  1
  Li  Li10  1  0.45141200  0.58894400  0.17863000  1
  Li  Li11  1  0.69810200  0.56274200  0.86701800  1
  Li  Li12  1  0.33894400  0.66031400  0.63753200  1
  Li  Li13  1  0.96834800  0.09804900  0.18993200  1
  Li  Li14  1  0.84804900  0.15811700  0.62970100  1
  Li  Li15  1  0.52841600  0.21834800  0.37029900  1
  Li  Li16  1  0.22158400  0.03165200  0.12970100  1
  Li  Li17  1  0.31274200  0.94572400  0.36464000  1
  Li  Li18  1  0.33968600  0.97721800  0.67863000  1
  Li  Li19  1  0.78165200  0.15195100  0.31006800  1
  Li  Li20  1  0.02278200  0.70141200  0.36246800  1
  Li  Li21  1  0.90195100  0.09188300  0.87029900  1
  Li  Li22  1  0.16891600  0.30189800  0.86464000  1
  Li  Li23  1  0.69572400  0.83108500  0.13298200  1
  Li  Li24  1  0.72721800  0.54858800  0.13753200  1
  Li  Li25  1  0.90811700  0.77841600  0.81006800  1
  Li  Li26  1  0.41105600  0.58968600  0.86246800  1
  Li  Li27  1  0.41031400  0.27278200  0.82137000  1
  Li  Li28  1  0.05427600  0.41891500  0.36701800  1
  Li  Li29  1  0.43725800  0.30427600  0.13536000  1
  Li  Li30  1  0.58108500  0.94810200  0.63536000  1
  Li  Li31  1  0.05189800  0.68725800  0.63298200  1
  Si  Si32  1  0.00133700  0.78101100  0.14263800  1
  Si  Si33  1  0.63837300  0.85869900  0.85736200  1
  Si  Si34  1  0.21898900  0.36162700  0.22032600  1
  Si  Si35  1  0.60869900  0.25133700  0.72032600  1
  Si  Si36  1  0.11162700  0.39130100  0.64263800  1
  Si  Si37  1  0.74866300  0.46898900  0.35736200  1
  Si  Si38  1  0.53101100  0.88837300  0.27967400  1
  Si  Si39  1  0.14130100  0.99866300  0.77967400  1
  O  O40  1  0.64030700  0.38496500  0.90906300  1
  O  O41  1  0.18604700  0.57689700  0.68637900  1
  O  O42  1  0.99948800  0.37695700  0.72452400  1
  O  O43  1  0.24966800  0.43604700  0.10915000  1
  O  O44  1  0.62304300  0.34756700  0.62253100  1
  O  O45  1  0.89051800  0.49966800  0.31362100  1
  O  O46  1  0.92490100  0.66472700  0.93205400  1
  O  O47  1  0.72503600  0.00051200  0.37746900  1
  O  O48  1  0.61503500  0.52409700  0.25534200  1
  O  O49  1  0.75051200  0.87304300  0.77547600  1
  O  O50  1  0.41472700  0.98267300  0.23982700  1
  O  O51  1  0.00715400  0.07509900  0.73982700  1
  O  O52  1  0.82509900  0.58527300  0.56794600  1
  O  O53  1  0.01732700  0.25715400  0.43205400  1
  O  O54  1  0.32689700  0.14051800  0.89085000  1
  O  O55  1  0.65243300  0.27496400  0.27547600  1
  O  O56  1  0.10969300  0.86503500  0.59093700  1
  O  O57  1  0.50033200  0.81395300  0.39085000  1
  O  O58  1  0.09756700  0.97503600  0.22452400  1
  O  O59  1  0.13496500  0.72590300  0.24465800  1
  O  O60  1  0.33527300  0.26732700  0.26017300  1
  O  O61  1  0.02496400  0.24948800  0.12253100  1
  O  O62  1  0.12695700  0.90243300  0.87746900  1
  O  O63  1  0.27409700  0.51875500  0.40906300  1
  O  O64  1  0.47590300  0.73124500  0.09093700  1
  O  O65  1  0.26875500  0.35969300  0.74465800  1
  O  O66  1  0.85948200  0.75033200  0.18637900  1
  O  O67  1  0.48124500  0.89030700  0.75534200  1
  O  O68  1  0.74284600  0.17490100  0.76017300  1
  O  O69  1  0.56395300  0.67310300  0.81362100  1
  O  O70  1  0.73267300  0.99284600  0.06794600  1
  O  O71  1  0.42310300  0.10948200  0.60915000  1
