# generated using pymatgen
data_Eu(Al4Fe)2
_symmetry_space_group_name_H-M   'P 1'
_cell_length_a   4.00113500
_cell_length_b   12.50420100
_cell_length_c   14.50118700
_cell_angle_alpha   90.00000000
_cell_angle_beta   90.00000000
_cell_angle_gamma   90.00000000
_symmetry_Int_Tables_number   1
_chemical_formula_structural   Eu(Al4Fe)2
_chemical_formula_sum   'Eu4 Al32 Fe8'
_cell_volume   725.50883268
_cell_formula_units_Z   4
loop_
 _symmetry_equiv_pos_site_id
 _symmetry_equiv_pos_as_xyz
  1  'x, y, z'
loop_
 _atom_site_type_symbol
 _atom_site_label
 _atom_site_symmetry_multiplicity
 _atom_site_fract_x
 _atom_site_fract_y
 _atom_site_fract_z
 _atom_site_occupancy
  Eu  Eu0  1  0.00000000  0.34000300  0.31816600  1
  Eu  Eu1  1  0.00000000  0.65999700  0.68183400  1
  Eu  Eu2  1  0.00000000  0.84000300  0.18183400  1
  Eu  Eu3  1  0.00000000  0.15999700  0.81816600  1
  Al  Al4  1  0.00000000  0.00000000  0.00000000  1
  Al  Al5  1  0.00000000  0.50000000  0.50000000  1
  Al  Al6  1  0.50000000  0.00000000  0.50000000  1
  Al  Al7  1  0.50000000  0.50000000  0.00000000  1
  Al  Al8  1  0.50000000  0.23497300  0.17102000  1
  Al  Al9  1  0.50000000  0.76502700  0.82898000  1
  Al  Al10  1  0.50000000  0.73497300  0.32898000  1
  Al  Al11  1  0.50000000  0.26502700  0.67102000  1
  Al  Al12  1  0.50000000  0.45293100  0.17851500  1
  Al  Al13  1  0.50000000  0.54706900  0.82148500  1
  Al  Al14  1  0.50000000  0.95293100  0.32148500  1
  Al  Al15  1  0.50000000  0.04706900  0.67851500  1
  Al  Al16  1  0.50000000  0.15885000  0.38046000  1
  Al  Al17  1  0.50000000  0.84115000  0.61954000  1
  Al  Al18  1  0.50000000  0.65885000  0.11954000  1
  Al  Al19  1  0.50000000  0.34115000  0.88046000  1
  Al  Al20  1  0.00000000  0.33690800  0.04663000  1
  Al  Al21  1  0.00000000  0.66309200  0.95337000  1
  Al  Al22  1  0.00000000  0.83690800  0.45337000  1
  Al  Al23  1  0.00000000  0.16309200  0.54663000  1
  Al  Al24  1  0.00000000  0.09404300  0.25449700  1
  Al  Al25  1  0.00000000  0.90595700  0.74550300  1
  Al  Al26  1  0.00000000  0.59404300  0.24550300  1
  Al  Al27  1  0.00000000  0.40595700  0.75449700  1
  Al  Al28  1  0.50000000  0.33342800  0.49318100  1
  Al  Al29  1  0.50000000  0.66657200  0.50681900  1
  Al  Al30  1  0.50000000  0.83342800  0.00681900  1
  Al  Al31  1  0.50000000  0.16657200  0.99318100  1
  Al  Al32  1  0.50000000  0.02593900  0.13269800  1
  Al  Al33  1  0.50000000  0.97406100  0.86730200  1
  Al  Al34  1  0.50000000  0.52593900  0.36730200  1
  Al  Al35  1  0.50000000  0.47406100  0.63269800  1
  Fe  Fe36  1  0.00000000  0.03562900  0.40987000  1
  Fe  Fe37  1  0.00000000  0.96437100  0.59013000  1
  Fe  Fe38  1  0.00000000  0.53562900  0.09013000  1
  Fe  Fe39  1  0.00000000  0.46437100  0.90987000  1
  Fe  Fe40  1  0.00000000  0.14889200  0.09895300  1
  Fe  Fe41  1  0.00000000  0.85110800  0.90104700  1
  Fe  Fe42  1  0.00000000  0.64889200  0.40104700  1
  Fe  Fe43  1  0.00000000  0.35110800  0.59895300  1
