# generated using pymatgen
data_La3CI5
_symmetry_space_group_name_H-M   'P 1'
_cell_length_a   8.10431700
_cell_length_b   9.84199307
_cell_length_c   9.93477644
_cell_angle_alpha   107.52487343
_cell_angle_beta   97.36418032
_cell_angle_gamma   105.22936225
_symmetry_Int_Tables_number   1
_chemical_formula_structural   La3CI5
_chemical_formula_sum   'La6 C2 I10'
_cell_volume   710.36637066
_cell_formula_units_Z   2
loop_
 _symmetry_equiv_pos_site_id
 _symmetry_equiv_pos_as_xyz
  1  'x, y, z'
loop_
 _atom_site_type_symbol
 _atom_site_label
 _atom_site_symmetry_multiplicity
 _atom_site_fract_x
 _atom_site_fract_y
 _atom_site_fract_z
 _atom_site_occupancy
  La  La0  1  0.62194600  0.86113300  0.81579100  1
  La  La1  1  0.02751200  0.72933700  0.92171100  1
  La  La2  1  0.10618300  0.03927700  0.77397600  1
  La  La3  1  0.97248800  0.27066300  0.07828900  1
  La  La4  1  0.89381700  0.96072300  0.22602400  1
  La  La5  1  0.37805400  0.13886700  0.18420900  1
  C  C6  1  0.08706600  0.03082000  0.04155500  1
  C  C7  1  0.91293400  0.96918000  0.95844500  1
  I  I8  1  0.18175400  0.72777900  0.63914700  1
  I  I9  1  0.90999200  0.62856100  0.18198400  1
  I  I10  1  0.09000800  0.37143900  0.81801600  1
  I  I11  1  0.74048800  0.91341100  0.53371200  1
  I  I12  1  0.25951200  0.08658900  0.46628800  1
  I  I13  1  0.64687100  0.53400600  0.72320000  1
  I  I14  1  0.45501300  0.80967100  0.09214900  1
  I  I15  1  0.81824600  0.27222100  0.36085300  1
  I  I16  1  0.35312900  0.46599400  0.27680000  1
  I  I17  1  0.54498700  0.19032900  0.90785100  1
