# generated using pymatgen
data_Pr5Sn3
_symmetry_space_group_name_H-M   'P 1'
_cell_length_a   9.50677528
_cell_length_b   9.50677528
_cell_length_c   9.50677528
_cell_angle_alpha   96.27780698
_cell_angle_beta   96.27780698
_cell_angle_gamma   141.37988513
_symmetry_Int_Tables_number   1
_chemical_formula_structural   Pr5Sn3
_chemical_formula_sum   'Pr10 Sn6'
_cell_volume   506.11020941
_cell_formula_units_Z   2
loop_
 _symmetry_equiv_pos_site_id
 _symmetry_equiv_pos_as_xyz
  1  'x, y, z'
loop_
 _atom_site_type_symbol
 _atom_site_label
 _atom_site_symmetry_multiplicity
 _atom_site_fract_x
 _atom_site_fract_y
 _atom_site_fract_z
 _atom_site_occupancy
  Pr  Pr0  1  0.58388700  0.28339600  0.86728300  1
  Pr  Pr1  1  0.41611300  0.71660400  0.13271700  1
  Pr  Pr2  1  0.28339600  0.41611300  0.69950900  1
  Pr  Pr3  1  0.91611300  0.78339600  0.69950900  1
  Pr  Pr4  1  0.78339600  0.08388700  0.86728300  1
  Pr  Pr5  1  0.25000000  0.75000000  0.50000000  1
  Pr  Pr6  1  0.75000000  0.25000000  0.50000000  1
  Pr  Pr7  1  0.08388700  0.21660400  0.30049100  1
  Pr  Pr8  1  0.71660400  0.58388700  0.30049100  1
  Pr  Pr9  1  0.21660400  0.91611300  0.13271700  1
  Sn  Sn10  1  0.33975100  0.16024900  0.50000000  1
  Sn  Sn11  1  0.16024900  0.66024900  0.82049800  1
  Sn  Sn12  1  0.75000000  0.75000000  0.00000000  1
  Sn  Sn13  1  0.83975100  0.33975100  0.17950200  1
  Sn  Sn14  1  0.66024900  0.83975100  0.50000000  1
  Sn  Sn15  1  0.25000000  0.25000000  0.00000000  1
