# generated using pymatgen
data_SiSe2
_symmetry_space_group_name_H-M   'P 1'
_cell_length_a   7.03824680
_cell_length_b   7.03824680
_cell_length_c   7.03824680
_cell_angle_alpha   130.15280481
_cell_angle_beta   124.09750027
_cell_angle_gamma   78.14525844
_symmetry_Int_Tables_number   1
_chemical_formula_structural   SiSe2
_chemical_formula_sum   'Si2 Se4'
_cell_volume   213.85896325
_cell_formula_units_Z   2
loop_
 _symmetry_equiv_pos_site_id
 _symmetry_equiv_pos_as_xyz
  1  'x, y, z'
loop_
 _atom_site_type_symbol
 _atom_site_label
 _atom_site_symmetry_multiplicity
 _atom_site_fract_x
 _atom_site_fract_y
 _atom_site_fract_z
 _atom_site_occupancy
  Si  Si0  1  0.00000000  0.75000000  0.75000000  1
  Si  Si1  1  0.00000000  0.25000000  0.25000000  1
  Se  Se2  1  0.30396100  0.11180600  0.19215500  1
  Se  Se3  1  0.69603900  0.88819400  0.80784500  1
  Se  Se4  1  0.08034900  0.38819400  0.69215500  1
  Se  Se5  1  0.91965100  0.61180600  0.30784500  1
