# generated using pymatgen
data_MoP3Pb2O11
_symmetry_space_group_name_H-M   'P 1'
_cell_length_a   7.20454800
_cell_length_b   6.65140400
_cell_length_c   20.41310849
_cell_angle_alpha   80.32674282
_cell_angle_beta   90.00000000
_cell_angle_gamma   90.00000000
_symmetry_Int_Tables_number   1
_chemical_formula_structural   MoP3Pb2O11
_chemical_formula_sum   'Mo4 P12 Pb8 O44'
_cell_volume   964.29540187
_cell_formula_units_Z   4
loop_
 _symmetry_equiv_pos_site_id
 _symmetry_equiv_pos_as_xyz
  1  'x, y, z'
loop_
 _atom_site_type_symbol
 _atom_site_label
 _atom_site_symmetry_multiplicity
 _atom_site_fract_x
 _atom_site_fract_y
 _atom_site_fract_z
 _atom_site_occupancy
  Mo  Mo0  1  0.62968900  0.04999200  0.62239500  1
  Mo  Mo1  1  0.87031100  0.04999200  0.12239500  1
  Mo  Mo2  1  0.37031100  0.95000800  0.37760500  1
  Mo  Mo3  1  0.12968900  0.95000800  0.87760500  1
  P  P4  1  0.46684800  0.81739800  0.77335800  1
  P  P5  1  0.35547200  0.42970800  0.41127600  1
  P  P6  1  0.85547200  0.57029200  0.08872400  1
  P  P7  1  0.80751100  0.18433500  0.95486100  1
  P  P8  1  0.14452800  0.42970800  0.91127600  1
  P  P9  1  0.96684800  0.18260200  0.72664200  1
  P  P10  1  0.30751100  0.81566500  0.54513900  1
  P  P11  1  0.03315200  0.81739800  0.27335800  1
  P  P12  1  0.53315200  0.18260200  0.22664200  1
  P  P13  1  0.69248900  0.18433500  0.45486100  1
  P  P14  1  0.64452800  0.57029200  0.58872400  1
  P  P15  1  0.19248900  0.81566500  0.04513900  1
  Pb  Pb16  1  0.48178900  0.33079500  0.77133200  1
  Pb  Pb17  1  0.98178900  0.66920500  0.72866800  1
  Pb  Pb18  1  0.11843500  0.32666600  0.57578300  1
  Pb  Pb19  1  0.61843500  0.67333400  0.92421700  1
  Pb  Pb20  1  0.38156500  0.32666600  0.07578300  1
  Pb  Pb21  1  0.51821100  0.66920500  0.22866800  1
  Pb  Pb22  1  0.88156500  0.67333400  0.42421700  1
  Pb  Pb23  1  0.01821100  0.33079500  0.27133200  1
  O  O24  1  0.01575300  0.99427600  0.77988700  1
  O  O25  1  0.17190200  0.67565100  0.58790000  1
  O  O26  1  0.23927100  0.89165400  0.47416700  1
  O  O27  1  0.67190200  0.32434900  0.91210000  1
  O  O28  1  0.86034400  0.68518000  0.29722200  1
  O  O29  1  0.26072900  0.89165400  0.97416700  1
  O  O30  1  0.81325300  0.52950300  0.54790200  1
  O  O31  1  0.18674700  0.47049700  0.45209800  1
  O  O32  1  0.76072900  0.10834600  0.52583300  1
  O  O33  1  0.31325300  0.47049700  0.95209800  1
  O  O34  1  0.51575300  0.00572400  0.72011300  1
  O  O35  1  0.13965600  0.31482000  0.70277800  1
  O  O36  1  0.10200300  0.91047900  0.33519500  1
  O  O37  1  0.67880600  0.32040700  0.25199000  1
  O  O38  1  0.60200300  0.08952100  0.16480500  1
  O  O39  1  0.18260000  0.27809000  0.86316500  1
  O  O40  1  0.49428000  0.68194400  0.53538300  1
  O  O41  1  0.31740000  0.27809000  0.36316500  1
  O  O42  1  0.73927100  0.10834600  0.02583300  1
  O  O43  1  0.55549200  0.37073600  0.62538700  1
  O  O44  1  0.68260000  0.72191000  0.63683500  1
  O  O45  1  0.89799700  0.08952100  0.66480500  1
  O  O46  1  0.00572000  0.68194400  0.03538300  1
  O  O47  1  0.36034400  0.31482000  0.20277800  1
  O  O48  1  0.48424700  0.99427600  0.27988700  1
  O  O49  1  0.36738900  0.99591000  0.57917900  1
  O  O50  1  0.98424700  0.00572400  0.22011300  1
  O  O51  1  0.05549200  0.62926400  0.87461300  1
  O  O52  1  0.32119400  0.67959300  0.74801000  1
  O  O53  1  0.63261100  0.00409000  0.42082100  1
  O  O54  1  0.82119400  0.32040700  0.75199000  1
  O  O55  1  0.63965600  0.68518000  0.79722200  1
  O  O56  1  0.86738900  0.00409000  0.92082100  1
  O  O57  1  0.99428000  0.31805600  0.96461700  1
  O  O58  1  0.50572000  0.31805600  0.46461700  1
  O  O59  1  0.44450800  0.62926400  0.37461300  1
  O  O60  1  0.81740000  0.72191000  0.13683500  1
  O  O61  1  0.68674700  0.52950300  0.04790200  1
  O  O62  1  0.32809800  0.67565100  0.08790000  1
  O  O63  1  0.17880600  0.67959300  0.24801000  1
  O  O64  1  0.13261100  0.99591000  0.07917900  1
  O  O65  1  0.94450800  0.37073600  0.12538700  1
  O  O66  1  0.82809800  0.32434900  0.41210000  1
  O  O67  1  0.39799700  0.91047900  0.83519500  1
