# generated using pymatgen
data_Ga2(SO4)3
_symmetry_space_group_name_H-M   'P 1'
_cell_length_a   8.78369863
_cell_length_b   8.78369863
_cell_length_c   8.78369888
_cell_angle_alpha   55.59406658
_cell_angle_beta   55.59406658
_cell_angle_gamma   55.59406111
_symmetry_Int_Tables_number   1
_chemical_formula_structural   Ga2(SO4)3
_chemical_formula_sum   'Ga4 S6 O24'
_cell_volume   430.19925910
_cell_formula_units_Z   2
loop_
 _symmetry_equiv_pos_site_id
 _symmetry_equiv_pos_as_xyz
  1  'x, y, z'
loop_
 _atom_site_type_symbol
 _atom_site_label
 _atom_site_symmetry_multiplicity
 _atom_site_fract_x
 _atom_site_fract_y
 _atom_site_fract_z
 _atom_site_occupancy
  Ga  Ga0  1  0.14383400  0.14383400  0.14383400  1
  Ga  Ga1  1  0.85616600  0.85616600  0.85616600  1
  Ga  Ga2  1  0.34940100  0.34940100  0.34940100  1
  Ga  Ga3  1  0.65059900  0.65059900  0.65059900  1
  S  S4  1  0.03927500  0.45803200  0.75116400  1
  S  S5  1  0.45803200  0.75116400  0.03927500  1
  S  S6  1  0.75116400  0.03927500  0.45803200  1
  S  S7  1  0.96072500  0.54196800  0.24883600  1
  S  S8  1  0.54196800  0.24883600  0.96072500  1
  S  S9  1  0.24883600  0.96072500  0.54196800  1
  O  O10  1  0.01406100  0.61043600  0.79739100  1
  O  O11  1  0.61043600  0.79739100  0.01406100  1
  O  O12  1  0.79739100  0.01406100  0.61043600  1
  O  O13  1  0.98593900  0.38956400  0.20260900  1
  O  O14  1  0.38956400  0.20260900  0.98593900  1
  O  O15  1  0.20260900  0.98593900  0.38956400  1
  O  O16  1  0.84563600  0.47347200  0.78466500  1
  O  O17  1  0.47347200  0.78466500  0.84563600  1
  O  O18  1  0.78466500  0.84563600  0.47347200  1
  O  O19  1  0.15436400  0.52652800  0.21533500  1
  O  O20  1  0.52652800  0.21533500  0.15436400  1
  O  O21  1  0.21533500  0.15436400  0.52652800  1
  O  O22  1  0.17506600  0.48550300  0.54206000  1
  O  O23  1  0.48550300  0.54206000  0.17506600  1
  O  O24  1  0.54206000  0.17506600  0.48550300  1
  O  O25  1  0.82493400  0.51449700  0.45794000  1
  O  O26  1  0.51449700  0.45794000  0.82493400  1
  O  O27  1  0.45794000  0.82493400  0.51449700  1
  O  O28  1  0.12751500  0.25839900  0.88221200  1
  O  O29  1  0.25839900  0.88221200  0.12751500  1
  O  O30  1  0.88221200  0.12751500  0.25839900  1
  O  O31  1  0.87248500  0.74160100  0.11778800  1
  O  O32  1  0.74160100  0.11778800  0.87248500  1
  O  O33  1  0.11778800  0.87248500  0.74160100  1
