# generated using pymatgen
data_VPPbO6
_symmetry_space_group_name_H-M   'P 1'
_cell_length_a   9.96355100
_cell_length_b   5.70066800
_cell_length_c   8.57597536
_cell_angle_alpha   88.77677630
_cell_angle_beta   90.00000000
_cell_angle_gamma   90.00000000
_symmetry_Int_Tables_number   1
_chemical_formula_structural   VPPbO6
_chemical_formula_sum   'V4 P4 Pb4 O24'
_cell_volume   486.99493010
_cell_formula_units_Z   4
loop_
 _symmetry_equiv_pos_site_id
 _symmetry_equiv_pos_as_xyz
  1  'x, y, z'
loop_
 _atom_site_type_symbol
 _atom_site_label
 _atom_site_symmetry_multiplicity
 _atom_site_fract_x
 _atom_site_fract_y
 _atom_site_fract_z
 _atom_site_occupancy
  V  V0  1  0.41096100  0.34686300  0.58881100  1
  V  V1  1  0.91096100  0.65313700  0.91118900  1
  V  V2  1  0.58903900  0.65313700  0.41118900  1
  V  V3  1  0.08903900  0.34686300  0.08881100  1
  P  P4  1  0.60903200  0.66152200  0.78646200  1
  P  P5  1  0.10903200  0.33847800  0.71353800  1
  P  P6  1  0.39096800  0.33847800  0.21353800  1
  P  P7  1  0.89096800  0.66152200  0.28646200  1
  Pb  Pb8  1  0.31480000  0.87634800  0.92635200  1
  Pb  Pb9  1  0.81480000  0.12365200  0.57364800  1
  Pb  Pb10  1  0.68520000  0.12365200  0.07364800  1
  Pb  Pb11  1  0.18520000  0.87634800  0.42635200  1
  O  O12  1  0.34143700  0.25391400  0.37995300  1
  O  O13  1  0.84143700  0.74608600  0.12004700  1
  O  O14  1  0.65856300  0.74608600  0.62004700  1
  O  O15  1  0.15856300  0.25391400  0.87995300  1
  O  O16  1  0.47415700  0.52070200  0.77283000  1
  O  O17  1  0.97415700  0.47929800  0.72717000  1
  O  O18  1  0.52584300  0.47929800  0.22717000  1
  O  O19  1  0.02584300  0.52070200  0.27283000  1
  O  O20  1  0.21996500  0.49673700  0.63910300  1
  O  O21  1  0.71996500  0.50326300  0.86089700  1
  O  O22  1  0.78003500  0.50326300  0.36089700  1
  O  O23  1  0.28003500  0.49673700  0.13910300  1
  O  O24  1  0.36741400  0.09007900  0.67281900  1
  O  O25  1  0.86741400  0.90992100  0.82718100  1
  O  O26  1  0.63258600  0.90992100  0.32718100  1
  O  O27  1  0.13258600  0.09007900  0.17281900  1
  O  O28  1  0.42428400  0.67859000  0.47230400  1
  O  O29  1  0.92428400  0.32141000  0.02769600  1
  O  O30  1  0.57571600  0.32141000  0.52769600  1
  O  O31  1  0.07571600  0.67859000  0.97230400  1
  O  O32  1  0.57459700  0.87283900  0.88822000  1
  O  O33  1  0.07459700  0.12716100  0.61178000  1
  O  O34  1  0.42540300  0.12716100  0.11178000  1
  O  O35  1  0.92540300  0.87283900  0.38822000  1
