# generated using pymatgen
data_Ti2Bi
_symmetry_space_group_name_H-M   'P 1'
_cell_length_a   7.66151513
_cell_length_b   7.66151513
_cell_length_c   7.66151513
_cell_angle_alpha   147.90429388
_cell_angle_beta   147.90429388
_cell_angle_gamma   46.02666768
_symmetry_Int_Tables_number   1
_chemical_formula_structural   Ti2Bi
_chemical_formula_sum   'Ti4 Bi2'
_cell_volume   126.52875324
_cell_formula_units_Z   2
loop_
 _symmetry_equiv_pos_site_id
 _symmetry_equiv_pos_as_xyz
  1  'x, y, z'
loop_
 _atom_site_type_symbol
 _atom_site_label
 _atom_site_symmetry_multiplicity
 _atom_site_fract_x
 _atom_site_fract_y
 _atom_site_fract_z
 _atom_site_occupancy
  Ti  Ti0  1  0.86291500  0.86291500  0.00000000  1
  Ti  Ti1  1  0.00000000  0.50000000  0.50000000  1
  Ti  Ti2  1  0.50000000  0.00000000  0.50000000  1
  Ti  Ti3  1  0.13708500  0.13708500  0.00000000  1
  Bi  Bi4  1  0.65085200  0.65085200  0.00000000  1
  Bi  Bi5  1  0.34914800  0.34914800  0.00000000  1
