# generated using pymatgen
data_Eu3BeO5
_symmetry_space_group_name_H-M   'P 1'
_cell_length_a   6.57633800
_cell_length_b   7.20175600
_cell_length_c   9.52401900
_cell_angle_alpha   90.00000000
_cell_angle_beta   90.00000000
_cell_angle_gamma   90.00000000
_symmetry_Int_Tables_number   1
_chemical_formula_structural   Eu3BeO5
_chemical_formula_sum   'Eu12 Be4 O20'
_cell_volume   451.06879389
_cell_formula_units_Z   4
loop_
 _symmetry_equiv_pos_site_id
 _symmetry_equiv_pos_as_xyz
  1  'x, y, z'
loop_
 _atom_site_type_symbol
 _atom_site_label
 _atom_site_symmetry_multiplicity
 _atom_site_fract_x
 _atom_site_fract_y
 _atom_site_fract_z
 _atom_site_occupancy
  Eu  Eu0  1  0.41059700  0.75000000  0.97847000  1
  Eu  Eu1  1  0.91822500  0.52049600  0.82639900  1
  Eu  Eu2  1  0.41822500  0.02049600  0.67360100  1
  Eu  Eu3  1  0.58177500  0.97950400  0.32639900  1
  Eu  Eu4  1  0.08177500  0.47950400  0.17360100  1
  Eu  Eu5  1  0.41822500  0.47950400  0.67360100  1
  Eu  Eu6  1  0.08940300  0.75000000  0.47847000  1
  Eu  Eu7  1  0.91822500  0.97950400  0.82639900  1
  Eu  Eu8  1  0.58940300  0.25000000  0.02153000  1
  Eu  Eu9  1  0.58177500  0.52049600  0.32639900  1
  Eu  Eu10  1  0.91059700  0.25000000  0.52153000  1
  Eu  Eu11  1  0.08177500  0.02049600  0.17360100  1
  Be  Be12  1  0.19329200  0.25000000  0.89828600  1
  Be  Be13  1  0.80670800  0.75000000  0.10171400  1
  Be  Be14  1  0.30670800  0.25000000  0.39828600  1
  Be  Be15  1  0.69329200  0.75000000  0.60171400  1
  O  O16  1  0.13646200  0.25000000  0.72491900  1
  O  O17  1  0.30758400  0.44336000  0.92933400  1
  O  O18  1  0.83668500  0.25000000  0.27782300  1
  O  O19  1  0.66331500  0.25000000  0.77782300  1
  O  O20  1  0.69241600  0.94336000  0.07066600  1
  O  O21  1  0.30758400  0.05664000  0.92933400  1
  O  O22  1  0.36353800  0.25000000  0.22491900  1
  O  O23  1  0.48169200  0.75000000  0.51025500  1
  O  O24  1  0.86353800  0.75000000  0.27508100  1
  O  O25  1  0.33668500  0.75000000  0.22217700  1
  O  O26  1  0.01830800  0.75000000  0.01025500  1
  O  O27  1  0.80758400  0.55664000  0.57066600  1
  O  O28  1  0.51830800  0.25000000  0.48974500  1
  O  O29  1  0.16331500  0.75000000  0.72217700  1
  O  O30  1  0.69241600  0.55664000  0.07066600  1
  O  O31  1  0.19241600  0.44336000  0.42933400  1
  O  O32  1  0.80758400  0.94336000  0.57066600  1
  O  O33  1  0.63646200  0.75000000  0.77508100  1
  O  O34  1  0.98169200  0.25000000  0.98974500  1
  O  O35  1  0.19241600  0.05664000  0.42933400  1
