# generated using pymatgen
data_CsVP2O7
_symmetry_space_group_name_H-M   'P 1'
_cell_length_a   10.20264800
_cell_length_b   7.84044200
_cell_length_c   8.48798905
_cell_angle_alpha   75.05474120
_cell_angle_beta   90.00000000
_cell_angle_gamma   90.00000000
_symmetry_Int_Tables_number   1
_chemical_formula_structural   CsVP2O7
_chemical_formula_sum   'Cs4 V4 P8 O28'
_cell_volume   656.01384729
_cell_formula_units_Z   4
loop_
 _symmetry_equiv_pos_site_id
 _symmetry_equiv_pos_as_xyz
  1  'x, y, z'
loop_
 _atom_site_type_symbol
 _atom_site_label
 _atom_site_symmetry_multiplicity
 _atom_site_fract_x
 _atom_site_fract_y
 _atom_site_fract_z
 _atom_site_occupancy
  Cs  Cs0  1  0.29702100  0.19796400  0.45969300  1
  Cs  Cs1  1  0.20297900  0.19796400  0.95969300  1
  Cs  Cs2  1  0.70297900  0.80203600  0.54030700  1
  Cs  Cs3  1  0.79702100  0.80203600  0.04030700  1
  V  V4  1  0.60177600  0.24082100  0.74107500  1
  V  V5  1  0.89822400  0.24082100  0.24107500  1
  V  V6  1  0.10177600  0.75917900  0.75892500  1
  V  V7  1  0.39822400  0.75917900  0.25892500  1
  P  P8  1  0.87295200  0.42532900  0.81731400  1
  P  P9  1  0.40447200  0.86809500  0.83262300  1
  P  P10  1  0.12704800  0.57467100  0.18268600  1
  P  P11  1  0.09552800  0.86809500  0.33262300  1
  P  P12  1  0.90447200  0.13190500  0.66737700  1
  P  P13  1  0.37295200  0.57467100  0.68268600  1
  P  P14  1  0.59552800  0.13190500  0.16737700  1
  P  P15  1  0.62704800  0.42532900  0.31731400  1
  O  O16  1  0.58403900  0.16021700  0.98428500  1
  O  O17  1  0.08403900  0.83978300  0.51571500  1
  O  O18  1  0.49536700  0.01125300  0.73458600  1
  O  O19  1  0.04926300  0.68385200  0.29494200  1
  O  O20  1  0.95073700  0.31614800  0.70505800  1
  O  O21  1  0.54926300  0.31614800  0.20505800  1
  O  O22  1  0.50463300  0.98874700  0.26541400  1
  O  O23  1  0.43310600  0.38988200  0.72899300  1
  O  O24  1  0.45073700  0.68385200  0.79494200  1
  O  O25  1  0.77164900  0.43678200  0.26638300  1
  O  O26  1  0.56689400  0.61011800  0.27100700  1
  O  O27  1  0.93310600  0.61011800  0.77100700  1
  O  O28  1  0.39903800  0.67682100  0.50670700  1
  O  O29  1  0.76267000  0.09411500  0.73015600  1
  O  O30  1  0.06689400  0.38988200  0.22899300  1
  O  O31  1  0.60096200  0.32317900  0.49329300  1
  O  O32  1  0.22835100  0.56321800  0.73361700  1
  O  O33  1  0.89903800  0.32317900  0.99329300  1
  O  O34  1  0.91596100  0.16021700  0.48428500  1
  O  O35  1  0.27164900  0.56321800  0.23361700  1
  O  O36  1  0.10096200  0.67682100  0.00670700  1
  O  O37  1  0.73733000  0.09411500  0.23015600  1
  O  O38  1  0.99536700  0.98874700  0.76541400  1
  O  O39  1  0.72835100  0.43678200  0.76638300  1
  O  O40  1  0.23733000  0.90588500  0.26984400  1
  O  O41  1  0.26267000  0.90588500  0.76984400  1
  O  O42  1  0.41596100  0.83978300  0.01571500  1
  O  O43  1  0.00463300  0.01125300  0.23458600  1
