# generated using pymatgen
data_KSbO3
_symmetry_space_group_name_H-M   'P 1'
_cell_length_a   6.97041255
_cell_length_b   6.97041255
_cell_length_c   6.97041317
_cell_angle_alpha   46.25064804
_cell_angle_beta   46.25064804
_cell_angle_gamma   46.25064605
_symmetry_Int_Tables_number   1
_chemical_formula_structural   KSbO3
_chemical_formula_sum   'K2 Sb2 O6'
_cell_volume   161.28228927
_cell_formula_units_Z   2
loop_
 _symmetry_equiv_pos_site_id
 _symmetry_equiv_pos_as_xyz
  1  'x, y, z'
loop_
 _atom_site_type_symbol
 _atom_site_label
 _atom_site_symmetry_multiplicity
 _atom_site_fract_x
 _atom_site_fract_y
 _atom_site_fract_z
 _atom_site_occupancy
  K  K0  1  0.63891600  0.63891600  0.63891600  1
  K  K1  1  0.36108400  0.36108400  0.36108400  1
  Sb  Sb2  1  0.83575700  0.83575700  0.83575700  1
  Sb  Sb3  1  0.16424300  0.16424300  0.16424300  1
  O  O4  1  0.83554400  0.03492800  0.44264800  1
  O  O5  1  0.44264800  0.83554400  0.03492800  1
  O  O6  1  0.03492800  0.44264800  0.83554400  1
  O  O7  1  0.16445600  0.96507200  0.55735200  1
  O  O8  1  0.55735200  0.16445600  0.96507200  1
  O  O9  1  0.96507200  0.55735200  0.16445600  1
