# generated using pymatgen
data_NiSnF6
_symmetry_space_group_name_H-M   'P 1'
_cell_length_a   5.54645353
_cell_length_b   5.54645353
_cell_length_c   5.54645279
_cell_angle_alpha   56.07027673
_cell_angle_beta   56.07027673
_cell_angle_gamma   56.07027462
_symmetry_Int_Tables_number   1
_chemical_formula_structural   NiSnF6
_chemical_formula_sum   'Ni1 Sn1 F6'
_cell_volume   109.67044911
_cell_formula_units_Z   1
loop_
 _symmetry_equiv_pos_site_id
 _symmetry_equiv_pos_as_xyz
  1  'x, y, z'
loop_
 _atom_site_type_symbol
 _atom_site_label
 _atom_site_symmetry_multiplicity
 _atom_site_fract_x
 _atom_site_fract_y
 _atom_site_fract_z
 _atom_site_occupancy
  Ni  Ni0  1  0.50000000  0.50000000  0.50000000  1
  Sn  Sn1  1  0.00000000  0.00000000  0.00000000  1
  F  F2  1  0.37488400  0.75100600  0.12220400  1
  F  F3  1  0.75100600  0.12220400  0.37488400  1
  F  F4  1  0.87779600  0.62511600  0.24899400  1
  F  F5  1  0.24899400  0.87779600  0.62511600  1
  F  F6  1  0.62511600  0.24899400  0.87779600  1
  F  F7  1  0.12220400  0.37488400  0.75100600  1
