# generated using pymatgen
data_MgTlP(H6O5)2
_symmetry_space_group_name_H-M   'P 1'
_cell_length_a   6.14284600
_cell_length_b   6.90910600
_cell_length_c   11.36622400
_cell_angle_alpha   90.00000000
_cell_angle_beta   90.00000000
_cell_angle_gamma   90.00000000
_symmetry_Int_Tables_number   1
_chemical_formula_structural   MgTlP(H6O5)2
_chemical_formula_sum   'Mg2 Tl2 P2 H24 O20'
_cell_volume   482.40043877
_cell_formula_units_Z   2
loop_
 _symmetry_equiv_pos_site_id
 _symmetry_equiv_pos_as_xyz
  1  'x, y, z'
loop_
 _atom_site_type_symbol
 _atom_site_label
 _atom_site_symmetry_multiplicity
 _atom_site_fract_x
 _atom_site_fract_y
 _atom_site_fract_z
 _atom_site_occupancy
  Mg  Mg0  1  0.38319400  0.50000000  0.87825900  1
  Mg  Mg1  1  0.61680600  0.00000000  0.37825900  1
  Tl  Tl2  1  0.62833000  0.00000000  0.73315200  1
  Tl  Tl3  1  0.37167000  0.50000000  0.23315200  1
  P  P4  1  0.01375400  0.00000000  0.01253600  1
  P  P5  1  0.98624600  0.50000000  0.51253600  1
  H  H6  1  0.16830200  0.00000000  0.34266400  1
  H  H7  1  0.60399200  0.32350000  0.52300000  1
  H  H8  1  0.80025100  0.20480000  0.18995300  1
  H  H9  1  0.82685800  0.67582700  0.31137900  1
  H  H10  1  0.19974900  0.29520000  0.68995300  1
  H  H11  1  0.60399200  0.67650000  0.52300000  1
  H  H12  1  0.00683400  0.61780600  0.00093900  1
  H  H13  1  0.80025100  0.79520000  0.18995300  1
  H  H14  1  0.19974900  0.70480000  0.68995300  1
  H  H15  1  0.17314200  0.82417300  0.81137900  1
  H  H16  1  0.27224200  0.00000000  0.21137300  1
  H  H17  1  0.64387000  0.24939100  0.01160200  1
  H  H18  1  0.39600800  0.82350000  0.02300000  1
  H  H19  1  0.17314200  0.17582700  0.81137900  1
  H  H20  1  0.35613000  0.74939100  0.51160200  1
  H  H21  1  0.99316600  0.11780600  0.50093900  1
  H  H22  1  0.72775800  0.50000000  0.71137300  1
  H  H23  1  0.00683400  0.38219400  0.00093900  1
  H  H24  1  0.39600800  0.17650000  0.02300000  1
  H  H25  1  0.83169800  0.50000000  0.84266400  1
  H  H26  1  0.82685800  0.32417300  0.31137900  1
  H  H27  1  0.99316600  0.88219400  0.50093900  1
  H  H28  1  0.64387000  0.75060900  0.01160200  1
  H  H29  1  0.35613000  0.25060900  0.51160200  1
  O  O30  1  0.51085100  0.78881600  0.49650400  1
  O  O31  1  0.69350200  0.50000000  0.79841100  1
  O  O32  1  0.73156600  0.77318300  0.26948100  1
  O  O33  1  0.89203300  0.81453800  0.05477800  1
  O  O34  1  0.26843400  0.72681700  0.76948100  1
  O  O35  1  0.10796700  0.68546200  0.55477800  1
  O  O36  1  0.96625200  0.50000000  0.37645000  1
  O  O37  1  0.24644500  0.00000000  0.06899700  1
  O  O38  1  0.26843400  0.27318300  0.76948100  1
  O  O39  1  0.48914900  0.71118400  0.99650400  1
  O  O40  1  0.73156600  0.22681700  0.26948100  1
  O  O41  1  0.51085100  0.21118400  0.49650400  1
  O  O42  1  0.30649800  0.00000000  0.29841100  1
  O  O43  1  0.75355500  0.50000000  0.56899700  1
  O  O44  1  0.89203300  0.18546200  0.05477800  1
  O  O45  1  0.06562600  0.50000000  0.95904400  1
  O  O46  1  0.03374800  0.00000000  0.87645000  1
  O  O47  1  0.10796700  0.31453800  0.55477800  1
  O  O48  1  0.93437400  0.00000000  0.45904400  1
  O  O49  1  0.48914900  0.28881600  0.99650400  1
