# generated using pymatgen
data_SrZr4(PO4)6
_symmetry_space_group_name_H-M   'P 1'
_cell_length_a   9.38707760
_cell_length_b   9.38707760
_cell_length_c   9.38707776
_cell_angle_alpha   56.29904110
_cell_angle_beta   56.29904110
_cell_angle_gamma   56.29903671
_symmetry_Int_Tables_number   1
_chemical_formula_structural   SrZr4(PO4)6
_chemical_formula_sum   'Sr1 Zr4 P6 O24'
_cell_volume   534.81245941
_cell_formula_units_Z   1
loop_
 _symmetry_equiv_pos_site_id
 _symmetry_equiv_pos_as_xyz
  1  'x, y, z'
loop_
 _atom_site_type_symbol
 _atom_site_label
 _atom_site_symmetry_multiplicity
 _atom_site_fract_x
 _atom_site_fract_y
 _atom_site_fract_z
 _atom_site_occupancy
  Sr  Sr0  1  0.50000000  0.50000000  0.50000000  1
  Zr  Zr1  1  0.85616600  0.85616600  0.85616600  1
  Zr  Zr2  1  0.14383400  0.14383400  0.14383400  1
  Zr  Zr3  1  0.35024900  0.35024900  0.35024900  1
  Zr  Zr4  1  0.64975100  0.64975100  0.64975100  1
  P  P5  1  0.04323400  0.74490700  0.46834800  1
  P  P6  1  0.74490700  0.46834800  0.04323400  1
  P  P7  1  0.46834800  0.04323400  0.74490700  1
  P  P8  1  0.53165200  0.95676600  0.25509300  1
  P  P9  1  0.95676600  0.25509300  0.53165200  1
  P  P10  1  0.25509300  0.53165200  0.95676600  1
  O  O11  1  0.31269600  0.04362700  0.93118800  1
  O  O12  1  0.29843400  0.49868500  0.11156800  1
  O  O13  1  0.74399600  0.64488000  0.01965300  1
  O  O14  1  0.49868500  0.11156800  0.29843400  1
  O  O15  1  0.23095100  0.59292800  0.41253600  1
  O  O16  1  0.50131500  0.88843200  0.70156600  1
  O  O17  1  0.68730400  0.95637300  0.06881200  1
  O  O18  1  0.01965300  0.74399600  0.64488000  1
  O  O19  1  0.41253600  0.23095100  0.59292800  1
  O  O20  1  0.40707200  0.58746400  0.76904900  1
  O  O21  1  0.98034700  0.25600400  0.35512000  1
  O  O22  1  0.76904900  0.40707200  0.58746400  1
  O  O23  1  0.88843200  0.70156600  0.50131500  1
  O  O24  1  0.70156600  0.50131500  0.88843200  1
  O  O25  1  0.11156800  0.29843400  0.49868500  1
  O  O26  1  0.95637300  0.06881200  0.68730400  1
  O  O27  1  0.59292800  0.41253600  0.23095100  1
  O  O28  1  0.35512000  0.98034700  0.25600400  1
  O  O29  1  0.06881200  0.68730400  0.95637300  1
  O  O30  1  0.04362700  0.93118800  0.31269600  1
  O  O31  1  0.58746400  0.76904900  0.40707200  1
  O  O32  1  0.25600400  0.35512000  0.98034700  1
  O  O33  1  0.93118800  0.31269600  0.04362700  1
  O  O34  1  0.64488000  0.01965300  0.74399600  1
