# generated using pymatgen
data_SnSe2(Cl4O)2
_symmetry_space_group_name_H-M   'P 1'
_cell_length_a   6.84376406
_cell_length_b   6.84376406
_cell_length_c   16.84812410
_cell_angle_alpha   86.03480826
_cell_angle_beta   86.03480826
_cell_angle_gamma   89.37500008
_symmetry_Int_Tables_number   1
_chemical_formula_structural   SnSe2(Cl4O)2
_chemical_formula_sum   'Sn2 Se4 Cl16 O4'
_cell_volume   785.32911789
_cell_formula_units_Z   2
loop_
 _symmetry_equiv_pos_site_id
 _symmetry_equiv_pos_as_xyz
  1  'x, y, z'
loop_
 _atom_site_type_symbol
 _atom_site_label
 _atom_site_symmetry_multiplicity
 _atom_site_fract_x
 _atom_site_fract_y
 _atom_site_fract_z
 _atom_site_occupancy
  Sn  Sn0  1  0.19935600  0.80064400  0.75000000  1
  Sn  Sn1  1  0.80064400  0.19935600  0.25000000  1
  Se  Se2  1  0.78659000  0.90153500  0.86646500  1
  Se  Se3  1  0.09846500  0.21341000  0.63353500  1
  Se  Se4  1  0.21341000  0.09846500  0.13353500  1
  Se  Se5  1  0.90153500  0.78659000  0.36646500  1
  Cl  Cl6  1  0.16703800  0.69544800  0.42554000  1
  Cl  Cl7  1  0.83296200  0.30455200  0.57446000  1
  Cl  Cl8  1  0.30455200  0.83296200  0.07446000  1
  Cl  Cl9  1  0.40865300  0.08937600  0.74061300  1
  Cl  Cl10  1  0.91062400  0.59134700  0.75938700  1
  Cl  Cl11  1  0.08937600  0.40865300  0.24061300  1
  Cl  Cl12  1  0.70719300  0.81903800  0.47450000  1
  Cl  Cl13  1  0.64243000  0.36343100  0.14187200  1
  Cl  Cl14  1  0.35757000  0.63656900  0.85812800  1
  Cl  Cl15  1  0.36343100  0.64243000  0.64187200  1
  Cl  Cl16  1  0.69544800  0.16703800  0.92554000  1
  Cl  Cl17  1  0.81903800  0.70719300  0.97450000  1
  Cl  Cl18  1  0.18096200  0.29280700  0.02550000  1
  Cl  Cl19  1  0.63656900  0.35757000  0.35812800  1
  Cl  Cl20  1  0.29280700  0.18096200  0.52550000  1
  Cl  Cl21  1  0.59134700  0.91062400  0.25938700  1
  O  O22  1  0.02813400  0.98189100  0.66320200  1
  O  O23  1  0.97186600  0.01810900  0.33679800  1
  O  O24  1  0.98189100  0.02813400  0.16320200  1
  O  O25  1  0.01810900  0.97186600  0.83679800  1
