# generated using pymatgen
data_Cs3LaCl6
_symmetry_space_group_name_H-M   'P 1'
_cell_length_a   14.48316547
_cell_length_b   14.48316547
_cell_length_c   13.75087156
_cell_angle_alpha   80.51595346
_cell_angle_beta   80.51595346
_cell_angle_gamma   33.72230286
_symmetry_Int_Tables_number   1
_chemical_formula_structural   Cs3LaCl6
_chemical_formula_sum   'Cs12 La4 Cl24'
_cell_volume   1577.41997700
_cell_formula_units_Z   4
loop_
 _symmetry_equiv_pos_site_id
 _symmetry_equiv_pos_as_xyz
  1  'x, y, z'
loop_
 _atom_site_type_symbol
 _atom_site_label
 _atom_site_symmetry_multiplicity
 _atom_site_fract_x
 _atom_site_fract_y
 _atom_site_fract_z
 _atom_site_occupancy
  Cs  Cs0  1  0.64944300  0.02438100  0.80311900  1
  Cs  Cs1  1  0.53325000  0.16221400  0.14483000  1
  Cs  Cs2  1  0.46675000  0.83778600  0.85517000  1
  Cs  Cs3  1  0.97561900  0.35055700  0.69688100  1
  Cs  Cs4  1  0.30922000  0.78709200  0.57053100  1
  Cs  Cs5  1  0.35055700  0.97561900  0.19688100  1
  Cs  Cs6  1  0.83778600  0.46675000  0.35517000  1
  Cs  Cs7  1  0.02438100  0.64944300  0.30311900  1
  Cs  Cs8  1  0.69078000  0.21290800  0.42946900  1
  Cs  Cs9  1  0.21290800  0.69078000  0.92946900  1
  Cs  Cs10  1  0.78709200  0.30922000  0.07053100  1
  Cs  Cs11  1  0.16221400  0.53325000  0.64483000  1
  La  La12  1  0.20777300  0.79222700  0.25000000  1
  La  La13  1  0.50000000  0.00000000  0.50000000  1
  La  La14  1  0.79222700  0.20777300  0.75000000  1
  La  La15  1  0.00000000  0.50000000  0.00000000  1
  Cl  Cl16  1  0.27323200  0.38746300  0.92067100  1
  Cl  Cl17  1  0.38746300  0.27323200  0.42067100  1
  Cl  Cl18  1  0.02086600  0.09950800  0.29739100  1
  Cl  Cl19  1  0.86142600  0.63535400  0.81370100  1
  Cl  Cl20  1  0.61253700  0.72676800  0.57932900  1
  Cl  Cl21  1  0.09950800  0.02086600  0.79739100  1
  Cl  Cl22  1  0.15437200  0.20639100  0.96978700  1
  Cl  Cl23  1  0.84562800  0.79360900  0.03021300  1
  Cl  Cl24  1  0.73284600  0.15160700  0.93527800  1
  Cl  Cl25  1  0.63535400  0.86142600  0.31370100  1
  Cl  Cl26  1  0.84839300  0.26715400  0.56472200  1
  Cl  Cl27  1  0.61541100  0.49660000  0.82507800  1
  Cl  Cl28  1  0.38458900  0.50340000  0.17492200  1
  Cl  Cl29  1  0.97913400  0.90049200  0.70260900  1
  Cl  Cl30  1  0.79360900  0.84562800  0.53021300  1
  Cl  Cl31  1  0.90049200  0.97913400  0.20260900  1
  Cl  Cl32  1  0.49660000  0.61541100  0.32507800  1
  Cl  Cl33  1  0.26715400  0.84839300  0.06472200  1
  Cl  Cl34  1  0.72676800  0.61253700  0.07932900  1
  Cl  Cl35  1  0.15160700  0.73284600  0.43527800  1
  Cl  Cl36  1  0.50340000  0.38458900  0.67492200  1
  Cl  Cl37  1  0.13857400  0.36464600  0.18629900  1
  Cl  Cl38  1  0.36464600  0.13857400  0.68629900  1
  Cl  Cl39  1  0.20639100  0.15437200  0.46978700  1
