# generated using pymatgen
data_Th2P2O9
_symmetry_space_group_name_H-M   'P 1'
_cell_length_a   5.89523696
_cell_length_b   5.89523696
_cell_length_c   12.99896300
_cell_angle_alpha   90.00000000
_cell_angle_beta   90.00000000
_cell_angle_gamma   103.90759943
_symmetry_Int_Tables_number   1
_chemical_formula_structural   Th2P2O9
_chemical_formula_sum   'Th4 P4 O18'
_cell_volume   438.51997940
_cell_formula_units_Z   2
loop_
 _symmetry_equiv_pos_site_id
 _symmetry_equiv_pos_as_xyz
  1  'x, y, z'
loop_
 _atom_site_type_symbol
 _atom_site_label
 _atom_site_symmetry_multiplicity
 _atom_site_fract_x
 _atom_site_fract_y
 _atom_site_fract_z
 _atom_site_occupancy
  Th  Th0  1  0.29279000  0.70721000  0.57292300  1
  Th  Th1  1  0.70721000  0.29279000  0.42707700  1
  Th  Th2  1  0.20721000  0.79279000  0.07292300  1
  Th  Th3  1  0.79279000  0.20721000  0.92707700  1
  P  P4  1  0.38884800  0.61115200  0.85960700  1
  P  P5  1  0.11115200  0.88884800  0.35960700  1
  P  P6  1  0.61115200  0.38884800  0.14039300  1
  P  P7  1  0.88884800  0.11115200  0.64039300  1
  O  O8  1  0.05211000  0.94789000  0.62303000  1
  O  O9  1  0.98349700  0.35105900  0.58399500  1
  O  O10  1  0.14636100  0.85363900  0.24457100  1
  O  O11  1  0.48349700  0.85105900  0.91600500  1
  O  O12  1  0.64894100  0.01650300  0.58399500  1
  O  O13  1  0.44789000  0.55211000  0.12303000  1
  O  O14  1  0.85105900  0.48349700  0.08399500  1
  O  O15  1  0.64636100  0.35363900  0.25542900  1
  O  O16  1  0.94789000  0.05211000  0.37697000  1
  O  O17  1  0.35105900  0.98349700  0.41600500  1
  O  O18  1  0.35363900  0.64636100  0.74457100  1
  O  O19  1  0.51650300  0.14894100  0.08399500  1
  O  O20  1  0.55211000  0.44789000  0.87697000  1
  O  O21  1  0.50000000  0.50000000  0.50000000  1
  O  O22  1  0.85363900  0.14636100  0.75542900  1
  O  O23  1  0.14894100  0.51650300  0.91600500  1
  O  O24  1  0.01650300  0.64894100  0.41600500  1
  O  O25  1  0.00000000  0.00000000  0.00000000  1
