# generated using pymatgen
data_Ca2CoTeO6
_symmetry_space_group_name_H-M   'P 1'
_cell_length_a   7.89622354
_cell_length_b   7.89452491
_cell_length_c   9.52811568
_cell_angle_alpha   113.49572466
_cell_angle_beta   113.50684805
_cell_angle_gamma   91.67892810
_symmetry_Int_Tables_number   1
_chemical_formula_structural   Ca2CoTeO6
_chemical_formula_sum   'Ca8 Co4 Te4 O24'
_cell_volume   486.82059092
_cell_formula_units_Z   4
loop_
 _symmetry_equiv_pos_site_id
 _symmetry_equiv_pos_as_xyz
  1  'x, y, z'
loop_
 _atom_site_type_symbol
 _atom_site_label
 _atom_site_symmetry_multiplicity
 _atom_site_fract_x
 _atom_site_fract_y
 _atom_site_fract_z
 _atom_site_occupancy
  Ca  Ca0  1  0.15789400  0.10616500  0.25113000  1
  Ca  Ca1  1  0.65789100  0.60614600  0.25110000  1
  Ca  Ca2  1  0.34212700  0.39383000  0.74888200  1
  Ca  Ca3  1  0.84208500  0.89385100  0.74887900  1
  Ca  Ca4  1  0.64383800  0.09208000  0.24886000  1
  Ca  Ca5  1  0.14381900  0.59208200  0.24886700  1
  Ca  Ca6  1  0.85614700  0.40791000  0.75113500  1
  Ca  Ca7  1  0.35618600  0.90792500  0.75112500  1
  Co  Co8  1  0.24999100  0.24999600  0.99998500  1
  Co  Co9  1  0.99998600  0.49998500  0.49996900  1
  Co  Co10  1  0.74999200  0.74999600  0.99998300  1
  Co  Co11  1  0.50000300  0.99999700  0.49999300  1
  Te  Te12  1  0.74998900  0.25002000  0.00005300  1
  Te  Te13  1  0.24998800  0.74999800  0.99993200  1
  Te  Te14  1  0.49999200  0.49999300  0.49993700  1
  Te  Te15  1  0.00002500  0.99997800  0.50004700  1
  O  O16  1  0.52201400  0.23720400  0.44719700  1
  O  O17  1  0.02197900  0.73740500  0.44714100  1
  O  O18  1  0.98726100  0.77200700  0.94722800  1
  O  O19  1  0.48746800  0.27195800  0.94713700  1
  O  O20  1  0.97801100  0.26255800  0.55277600  1
  O  O21  1  0.47800600  0.76281100  0.55281400  1
  O  O22  1  0.51275800  0.72802300  0.05280300  1
  O  O23  1  0.01249300  0.22802500  0.05276100  1
  O  O24  1  0.73667300  0.92820600  0.45417700  1
  O  O25  1  0.23693600  0.42819900  0.45422600  1
  O  O26  1  0.17823100  0.48682000  0.95423400  1
  O  O27  1  0.67820100  0.98661700  0.95416500  1
  O  O28  1  0.76307800  0.57183900  0.54588200  1
  O  O29  1  0.26328900  0.07181600  0.54581100  1
  O  O30  1  0.32181000  0.01320200  0.04587500  1
  O  O31  1  0.82181400  0.51333900  0.04581800  1
  O  O32  1  0.69446700  0.16028200  0.75917200  1
  O  O33  1  0.19461000  0.66038500  0.75939400  1
  O  O34  1  0.58970700  0.55551800  0.74083900  1
  O  O35  1  0.08959800  0.05539100  0.74067400  1
  O  O36  1  0.80541600  0.33961500  0.24065300  1
  O  O37  1  0.30554600  0.83969700  0.24082000  1
  O  O38  1  0.91028300  0.94449900  0.25918100  1
  O  O39  1  0.41039300  0.44463100  0.25934800  1
