# generated using pymatgen
data_La2SiO5
_symmetry_space_group_name_H-M   'P 1'
_cell_length_a   7.72617800
_cell_length_b   7.01451000
_cell_length_c   9.35622579
_cell_angle_alpha   70.96218595
_cell_angle_beta   90.00000000
_cell_angle_gamma   90.00000000
_symmetry_Int_Tables_number   1
_chemical_formula_structural   La2SiO5
_chemical_formula_sum   'La8 Si4 O20'
_cell_volume   479.32933494
_cell_formula_units_Z   4
loop_
 _symmetry_equiv_pos_site_id
 _symmetry_equiv_pos_as_xyz
  1  'x, y, z'
loop_
 _atom_site_type_symbol
 _atom_site_label
 _atom_site_symmetry_multiplicity
 _atom_site_fract_x
 _atom_site_fract_y
 _atom_site_fract_z
 _atom_site_occupancy
  La  La0  1  0.12643700  0.73104200  0.49066800  1
  La  La1  1  0.62643700  0.76895800  0.50933200  1
  La  La2  1  0.87356300  0.26895800  0.50933200  1
  La  La3  1  0.37356300  0.23104200  0.49066800  1
  La  La4  1  0.65984100  0.90481800  0.88902500  1
  La  La5  1  0.15984100  0.59518200  0.11097500  1
  La  La6  1  0.34015900  0.09518200  0.11097500  1
  La  La7  1  0.84015900  0.40481800  0.88902500  1
  Si  Si8  1  0.07213900  0.95719900  0.79961900  1
  Si  Si9  1  0.57213900  0.54280100  0.20038100  1
  Si  Si10  1  0.92786100  0.04280100  0.20038100  1
  Si  Si11  1  0.42786100  0.45719900  0.79961900  1
  O  O12  1  0.87389500  0.54924500  0.61005500  1
  O  O13  1  0.37389500  0.95075500  0.38994500  1
  O  O14  1  0.12610500  0.45075500  0.38994500  1
  O  O15  1  0.62610500  0.04924500  0.61005500  1
  O  O16  1  0.23273700  0.94993500  0.91259900  1
  O  O17  1  0.73273700  0.55006500  0.08740100  1
  O  O18  1  0.76726300  0.05006500  0.08740100  1
  O  O19  1  0.26726300  0.44993500  0.91259900  1
  O  O20  1  0.13137600  0.00374600  0.62162700  1
  O  O21  1  0.63137600  0.49625400  0.37837300  1
  O  O22  1  0.86862400  0.99625400  0.37837300  1
  O  O23  1  0.36862400  0.50374600  0.62162700  1
  O  O24  1  0.57730900  0.63277300  0.78797900  1
  O  O25  1  0.07730900  0.86722700  0.21202100  1
  O  O26  1  0.42269100  0.36722700  0.21202100  1
  O  O27  1  0.92269100  0.13277300  0.78797900  1
  O  O28  1  0.53776000  0.24388200  0.86880700  1
  O  O29  1  0.03776000  0.25611800  0.13119300  1
  O  O30  1  0.46224000  0.75611800  0.13119300  1
  O  O31  1  0.96224000  0.74388200  0.86880700  1
