# generated using pymatgen
data_TlSbO3
_symmetry_space_group_name_H-M   'P 1'
_cell_length_a   5.41372579
_cell_length_b   5.41372579
_cell_length_c   15.04376800
_cell_angle_alpha   90.00000000
_cell_angle_beta   90.00000000
_cell_angle_gamma   119.99999741
_symmetry_Int_Tables_number   1
_chemical_formula_structural   TlSbO3
_chemical_formula_sum   'Tl4 Sb4 O12'
_cell_volume   381.83855612
_cell_formula_units_Z   4
loop_
 _symmetry_equiv_pos_site_id
 _symmetry_equiv_pos_as_xyz
  1  'x, y, z'
loop_
 _atom_site_type_symbol
 _atom_site_label
 _atom_site_symmetry_multiplicity
 _atom_site_fract_x
 _atom_site_fract_y
 _atom_site_fract_z
 _atom_site_occupancy
  Tl  Tl0  1  0.66666700  0.33333300  0.92633000  1
  Tl  Tl1  1  0.33333300  0.66666700  0.42633000  1
  Tl  Tl2  1  0.33333300  0.66666700  0.07367000  1
  Tl  Tl3  1  0.66666700  0.33333300  0.57367000  1
  Sb  Sb4  1  0.66666700  0.33333300  0.25000000  1
  Sb  Sb5  1  0.00000000  0.00000000  0.25000000  1
  Sb  Sb6  1  0.33333300  0.66666700  0.75000000  1
  Sb  Sb7  1  0.00000000  0.00000000  0.75000000  1
  O  O8  1  0.28242500  0.33333000  0.82522200  1
  O  O9  1  0.71757500  0.05090500  0.32522200  1
  O  O10  1  0.71757500  0.66667000  0.17477800  1
  O  O11  1  0.05090500  0.33333000  0.67477800  1
  O  O12  1  0.94909500  0.28242500  0.17477800  1
  O  O13  1  0.33333000  0.05090500  0.17477800  1
  O  O14  1  0.66667000  0.71757500  0.67477800  1
  O  O15  1  0.05090500  0.71757500  0.82522200  1
  O  O16  1  0.33333000  0.28242500  0.32522200  1
  O  O17  1  0.66667000  0.94909500  0.82522200  1
  O  O18  1  0.94909500  0.66667000  0.32522200  1
  O  O19  1  0.28242500  0.94909500  0.67477800  1
