# generated using pymatgen
data_U2Ni12P7
_symmetry_space_group_name_H-M   'P 1'
_cell_length_a   9.06861255
_cell_length_b   9.06861255
_cell_length_c   3.67033600
_cell_angle_alpha   90.00000000
_cell_angle_beta   90.00000000
_cell_angle_gamma   120.00000399
_symmetry_Int_Tables_number   1
_chemical_formula_structural   U2Ni12P7
_chemical_formula_sum   'U2 Ni12 P7'
_cell_volume   261.40755321
_cell_formula_units_Z   1
loop_
 _symmetry_equiv_pos_site_id
 _symmetry_equiv_pos_as_xyz
  1  'x, y, z'
loop_
 _atom_site_type_symbol
 _atom_site_label
 _atom_site_symmetry_multiplicity
 _atom_site_fract_x
 _atom_site_fract_y
 _atom_site_fract_z
 _atom_site_occupancy
  U  U0  1  0.00000000  0.00000000  0.00000000  1
  U  U1  1  0.33333300  0.66666700  0.50000000  1
  Ni  Ni2  1  0.09964400  0.38968100  0.00000000  1
  Ni  Ni3  1  0.29003700  0.90035600  0.00000000  1
  Ni  Ni4  1  0.61031900  0.70996300  0.00000000  1
  Ni  Ni5  1  0.82036400  0.60762800  0.00000000  1
  Ni  Ni6  1  0.78726400  0.17963600  0.00000000  1
  Ni  Ni7  1  0.39237200  0.21273600  0.00000000  1
  Ni  Ni8  1  0.05362300  0.76410000  0.50000000  1
  Ni  Ni9  1  0.71047700  0.94637700  0.50000000  1
  Ni  Ni10  1  0.23590000  0.28952300  0.50000000  1
  Ni  Ni11  1  0.88261100  0.42552000  0.50000000  1
  Ni  Ni12  1  0.54290800  0.11738900  0.50000000  1
  Ni  Ni13  1  0.57448000  0.45709200  0.50000000  1
  P  P14  1  0.07367300  0.62518900  0.00000000  1
  P  P15  1  0.55151600  0.92632700  0.00000000  1
  P  P16  1  0.37481100  0.44848400  0.00000000  1
  P  P17  1  0.78114900  0.73895300  0.50000000  1
  P  P18  1  0.95780400  0.21885100  0.50000000  1
  P  P19  1  0.26104700  0.04219600  0.50000000  1
  P  P20  1  0.66666700  0.33333300  0.00000000  1
