# generated using pymatgen
data_Cs2As4Pd3O14
_symmetry_space_group_name_H-M   'P 1'
_cell_length_a   16.56039600
_cell_length_b   16.56039600
_cell_length_c   6.17352000
_cell_angle_alpha   90.00000000
_cell_angle_beta   90.00000000
_cell_angle_gamma   90.00000000
_symmetry_Int_Tables_number   1
_chemical_formula_structural   Cs2As4Pd3O14
_chemical_formula_sum   'Cs8 As16 Pd12 O56'
_cell_volume   1693.06758417
_cell_formula_units_Z   4
loop_
 _symmetry_equiv_pos_site_id
 _symmetry_equiv_pos_as_xyz
  1  'x, y, z'
loop_
 _atom_site_type_symbol
 _atom_site_label
 _atom_site_symmetry_multiplicity
 _atom_site_fract_x
 _atom_site_fract_y
 _atom_site_fract_z
 _atom_site_occupancy
  Cs  Cs0  1  0.76262300  0.91846300  0.47249600  1
  Cs  Cs1  1  0.58153700  0.26262300  0.47249600  1
  Cs  Cs2  1  0.73737700  0.58153700  0.52750400  1
  Cs  Cs3  1  0.41846300  0.73737700  0.47249600  1
  Cs  Cs4  1  0.91846300  0.23737700  0.52750400  1
  Cs  Cs5  1  0.26262300  0.41846300  0.52750400  1
  Cs  Cs6  1  0.08153700  0.76262300  0.52750400  1
  Cs  Cs7  1  0.23737700  0.08153700  0.47249600  1
  As  As8  1  0.65148000  0.08201800  0.92019100  1
  As  As9  1  0.57165400  0.65711900  0.00262900  1
  As  As10  1  0.07165400  0.15711900  0.99737100  1
  As  As11  1  0.41798200  0.15148000  0.92019100  1
  As  As12  1  0.65711900  0.42834600  0.99737100  1
  As  As13  1  0.34852000  0.91798200  0.92019100  1
  As  As14  1  0.34288100  0.57165400  0.99737100  1
  As  As15  1  0.08201800  0.34852000  0.07980900  1
  As  As16  1  0.15711900  0.92834600  0.00262900  1
  As  As17  1  0.92834600  0.84288100  0.99737100  1
  As  As18  1  0.15148000  0.58201800  0.07980900  1
  As  As19  1  0.84852000  0.41798200  0.07980900  1
  As  As20  1  0.84288100  0.07165400  0.00262900  1
  As  As21  1  0.91798200  0.65148000  0.07980900  1
  As  As22  1  0.42834600  0.34288100  0.00262900  1
  As  As23  1  0.58201800  0.84852000  0.92019100  1
  Pd  Pd24  1  0.00000000  0.50000000  0.30563500  1
  Pd  Pd25  1  0.00000000  0.50000000  0.84847400  1
  Pd  Pd26  1  0.50000000  0.50000000  0.76410800  1
  Pd  Pd27  1  0.50000000  0.00000000  0.69436500  1
  Pd  Pd28  1  0.75000000  0.75000000  0.00000000  1
  Pd  Pd29  1  0.50000000  0.00000000  0.15152600  1
  Pd  Pd30  1  0.00000000  0.00000000  0.76410800  1
  Pd  Pd31  1  0.50000000  0.50000000  0.23589200  1
  Pd  Pd32  1  0.25000000  0.25000000  0.00000000  1
  Pd  Pd33  1  0.25000000  0.75000000  0.00000000  1
  Pd  Pd34  1  0.75000000  0.25000000  0.00000000  1
  Pd  Pd35  1  0.00000000  0.00000000  0.23589200  1
  O  O36  1  0.91216200  0.41106800  0.86008600  1
  O  O37  1  0.25859900  0.96564100  0.02650900  1
  O  O38  1  0.03322000  0.11855800  0.75999800  1
  O  O39  1  0.67546900  0.65308500  0.00448200  1
  O  O40  1  0.68409500  0.17264600  0.81516800  1
  O  O41  1  0.15308500  0.82453100  0.00448200  1
  O  O42  1  0.12040400  0.96695300  0.76317900  1
  O  O43  1  0.17546900  0.15308500  0.99551800  1
  O  O44  1  0.74140100  0.03435900  0.02650900  1
  O  O45  1  0.46695300  0.37959600  0.76317900  1
  O  O46  1  0.82735400  0.68409500  0.18483200  1
  O  O47  1  0.11855800  0.96678000  0.24000200  1
  O  O48  1  0.46564100  0.24140100  0.02650900  1
  O  O49  1  0.53322000  0.61855800  0.24000200  1
  O  O50  1  0.47879700  0.12247900  0.70724000  1
  O  O51  1  0.91106800  0.58783800  0.86008600  1
  O  O52  1  0.97879700  0.62247900  0.29276000  1
  O  O53  1  0.96678000  0.88144200  0.75999800  1
  O  O54  1  0.96564100  0.74140100  0.97349100  1
  O  O55  1  0.88144200  0.03322000  0.24000200  1
  O  O56  1  0.08893200  0.41216200  0.86008600  1
  O  O57  1  0.03304700  0.12040400  0.23682100  1
  O  O58  1  0.61855800  0.46678000  0.75999800  1
  O  O59  1  0.75859900  0.46564100  0.97349100  1
  O  O60  1  0.96695300  0.87959600  0.23682100  1
  O  O61  1  0.12247900  0.52120300  0.29276000  1
  O  O62  1  0.37752100  0.97879700  0.70724000  1
  O  O63  1  0.81590500  0.32735400  0.18483200  1
  O  O64  1  0.03435900  0.25859900  0.97349100  1
  O  O65  1  0.84691500  0.17546900  0.00448200  1
  O  O66  1  0.41216200  0.91106800  0.13991400  1
  O  O67  1  0.87959600  0.03304700  0.76317900  1
  O  O68  1  0.41106800  0.08783800  0.13991400  1
  O  O69  1  0.08783800  0.58893200  0.86008600  1
  O  O70  1  0.53304700  0.62040400  0.76317900  1
  O  O71  1  0.24140100  0.53435900  0.97349100  1
  O  O72  1  0.67264600  0.81590500  0.81516800  1
  O  O73  1  0.65308500  0.32453100  0.99551800  1
  O  O74  1  0.32453100  0.34691500  0.00448200  1
  O  O75  1  0.18409500  0.67264600  0.18483200  1
  O  O76  1  0.53435900  0.75859900  0.02650900  1
  O  O77  1  0.46678000  0.38144200  0.24000200  1
  O  O78  1  0.62247900  0.02120300  0.70724000  1
  O  O79  1  0.58783800  0.08893200  0.13991400  1
  O  O80  1  0.38144200  0.53322000  0.75999800  1
  O  O81  1  0.02120300  0.37752100  0.29276000  1
  O  O82  1  0.58893200  0.91216200  0.13991400  1
  O  O83  1  0.17264600  0.31590500  0.18483200  1
  O  O84  1  0.32735400  0.18409500  0.81516800  1
  O  O85  1  0.37959600  0.53304700  0.23682100  1
  O  O86  1  0.34691500  0.67546900  0.99551800  1
  O  O87  1  0.52120300  0.87752100  0.70724000  1
  O  O88  1  0.62040400  0.46695300  0.23682100  1
  O  O89  1  0.87752100  0.47879700  0.29276000  1
  O  O90  1  0.82453100  0.84691500  0.99551800  1
  O  O91  1  0.31590500  0.82735400  0.81516800  1
