# generated using pymatgen
data_InHSeO4
_symmetry_space_group_name_H-M   'P 1'
_cell_length_a   5.78155600
_cell_length_b   8.18983902
_cell_length_c   8.30235407
_cell_angle_alpha   87.63456667
_cell_angle_beta   79.51510282
_cell_angle_gamma   83.03947911
_symmetry_Int_Tables_number   1
_chemical_formula_structural   InHSeO4
_chemical_formula_sum   'In4 H4 Se4 O16'
_cell_volume   383.62933504
_cell_formula_units_Z   4
loop_
 _symmetry_equiv_pos_site_id
 _symmetry_equiv_pos_as_xyz
  1  'x, y, z'
loop_
 _atom_site_type_symbol
 _atom_site_label
 _atom_site_symmetry_multiplicity
 _atom_site_fract_x
 _atom_site_fract_y
 _atom_site_fract_z
 _atom_site_occupancy
  In  In0  1  0.81030400  0.68651900  0.48511200  1
  In  In1  1  0.39657400  0.97675500  0.81340900  1
  In  In2  1  0.60342600  0.02324500  0.18659100  1
  In  In3  1  0.18969600  0.31348100  0.51488800  1
  H  H4  1  0.65115400  0.23941100  0.39300700  1
  H  H5  1  0.99354200  0.07488700  0.69775000  1
  H  H6  1  0.00645800  0.92511300  0.30225000  1
  H  H7  1  0.34884600  0.76058900  0.60699300  1
  Se  Se8  1  0.39698800  0.64449700  0.23626300  1
  Se  Se9  1  0.92903500  0.73064200  0.88035000  1
  Se  Se10  1  0.60301200  0.35550300  0.76373700  1
  Se  Se11  1  0.07096500  0.26935800  0.11965000  1
  O  O12  1  0.02456600  0.21337500  0.32358500  1
  O  O13  1  0.65177100  0.56941600  0.30425400  1
  O  O14  1  0.49551000  0.78357500  0.64058100  1
  O  O15  1  0.14232800  0.81700700  0.95174300  1
  O  O16  1  0.85072100  0.88513400  0.31443700  1
  O  O17  1  0.14927900  0.11486600  0.68556300  1
  O  O18  1  0.17168800  0.56372200  0.38570200  1
  O  O19  1  0.82831200  0.43627800  0.61429800  1
  O  O20  1  0.66611700  0.86511500  0.96058500  1
  O  O21  1  0.34822900  0.43058400  0.69574600  1
  O  O22  1  0.64936600  0.15276600  0.70590500  1
  O  O23  1  0.35063400  0.84723400  0.29409500  1
  O  O24  1  0.97543400  0.78662500  0.67641500  1
  O  O25  1  0.50449000  0.21642500  0.35941900  1
  O  O26  1  0.33388300  0.13488500  0.03941500  1
  O  O27  1  0.85767200  0.18299300  0.04825700  1
