# generated using pymatgen
data_Cs2Sn2O3
_symmetry_space_group_name_H-M   'P 1'
_cell_length_a   6.21534000
_cell_length_b   9.17799800
_cell_length_c   13.96071500
_cell_angle_alpha   90.00000000
_cell_angle_beta   90.00000000
_cell_angle_gamma   90.00000000
_symmetry_Int_Tables_number   1
_chemical_formula_structural   Cs2Sn2O3
_chemical_formula_sum   'Cs8 Sn8 O12'
_cell_volume   796.38030486
_cell_formula_units_Z   4
loop_
 _symmetry_equiv_pos_site_id
 _symmetry_equiv_pos_as_xyz
  1  'x, y, z'
loop_
 _atom_site_type_symbol
 _atom_site_label
 _atom_site_symmetry_multiplicity
 _atom_site_fract_x
 _atom_site_fract_y
 _atom_site_fract_z
 _atom_site_occupancy
  Cs  Cs0  1  0.25000000  0.53436400  0.36813300  1
  Cs  Cs1  1  0.75000000  0.46563600  0.63186700  1
  Cs  Cs2  1  0.75000000  0.03436400  0.13186700  1
  Cs  Cs3  1  0.25000000  0.96563600  0.86813300  1
  Cs  Cs4  1  0.25000000  0.33580500  0.09691900  1
  Cs  Cs5  1  0.75000000  0.66419500  0.90308100  1
  Cs  Cs6  1  0.75000000  0.83580500  0.40308100  1
  Cs  Cs7  1  0.25000000  0.16419500  0.59691900  1
  Sn  Sn8  1  0.25000000  0.78298500  0.13515400  1
  Sn  Sn9  1  0.75000000  0.21701500  0.86484600  1
  Sn  Sn10  1  0.75000000  0.28298500  0.36484600  1
  Sn  Sn11  1  0.25000000  0.71701500  0.63515400  1
  Sn  Sn12  1  0.25000000  0.08385000  0.30306300  1
  Sn  Sn13  1  0.75000000  0.91615000  0.69693700  1
  Sn  Sn14  1  0.75000000  0.58385000  0.19693700  1
  Sn  Sn15  1  0.25000000  0.41615000  0.80306300  1
  O  O16  1  0.00253700  0.23245400  0.27205500  1
  O  O17  1  0.50253700  0.76754600  0.72794500  1
  O  O18  1  0.99746300  0.73245400  0.22794500  1
  O  O19  1  0.49746300  0.26754600  0.77205500  1
  O  O20  1  0.99746300  0.76754600  0.72794500  1
  O  O21  1  0.49746300  0.23245400  0.27205500  1
  O  O22  1  0.00253700  0.26754600  0.77205500  1
  O  O23  1  0.50253700  0.73245400  0.22794500  1
  O  O24  1  0.25000000  0.00642400  0.16136600  1
  O  O25  1  0.75000000  0.99357600  0.83863400  1
  O  O26  1  0.75000000  0.50642400  0.33863400  1
  O  O27  1  0.25000000  0.49357600  0.66136600  1
