# generated using pymatgen
data_CoSn2H12(OF)6
_symmetry_space_group_name_H-M   'P 1'
_cell_length_a   8.91560516
_cell_length_b   11.20856832
_cell_length_c   14.37730344
_cell_angle_alpha   77.57875109
_cell_angle_beta   83.41786983
_cell_angle_gamma   112.58671931
_symmetry_Int_Tables_number   1
_chemical_formula_structural   CoSn2H12(OF)6
_chemical_formula_sum   'Co4 Sn8 H48 O24 F24'
_cell_volume   1264.11576721
_cell_formula_units_Z   4
loop_
 _symmetry_equiv_pos_site_id
 _symmetry_equiv_pos_as_xyz
  1  'x, y, z'
loop_
 _atom_site_type_symbol
 _atom_site_label
 _atom_site_symmetry_multiplicity
 _atom_site_fract_x
 _atom_site_fract_y
 _atom_site_fract_z
 _atom_site_occupancy
  Co  Co0  1  0.50000400  0.99993300  0.50007200  1
  Co  Co1  1  0.74999000  0.50005500  0.74993000  1
  Co  Co2  1  0.99999900  0.00006000  0.99992400  1
  Co  Co3  1  0.25000600  0.49995000  0.25006300  1
  Sn  Sn4  1  0.74145400  0.51020300  0.40630100  1
  Sn  Sn5  1  0.99141700  0.01029600  0.65624200  1
  Sn  Sn6  1  0.24178600  0.51054400  0.90595400  1
  Sn  Sn7  1  0.49131300  0.01049700  0.15628000  1
  Sn  Sn8  1  0.00845900  0.98944800  0.34384500  1
  Sn  Sn9  1  0.25830500  0.48967900  0.59396000  1
  Sn  Sn10  1  0.50882000  0.98975300  0.84356100  1
  Sn  Sn11  1  0.75849000  0.48956600  0.09391600  1
  H  H12  1  0.50648900  0.72432600  0.26051400  1
  H  H13  1  0.75659000  0.22427000  0.51049300  1
  H  H14  1  0.00638900  0.72434900  0.76055000  1
  H  H15  1  0.25675100  0.22428500  0.01045500  1
  H  H16  1  0.24339600  0.77568100  0.48950500  1
  H  H17  1  0.49362400  0.27567700  0.73945900  1
  H  H18  1  0.74327000  0.77571500  0.98957200  1
  H  H19  1  0.99346900  0.27568500  0.23945600  1
  H  H20  1  0.59404600  0.89315300  0.36796000  1
  H  H21  1  0.84407900  0.39313600  0.61793200  1
  H  H22  1  0.09389900  0.89301100  0.86810700  1
  H  H23  1  0.34386000  0.39303000  0.11809600  1
  H  H24  1  0.15617500  0.60701200  0.38189800  1
  H  H25  1  0.40594600  0.10688800  0.63203400  1
  H  H26  1  0.65593200  0.60682600  0.88208400  1
  H  H27  1  0.90606400  0.10695100  0.13188300  1
  H  H28  1  0.07952200  0.87392700  0.15822400  1
  H  H29  1  0.32932500  0.37387500  0.40831800  1
  H  H30  1  0.57973600  0.87390600  0.65811800  1
  H  H31  1  0.82980600  0.37404000  0.90807300  1
  H  H32  1  0.67029700  0.62606100  0.59187800  1
  H  H33  1  0.92061200  0.12618800  0.84171500  1
  H  H34  1  0.17055400  0.62603200  0.09172300  1
  H  H35  1  0.42014400  0.12598700  0.34192900  1
  H  H36  1  0.16985800  0.87481800  0.52102300  1
  H  H37  1  0.41998500  0.37484600  0.77087200  1
  H  H38  1  0.66973700  0.87478600  0.02100500  1
  H  H39  1  0.91980800  0.37465300  0.27084900  1
  H  H40  1  0.58015000  0.62527200  0.22919200  1
  H  H41  1  0.83011000  0.12507700  0.47898000  1
  H  H42  1  0.08005600  0.62525200  0.72910900  1
  H  H43  1  0.33030300  0.12530100  0.97896300  1
  H  H44  1  0.57932200  0.79817400  0.47115500  1
  H  H45  1  0.82951500  0.29831400  0.72104700  1
  H  H46  1  0.07898600  0.79818800  0.97123700  1
  H  H47  1  0.32901700  0.29815300  0.22131400  1
  H  H48  1  0.17092700  0.70179600  0.27876500  1
  H  H49  1  0.42057900  0.20173300  0.52891900  1
  H  H50  1  0.67055600  0.70176000  0.77888900  1
  H  H51  1  0.92108700  0.20188300  0.02866700  1
  H  H52  1  0.89560900  0.77854900  0.15435200  1
  H  H53  1  0.14560100  0.27834200  0.40434700  1
  H  H54  1  0.39567500  0.77837500  0.65426100  1
  H  H55  1  0.64583200  0.27828700  0.90415600  1
  H  H56  1  0.85427800  0.72173900  0.59575900  1
  H  H57  1  0.10451100  0.22150900  0.84559700  1
  H  H58  1  0.35428700  0.72162300  0.09570700  1
  H  H59  1  0.60420600  0.22159500  0.34581200  1
  O  O60  1  0.12978200  0.60596300  0.31657900  1
  O  O61  1  0.37967400  0.10592400  0.56669600  1
  O  O62  1  0.62978200  0.60598400  0.81667700  1
  O  O63  1  0.87969200  0.10604800  0.06651400  1
  O  O64  1  0.62025000  0.89396600  0.43335700  1
  O  O65  1  0.87029500  0.39411200  0.68328300  1
  O  O66  1  0.12035800  0.89404300  0.93341200  1
  O  O67  1  0.37016200  0.39396300  0.18347700  1
  O  O68  1  0.26957700  0.87149900  0.48523300  1
  O  O69  1  0.51972300  0.37150200  0.73509500  1
  O  O70  1  0.76956100  0.87154300  0.98524700  1
  O  O71  1  0.01972400  0.37149900  0.23516300  1
  O  O72  1  0.48025700  0.62850100  0.26487700  1
  O  O73  1  0.73042800  0.12844600  0.51480800  1
  O  O74  1  0.98027600  0.62853800  0.76485000  1
  O  O75  1  0.23044500  0.12847400  0.01470300  1
  O  O76  1  0.77436700  0.62610000  0.61003800  1
  O  O77  1  0.02444700  0.12588800  0.86005000  1
  O  O78  1  0.27452600  0.62592000  0.10998800  1
  O  O79  1  0.52419200  0.12596900  0.36011300  1
  O  O80  1  0.97564100  0.87419500  0.13991500  1
  O  O81  1  0.22539500  0.37402100  0.39003500  1
  O  O82  1  0.47574100  0.87397300  0.63991300  1
  O  O83  1  0.72568500  0.37395400  0.88993500  1
  F  F84  1  0.48848000  0.36840900  0.46033800  1
  F  F85  1  0.73855500  0.86839800  0.71047200  1
  F  F86  1  0.98878200  0.36857000  0.96015700  1
  F  F87  1  0.23828800  0.86857500  0.21060200  1
  F  F88  1  0.26140900  0.13144300  0.28951700  1
  F  F89  1  0.51123900  0.63155700  0.53983400  1
  F  F90  1  0.76169900  0.13158200  0.78935900  1
  F  F91  1  0.01155200  0.63144200  0.03968900  1
  F  F92  1  0.74773800  0.38087400  0.31847000  1
  F  F93  1  0.99777700  0.88094300  0.56859000  1
  F  F94  1  0.24797300  0.38098500  0.81836600  1
  F  F95  1  0.49760400  0.88104500  0.06845900  1
  F  F96  1  0.00217900  0.11891500  0.43149900  1
  F  F97  1  0.25207900  0.61915200  0.68153500  1
  F  F98  1  0.50244600  0.11903400  0.93140800  1
  F  F99  1  0.75227900  0.61907100  0.18171900  1
  F  F100  1  0.95087800  0.11877500  0.23911300  1
  F  F101  1  0.20065900  0.61880300  0.48930900  1
  F  F102  1  0.45095700  0.11886000  0.73925300  1
  F  F103  1  0.70045400  0.61872300  0.98940300  1
  F  F104  1  0.79942000  0.38114600  0.51061700  1
  F  F105  1  0.04890900  0.88113000  0.76083900  1
  F  F106  1  0.29949300  0.38125000  0.01073600  1
  F  F107  1  0.54915800  0.88128200  0.26075700  1
