# generated using pymatgen
data_Na2SeO3
_symmetry_space_group_name_H-M   'P 1'
_cell_length_a   10.12492100
_cell_length_b   4.96247900
_cell_length_c   7.02167775
_cell_angle_alpha   89.94927026
_cell_angle_beta   90.00000000
_cell_angle_gamma   90.00000000
_symmetry_Int_Tables_number   1
_chemical_formula_structural   Na2SeO3
_chemical_formula_sum   'Na8 Se4 O12'
_cell_volume   352.80200892
_cell_formula_units_Z   4
loop_
 _symmetry_equiv_pos_site_id
 _symmetry_equiv_pos_as_xyz
  1  'x, y, z'
loop_
 _atom_site_type_symbol
 _atom_site_label
 _atom_site_symmetry_multiplicity
 _atom_site_fract_x
 _atom_site_fract_y
 _atom_site_fract_z
 _atom_site_occupancy
  Na  Na0  1  0.41395000  0.26211100  0.85197600  1
  Na  Na1  1  0.24324400  0.75678300  0.09284200  1
  Na  Na2  1  0.25675600  0.75678300  0.59284200  1
  Na  Na3  1  0.75675600  0.24321700  0.90715800  1
  Na  Na4  1  0.58605000  0.73788900  0.14802400  1
  Na  Na5  1  0.08605000  0.26211100  0.35197600  1
  Na  Na6  1  0.91395000  0.73788900  0.64802400  1
  Na  Na7  1  0.74324400  0.24321700  0.40715800  1
  Se  Se8  1  0.91415900  0.78321700  0.19043100  1
  Se  Se9  1  0.41415900  0.21678300  0.30956900  1
  Se  Se10  1  0.08584100  0.21678300  0.80956900  1
  Se  Se11  1  0.58584100  0.78321700  0.69043100  1
  O  O12  1  0.60066000  0.12884000  0.66562300  1
  O  O13  1  0.10066000  0.87116000  0.83437700  1
  O  O14  1  0.39934000  0.87116000  0.33437700  1
  O  O15  1  0.89934000  0.12884000  0.16562300  1
  O  O16  1  0.71155200  0.72044500  0.85429600  1
  O  O17  1  0.21155200  0.27955500  0.64570400  1
  O  O18  1  0.28844800  0.27955500  0.14570400  1
  O  O19  1  0.78844800  0.72044500  0.35429600  1
  O  O20  1  0.44374400  0.75357600  0.82908100  1
  O  O21  1  0.05625600  0.75357600  0.32908100  1
  O  O22  1  0.55625600  0.24642400  0.17091900  1
  O  O23  1  0.94374400  0.24642400  0.67091900  1
