# generated using pymatgen
data_Zr5Sb3
_symmetry_space_group_name_H-M   'P 1'
_cell_length_a   7.61487400
_cell_length_b   8.88916700
_cell_length_c   10.86696900
_cell_angle_alpha   90.00000000
_cell_angle_beta   90.00000000
_cell_angle_gamma   90.00000000
_symmetry_Int_Tables_number   1
_chemical_formula_structural   Zr5Sb3
_chemical_formula_sum   'Zr20 Sb12'
_cell_volume   735.58390006
_cell_formula_units_Z   4
loop_
 _symmetry_equiv_pos_site_id
 _symmetry_equiv_pos_as_xyz
  1  'x, y, z'
loop_
 _atom_site_type_symbol
 _atom_site_label
 _atom_site_symmetry_multiplicity
 _atom_site_fract_x
 _atom_site_fract_y
 _atom_site_fract_z
 _atom_site_occupancy
  Zr  Zr0  1  0.47405900  0.75000000  0.50317400  1
  Zr  Zr1  1  0.97405900  0.25000000  0.99682600  1
  Zr  Zr2  1  0.52594100  0.25000000  0.49682600  1
  Zr  Zr3  1  0.02594100  0.75000000  0.00317400  1
  Zr  Zr4  1  0.32068700  0.75000000  0.23195000  1
  Zr  Zr5  1  0.82068700  0.25000000  0.26805000  1
  Zr  Zr6  1  0.67931300  0.25000000  0.76805000  1
  Zr  Zr7  1  0.17931300  0.75000000  0.73195000  1
  Zr  Zr8  1  0.17241900  0.25000000  0.71285900  1
  Zr  Zr9  1  0.67241900  0.75000000  0.78714100  1
  Zr  Zr10  1  0.82758100  0.75000000  0.28714100  1
  Zr  Zr11  1  0.32758100  0.25000000  0.21285900  1
  Zr  Zr12  1  0.19904600  0.44337100  0.44734200  1
  Zr  Zr13  1  0.69904600  0.55662900  0.05265800  1
  Zr  Zr14  1  0.80095400  0.94337100  0.55265800  1
  Zr  Zr15  1  0.30095400  0.05662900  0.94734200  1
  Zr  Zr16  1  0.80095400  0.55662900  0.55265800  1
  Zr  Zr17  1  0.30095400  0.44337100  0.94734200  1
  Zr  Zr18  1  0.19904600  0.05662900  0.44734200  1
  Zr  Zr19  1  0.69904600  0.94337100  0.05265800  1
  Sb  Sb20  1  0.09055100  0.75000000  0.47269200  1
  Sb  Sb21  1  0.59055100  0.25000000  0.02730800  1
  Sb  Sb22  1  0.90944900  0.25000000  0.52730800  1
  Sb  Sb23  1  0.40944900  0.75000000  0.97269200  1
  Sb  Sb24  1  0.06649000  0.00761100  0.17818500  1
  Sb  Sb25  1  0.56649000  0.99238900  0.32181500  1
  Sb  Sb26  1  0.93351000  0.50761100  0.82181500  1
  Sb  Sb27  1  0.43351000  0.49238900  0.67818500  1
  Sb  Sb28  1  0.93351000  0.99238900  0.82181500  1
  Sb  Sb29  1  0.43351000  0.00761100  0.67818500  1
  Sb  Sb30  1  0.06649000  0.49238900  0.17818500  1
  Sb  Sb31  1  0.56649000  0.50761100  0.32181500  1
