# generated using pymatgen
data_Yb(ClO4)3
_symmetry_space_group_name_H-M   'P 1'
_cell_length_a   9.58253688
_cell_length_b   9.58253688
_cell_length_c   9.58253700
_cell_angle_alpha   51.98284424
_cell_angle_beta   51.98284424
_cell_angle_gamma   51.98284151
_symmetry_Int_Tables_number   1
_chemical_formula_structural   Yb(ClO4)3
_chemical_formula_sum   'Yb2 Cl6 O24'
_cell_volume   504.91220915
_cell_formula_units_Z   2
loop_
 _symmetry_equiv_pos_site_id
 _symmetry_equiv_pos_as_xyz
  1  'x, y, z'
loop_
 _atom_site_type_symbol
 _atom_site_label
 _atom_site_symmetry_multiplicity
 _atom_site_fract_x
 _atom_site_fract_y
 _atom_site_fract_z
 _atom_site_occupancy
  Yb  Yb0  1  0.94024800  0.94024800  0.94024800  1
  Yb  Yb1  1  0.44024800  0.44024800  0.44024800  1
  Cl  Cl2  1  0.65987600  0.03288000  0.30785800  1
  Cl  Cl3  1  0.30785800  0.65987600  0.03288000  1
  Cl  Cl4  1  0.03288000  0.30785800  0.65987600  1
  Cl  Cl5  1  0.15987600  0.80785800  0.53288000  1
  Cl  Cl6  1  0.53288000  0.15987600  0.80785800  1
  Cl  Cl7  1  0.80785800  0.53288000  0.15987600  1
  O  O8  1  0.74958600  0.42229100  0.36720400  1
  O  O9  1  0.11865800  0.79942600  0.71193900  1
  O  O10  1  0.08031300  0.16391100  0.60647100  1
  O  O11  1  0.86720400  0.92229100  0.24958600  1
  O  O12  1  0.71193900  0.11865800  0.79942600  1
  O  O13  1  0.36720400  0.74958600  0.42229100  1
  O  O14  1  0.92229100  0.24958600  0.86720400  1
  O  O15  1  0.99540400  0.42605000  0.05558500  1
  O  O16  1  0.42229100  0.36720400  0.74958600  1
  O  O17  1  0.61865800  0.21193900  0.29942600  1
  O  O18  1  0.10647100  0.66391100  0.58031300  1
  O  O19  1  0.29942600  0.61865800  0.21193900  1
  O  O20  1  0.55558500  0.92605000  0.49540400  1
  O  O21  1  0.60647100  0.08031300  0.16391100  1
  O  O22  1  0.42605000  0.05558500  0.99540400  1
  O  O23  1  0.66391100  0.58031300  0.10647100  1
  O  O24  1  0.92605000  0.49540400  0.55558500  1
  O  O25  1  0.21193900  0.29942600  0.61865800  1
  O  O26  1  0.49540400  0.55558500  0.92605000  1
  O  O27  1  0.16391100  0.60647100  0.08031300  1
  O  O28  1  0.58031300  0.10647100  0.66391100  1
  O  O29  1  0.05558500  0.99540400  0.42605000  1
  O  O30  1  0.79942600  0.71193900  0.11865800  1
  O  O31  1  0.24958600  0.86720400  0.92229100  1
