# generated using pymatgen
data_Rb8Tl11
_symmetry_space_group_name_H-M   'P 1'
_cell_length_a   18.93183046
_cell_length_b   18.93183046
_cell_length_c   18.93182944
_cell_angle_alpha   32.49881213
_cell_angle_beta   32.49881213
_cell_angle_gamma   32.49881187
_symmetry_Int_Tables_number   1
_chemical_formula_structural   Rb8Tl11
_chemical_formula_sum   'Rb16 Tl22'
_cell_volume   1741.72854851
_cell_formula_units_Z   2
loop_
 _symmetry_equiv_pos_site_id
 _symmetry_equiv_pos_as_xyz
  1  'x, y, z'
loop_
 _atom_site_type_symbol
 _atom_site_label
 _atom_site_symmetry_multiplicity
 _atom_site_fract_x
 _atom_site_fract_y
 _atom_site_fract_z
 _atom_site_occupancy
  Rb  Rb0  1  0.32468300  0.65205100  0.08908500  1
  Rb  Rb1  1  0.65205100  0.08908500  0.32468300  1
  Rb  Rb2  1  0.08908500  0.32468300  0.65205100  1
  Rb  Rb3  1  0.84794900  0.17531700  0.41091500  1
  Rb  Rb4  1  0.17531700  0.41091500  0.84794900  1
  Rb  Rb5  1  0.41091500  0.84794900  0.17531700  1
  Rb  Rb6  1  0.67531700  0.34794900  0.91091500  1
  Rb  Rb7  1  0.34794900  0.91091500  0.67531700  1
  Rb  Rb8  1  0.91091500  0.67531700  0.34794900  1
  Rb  Rb9  1  0.15205100  0.82468300  0.58908500  1
  Rb  Rb10  1  0.82468300  0.58908500  0.15205100  1
  Rb  Rb11  1  0.58908500  0.15205100  0.82468300  1
  Rb  Rb12  1  0.07883700  0.07883700  0.07883700  1
  Rb  Rb13  1  0.42116300  0.42116300  0.42116300  1
  Rb  Rb14  1  0.92116300  0.92116300  0.92116300  1
  Rb  Rb15  1  0.57883700  0.57883700  0.57883700  1
  Tl  Tl16  1  0.72790500  0.42613800  0.00406700  1
  Tl  Tl17  1  0.42613800  0.00406700  0.72790500  1
  Tl  Tl18  1  0.00406700  0.72790500  0.42613800  1
  Tl  Tl19  1  0.07386200  0.77209500  0.49593300  1
  Tl  Tl20  1  0.77209500  0.49593300  0.07386200  1
  Tl  Tl21  1  0.49593300  0.07386200  0.77209500  1
  Tl  Tl22  1  0.27209500  0.57386200  0.99593300  1
  Tl  Tl23  1  0.57386200  0.99593300  0.27209500  1
  Tl  Tl24  1  0.99593300  0.27209500  0.57386200  1
  Tl  Tl25  1  0.92613800  0.22790500  0.50406700  1
  Tl  Tl26  1  0.22790500  0.50406700  0.92613800  1
  Tl  Tl27  1  0.50406700  0.92613800  0.22790500  1
  Tl  Tl28  1  0.03829500  0.46170500  0.25000000  1
  Tl  Tl29  1  0.46170500  0.25000000  0.03829500  1
  Tl  Tl30  1  0.25000000  0.03829500  0.46170500  1
  Tl  Tl31  1  0.96170500  0.53829500  0.75000000  1
  Tl  Tl32  1  0.53829500  0.75000000  0.96170500  1
  Tl  Tl33  1  0.75000000  0.96170500  0.53829500  1
  Tl  Tl34  1  0.19927100  0.19927100  0.19927100  1
  Tl  Tl35  1  0.30072900  0.30072900  0.30072900  1
  Tl  Tl36  1  0.80072900  0.80072900  0.80072900  1
  Tl  Tl37  1  0.69927100  0.69927100  0.69927100  1
