# generated using pymatgen
data_BaVCu4P4O17
_symmetry_space_group_name_H-M   'P 1'
_cell_length_a   9.73455600
_cell_length_b   9.73455600
_cell_length_c   7.34686600
_cell_angle_alpha   90.00000000
_cell_angle_beta   90.00000000
_cell_angle_gamma   90.00000000
_symmetry_Int_Tables_number   1
_chemical_formula_structural   BaVCu4P4O17
_chemical_formula_sum   'Ba2 V2 Cu8 P8 O34'
_cell_volume   696.20063401
_cell_formula_units_Z   2
loop_
 _symmetry_equiv_pos_site_id
 _symmetry_equiv_pos_as_xyz
  1  'x, y, z'
loop_
 _atom_site_type_symbol
 _atom_site_label
 _atom_site_symmetry_multiplicity
 _atom_site_fract_x
 _atom_site_fract_y
 _atom_site_fract_z
 _atom_site_occupancy
  Ba  Ba0  1  0.00000000  0.00000000  0.00000000  1
  Ba  Ba1  1  0.50000000  0.50000000  0.00000000  1
  V  V2  1  0.00000000  0.50000000  0.95635300  1
  V  V3  1  0.50000000  0.00000000  0.04364700  1
  Cu  Cu4  1  0.23799800  0.48628400  0.40350800  1
  Cu  Cu5  1  0.48628400  0.23799800  0.59649200  1
  Cu  Cu6  1  0.01371600  0.73799800  0.40350800  1
  Cu  Cu7  1  0.76200200  0.51371600  0.40350800  1
  Cu  Cu8  1  0.73799800  0.01371600  0.59649200  1
  Cu  Cu9  1  0.98628400  0.26200200  0.40350800  1
  Cu  Cu10  1  0.51371600  0.76200200  0.59649200  1
  Cu  Cu11  1  0.26200200  0.98628400  0.59649200  1
  P  P12  1  0.21824800  0.69061300  0.73377500  1
  P  P13  1  0.80938700  0.71824800  0.73377500  1
  P  P14  1  0.71824800  0.80938700  0.26622500  1
  P  P15  1  0.19061300  0.28175200  0.73377500  1
  P  P16  1  0.78175200  0.30938700  0.73377500  1
  P  P17  1  0.28175200  0.19061300  0.26622500  1
  P  P18  1  0.69061300  0.21824800  0.26622500  1
  P  P19  1  0.30938700  0.78175200  0.26622500  1
  O  O20  1  0.00000000  0.50000000  0.17935600  1
  O  O21  1  0.87392800  0.83926900  0.26314500  1
  O  O22  1  0.89512800  0.65856900  0.89610300  1
  O  O23  1  0.32067700  0.34299700  0.24239500  1
  O  O24  1  0.84299700  0.17932300  0.24239500  1
  O  O25  1  0.84143100  0.39512800  0.89610300  1
  O  O26  1  0.67932300  0.65700300  0.24239500  1
  O  O27  1  0.50000000  0.00000000  0.82064400  1
  O  O28  1  0.65700300  0.67932300  0.75760500  1
  O  O29  1  0.82067700  0.15700300  0.75760500  1
  O  O30  1  0.65856900  0.89512800  0.10389700  1
  O  O31  1  0.10487200  0.34143100  0.89610300  1
  O  O32  1  0.34299700  0.32067700  0.75760500  1
  O  O33  1  0.17932300  0.84299700  0.75760500  1
  O  O34  1  0.62607200  0.33926900  0.73685500  1
  O  O35  1  0.34143100  0.10487200  0.10389700  1
  O  O36  1  0.12607200  0.16073100  0.26314500  1
  O  O37  1  0.83926900  0.87392800  0.73685500  1
  O  O38  1  0.86364000  0.65309500  0.55141100  1
  O  O39  1  0.34690500  0.13636000  0.44858900  1
  O  O40  1  0.33926900  0.62607200  0.26314500  1
  O  O41  1  0.84690500  0.36364000  0.55141100  1
  O  O42  1  0.65309500  0.86364000  0.44858900  1
  O  O43  1  0.15856900  0.60487200  0.89610300  1
  O  O44  1  0.16073100  0.12607200  0.73685500  1
  O  O45  1  0.37392800  0.66073100  0.73685500  1
  O  O46  1  0.15700300  0.82067700  0.24239500  1
  O  O47  1  0.36364000  0.84690500  0.44858900  1
  O  O48  1  0.39512800  0.84143100  0.10389700  1
  O  O49  1  0.66073100  0.37392800  0.26314500  1
  O  O50  1  0.63636000  0.15309500  0.44858900  1
  O  O51  1  0.13636000  0.34690500  0.55141100  1
  O  O52  1  0.60487200  0.15856900  0.10389700  1
  O  O53  1  0.15309500  0.63636000  0.55141100  1
