# generated using pymatgen
data_Cs2BeF4
_symmetry_space_group_name_H-M   'P 1'
_cell_length_a   6.25059600
_cell_length_b   8.28801400
_cell_length_c   10.93715500
_cell_angle_alpha   90.00000000
_cell_angle_beta   90.00000000
_cell_angle_gamma   90.00000000
_symmetry_Int_Tables_number   1
_chemical_formula_structural   Cs2BeF4
_chemical_formula_sum   'Cs8 Be4 F16'
_cell_volume   566.59961179
_cell_formula_units_Z   4
loop_
 _symmetry_equiv_pos_site_id
 _symmetry_equiv_pos_as_xyz
  1  'x, y, z'
loop_
 _atom_site_type_symbol
 _atom_site_label
 _atom_site_symmetry_multiplicity
 _atom_site_fract_x
 _atom_site_fract_y
 _atom_site_fract_z
 _atom_site_occupancy
  Cs  Cs0  1  0.75000000  0.01086800  0.68886200  1
  Cs  Cs1  1  0.25000000  0.98913200  0.31113800  1
  Cs  Cs2  1  0.25000000  0.48913200  0.18886200  1
  Cs  Cs3  1  0.75000000  0.51086800  0.81113800  1
  Cs  Cs4  1  0.25000000  0.16257900  0.90723700  1
  Cs  Cs5  1  0.75000000  0.83742100  0.09276300  1
  Cs  Cs6  1  0.75000000  0.33742100  0.40723700  1
  Cs  Cs7  1  0.25000000  0.66257900  0.59276300  1
  Be  Be8  1  0.75000000  0.25926600  0.08363500  1
  Be  Be9  1  0.25000000  0.24073400  0.58363500  1
  Be  Be10  1  0.75000000  0.75926600  0.41636500  1
  Be  Be11  1  0.25000000  0.74073400  0.91636500  1
  F  F12  1  0.25000000  0.05188100  0.58832900  1
  F  F13  1  0.75000000  0.94811900  0.41167100  1
  F  F14  1  0.75000000  0.44811900  0.08832900  1
  F  F15  1  0.25000000  0.55188100  0.91167100  1
  F  F16  1  0.75000000  0.69519100  0.55291800  1
  F  F17  1  0.75000000  0.19519100  0.94708200  1
  F  F18  1  0.25000000  0.30480900  0.44708200  1
  F  F19  1  0.25000000  0.80480900  0.05291800  1
  F  F20  1  0.04424800  0.80847500  0.85051400  1
  F  F21  1  0.54424700  0.19152500  0.14948600  1
  F  F22  1  0.54424700  0.69152500  0.35051400  1
  F  F23  1  0.04424800  0.30847500  0.64948600  1
  F  F24  1  0.45575200  0.80847500  0.85051400  1
  F  F25  1  0.95575300  0.19152500  0.14948600  1
  F  F26  1  0.95575300  0.69152500  0.35051400  1
  F  F27  1  0.45575200  0.30847500  0.64948600  1
