# generated using pymatgen
data_Gd2Ge2O7
_symmetry_space_group_name_H-M   'P 1'
_cell_length_a   6.85814700
_cell_length_b   6.92528730
_cell_length_c   18.67922742
_cell_angle_alpha   88.59583977
_cell_angle_beta   85.65754583
_cell_angle_gamma   87.85991443
_symmetry_Int_Tables_number   1
_chemical_formula_structural   Gd2Ge2O7
_chemical_formula_sum   'Gd12 Ge12 O42'
_cell_volume   883.79015394
_cell_formula_units_Z   6
loop_
 _symmetry_equiv_pos_site_id
 _symmetry_equiv_pos_as_xyz
  1  'x, y, z'
loop_
 _atom_site_type_symbol
 _atom_site_label
 _atom_site_symmetry_multiplicity
 _atom_site_fract_x
 _atom_site_fract_y
 _atom_site_fract_z
 _atom_site_occupancy
  Gd  Gd0  1  0.09879700  0.10716100  0.08949300  1
  Gd  Gd1  1  0.19732700  0.37026500  0.90803100  1
  Gd  Gd2  1  0.11848400  0.44819000  0.41044400  1
  Gd  Gd3  1  0.48582200  0.46195900  0.73888600  1
  Gd  Gd4  1  0.98873100  0.19966900  0.73871400  1
  Gd  Gd5  1  0.89069800  0.57893700  0.58752800  1
  Gd  Gd6  1  0.01266800  0.80440900  0.25905700  1
  Gd  Gd7  1  0.80560500  0.62831400  0.09122800  1
  Gd  Gd8  1  0.90391400  0.89259900  0.90978600  1
  Gd  Gd9  1  0.38845200  0.85869700  0.60026100  1
  Gd  Gd10  1  0.51957800  0.54495600  0.26192400  1
  Gd  Gd11  1  0.59635800  0.13072500  0.39362700  1
  Ge  Ge12  1  0.70063400  0.38864700  0.91631500  1
  Ge  Ge13  1  0.12264500  0.95604400  0.44436100  1
  Ge  Ge14  1  0.80516900  0.08224400  0.55732700  1
  Ge  Ge15  1  0.30354200  0.60989000  0.08293000  1
  Ge  Ge16  1  0.98937000  0.33592100  0.25749200  1
  Ge  Ge17  1  0.37776800  0.34755200  0.58028500  1
  Ge  Ge18  1  0.62960400  0.65966600  0.42055400  1
  Ge  Ge19  1  0.64785100  0.14029700  0.05923600  1
  Ge  Ge20  1  0.52075700  0.00538400  0.21140600  1
  Ge  Ge21  1  0.01320000  0.66610300  0.74378100  1
  Ge  Ge22  1  0.48160900  0.99647600  0.78665900  1
  Ge  Ge23  1  0.35603000  0.85792400  0.93948700  1
  O  O24  1  0.81825600  0.29250300  0.09006800  1
  O  O25  1  0.17542500  0.42575000  0.04530500  1
  O  O26  1  0.54927800  0.25134100  0.98223800  1
  O  O27  1  0.70550400  0.78458500  0.33707300  1
  O  O28  1  0.45508800  0.74496000  0.01623100  1
  O  O29  1  0.82993800  0.57171300  0.95403900  1
  O  O30  1  0.44661100  0.80195400  0.73232900  1
  O  O31  1  0.15027900  0.48104000  0.78752500  1
  O  O32  1  0.55097900  0.19796800  0.26775700  1
  O  O33  1  0.19345600  0.05356300  0.96806600  1
  O  O34  1  0.19435500  0.44879100  0.52883400  1
  O  O35  1  0.65122700  0.16557400  0.75326600  1
  O  O36  1  0.49140900  0.54143100  0.13740500  1
  O  O37  1  0.48906900  0.83784600  0.46831900  1
  O  O38  1  0.26330300  0.14495900  0.40724500  1
  O  O39  1  0.12526200  0.70330000  0.65744900  1
  O  O40  1  0.81030900  0.94469800  0.03102900  1
  O  O41  1  0.56010900  0.90924900  0.87743100  1
  O  O42  1  0.85221900  0.51901400  0.21214100  1
  O  O43  1  0.18216900  0.48962200  0.27926700  1
  O  O44  1  0.29700700  0.21120000  0.65894300  1
  O  O45  1  0.48422900  0.47122100  0.38868500  1
  O  O46  1  0.94006000  0.87898400  0.78748300  1
  O  O47  1  0.11135000  0.76884300  0.11875900  1
  O  O48  1  0.88969500  0.24557800  0.61575000  1
  O  O49  1  0.10325400  0.77919500  0.38051000  1
  O  O50  1  0.89213500  0.23016500  0.87986900  1
  O  O51  1  0.51948900  0.53554200  0.61199000  1
  O  O52  1  0.26447000  0.12892600  0.81500900  1
  O  O53  1  0.44266000  0.09123600  0.12110600  1
  O  O54  1  0.73965600  0.87602300  0.18297000  1
  O  O55  1  0.54714500  0.18097800  0.53260400  1
  O  O56  1  0.72401600  0.86951100  0.59929400  1
  O  O57  1  0.35234500  0.83656100  0.24522800  1
  O  O58  1  0.06453000  0.12597700  0.21173900  1
  O  O59  1  0.81949500  0.51633500  0.72161400  1
  O  O60  1  0.51202200  0.46010900  0.86262700  1
  O  O61  1  0.87664500  0.08838500  0.46198000  1
  O  O62  1  0.11273300  0.89869700  0.53686800  1
  O  O63  1  0.82010700  0.55494600  0.46976400  1
  O  O64  1  0.87890600  0.29380300  0.34369800  1
  O  O65  1  0.18429200  0.70685700  0.90878000  1
