# generated using pymatgen
data_EuBrO
_symmetry_space_group_name_H-M   'P 1'
_cell_length_a   3.95816800
_cell_length_b   3.95816800
_cell_length_c   8.35981800
_cell_angle_alpha   90.00000000
_cell_angle_beta   90.00000000
_cell_angle_gamma   90.00000000
_symmetry_Int_Tables_number   1
_chemical_formula_structural   EuBrO
_chemical_formula_sum   'Eu2 Br2 O2'
_cell_volume   130.97405373
_cell_formula_units_Z   2
loop_
 _symmetry_equiv_pos_site_id
 _symmetry_equiv_pos_as_xyz
  1  'x, y, z'
loop_
 _atom_site_type_symbol
 _atom_site_label
 _atom_site_symmetry_multiplicity
 _atom_site_fract_x
 _atom_site_fract_y
 _atom_site_fract_z
 _atom_site_occupancy
  Eu  Eu0  1  0.25000000  0.25000000  0.14528700  1
  Eu  Eu1  1  0.75000000  0.75000000  0.85471300  1
  Br  Br2  1  0.25000000  0.25000000  0.66136900  1
  Br  Br3  1  0.75000000  0.75000000  0.33863100  1
  O  O4  1  0.25000000  0.75000000  0.00000000  1
  O  O5  1  0.75000000  0.25000000  0.00000000  1
