# generated using pymatgen
data_CsAs3O8
_symmetry_space_group_name_H-M   'P 1'
_cell_length_a   7.39539849
_cell_length_b   7.39539849
_cell_length_c   7.77673326
_cell_angle_alpha   76.83435034
_cell_angle_beta   76.83435034
_cell_angle_gamma   107.83989987
_symmetry_Int_Tables_number   1
_chemical_formula_structural   CsAs3O8
_chemical_formula_sum   'Cs2 As6 O16'
_cell_volume   373.36667464
_cell_formula_units_Z   2
loop_
 _symmetry_equiv_pos_site_id
 _symmetry_equiv_pos_as_xyz
  1  'x, y, z'
loop_
 _atom_site_type_symbol
 _atom_site_label
 _atom_site_symmetry_multiplicity
 _atom_site_fract_x
 _atom_site_fract_y
 _atom_site_fract_z
 _atom_site_occupancy
  Cs  Cs0  1  0.42422100  0.57577900  0.75000000  1
  Cs  Cs1  1  0.57577900  0.42422100  0.25000000  1
  As  As2  1  0.94894700  0.29510400  0.57222300  1
  As  As3  1  0.70489600  0.05105300  0.92777700  1
  As  As4  1  0.06845000  0.93155000  0.75000000  1
  As  As5  1  0.29510400  0.94894700  0.07222300  1
  As  As6  1  0.05105300  0.70489600  0.42777700  1
  As  As7  1  0.93155000  0.06845000  0.25000000  1
  O  O8  1  0.52355100  0.17675400  0.97084800  1
  O  O9  1  0.84774400  0.86777300  0.92824700  1
  O  O10  1  0.86777300  0.84774400  0.42824700  1
  O  O11  1  0.27199700  0.95430300  0.82900500  1
  O  O12  1  0.47644900  0.82324600  0.02915200  1
  O  O13  1  0.13222700  0.15225600  0.57175300  1
  O  O14  1  0.95430300  0.27199700  0.32900500  1
  O  O15  1  0.72046400  0.07106800  0.68041000  1
  O  O16  1  0.17675400  0.52355100  0.47084800  1
  O  O17  1  0.72800300  0.04569700  0.17099500  1
  O  O18  1  0.04569700  0.72800300  0.67099500  1
  O  O19  1  0.27953600  0.92893200  0.31959000  1
  O  O20  1  0.15225600  0.13222700  0.07175300  1
  O  O21  1  0.07106800  0.72046400  0.18041000  1
  O  O22  1  0.92893200  0.27953600  0.81959000  1
  O  O23  1  0.82324600  0.47644900  0.52915200  1
