# generated using pymatgen
data_Cs2In3
_symmetry_space_group_name_H-M   'P 1'
_cell_length_a   9.85087101
_cell_length_b   9.85087101
_cell_length_c   9.85087101
_cell_angle_alpha   137.74664354
_cell_angle_beta   137.74664354
_cell_angle_gamma   61.29124805
_symmetry_Int_Tables_number   1
_chemical_formula_structural   Cs2In3
_chemical_formula_sum   'Cs4 In6'
_cell_volume   427.36296459
_cell_formula_units_Z   2
loop_
 _symmetry_equiv_pos_site_id
 _symmetry_equiv_pos_as_xyz
  1  'x, y, z'
loop_
 _atom_site_type_symbol
 _atom_site_label
 _atom_site_symmetry_multiplicity
 _atom_site_fract_x
 _atom_site_fract_y
 _atom_site_fract_z
 _atom_site_occupancy
  Cs  Cs0  1  0.38808700  0.38808700  0.00000000  1
  Cs  Cs1  1  0.61191300  0.61191300  0.00000000  1
  Cs  Cs2  1  0.25000000  0.75000000  0.50000000  1
  Cs  Cs3  1  0.75000000  0.25000000  0.50000000  1
  In  In4  1  0.00569100  0.29983800  0.29414700  1
  In  In5  1  0.14055900  0.14055900  0.00000000  1
  In  In6  1  0.85944100  0.85944100  0.00000000  1
  In  In7  1  0.00569100  0.71154400  0.70585300  1
  In  In8  1  0.28845600  0.99430900  0.29414700  1
  In  In9  1  0.70016200  0.99430900  0.70585300  1
