# generated using pymatgen
data_Er5(CoTe)2
_symmetry_space_group_name_H-M   'P 1'
_cell_length_a   7.72046423
_cell_length_b   7.72046423
_cell_length_c   14.94901500
_cell_angle_alpha   90.00000000
_cell_angle_beta   90.00000000
_cell_angle_gamma   150.66123904
_symmetry_Int_Tables_number   1
_chemical_formula_structural   Er5(CoTe)2
_chemical_formula_sum   'Er10 Co4 Te4'
_cell_volume   436.58713728
_cell_formula_units_Z   2
loop_
 _symmetry_equiv_pos_site_id
 _symmetry_equiv_pos_as_xyz
  1  'x, y, z'
loop_
 _atom_site_type_symbol
 _atom_site_label
 _atom_site_symmetry_multiplicity
 _atom_site_fract_x
 _atom_site_fract_y
 _atom_site_fract_z
 _atom_site_occupancy
  Er  Er0  1  0.60650900  0.39349100  0.25000000  1
  Er  Er1  1  0.74122500  0.25877500  0.63122200  1
  Er  Er2  1  0.96153800  0.03846200  0.12659500  1
  Er  Er3  1  0.03846200  0.96153800  0.87340500  1
  Er  Er4  1  0.39349100  0.60650900  0.75000000  1
  Er  Er5  1  0.96153800  0.03846200  0.37340500  1
  Er  Er6  1  0.03846200  0.96153800  0.62659500  1
  Er  Er7  1  0.25877500  0.74122500  0.13122200  1
  Er  Er8  1  0.25877500  0.74122500  0.36877800  1
  Er  Er9  1  0.74122500  0.25877500  0.86877800  1
  Co  Co10  1  0.41226800  0.58773200  0.25000000  1
  Co  Co11  1  0.58773200  0.41226800  0.75000000  1
  Co  Co12  1  0.81950500  0.18049500  0.25000000  1
  Co  Co13  1  0.18049500  0.81950500  0.75000000  1
  Te  Te14  1  0.61786700  0.38213300  0.03797500  1
  Te  Te15  1  0.61786700  0.38213300  0.46202500  1
  Te  Te16  1  0.38213300  0.61786700  0.53797500  1
  Te  Te17  1  0.38213300  0.61786700  0.96202500  1
