# generated using pymatgen
data_Ba5Re3BrO15
_symmetry_space_group_name_H-M   'P 1'
_cell_length_a   11.17859813
_cell_length_b   11.17859813
_cell_length_c   7.95533500
_cell_angle_alpha   90.00000000
_cell_angle_beta   90.00000000
_cell_angle_gamma   120.00000079
_symmetry_Int_Tables_number   1
_chemical_formula_structural   Ba5Re3BrO15
_chemical_formula_sum   'Ba10 Re6 Br2 O30'
_cell_volume   860.92196481
_cell_formula_units_Z   2
loop_
 _symmetry_equiv_pos_site_id
 _symmetry_equiv_pos_as_xyz
  1  'x, y, z'
loop_
 _atom_site_type_symbol
 _atom_site_label
 _atom_site_symmetry_multiplicity
 _atom_site_fract_x
 _atom_site_fract_y
 _atom_site_fract_z
 _atom_site_occupancy
  Ba  Ba0  1  0.00000000  0.26827300  0.74295400  1
  Ba  Ba1  1  0.33333300  0.66666700  0.00341200  1
  Ba  Ba2  1  0.26827300  0.26827300  0.24295400  1
  Ba  Ba3  1  0.73172700  0.73172700  0.74295400  1
  Ba  Ba4  1  0.66666700  0.33333300  0.00341200  1
  Ba  Ba5  1  0.73172700  0.00000000  0.24295400  1
  Ba  Ba6  1  0.66666700  0.33333300  0.50341200  1
  Ba  Ba7  1  0.33333300  0.66666700  0.50341200  1
  Ba  Ba8  1  0.26827300  0.00000000  0.74295400  1
  Ba  Ba9  1  0.00000000  0.73172700  0.24295400  1
  Re  Re10  1  0.60779000  0.60779000  0.29880100  1
  Re  Re11  1  0.60779000  0.00000000  0.79880100  1
  Re  Re12  1  0.39221000  0.00000000  0.29880100  1
  Re  Re13  1  0.00000000  0.39221000  0.29880100  1
  Re  Re14  1  0.00000000  0.60779000  0.79880100  1
  Re  Re15  1  0.39221000  0.39221000  0.79880100  1
  Br  Br16  1  0.00000000  0.00000000  0.97065200  1
  Br  Br17  1  0.00000000  0.00000000  0.47065200  1
  O  O18  1  0.13031200  0.55268800  0.75972900  1
  O  O19  1  0.60973400  0.86880200  0.93874100  1
  O  O20  1  0.86880200  0.25906800  0.43874100  1
  O  O21  1  0.74093200  0.60973400  0.43874100  1
  O  O22  1  0.39026600  0.25906800  0.93874100  1
  O  O23  1  0.00000000  0.29929900  0.11991400  1
  O  O24  1  0.57762300  0.44731200  0.75972900  1
  O  O25  1  0.42237700  0.86968800  0.75972900  1
  O  O26  1  0.13119800  0.74093200  0.93874100  1
  O  O27  1  0.44731200  0.86968800  0.25972900  1
  O  O28  1  0.86880200  0.60973400  0.93874100  1
  O  O29  1  0.70070100  0.00000000  0.61991400  1
  O  O30  1  0.44731200  0.57762300  0.75972900  1
  O  O31  1  0.13119800  0.39026600  0.43874100  1
  O  O32  1  0.86968800  0.42237700  0.75972900  1
  O  O33  1  0.25906800  0.86880200  0.43874100  1
  O  O34  1  0.29929900  0.00000000  0.11991400  1
  O  O35  1  0.57762300  0.13031200  0.25972900  1
  O  O36  1  0.00000000  0.70070100  0.61991400  1
  O  O37  1  0.39026600  0.13119800  0.43874100  1
  O  O38  1  0.42237700  0.55268800  0.25972900  1
  O  O39  1  0.55268800  0.42237700  0.25972900  1
  O  O40  1  0.13031200  0.57762300  0.25972900  1
  O  O41  1  0.86968800  0.44731200  0.25972900  1
  O  O42  1  0.60973400  0.74093200  0.43874100  1
  O  O43  1  0.70070100  0.70070100  0.11991400  1
  O  O44  1  0.74093200  0.13119800  0.93874100  1
  O  O45  1  0.55268800  0.13031200  0.75972900  1
  O  O46  1  0.29929900  0.29929900  0.61991400  1
  O  O47  1  0.25906800  0.39026600  0.93874100  1
