# generated using pymatgen
data_Na7In3Se8
_symmetry_space_group_name_H-M   'P 1'
_cell_length_a   6.81782800
_cell_length_b   10.58266048
_cell_length_c   13.68851731
_cell_angle_alpha   91.48159414
_cell_angle_beta   89.99665564
_cell_angle_gamma   90.18044746
_symmetry_Int_Tables_number   1
_chemical_formula_structural   Na7In3Se8
_chemical_formula_sum   'Na14 In6 Se16'
_cell_volume   987.30183226
_cell_formula_units_Z   2
loop_
 _symmetry_equiv_pos_site_id
 _symmetry_equiv_pos_as_xyz
  1  'x, y, z'
loop_
 _atom_site_type_symbol
 _atom_site_label
 _atom_site_symmetry_multiplicity
 _atom_site_fract_x
 _atom_site_fract_y
 _atom_site_fract_z
 _atom_site_occupancy
  Na  Na0  1  0.74475000  0.12786000  0.48338900  1
  Na  Na1  1  0.25525000  0.87214000  0.51661100  1
  Na  Na2  1  0.27853600  0.11024000  0.27473200  1
  Na  Na3  1  0.72146400  0.88976000  0.72526800  1
  Na  Na4  1  0.73269300  0.38636100  0.23437100  1
  Na  Na5  1  0.26730700  0.61363900  0.76562900  1
  Na  Na6  1  0.25555300  0.35993200  0.01967800  1
  Na  Na7  1  0.74444700  0.64006800  0.98032200  1
  Na  Na8  1  0.48245200  0.62389900  0.36548900  1
  Na  Na9  1  0.51754800  0.37610100  0.63451100  1
  Na  Na10  1  0.47817700  0.86103000  0.12482200  1
  Na  Na11  1  0.52182300  0.13897000  0.87517800  1
  Na  Na12  1  0.14636700  0.62531200  0.17829000  1
  Na  Na13  1  0.85363300  0.37468800  0.82171000  1
  In  In14  1  0.12562100  0.15639900  0.69540100  1
  In  In15  1  0.87437900  0.84360100  0.30459900  1
  In  In16  1  0.13517000  0.38250900  0.43550400  1
  In  In17  1  0.86483000  0.61749100  0.56449600  1
  In  In18  1  0.13270400  0.88843400  0.92613900  1
  In  In19  1  0.86729600  0.11156600  0.07386100  1
  Se  Se20  1  0.25779900  0.16792000  0.50969700  1
  Se  Se21  1  0.74220100  0.83208000  0.49030300  1
  Se  Se22  1  0.25287000  0.92562300  0.74434000  1
  Se  Se23  1  0.74713000  0.07437700  0.25566000  1
  Se  Se24  1  0.25483100  0.66845200  0.97637800  1
  Se  Se25  1  0.74516900  0.33154800  0.02362200  1
  Se  Se26  1  0.74976100  0.15740500  0.69330500  1
  Se  Se27  1  0.25023900  0.84259500  0.30669500  1
  Se  Se28  1  0.24978400  0.07669500  0.04720000  1
  Se  Se29  1  0.75021600  0.92330500  0.95280000  1
  Se  Se30  1  0.27263900  0.33745000  0.80371800  1
  Se  Se31  1  0.72736100  0.66255000  0.19628200  1
  Se  Se32  1  0.75112400  0.41866300  0.45322300  1
  Se  Se33  1  0.24887600  0.58133700  0.54677700  1
  Se  Se34  1  0.26018300  0.38523700  0.25797100  1
  Se  Se35  1  0.73981700  0.61476300  0.74202900  1
