# generated using pymatgen
data_K6Nb4S25
_symmetry_space_group_name_H-M   'P 1'
_cell_length_a   13.41419600
_cell_length_b   16.10554100
_cell_length_c   18.65549986
_cell_angle_alpha   75.27414071
_cell_angle_beta   90.00000000
_cell_angle_gamma   90.00000000
_symmetry_Int_Tables_number   1
_chemical_formula_structural   K6Nb4S25
_chemical_formula_sum   'K24 Nb16 S100'
_cell_volume   3898.00233809
_cell_formula_units_Z   4
loop_
 _symmetry_equiv_pos_site_id
 _symmetry_equiv_pos_as_xyz
  1  'x, y, z'
loop_
 _atom_site_type_symbol
 _atom_site_label
 _atom_site_symmetry_multiplicity
 _atom_site_fract_x
 _atom_site_fract_y
 _atom_site_fract_z
 _atom_site_occupancy
  K  K0  1  0.98236700  0.38368900  0.73346300  1
  K  K1  1  0.49188900  0.60487700  0.79207400  1
  K  K2  1  0.80496400  0.45693900  0.06437300  1
  K  K3  1  0.36461500  0.18511500  0.08925500  1
  K  K4  1  0.80897200  0.96058900  0.07847600  1
  K  K5  1  0.87835700  0.77472300  0.41267200  1
  K  K6  1  0.19102800  0.03941100  0.92152400  1
  K  K7  1  0.12164300  0.22527700  0.58732800  1
  K  K8  1  0.99188900  0.89512300  0.70792600  1
  K  K9  1  0.63538500  0.81488500  0.91074500  1
  K  K10  1  0.69102800  0.46058900  0.57847600  1
  K  K11  1  0.13538500  0.68511500  0.58925500  1
  K  K12  1  0.30897200  0.53941100  0.42152400  1
  K  K13  1  0.19503600  0.54306100  0.93562700  1
  K  K14  1  0.30496400  0.04306100  0.43562700  1
  K  K15  1  0.37835700  0.72527700  0.08732800  1
  K  K16  1  0.69503600  0.95693900  0.56437300  1
  K  K17  1  0.48236700  0.11631100  0.76653700  1
  K  K18  1  0.51763300  0.88368900  0.23346300  1
  K  K19  1  0.01763300  0.61631100  0.26653700  1
  K  K20  1  0.86461500  0.31488500  0.41074500  1
  K  K21  1  0.62164300  0.27472300  0.91267200  1
  K  K22  1  0.50811100  0.39512300  0.20792600  1
  K  K23  1  0.00811100  0.10487700  0.29207400  1
  Nb  Nb24  1  0.79573800  0.55481900  0.83375800  1
  Nb  Nb25  1  0.29573800  0.94518100  0.66624200  1
  Nb  Nb26  1  0.77867600  0.07308900  0.82440000  1
  Nb  Nb27  1  0.17135000  0.30809600  0.35426400  1
  Nb  Nb28  1  0.27867600  0.42691100  0.67560000  1
  Nb  Nb29  1  0.67135000  0.19190400  0.14573600  1
  Nb  Nb30  1  0.72132400  0.57308900  0.32440000  1
  Nb  Nb31  1  0.82865000  0.69190400  0.64573600  1
  Nb  Nb32  1  0.20426200  0.44518100  0.16624200  1
  Nb  Nb33  1  0.18469200  0.80200600  0.36563000  1
  Nb  Nb34  1  0.22132400  0.92691100  0.17560000  1
  Nb  Nb35  1  0.81530800  0.19799400  0.63437000  1
  Nb  Nb36  1  0.68469200  0.69799400  0.13437000  1
  Nb  Nb37  1  0.70426200  0.05481900  0.33375800  1
  Nb  Nb38  1  0.32865000  0.80809600  0.85426400  1
  Nb  Nb39  1  0.31530800  0.30200600  0.86563000  1
  S  S40  1  0.41230500  0.69076500  0.91646800  1
  S  S41  1  0.75546600  0.22748100  0.75686400  1
  S  S42  1  0.17875600  0.94026000  0.58208700  1
  S  S43  1  0.40672500  0.24858300  0.46996300  1
  S  S44  1  0.80101100  0.71884100  0.77165300  1
  S  S45  1  0.07098300  0.53761000  0.09847100  1
  S  S46  1  0.80186400  0.54782400  0.21290900  1
  S  S47  1  0.57098300  0.96239000  0.40152900  1
  S  S48  1  0.13562600  0.27383300  0.88432300  1
  S  S49  1  0.63562600  0.22616700  0.61567700  1
  S  S50  1  0.36437400  0.77383300  0.38432300  1
  S  S51  1  0.22351400  0.05672900  0.22247500  1
  S  S52  1  0.75211100  0.43617800  0.77748700  1
  S  S53  1  0.98427300  0.80469300  0.89484700  1
  S  S54  1  0.95496600  0.59142100  0.71209600  1
  S  S55  1  0.54711000  0.09363100  0.38443600  1
  S  S56  1  0.34509000  0.94416200  0.09321900  1
  S  S57  1  0.24788900  0.56382200  0.22251300  1
  S  S58  1  0.94748700  0.11809800  0.71484000  1
  S  S59  1  0.95289000  0.59363100  0.88443600  1
  S  S60  1  0.69402000  0.55557500  0.72309200  1
  S  S61  1  0.78305600  0.17226100  0.04160300  1
  S  S62  1  0.21694400  0.82773900  0.95839700  1
  S  S63  1  0.04503400  0.40857900  0.28790400  1
  S  S64  1  0.74453400  0.72748100  0.25686400  1
  S  S65  1  0.61212800  0.37608700  0.44127100  1
  S  S66  1  0.41125200  0.92875800  0.89014900  1
  S  S67  1  0.69813600  0.04782400  0.71290900  1
  S  S68  1  0.19402000  0.94442500  0.77690800  1
  S  S69  1  0.58874800  0.07124200  0.10985100  1
  S  S70  1  0.81747400  0.25137300  0.19732300  1
  S  S71  1  0.58769500  0.30923500  0.08353200  1
  S  S72  1  0.01572700  0.19530700  0.10515300  1
  S  S73  1  0.74788900  0.93617800  0.27748700  1
  S  S74  1  0.80598000  0.05557500  0.22309200  1
  S  S75  1  0.57040600  0.58740300  0.11304700  1
  S  S76  1  0.07040600  0.91259700  0.38695300  1
  S  S77  1  0.55251300  0.61809800  0.21484000  1
  S  S78  1  0.07792500  0.99408300  0.09246100  1
  S  S79  1  0.63310300  0.70585500  0.33688300  1
  S  S80  1  0.44748700  0.38190200  0.78516000  1
  S  S81  1  0.20348800  0.32401900  0.96414500  1
  S  S82  1  0.11212800  0.12391300  0.05872900  1
  S  S83  1  0.36689700  0.29414500  0.66311700  1
  S  S84  1  0.30186400  0.95217600  0.28709100  1
  S  S85  1  0.09327500  0.74858300  0.96996300  1
  S  S86  1  0.92901700  0.46239000  0.90152900  1
  S  S87  1  0.42207500  0.49408300  0.59246100  1
  S  S88  1  0.38945000  0.17461000  0.91583500  1
  S  S89  1  0.24453400  0.77251900  0.24313600  1
  S  S90  1  0.28305600  0.32773900  0.45839700  1
  S  S91  1  0.84509000  0.55583800  0.40678100  1
  S  S92  1  0.71694400  0.67226100  0.54160300  1
  S  S93  1  0.38787200  0.62391300  0.55872900  1
  S  S94  1  0.88945000  0.32539000  0.58416500  1
  S  S95  1  0.15491000  0.44416200  0.59321900  1
  S  S96  1  0.86689700  0.20585500  0.83688300  1
  S  S97  1  0.61055000  0.82539000  0.08416500  1
  S  S98  1  0.88787200  0.87608700  0.94127100  1
  S  S99  1  0.32124400  0.44026000  0.08208700  1
  S  S100  1  0.25546600  0.27251900  0.74313600  1
  S  S101  1  0.04711000  0.40636900  0.11556400  1
  S  S102  1  0.51572700  0.30469300  0.39484700  1
  S  S103  1  0.29651200  0.82401900  0.46414500  1
  S  S104  1  0.08874800  0.42875800  0.39014900  1
  S  S105  1  0.59327500  0.75141700  0.53003700  1
  S  S106  1  0.77648600  0.94327100  0.77752500  1
  S  S107  1  0.45496600  0.90857900  0.78790400  1
  S  S108  1  0.79651200  0.67598100  0.03585500  1
  S  S109  1  0.42901700  0.03761000  0.59847100  1
  S  S110  1  0.31747400  0.24862700  0.30267700  1
  S  S111  1  0.18252600  0.74862700  0.80267700  1
  S  S112  1  0.65491000  0.05583800  0.90678100  1
  S  S113  1  0.13310300  0.79414500  0.16311700  1
  S  S114  1  0.19813600  0.45217600  0.78709100  1
  S  S115  1  0.42959400  0.41259700  0.88695300  1
  S  S116  1  0.48427300  0.69530700  0.60515300  1
  S  S117  1  0.91125200  0.57124200  0.60985100  1
  S  S118  1  0.82124400  0.05974000  0.41791300  1
  S  S119  1  0.68252600  0.75137300  0.69732300  1
  S  S120  1  0.05251300  0.88190200  0.28516000  1
  S  S121  1  0.57792500  0.50591700  0.40753900  1
  S  S122  1  0.92207500  0.00591700  0.90753900  1
  S  S123  1  0.30598000  0.44442500  0.27690800  1
  S  S124  1  0.72351400  0.44327100  0.27752500  1
  S  S125  1  0.91230500  0.80923500  0.58353200  1
  S  S126  1  0.11055000  0.67461000  0.41583500  1
  S  S127  1  0.30101100  0.78115900  0.72834700  1
  S  S128  1  0.69898900  0.21884100  0.27165300  1
  S  S129  1  0.08769500  0.19076500  0.41646800  1
  S  S130  1  0.70348800  0.17598100  0.53585500  1
  S  S131  1  0.67875600  0.55974000  0.91791300  1
  S  S132  1  0.27648600  0.55672900  0.72247500  1
  S  S133  1  0.90672500  0.25141700  0.03003700  1
  S  S134  1  0.54503400  0.09142100  0.21209600  1
  S  S135  1  0.45289000  0.90636900  0.61556400  1
  S  S136  1  0.86437400  0.72616700  0.11567700  1
  S  S137  1  0.25211100  0.06382200  0.72251300  1
  S  S138  1  0.19898900  0.28115900  0.22834700  1
  S  S139  1  0.92959400  0.08740300  0.61304700  1
