# generated using pymatgen
data_TmZn2
_symmetry_space_group_name_H-M   'P 1'
_cell_length_a   5.60074027
_cell_length_b   5.60074027
_cell_length_c   5.60074027
_cell_angle_alpha   132.86503080
_cell_angle_beta   102.61118680
_cell_angle_gamma   95.81936635
_symmetry_Int_Tables_number   1
_chemical_formula_structural   TmZn2
_chemical_formula_sum   'Tm2 Zn4'
_cell_volume   117.74329553
_cell_formula_units_Z   2
loop_
 _symmetry_equiv_pos_site_id
 _symmetry_equiv_pos_as_xyz
  1  'x, y, z'
loop_
 _atom_site_type_symbol
 _atom_site_label
 _atom_site_symmetry_multiplicity
 _atom_site_fract_x
 _atom_site_fract_y
 _atom_site_fract_z
 _atom_site_occupancy
  Tm  Tm0  1  0.21924300  0.46924300  0.75000000  1
  Tm  Tm1  1  0.78075700  0.53075700  0.25000000  1
  Zn  Zn2  1  0.37647900  0.83348900  0.54299100  1
  Zn  Zn3  1  0.62352100  0.16651100  0.45700900  1
  Zn  Zn4  1  0.20950200  0.16651100  0.04299100  1
  Zn  Zn5  1  0.79049800  0.83348900  0.95700900  1
