# generated using pymatgen
data_Ca3(Cu2Sn)4
_symmetry_space_group_name_H-M   'P 1'
_cell_length_a   9.14353337
_cell_length_b   9.14353337
_cell_length_c   7.75314200
_cell_angle_alpha   90.00000000
_cell_angle_beta   90.00000000
_cell_angle_gamma   119.99999546
_symmetry_Int_Tables_number   1
_chemical_formula_structural   Ca3(Cu2Sn)4
_chemical_formula_sum   'Ca6 Cu16 Sn8'
_cell_volume   561.35358231
_cell_formula_units_Z   2
loop_
 _symmetry_equiv_pos_site_id
 _symmetry_equiv_pos_as_xyz
  1  'x, y, z'
loop_
 _atom_site_type_symbol
 _atom_site_label
 _atom_site_symmetry_multiplicity
 _atom_site_fract_x
 _atom_site_fract_y
 _atom_site_fract_z
 _atom_site_occupancy
  Ca  Ca0  1  0.47572100  0.52427900  0.49886000  1
  Ca  Ca1  1  0.95144200  0.47572100  0.99886000  1
  Ca  Ca2  1  0.52427900  0.04855800  0.99886000  1
  Ca  Ca3  1  0.04855800  0.52427900  0.49886000  1
  Ca  Ca4  1  0.47572100  0.95144200  0.49886000  1
  Ca  Ca5  1  0.52427900  0.47572100  0.99886000  1
  Cu  Cu6  1  0.79423800  0.89711900  0.47043600  1
  Cu  Cu7  1  0.00000000  0.00000000  0.71857600  1
  Cu  Cu8  1  0.67288800  0.83644400  0.16041100  1
  Cu  Cu9  1  0.89711900  0.79423800  0.97043600  1
  Cu  Cu10  1  0.83644400  0.16355600  0.66041100  1
  Cu  Cu11  1  0.16355600  0.83644400  0.16041100  1
  Cu  Cu12  1  0.20576200  0.10288100  0.97043600  1
  Cu  Cu13  1  0.16355600  0.32711200  0.16041100  1
  Cu  Cu14  1  0.00000000  0.00000000  0.21857600  1
  Cu  Cu15  1  0.33333300  0.66666700  0.83868200  1
  Cu  Cu16  1  0.83644400  0.67288800  0.66041100  1
  Cu  Cu17  1  0.89711900  0.10288100  0.97043600  1
  Cu  Cu18  1  0.10288100  0.20576200  0.47043600  1
  Cu  Cu19  1  0.10288100  0.89711900  0.47043600  1
  Cu  Cu20  1  0.32711200  0.16355600  0.66041100  1
  Cu  Cu21  1  0.66666700  0.33333300  0.33868200  1
  Sn  Sn22  1  0.33333300  0.66666700  0.19626200  1
  Sn  Sn23  1  0.16899800  0.33799600  0.78842000  1
  Sn  Sn24  1  0.66200400  0.83100200  0.78842000  1
  Sn  Sn25  1  0.33799600  0.16899800  0.28842000  1
  Sn  Sn26  1  0.83100200  0.66200400  0.28842000  1
  Sn  Sn27  1  0.66666700  0.33333300  0.69626200  1
  Sn  Sn28  1  0.16899800  0.83100200  0.78842000  1
  Sn  Sn29  1  0.83100200  0.16899800  0.28842000  1
