# generated using pymatgen
data_LaSe2
_symmetry_space_group_name_H-M   'P 1'
_cell_length_a   4.28006800
_cell_length_b   8.56277300
_cell_length_c   8.63809166
_cell_angle_alpha   89.78884712
_cell_angle_beta   90.00000000
_cell_angle_gamma   90.00000000
_symmetry_Int_Tables_number   1
_chemical_formula_structural   LaSe2
_chemical_formula_sum   'La4 Se8'
_cell_volume   316.57743705
_cell_formula_units_Z   4
loop_
 _symmetry_equiv_pos_site_id
 _symmetry_equiv_pos_as_xyz
  1  'x, y, z'
loop_
 _atom_site_type_symbol
 _atom_site_label
 _atom_site_symmetry_multiplicity
 _atom_site_fract_x
 _atom_site_fract_y
 _atom_site_fract_z
 _atom_site_occupancy
  La  La0  1  0.22024000  0.12776700  0.72354400  1
  La  La1  1  0.27976000  0.62776700  0.72354400  1
  La  La2  1  0.77976000  0.87223300  0.27645600  1
  La  La3  1  0.72024000  0.37223300  0.27645600  1
  Se  Se4  1  0.67765000  0.11723900  0.99762900  1
  Se  Se5  1  0.17765000  0.38276100  0.00237100  1
  Se  Se6  1  0.82235000  0.61723900  0.99762900  1
  Se  Se7  1  0.75862300  0.87490500  0.63451500  1
  Se  Se8  1  0.25862300  0.62509500  0.36548500  1
  Se  Se9  1  0.32235000  0.88276100  0.00237100  1
  Se  Se10  1  0.74137700  0.37490500  0.63451500  1
  Se  Se11  1  0.24137700  0.12509500  0.36548500  1
