# generated using pymatgen
data_Al2SnCl6O
_symmetry_space_group_name_H-M   'P 1'
_cell_length_a   12.62857100
_cell_length_b   9.57824400
_cell_length_c   12.82734010
_cell_angle_alpha   48.61420761
_cell_angle_beta   90.00000000
_cell_angle_gamma   90.00000000
_symmetry_Int_Tables_number   1
_chemical_formula_structural   Al2SnCl6O
_chemical_formula_sum   'Al8 Sn4 Cl24 O4'
_cell_volume   1164.11855082
_cell_formula_units_Z   4
loop_
 _symmetry_equiv_pos_site_id
 _symmetry_equiv_pos_as_xyz
  1  'x, y, z'
loop_
 _atom_site_type_symbol
 _atom_site_label
 _atom_site_symmetry_multiplicity
 _atom_site_fract_x
 _atom_site_fract_y
 _atom_site_fract_z
 _atom_site_occupancy
  Al  Al0  1  0.10822700  0.63541800  0.72545800  1
  Al  Al1  1  0.39177300  0.63541800  0.22545800  1
  Al  Al2  1  0.00744100  0.04663700  0.57736400  1
  Al  Al3  1  0.89177300  0.36458200  0.27454200  1
  Al  Al4  1  0.99255900  0.95336300  0.42263600  1
  Al  Al5  1  0.49255900  0.04663700  0.07736400  1
  Al  Al6  1  0.60822700  0.36458200  0.77454200  1
  Al  Al7  1  0.50744100  0.95336300  0.92263600  1
  Sn  Sn8  1  0.97722800  0.21971000  0.79649600  1
  Sn  Sn9  1  0.52277200  0.21971000  0.29649600  1
  Sn  Sn10  1  0.02277200  0.78029000  0.20350400  1
  Sn  Sn11  1  0.47722800  0.78029000  0.70350400  1
  Cl  Cl12  1  0.16686100  0.51522900  0.64311400  1
  Cl  Cl13  1  0.27734400  0.67273500  0.32692300  1
  Cl  Cl14  1  0.13350500  0.01069000  0.96783200  1
  Cl  Cl15  1  0.77734400  0.32726500  0.17307700  1
  Cl  Cl16  1  0.63350500  0.98931000  0.53216800  1
  Cl  Cl17  1  0.01785600  0.55673200  0.13089300  1
  Cl  Cl18  1  0.98214400  0.44326800  0.86910700  1
  Cl  Cl19  1  0.22265600  0.67273500  0.82692300  1
  Cl  Cl20  1  0.48214400  0.55673200  0.63089300  1
  Cl  Cl21  1  0.87816700  0.77266300  0.44568500  1
  Cl  Cl22  1  0.09704400  0.04966500  0.25539600  1
  Cl  Cl23  1  0.37816700  0.22733700  0.05431500  1
  Cl  Cl24  1  0.59704400  0.95033500  0.24460400  1
  Cl  Cl25  1  0.86649500  0.98931000  0.03216800  1
  Cl  Cl26  1  0.40295600  0.04966500  0.75539600  1
  Cl  Cl27  1  0.12183300  0.22733700  0.55431500  1
  Cl  Cl28  1  0.33313900  0.51522900  0.14311400  1
  Cl  Cl29  1  0.36649500  0.01069000  0.46783200  1
  Cl  Cl30  1  0.90295600  0.95033500  0.74460400  1
  Cl  Cl31  1  0.62183300  0.77266300  0.94568500  1
  Cl  Cl32  1  0.51785600  0.44326800  0.36910700  1
  Cl  Cl33  1  0.83313900  0.48477100  0.35688600  1
  Cl  Cl34  1  0.72265600  0.32726500  0.67307700  1
  Cl  Cl35  1  0.66686100  0.48477100  0.85688600  1
  O  O36  1  0.94855900  0.14329300  0.41198700  1
  O  O37  1  0.55144100  0.14329300  0.91198700  1
  O  O38  1  0.44855900  0.85670700  0.08801300  1
  O  O39  1  0.05144100  0.85670700  0.58801300  1
