# generated using pymatgen
data_Na3Mn4(TeO6)2
_symmetry_space_group_name_H-M   'P 1'
_cell_length_a   9.35416100
_cell_length_b   9.61633200
_cell_length_c   11.21181000
_cell_angle_alpha   90.00000000
_cell_angle_beta   90.00000000
_cell_angle_gamma   90.00000000
_symmetry_Int_Tables_number   1
_chemical_formula_structural   Na3Mn4(TeO6)2
_chemical_formula_sum   'Na12 Mn16 Te8 O48'
_cell_volume   1008.53278048
_cell_formula_units_Z   4
loop_
 _symmetry_equiv_pos_site_id
 _symmetry_equiv_pos_as_xyz
  1  'x, y, z'
loop_
 _atom_site_type_symbol
 _atom_site_label
 _atom_site_symmetry_multiplicity
 _atom_site_fract_x
 _atom_site_fract_y
 _atom_site_fract_z
 _atom_site_occupancy
  Na  Na0  1  0.08251700  0.75212500  0.64600800  1
  Na  Na1  1  0.58251700  0.24787500  0.35399200  1
  Na  Na2  1  0.25000000  0.23800000  0.34501700  1
  Na  Na3  1  0.41748300  0.75212500  0.64600800  1
  Na  Na4  1  0.75000000  0.26200000  0.84501700  1
  Na  Na5  1  0.91748300  0.74787500  0.14600800  1
  Na  Na6  1  0.41748300  0.25212500  0.85399200  1
  Na  Na7  1  0.08251700  0.25212500  0.85399200  1
  Na  Na8  1  0.25000000  0.73800000  0.15498300  1
  Na  Na9  1  0.58251700  0.74787500  0.14600800  1
  Na  Na10  1  0.75000000  0.76200000  0.65498300  1
  Na  Na11  1  0.91748300  0.24787500  0.35399200  1
  Mn  Mn12  1  0.91331500  0.57007000  0.38759300  1
  Mn  Mn13  1  0.91331500  0.07007000  0.11240700  1
  Mn  Mn14  1  0.08310300  0.41596800  0.10783800  1
  Mn  Mn15  1  0.41331500  0.42993000  0.61240700  1
  Mn  Mn16  1  0.58310300  0.08403200  0.60783800  1
  Mn  Mn17  1  0.58668500  0.07007000  0.11240700  1
  Mn  Mn18  1  0.91689700  0.08403200  0.60783800  1
  Mn  Mn19  1  0.08668500  0.42993000  0.61240700  1
  Mn  Mn20  1  0.58310300  0.58403200  0.89216200  1
  Mn  Mn21  1  0.41331500  0.92993000  0.88759300  1
  Mn  Mn22  1  0.08310300  0.91596800  0.39216200  1
  Mn  Mn23  1  0.91689700  0.58403200  0.89216200  1
  Mn  Mn24  1  0.08668500  0.92993000  0.88759300  1
  Mn  Mn25  1  0.41689700  0.91596800  0.39216200  1
  Mn  Mn26  1  0.58668500  0.57007000  0.38759300  1
  Mn  Mn27  1  0.41689700  0.41596800  0.10783800  1
  Te  Te28  1  0.75000000  0.44287800  0.61590100  1
  Te  Te29  1  0.25000000  0.58367600  0.89667900  1
  Te  Te30  1  0.75000000  0.91632400  0.39667900  1
  Te  Te31  1  0.25000000  0.05712200  0.11590100  1
  Te  Te32  1  0.75000000  0.94287800  0.88409900  1
  Te  Te33  1  0.25000000  0.08367600  0.60332100  1
  Te  Te34  1  0.75000000  0.41632400  0.10332100  1
  Te  Te35  1  0.25000000  0.55712200  0.38409900  1
  O  O36  1  0.09300100  0.62607500  0.00801400  1
  O  O37  1  0.25000000  0.89718400  0.52692500  1
  O  O38  1  0.75000000  0.01323500  0.71636300  1
  O  O39  1  0.09658000  0.42381000  0.41702700  1
  O  O40  1  0.59658000  0.07619000  0.91702700  1
  O  O41  1  0.40699900  0.12607500  0.49198600  1
  O  O42  1  0.90342000  0.57619000  0.58297300  1
  O  O43  1  0.90699900  0.37392500  0.99198600  1
  O  O44  1  0.75000000  0.41198700  0.44258500  1
  O  O45  1  0.75000000  0.51323500  0.78363700  1
  O  O46  1  0.90418200  0.47323000  0.21201200  1
  O  O47  1  0.40418200  0.52677000  0.78798800  1
  O  O48  1  0.25000000  0.98676500  0.28363700  1
  O  O49  1  0.40418200  0.02677000  0.71201200  1
  O  O50  1  0.75000000  0.22550200  0.16629300  1
  O  O51  1  0.59300100  0.87392500  0.50801400  1
  O  O52  1  0.90342000  0.07619000  0.91702700  1
  O  O53  1  0.59581800  0.97323000  0.28798800  1
  O  O54  1  0.25000000  0.58801300  0.55741500  1
  O  O55  1  0.60123200  0.30570900  0.65608400  1
  O  O56  1  0.39876800  0.19429100  0.15608400  1
  O  O57  1  0.40699900  0.62607500  0.00801400  1
  O  O58  1  0.25000000  0.39718400  0.97307500  1
  O  O59  1  0.90699900  0.87392500  0.50801400  1
  O  O60  1  0.09581800  0.52677000  0.78798800  1
  O  O61  1  0.25000000  0.27449800  0.66629300  1
  O  O62  1  0.40342000  0.42381000  0.41702700  1
  O  O63  1  0.39876800  0.69429100  0.34391600  1
  O  O64  1  0.59581800  0.47323000  0.21201200  1
  O  O65  1  0.59658000  0.57619000  0.58297300  1
  O  O66  1  0.09581800  0.02677000  0.71201200  1
  O  O67  1  0.25000000  0.48676500  0.21636300  1
  O  O68  1  0.90418200  0.97323000  0.28798800  1
  O  O69  1  0.09658000  0.92381000  0.08297300  1
  O  O70  1  0.75000000  0.72550200  0.33370700  1
  O  O71  1  0.75000000  0.60281600  0.02692500  1
  O  O72  1  0.89876800  0.80570900  0.84391600  1
  O  O73  1  0.09300100  0.12607500  0.49198600  1
  O  O74  1  0.10123200  0.19429100  0.15608400  1
  O  O75  1  0.40342000  0.92381000  0.08297300  1
  O  O76  1  0.25000000  0.77449800  0.83370700  1
  O  O77  1  0.75000000  0.91198700  0.05741500  1
  O  O78  1  0.25000000  0.08801300  0.94258500  1
  O  O79  1  0.10123200  0.69429100  0.34391600  1
  O  O80  1  0.75000000  0.10281600  0.47307500  1
  O  O81  1  0.89876800  0.30570900  0.65608400  1
  O  O82  1  0.60123200  0.80570900  0.84391600  1
  O  O83  1  0.59300100  0.37392500  0.99198600  1
