# generated using pymatgen
data_Si2Ge3P6O25
_symmetry_space_group_name_H-M   'P 1'
_cell_length_a   8.08318290
_cell_length_b   8.08318290
_cell_length_c   16.65663800
_cell_angle_alpha   90.00000000
_cell_angle_beta   90.00000000
_cell_angle_gamma   120.00000740
_symmetry_Int_Tables_number   1
_chemical_formula_structural   Si2Ge3P6O25
_chemical_formula_sum   'Si4 Ge6 P12 O50'
_cell_volume   942.50303778
_cell_formula_units_Z   2
loop_
 _symmetry_equiv_pos_site_id
 _symmetry_equiv_pos_as_xyz
  1  'x, y, z'
loop_
 _atom_site_type_symbol
 _atom_site_label
 _atom_site_symmetry_multiplicity
 _atom_site_fract_x
 _atom_site_fract_y
 _atom_site_fract_z
 _atom_site_occupancy
  Si  Si0  1  0.00000000  0.00000000  0.84673800  1
  Si  Si1  1  0.00000000  0.00000000  0.34673800  1
  Si  Si2  1  0.00000000  0.00000000  0.15326200  1
  Si  Si3  1  0.00000000  0.00000000  0.65326200  1
  Ge  Ge4  1  0.33333300  0.66666700  0.47590400  1
  Ge  Ge5  1  0.66666700  0.33333300  0.97590400  1
  Ge  Ge6  1  0.66666700  0.33333300  0.52409600  1
  Ge  Ge7  1  0.33333300  0.66666700  0.02409600  1
  Ge  Ge8  1  0.66666700  0.33333300  0.25000000  1
  Ge  Ge9  1  0.33333300  0.66666700  0.75000000  1
  P  P10  1  0.95248900  0.61471900  0.39189000  1
  P  P11  1  0.38528100  0.04751100  0.10811000  1
  P  P12  1  0.04751100  0.38528100  0.60811000  1
  P  P13  1  0.66222900  0.61471900  0.10811000  1
  P  P14  1  0.04751100  0.66222900  0.89189000  1
  P  P15  1  0.61471900  0.66222900  0.60811000  1
  P  P16  1  0.61471900  0.95248900  0.89189000  1
  P  P17  1  0.95248900  0.33777100  0.10811000  1
  P  P18  1  0.33777100  0.95248900  0.60811000  1
  P  P19  1  0.33777100  0.38528100  0.89189000  1
  P  P20  1  0.38528100  0.33777100  0.39189000  1
  P  P21  1  0.66222900  0.04751100  0.39189000  1
  O  O22  1  0.83837200  0.79439400  0.61748600  1
  O  O23  1  0.46094400  0.57707900  0.09029800  1
  O  O24  1  0.42292100  0.53905600  0.40970200  1
  O  O25  1  0.47119300  0.33502400  0.31072100  1
  O  O26  1  0.53905600  0.42292100  0.90970200  1
  O  O27  1  0.66497600  0.13616800  0.31072100  1
  O  O28  1  0.16162800  0.20560600  0.38251400  1
  O  O29  1  0.16162800  0.95602200  0.11748600  1
  O  O30  1  0.53905600  0.11613500  0.59029800  1
  O  O31  1  0.88386500  0.42292100  0.59029800  1
  O  O32  1  0.19732300  0.44389600  0.54091000  1
  O  O33  1  0.11613500  0.53905600  0.09029800  1
  O  O34  1  0.66497600  0.52880700  0.18927900  1
  O  O35  1  0.47119300  0.13616800  0.18927900  1
  O  O36  1  0.44389600  0.24657300  0.45909000  1
  O  O37  1  0.55610400  0.75342700  0.54091000  1
  O  O38  1  0.75342700  0.19732300  0.45909000  1
  O  O39  1  0.33502400  0.86383200  0.68927900  1
  O  O40  1  0.80267700  0.55610400  0.45909000  1
  O  O41  1  0.42292100  0.88386500  0.09029800  1
  O  O42  1  0.11613500  0.57707900  0.40970200  1
  O  O43  1  0.33502400  0.47119300  0.81072100  1
  O  O44  1  0.04397800  0.83837200  0.38251400  1
  O  O45  1  0.86383200  0.33502400  0.18927900  1
  O  O46  1  0.20560600  0.04397800  0.61748600  1
  O  O47  1  0.44389600  0.19732300  0.04091000  1
  O  O48  1  0.13616800  0.66497600  0.81072100  1
  O  O49  1  0.52880700  0.66497600  0.68927900  1
  O  O50  1  0.80267700  0.24657300  0.04091000  1
  O  O51  1  0.57707900  0.11613500  0.90970200  1
  O  O52  1  0.00000000  0.00000000  0.25000000  1
  O  O53  1  0.19732300  0.75342700  0.95909000  1
  O  O54  1  0.88386500  0.46094400  0.90970200  1
  O  O55  1  0.24657300  0.80267700  0.54091000  1
  O  O56  1  0.95602200  0.16162800  0.61748600  1
  O  O57  1  0.13616800  0.47119300  0.68927900  1
  O  O58  1  0.20560600  0.16162800  0.88251400  1
  O  O59  1  0.75342700  0.55610400  0.04091000  1
  O  O60  1  0.46094400  0.88386500  0.40970200  1
  O  O61  1  0.83837200  0.04397800  0.88251400  1
  O  O62  1  0.79439400  0.95602200  0.38251400  1
  O  O63  1  0.52880700  0.86383200  0.81072100  1
  O  O64  1  0.04397800  0.20560600  0.11748600  1
  O  O65  1  0.79439400  0.83837200  0.11748600  1
  O  O66  1  0.24657300  0.44389600  0.95909000  1
  O  O67  1  0.86383200  0.52880700  0.31072100  1
  O  O68  1  0.57707900  0.46094400  0.59029800  1
  O  O69  1  0.95602200  0.79439400  0.88251400  1
  O  O70  1  0.00000000  0.00000000  0.75000000  1
  O  O71  1  0.55610400  0.80267700  0.95909000  1
