# generated using pymatgen
data_BeF2
_symmetry_space_group_name_H-M   'P 1'
_cell_length_a   7.41392224
_cell_length_b   7.41392224
_cell_length_c   7.41392224
_cell_angle_alpha   109.47122063
_cell_angle_beta   109.47122063
_cell_angle_gamma   109.47122063
_symmetry_Int_Tables_number   1
_chemical_formula_structural   BeF2
_chemical_formula_sum   'Be6 F12'
_cell_volume   313.70554044
_cell_formula_units_Z   6
loop_
 _symmetry_equiv_pos_site_id
 _symmetry_equiv_pos_as_xyz
  1  'x, y, z'
loop_
 _atom_site_type_symbol
 _atom_site_label
 _atom_site_symmetry_multiplicity
 _atom_site_fract_x
 _atom_site_fract_y
 _atom_site_fract_z
 _atom_site_occupancy
  Be  Be0  1  0.25000000  0.50000000  0.75000000  1
  Be  Be1  1  0.75000000  0.25000000  0.50000000  1
  Be  Be2  1  0.50000000  0.25000000  0.75000000  1
  Be  Be3  1  0.25000000  0.75000000  0.50000000  1
  Be  Be4  1  0.75000000  0.50000000  0.25000000  1
  Be  Be5  1  0.50000000  0.75000000  0.25000000  1
  F  F6  1  0.29117400  0.67886100  0.67886100  1
  F  F7  1  0.00000000  0.61231300  0.32113900  1
  F  F8  1  0.70882600  0.38768700  0.38768700  1
  F  F9  1  0.61231300  0.32113900  0.00000000  1
  F  F10  1  0.67886100  0.67886100  0.29117400  1
  F  F11  1  0.32113900  0.61231300  0.00000000  1
  F  F12  1  0.32113900  0.00000000  0.61231300  1
  F  F13  1  0.61231300  0.00000000  0.32113900  1
  F  F14  1  0.67886100  0.29117400  0.67886100  1
  F  F15  1  0.38768700  0.38768700  0.70882600  1
  F  F16  1  0.38768700  0.70882600  0.38768700  1
  F  F17  1  0.00000000  0.32113900  0.61231300  1
