# generated using pymatgen
data_LaMg(BO2)5
_symmetry_space_group_name_H-M   'P 1'
_cell_length_a   7.67640500
_cell_length_b   8.89872100
_cell_length_c   12.79646117
_cell_angle_alpha   48.17509275
_cell_angle_beta   90.00000000
_cell_angle_gamma   90.00000000
_symmetry_Int_Tables_number   1
_chemical_formula_structural   LaMg(BO2)5
_chemical_formula_sum   'La4 Mg4 B20 O40'
_cell_volume   651.38858651
_cell_formula_units_Z   4
loop_
 _symmetry_equiv_pos_site_id
 _symmetry_equiv_pos_as_xyz
  1  'x, y, z'
loop_
 _atom_site_type_symbol
 _atom_site_label
 _atom_site_symmetry_multiplicity
 _atom_site_fract_x
 _atom_site_fract_y
 _atom_site_fract_z
 _atom_site_occupancy
  La  La0  1  0.18937700  0.94950300  0.23523400  1
  La  La1  1  0.68937700  0.05049700  0.26476600  1
  La  La2  1  0.81062300  0.05049700  0.76476600  1
  La  La3  1  0.31062300  0.94950300  0.73523400  1
  Mg  Mg4  1  0.41271000  0.48854500  0.12104400  1
  Mg  Mg5  1  0.91271000  0.51145500  0.37895600  1
  Mg  Mg6  1  0.58729000  0.51145500  0.87895600  1
  Mg  Mg7  1  0.08729000  0.48854500  0.62104400  1
  B  B8  1  0.67062000  0.90165800  0.61088600  1
  B  B9  1  0.81510600  0.48750400  0.08462900  1
  B  B10  1  0.46695400  0.73132500  0.55200100  1
  B  B11  1  0.31510600  0.51249600  0.41537100  1
  B  B12  1  0.96695400  0.26867500  0.94799900  1
  B  B13  1  0.91564500  0.64253100  0.76923200  1
  B  B14  1  0.17062000  0.09834200  0.88911400  1
  B  B15  1  0.32938000  0.09834200  0.38911400  1
  B  B16  1  0.08435500  0.35746900  0.23076800  1
  B  B17  1  0.41564500  0.35746900  0.73076800  1
  B  B18  1  0.53304600  0.26867500  0.44799900  1
  B  B19  1  0.90591100  0.84142900  0.50905000  1
  B  B20  1  0.82938000  0.90165800  0.11088600  1
  B  B21  1  0.09408900  0.15857100  0.49095000  1
  B  B22  1  0.59408900  0.84142900  0.00905000  1
  B  B23  1  0.18489400  0.51249600  0.91537100  1
  B  B24  1  0.40591100  0.15857100  0.99095000  1
  B  B25  1  0.68489400  0.48750400  0.58462900  1
  B  B26  1  0.03304600  0.73132500  0.05200100  1
  B  B27  1  0.58435500  0.64253100  0.26923200  1
  O  O28  1  0.42224500  0.67350800  0.31532200  1
  O  O29  1  0.47672100  0.23361400  0.35457000  1
  O  O30  1  0.52327900  0.76638600  0.64543000  1
  O  O31  1  0.77865600  0.96828300  0.49154700  1
  O  O32  1  0.03559000  0.12183400  0.60639800  1
  O  O33  1  0.92224500  0.32649200  0.18467800  1
  O  O34  1  0.77685200  0.78181100  0.74212500  1
  O  O35  1  0.37306900  0.31821000  0.49006300  1
  O  O36  1  0.65307100  0.43754000  0.06927800  1
  O  O37  1  0.10404300  0.91920600  0.91382900  1
  O  O38  1  0.97672100  0.76638600  0.14543000  1
  O  O39  1  0.27685200  0.21818900  0.75787500  1
  O  O40  1  0.89595700  0.08079400  0.08617100  1
  O  O41  1  0.34692900  0.56246000  0.93072200  1
  O  O42  1  0.60404300  0.08079400  0.58617100  1
  O  O43  1  0.22134400  0.03171700  0.50845300  1
  O  O44  1  0.84692900  0.43754000  0.56927800  1
  O  O45  1  0.34492600  0.56260900  0.62454400  1
  O  O46  1  0.02327900  0.23361400  0.85457000  1
  O  O47  1  0.72134400  0.96828300  0.99154700  1
  O  O48  1  0.15307100  0.56246000  0.43072200  1
  O  O49  1  0.53662000  0.67702800  0.14097500  1
  O  O50  1  0.84492600  0.43739100  0.87545600  1
  O  O51  1  0.65507400  0.43739100  0.37545600  1
  O  O52  1  0.22314800  0.21818900  0.25787500  1
  O  O53  1  0.39595700  0.91920600  0.41382900  1
  O  O54  1  0.03662000  0.32297200  0.35902500  1
  O  O55  1  0.15507400  0.56260900  0.12454400  1
  O  O56  1  0.87306900  0.68179000  0.00993700  1
  O  O57  1  0.27865600  0.03171700  0.00845300  1
  O  O58  1  0.12693100  0.31821000  0.99006300  1
  O  O59  1  0.46338000  0.32297200  0.85902500  1
  O  O60  1  0.72314800  0.78181100  0.24212500  1
  O  O61  1  0.57775500  0.32649200  0.68467800  1
  O  O62  1  0.53559000  0.87816600  0.89360200  1
  O  O63  1  0.62693100  0.68179000  0.50993700  1
  O  O64  1  0.46441000  0.12183400  0.10639800  1
  O  O65  1  0.96441000  0.87816600  0.39360200  1
  O  O66  1  0.96338000  0.67702800  0.64097500  1
  O  O67  1  0.07775500  0.67350800  0.81532200  1
