# generated using pymatgen
data_CoSb2Br2O3
_symmetry_space_group_name_H-M   'P 1'
_cell_length_a   8.56272469
_cell_length_b   9.15080897
_cell_length_c   10.28920931
_cell_angle_alpha   65.73677557
_cell_angle_beta   84.06562684
_cell_angle_gamma   91.97970460
_symmetry_Int_Tables_number   1
_chemical_formula_structural   CoSb2Br2O3
_chemical_formula_sum   'Co4 Sb8 Br8 O12'
_cell_volume   728.42262828
_cell_formula_units_Z   4
loop_
 _symmetry_equiv_pos_site_id
 _symmetry_equiv_pos_as_xyz
  1  'x, y, z'
loop_
 _atom_site_type_symbol
 _atom_site_label
 _atom_site_symmetry_multiplicity
 _atom_site_fract_x
 _atom_site_fract_y
 _atom_site_fract_z
 _atom_site_occupancy
  Co  Co0  1  0.50882600  0.61715400  0.09501600  1
  Co  Co1  1  0.49117500  0.88284900  0.40498200  1
  Co  Co2  1  0.50882200  0.11715100  0.59502300  1
  Co  Co3  1  0.49117900  0.38285200  0.90497400  1
  Sb  Sb4  1  0.68418900  0.02965700  0.93502100  1
  Sb  Sb5  1  0.68417500  0.52965300  0.43501400  1
  Sb  Sb6  1  0.31583000  0.97034900  0.06498500  1
  Sb  Sb7  1  0.31581400  0.47034500  0.56497800  1
  Sb  Sb8  1  0.69359500  0.79117000  0.73170000  1
  Sb  Sb9  1  0.69358900  0.29113300  0.23172300  1
  Sb  Sb10  1  0.30641000  0.20886800  0.26827400  1
  Sb  Sb11  1  0.30640500  0.70883100  0.76829500  1
  Br  Br12  1  0.77392600  0.93015600  0.28752000  1
  Br  Br13  1  0.77389700  0.43021600  0.78748500  1
  Br  Br14  1  0.22610300  0.06978100  0.71251700  1
  Br  Br15  1  0.22607700  0.56983300  0.21248800  1
  Br  Br16  1  0.85804200  0.23202000  0.46819800  1
  Br  Br17  1  0.85803400  0.73201500  0.96820300  1
  Br  Br18  1  0.14195200  0.76797800  0.53179700  1
  Br  Br19  1  0.14194700  0.26797700  0.03180400  1
  O  O20  1  0.48361200  0.65117100  0.43523100  1
  O  O21  1  0.48362700  0.15117300  0.93524000  1
  O  O22  1  0.51637700  0.34882900  0.56476400  1
  O  O23  1  0.51639200  0.84883100  0.06477400  1
  O  O24  1  0.36844500  0.00862300  0.23824700  1
  O  O25  1  0.36839000  0.50856000  0.73827300  1
  O  O26  1  0.63161000  0.99144000  0.76172600  1
  O  O27  1  0.63155700  0.49137800  0.26175100  1
  O  O28  1  0.51388900  0.14763200  0.38408800  1
  O  O29  1  0.51389000  0.64768700  0.88407300  1
  O  O30  1  0.48610900  0.85231500  0.61592300  1
  O  O31  1  0.48611100  0.35236900  0.11590900  1
