# generated using pymatgen
data_DyMnO3
_symmetry_space_group_name_H-M   'P 1'
_cell_length_a   6.22788111
_cell_length_b   6.22788111
_cell_length_c   11.56132300
_cell_angle_alpha   90.00000000
_cell_angle_beta   90.00000000
_cell_angle_gamma   119.99999058
_symmetry_Int_Tables_number   1
_chemical_formula_structural   DyMnO3
_chemical_formula_sum   'Dy6 Mn6 O18'
_cell_volume   388.34599860
_cell_formula_units_Z   6
loop_
 _symmetry_equiv_pos_site_id
 _symmetry_equiv_pos_as_xyz
  1  'x, y, z'
loop_
 _atom_site_type_symbol
 _atom_site_label
 _atom_site_symmetry_multiplicity
 _atom_site_fract_x
 _atom_site_fract_y
 _atom_site_fract_z
 _atom_site_occupancy
  Dy  Dy0  1  0.00000000  0.00000000  0.28274500  1
  Dy  Dy1  1  0.00000000  0.00000000  0.78274500  1
  Dy  Dy2  1  0.33333300  0.66666700  0.23900200  1
  Dy  Dy3  1  0.66666700  0.33333300  0.73900200  1
  Dy  Dy4  1  0.33333300  0.66666700  0.73900200  1
  Dy  Dy5  1  0.66666700  0.33333300  0.23900200  1
  Mn  Mn6  1  0.33353900  0.00000000  0.00786400  1
  Mn  Mn7  1  0.33353900  0.33353900  0.50786400  1
  Mn  Mn8  1  0.00000000  0.66646100  0.50786400  1
  Mn  Mn9  1  0.00000000  0.33353900  0.00786400  1
  Mn  Mn10  1  0.66646100  0.66646100  0.00786400  1
  Mn  Mn11  1  0.66646100  0.00000000  0.50786400  1
  O  O12  1  0.30758100  0.00000000  0.17247000  1
  O  O13  1  0.30758100  0.30758100  0.67247000  1
  O  O14  1  0.00000000  0.69241900  0.67247000  1
  O  O15  1  0.00000000  0.30758100  0.17247000  1
  O  O16  1  0.69241900  0.69241900  0.17247000  1
  O  O17  1  0.69241900  0.00000000  0.67247000  1
  O  O18  1  0.64145600  0.00000000  0.34336100  1
  O  O19  1  0.64145600  0.64145600  0.84336100  1
  O  O20  1  0.00000000  0.35854400  0.84336100  1
  O  O21  1  0.00000000  0.64145600  0.34336100  1
  O  O22  1  0.35854400  0.35854400  0.34336100  1
  O  O23  1  0.35854400  0.00000000  0.84336100  1
  O  O24  1  0.00000000  0.00000000  0.48387600  1
  O  O25  1  0.00000000  0.00000000  0.98387600  1
  O  O26  1  0.33333300  0.66666700  0.02814700  1
  O  O27  1  0.66666700  0.33333300  0.52814700  1
  O  O28  1  0.33333300  0.66666700  0.52814700  1
  O  O29  1  0.66666700  0.33333300  0.02814700  1
