# generated using pymatgen
data_Tb4MgIr
_symmetry_space_group_name_H-M   'P 1'
_cell_length_a   9.75236581
_cell_length_b   9.75236581
_cell_length_c   9.75236581
_cell_angle_alpha   60.00000000
_cell_angle_beta   60.00000000
_cell_angle_gamma   60.00000000
_symmetry_Int_Tables_number   1
_chemical_formula_structural   Tb4MgIr
_chemical_formula_sum   'Tb16 Mg4 Ir4'
_cell_volume   655.86575049
_cell_formula_units_Z   4
loop_
 _symmetry_equiv_pos_site_id
 _symmetry_equiv_pos_as_xyz
  1  'x, y, z'
loop_
 _atom_site_type_symbol
 _atom_site_label
 _atom_site_symmetry_multiplicity
 _atom_site_fract_x
 _atom_site_fract_y
 _atom_site_fract_z
 _atom_site_occupancy
  Tb  Tb0  1  0.18826000  0.81174000  0.81174000  1
  Tb  Tb1  1  0.81174000  0.18826000  0.18826000  1
  Tb  Tb2  1  0.06304300  0.43695700  0.06304300  1
  Tb  Tb3  1  0.03916500  0.65361200  0.65361200  1
  Tb  Tb4  1  0.65361200  0.65361200  0.65361200  1
  Tb  Tb5  1  0.06304300  0.06304300  0.43695700  1
  Tb  Tb6  1  0.18826000  0.81174000  0.18826000  1
  Tb  Tb7  1  0.81174000  0.81174000  0.18826000  1
  Tb  Tb8  1  0.81174000  0.18826000  0.81174000  1
  Tb  Tb9  1  0.43695700  0.06304300  0.43695700  1
  Tb  Tb10  1  0.43695700  0.43695700  0.06304300  1
  Tb  Tb11  1  0.43695700  0.06304300  0.06304300  1
  Tb  Tb12  1  0.06304300  0.43695700  0.43695700  1
  Tb  Tb13  1  0.18826000  0.18826000  0.81174000  1
  Tb  Tb14  1  0.65361200  0.65361200  0.03916500  1
  Tb  Tb15  1  0.65361200  0.03916500  0.65361200  1
  Mg  Mg16  1  0.42057900  0.42057900  0.73826400  1
  Mg  Mg17  1  0.42057900  0.73826400  0.42057900  1
  Mg  Mg18  1  0.42057900  0.42057900  0.42057900  1
  Mg  Mg19  1  0.73826400  0.42057900  0.42057900  1
  Ir  Ir20  1  0.85872100  0.85872100  0.42383800  1
  Ir  Ir21  1  0.85872100  0.42383800  0.85872100  1
  Ir  Ir22  1  0.85872100  0.85872100  0.85872100  1
  Ir  Ir23  1  0.42383800  0.85872100  0.85872100  1
