# generated using pymatgen
data_SrV4(Bi3O10)2
_symmetry_space_group_name_H-M   'P 1'
_cell_length_a   7.24236800
_cell_length_b   8.10277807
_cell_length_c   9.44310602
_cell_angle_alpha   106.41981695
_cell_angle_beta   93.87832196
_cell_angle_gamma   112.54415436
_symmetry_Int_Tables_number   1
_chemical_formula_structural   SrV4(Bi3O10)2
_chemical_formula_sum   'Sr1 V4 Bi6 O20'
_cell_volume   481.14633180
_cell_formula_units_Z   1
loop_
 _symmetry_equiv_pos_site_id
 _symmetry_equiv_pos_as_xyz
  1  'x, y, z'
loop_
 _atom_site_type_symbol
 _atom_site_label
 _atom_site_symmetry_multiplicity
 _atom_site_fract_x
 _atom_site_fract_y
 _atom_site_fract_z
 _atom_site_occupancy
  Sr  Sr0  1  0.00000000  0.50000000  0.00000000  1
  V  V1  1  0.05234900  0.77583700  0.75737100  1
  V  V2  1  0.65491000  0.10548100  0.74042900  1
  V  V3  1  0.94765100  0.22416300  0.24262900  1
  V  V4  1  0.34509000  0.89451900  0.25957100  1
  Bi  Bi5  1  0.65552500  0.37399000  0.48124800  1
  Bi  Bi6  1  0.42839300  0.29835400  0.07873900  1
  Bi  Bi7  1  0.34447500  0.62601000  0.51875200  1
  Bi  Bi8  1  0.20047300  0.21208500  0.67345100  1
  Bi  Bi9  1  0.79952700  0.78791500  0.32654900  1
  Bi  Bi10  1  0.57160700  0.70164600  0.92126100  1
  O  O11  1  0.83492200  0.97473200  0.16589800  1
  O  O12  1  0.52965600  0.87098700  0.37064000  1
  O  O13  1  0.76531300  0.31647000  0.24415800  1
  O  O14  1  0.37679500  0.13173500  0.31115600  1
  O  O15  1  0.94324200  0.70505700  0.56899500  1
  O  O16  1  0.05675800  0.29494300  0.43100500  1
  O  O17  1  0.35423100  0.80249300  0.07252500  1
  O  O18  1  0.64576900  0.19750700  0.92747500  1
  O  O19  1  0.89628700  0.25457100  0.72658700  1
  O  O20  1  0.55012900  0.53123000  0.36629200  1
  O  O21  1  0.10371300  0.74542900  0.27341300  1
  O  O22  1  0.44987100  0.46877000  0.63370800  1
  O  O23  1  0.23468700  0.68353000  0.75584200  1
  O  O24  1  0.66875400  0.58812500  0.10101800  1
  O  O25  1  0.47034400  0.12901300  0.62936000  1
  O  O26  1  0.33124600  0.41187500  0.89898200  1
  O  O27  1  0.86994500  0.66733100  0.85405500  1
  O  O28  1  0.62320500  0.86826500  0.68884400  1
  O  O29  1  0.16507800  0.02526800  0.83410200  1
  O  O30  1  0.13005500  0.33266900  0.14594500  1
