# generated using pymatgen
data_Y2Ni7
_symmetry_space_group_name_H-M   'P 1'
_cell_length_a   12.36865305
_cell_length_b   12.36865305
_cell_length_c   12.36865364
_cell_angle_alpha   23.02863988
_cell_angle_beta   23.02863988
_cell_angle_gamma   23.02864013
_symmetry_Int_Tables_number   1
_chemical_formula_structural   Y2Ni7
_chemical_formula_sum   'Y4 Ni14'
_cell_volume   254.14447659
_cell_formula_units_Z   2
loop_
 _symmetry_equiv_pos_site_id
 _symmetry_equiv_pos_as_xyz
  1  'x, y, z'
loop_
 _atom_site_type_symbol
 _atom_site_label
 _atom_site_symmetry_multiplicity
 _atom_site_fract_x
 _atom_site_fract_y
 _atom_site_fract_z
 _atom_site_occupancy
  Y  Y0  1  0.94956400  0.94956400  0.94956400  1
  Y  Y1  1  0.14716200  0.14716200  0.14716200  1
  Y  Y2  1  0.05043600  0.05043600  0.05043600  1
  Y  Y3  1  0.85283800  0.85283800  0.85283800  1
  Ni  Ni4  1  0.72181900  0.72181900  0.72181900  1
  Ni  Ni5  1  0.38826500  0.38826500  0.38826500  1
  Ni  Ni6  1  0.38998800  0.89113400  0.38998800  1
  Ni  Ni7  1  0.61173500  0.61173500  0.61173500  1
  Ni  Ni8  1  0.00000000  0.50000000  0.50000000  1
  Ni  Ni9  1  0.61001200  0.61001200  0.10886600  1
  Ni  Ni10  1  0.50000000  0.50000000  0.50000000  1
  Ni  Ni11  1  0.38998800  0.38998800  0.89113400  1
  Ni  Ni12  1  0.27818100  0.27818100  0.27818100  1
  Ni  Ni13  1  0.61001200  0.10886600  0.61001200  1
  Ni  Ni14  1  0.89113400  0.38998800  0.38998800  1
  Ni  Ni15  1  0.50000000  0.00000000  0.50000000  1
  Ni  Ni16  1  0.50000000  0.50000000  0.00000000  1
  Ni  Ni17  1  0.10886600  0.61001200  0.61001200  1
