# generated using pymatgen
data_KUNbO6
_symmetry_space_group_name_H-M   'P 1'
_cell_length_a   7.63426300
_cell_length_b   10.47445300
_cell_length_c   13.63424900
_cell_angle_alpha   90.00000000
_cell_angle_beta   90.00000000
_cell_angle_gamma   90.00000000
_symmetry_Int_Tables_number   1
_chemical_formula_structural   KUNbO6
_chemical_formula_sum   'K8 U8 Nb8 O48'
_cell_volume   1090.25902617
_cell_formula_units_Z   8
loop_
 _symmetry_equiv_pos_site_id
 _symmetry_equiv_pos_as_xyz
  1  'x, y, z'
loop_
 _atom_site_type_symbol
 _atom_site_label
 _atom_site_symmetry_multiplicity
 _atom_site_fract_x
 _atom_site_fract_y
 _atom_site_fract_z
 _atom_site_occupancy
  K  K0  1  0.50776700  0.35608000  0.55895200  1
  K  K1  1  0.99223300  0.85608000  0.94104800  1
  K  K2  1  0.49223300  0.64392000  0.44104800  1
  K  K3  1  0.50776700  0.85608000  0.94104800  1
  K  K4  1  0.00776700  0.64392000  0.44104800  1
  K  K5  1  0.00776700  0.14392000  0.05895200  1
  K  K6  1  0.49223300  0.14392000  0.05895200  1
  K  K7  1  0.99223300  0.35608000  0.55895200  1
  U  U8  1  0.75000000  0.85359200  0.22496500  1
  U  U9  1  0.75000000  0.35359200  0.27503500  1
  U  U10  1  0.75000000  0.18434000  0.79812500  1
  U  U11  1  0.25000000  0.14640800  0.77503500  1
  U  U12  1  0.25000000  0.64640800  0.72496500  1
  U  U13  1  0.75000000  0.68434000  0.70187500  1
  U  U14  1  0.25000000  0.81566000  0.20187500  1
  U  U15  1  0.25000000  0.31566000  0.29812500  1
  Nb  Nb16  1  0.99951200  0.45100900  0.89181700  1
  Nb  Nb17  1  0.50048800  0.95100900  0.60818300  1
  Nb  Nb18  1  0.50048800  0.45100900  0.89181700  1
  Nb  Nb19  1  0.49951200  0.04899100  0.39181700  1
  Nb  Nb20  1  0.49951200  0.54899100  0.10818300  1
  Nb  Nb21  1  0.00048800  0.54899100  0.10818300  1
  Nb  Nb22  1  0.00048800  0.04899100  0.39181700  1
  Nb  Nb23  1  0.99951200  0.95100900  0.60818300  1
  O  O24  1  0.75000000  0.08787100  0.91335400  1
  O  O25  1  0.53372600  0.56036300  0.76910600  1
  O  O26  1  0.96876900  0.73273800  0.15826800  1
  O  O27  1  0.75000000  0.45399900  0.38762800  1
  O  O28  1  0.75000000  0.28319200  0.68655000  1
  O  O29  1  0.75000000  0.39302700  0.88341800  1
  O  O30  1  0.25000000  0.48102100  0.85525600  1
  O  O31  1  0.75000000  0.74702100  0.33227900  1
  O  O32  1  0.44917900  0.39348600  0.02739700  1
  O  O33  1  0.75000000  0.78319200  0.81345000  1
  O  O34  1  0.53123100  0.23273800  0.34173200  1
  O  O35  1  0.25000000  0.54600100  0.61237200  1
  O  O36  1  0.46627400  0.93963700  0.26910600  1
  O  O37  1  0.25000000  0.21680800  0.18655000  1
  O  O38  1  0.25000000  0.75297900  0.83227900  1
  O  O39  1  0.55082100  0.60651400  0.97260300  1
  O  O40  1  0.75000000  0.01897900  0.35525600  1
  O  O41  1  0.96876900  0.23273800  0.34173200  1
  O  O42  1  0.94917900  0.10651400  0.52739700  1
  O  O43  1  0.25000000  0.91212900  0.08664600  1
  O  O44  1  0.75000000  0.24702100  0.16772100  1
  O  O45  1  0.25000000  0.04600100  0.88762800  1
  O  O46  1  0.25000000  0.71680800  0.31345000  1
  O  O47  1  0.03372600  0.93963700  0.26910600  1
  O  O48  1  0.25000000  0.41212900  0.41335400  1
  O  O49  1  0.96627400  0.56036300  0.76910600  1
  O  O50  1  0.94917900  0.60651400  0.97260300  1
  O  O51  1  0.46876900  0.76726200  0.65826800  1
  O  O52  1  0.53372600  0.06036300  0.73089400  1
  O  O53  1  0.46876900  0.26726200  0.84173200  1
  O  O54  1  0.53123100  0.73273800  0.15826800  1
  O  O55  1  0.03123100  0.76726200  0.65826800  1
  O  O56  1  0.46627400  0.43963700  0.23089400  1
  O  O57  1  0.75000000  0.51897900  0.14474400  1
  O  O58  1  0.05082100  0.89348600  0.47260300  1
  O  O59  1  0.25000000  0.25297900  0.66772100  1
  O  O60  1  0.75000000  0.89302700  0.61658200  1
  O  O61  1  0.75000000  0.58787100  0.58664600  1
  O  O62  1  0.25000000  0.10697300  0.38341800  1
  O  O63  1  0.55082100  0.10651400  0.52739700  1
  O  O64  1  0.25000000  0.98102100  0.64474400  1
  O  O65  1  0.05082100  0.39348600  0.02739700  1
  O  O66  1  0.75000000  0.95399900  0.11237200  1
  O  O67  1  0.03372600  0.43963700  0.23089400  1
  O  O68  1  0.25000000  0.60697300  0.11658200  1
  O  O69  1  0.44917900  0.89348600  0.47260300  1
  O  O70  1  0.03123100  0.26726200  0.84173200  1
  O  O71  1  0.96627400  0.06036300  0.73089400  1
