# generated using pymatgen
data_Hg7Cl2O3
_symmetry_space_group_name_H-M   'P 1'
_cell_length_a   6.63681100
_cell_length_b   11.97066200
_cell_length_c   14.86016600
_cell_angle_alpha   90.00000000
_cell_angle_beta   90.00000000
_cell_angle_gamma   90.00000000
_symmetry_Int_Tables_number   1
_chemical_formula_structural   Hg7Cl2O3
_chemical_formula_sum   'Hg28 Cl8 O12'
_cell_volume   1180.59592382
_cell_formula_units_Z   4
loop_
 _symmetry_equiv_pos_site_id
 _symmetry_equiv_pos_as_xyz
  1  'x, y, z'
loop_
 _atom_site_type_symbol
 _atom_site_label
 _atom_site_symmetry_multiplicity
 _atom_site_fract_x
 _atom_site_fract_y
 _atom_site_fract_z
 _atom_site_occupancy
  Hg  Hg0  1  0.46777300  0.11637200  0.57928300  1
  Hg  Hg1  1  0.46777300  0.38362800  0.42071700  1
  Hg  Hg2  1  0.53222700  0.61637200  0.92071700  1
  Hg  Hg3  1  0.53222700  0.88362800  0.07928300  1
  Hg  Hg4  1  0.53222700  0.88362800  0.42071700  1
  Hg  Hg5  1  0.53222700  0.61637200  0.57928300  1
  Hg  Hg6  1  0.46777300  0.38362800  0.07928300  1
  Hg  Hg7  1  0.46777300  0.11637200  0.92071700  1
  Hg  Hg8  1  0.68093900  0.29012200  0.62979700  1
  Hg  Hg9  1  0.68093900  0.20987800  0.37020300  1
  Hg  Hg10  1  0.31906100  0.79012200  0.87020300  1
  Hg  Hg11  1  0.31906100  0.70987800  0.12979700  1
  Hg  Hg12  1  0.31906100  0.70987800  0.37020300  1
  Hg  Hg13  1  0.31906100  0.79012200  0.62979700  1
  Hg  Hg14  1  0.68093900  0.20987800  0.12979700  1
  Hg  Hg15  1  0.68093900  0.29012200  0.87020300  1
  Hg  Hg16  1  0.13399400  0.03620000  0.75000000  1
  Hg  Hg17  1  0.13399400  0.46380000  0.25000000  1
  Hg  Hg18  1  0.86600600  0.53620000  0.75000000  1
  Hg  Hg19  1  0.86600600  0.96380000  0.25000000  1
  Hg  Hg20  1  0.16189600  0.24537000  0.25000000  1
  Hg  Hg21  1  0.16189600  0.25463000  0.75000000  1
  Hg  Hg22  1  0.83810400  0.74537000  0.25000000  1
  Hg  Hg23  1  0.83810400  0.75463000  0.75000000  1
  Hg  Hg24  1  0.00000000  0.00000000  0.50000000  1
  Hg  Hg25  1  0.00000000  0.50000000  0.50000000  1
  Hg  Hg26  1  0.00000000  0.50000000  0.00000000  1
  Hg  Hg27  1  0.00000000  0.00000000  0.00000000  1
  Cl  Cl28  1  0.07515700  0.25000000  0.50000000  1
  Cl  Cl29  1  0.92484300  0.75000000  0.00000000  1
  Cl  Cl30  1  0.92484300  0.75000000  0.50000000  1
  Cl  Cl31  1  0.07515700  0.25000000  0.00000000  1
  Cl  Cl32  1  0.33323400  0.44284800  0.75000000  1
  Cl  Cl33  1  0.33323400  0.05715200  0.25000000  1
  Cl  Cl34  1  0.66676600  0.94284800  0.75000000  1
  Cl  Cl35  1  0.66676600  0.55715200  0.25000000  1
  O  O36  1  0.85565500  0.35843000  0.75000000  1
  O  O37  1  0.85565500  0.14157000  0.25000000  1
  O  O38  1  0.14434500  0.85843000  0.75000000  1
  O  O39  1  0.14434500  0.64157000  0.25000000  1
  O  O40  1  0.28373200  0.96960500  0.55270200  1
  O  O41  1  0.28373200  0.53039500  0.44729800  1
  O  O42  1  0.71626800  0.46960500  0.94729800  1
  O  O43  1  0.71626800  0.03039500  0.05270200  1
  O  O44  1  0.71626800  0.03039500  0.44729800  1
  O  O45  1  0.71626800  0.46960500  0.55270200  1
  O  O46  1  0.28373200  0.53039500  0.05270200  1
  O  O47  1  0.28373200  0.96960500  0.94729800  1
