# generated using pymatgen
data_As3Pb2ClO6
_symmetry_space_group_name_H-M   'P 1'
_cell_length_a   5.46680200
_cell_length_b   8.40169900
_cell_length_c   19.93165100
_cell_angle_alpha   90.00000000
_cell_angle_beta   90.00000000
_cell_angle_gamma   90.00000000
_symmetry_Int_Tables_number   1
_chemical_formula_structural   As3Pb2ClO6
_chemical_formula_sum   'As12 Pb8 Cl4 O24'
_cell_volume   915.46919932
_cell_formula_units_Z   4
loop_
 _symmetry_equiv_pos_site_id
 _symmetry_equiv_pos_as_xyz
  1  'x, y, z'
loop_
 _atom_site_type_symbol
 _atom_site_label
 _atom_site_symmetry_multiplicity
 _atom_site_fract_x
 _atom_site_fract_y
 _atom_site_fract_z
 _atom_site_occupancy
  As  As0  1  0.75000000  0.96048800  0.17708100  1
  As  As1  1  0.25000000  0.68764000  0.45606000  1
  As  As2  1  0.75000000  0.23973200  0.83285400  1
  As  As3  1  0.25000000  0.46048800  0.32291900  1
  As  As4  1  0.25000000  0.76026800  0.16714600  1
  As  As5  1  0.25000000  0.81236000  0.95606000  1
  As  As6  1  0.75000000  0.53951200  0.67708100  1
  As  As7  1  0.75000000  0.31236000  0.54394000  1
  As  As8  1  0.75000000  0.26026800  0.33285400  1
  As  As9  1  0.25000000  0.03951200  0.82291900  1
  As  As10  1  0.75000000  0.18764000  0.04394000  1
  As  As11  1  0.25000000  0.73973200  0.66714600  1
  Pb  Pb12  1  0.25000000  0.15635800  0.64126100  1
  Pb  Pb13  1  0.75000000  0.61039900  0.05871700  1
  Pb  Pb14  1  0.25000000  0.38960100  0.94128300  1
  Pb  Pb15  1  0.75000000  0.84364200  0.35873900  1
  Pb  Pb16  1  0.25000000  0.34364200  0.14126100  1
  Pb  Pb17  1  0.75000000  0.65635800  0.85873900  1
  Pb  Pb18  1  0.25000000  0.11039900  0.44128300  1
  Pb  Pb19  1  0.75000000  0.88960100  0.55871700  1
  Cl  Cl20  1  0.75000000  0.95176000  0.71297100  1
  Cl  Cl21  1  0.75000000  0.54824000  0.21297100  1
  Cl  Cl22  1  0.25000000  0.45176000  0.78702900  1
  Cl  Cl23  1  0.25000000  0.04824000  0.28702900  1
  O  O24  1  0.50857700  0.16772600  0.54645200  1
  O  O25  1  0.00857700  0.66772600  0.95354800  1
  O  O26  1  0.25000000  0.60781800  0.10536600  1
  O  O27  1  0.00334700  0.12501900  0.87448200  1
  O  O28  1  0.75000000  0.34543700  0.63761100  1
  O  O29  1  0.25000000  0.65456300  0.36238900  1
  O  O30  1  0.25000000  0.84543700  0.86238900  1
  O  O31  1  0.00857700  0.83227400  0.45354800  1
  O  O32  1  0.50334700  0.87498100  0.12551800  1
  O  O33  1  0.25000000  0.89218200  0.60536600  1
  O  O34  1  0.99142300  0.33227400  0.04645200  1
  O  O35  1  0.75000000  0.15456300  0.13761100  1
  O  O36  1  0.49142300  0.66772600  0.95354800  1
  O  O37  1  0.99665300  0.87498100  0.12551800  1
  O  O38  1  0.49665300  0.37498100  0.37448200  1
  O  O39  1  0.75000000  0.10781800  0.39463400  1
  O  O40  1  0.99665300  0.62501900  0.62551800  1
  O  O41  1  0.99142300  0.16772600  0.54645200  1
  O  O42  1  0.49142300  0.83227400  0.45354800  1
  O  O43  1  0.50857700  0.33227400  0.04645200  1
  O  O44  1  0.00334700  0.37498100  0.37448200  1
  O  O45  1  0.49665300  0.12501900  0.87448200  1
  O  O46  1  0.75000000  0.39218200  0.89463400  1
  O  O47  1  0.50334700  0.62501900  0.62551800  1
