# generated using pymatgen
data_Ba2CuBrO2
_symmetry_space_group_name_H-M   'P 1'
_cell_length_a   10.18105209
_cell_length_b   10.18105209
_cell_length_c   10.18105258
_cell_angle_alpha   24.63932913
_cell_angle_beta   24.63932913
_cell_angle_gamma   24.63932480
_symmetry_Int_Tables_number   1
_chemical_formula_structural   Ba2CuBrO2
_chemical_formula_sum   'Ba2 Cu1 Br1 O2'
_cell_volume   161.29466249
_cell_formula_units_Z   1
loop_
 _symmetry_equiv_pos_site_id
 _symmetry_equiv_pos_as_xyz
  1  'x, y, z'
loop_
 _atom_site_type_symbol
 _atom_site_label
 _atom_site_symmetry_multiplicity
 _atom_site_fract_x
 _atom_site_fract_y
 _atom_site_fract_z
 _atom_site_occupancy
  Ba  Ba0  1  0.74845200  0.74845200  0.74845200  1
  Ba  Ba1  1  0.25154800  0.25154800  0.25154800  1
  Cu  Cu2  1  0.50000000  0.50000000  0.50000000  1
  Br  Br3  1  0.00000000  0.00000000  0.00000000  1
  O  O4  1  0.43882100  0.43882100  0.43882100  1
  O  O5  1  0.56117900  0.56117900  0.56117900  1
