# generated using pymatgen
data_Sr2Co(PO4)2
_symmetry_space_group_name_H-M   'P 1'
_cell_length_a   10.14045100
_cell_length_b   9.17076400
_cell_length_c   11.84624309
_cell_angle_alpha   82.28280482
_cell_angle_beta   90.00000000
_cell_angle_gamma   90.00000000
_symmetry_Int_Tables_number   1
_chemical_formula_structural   Sr2Co(PO4)2
_chemical_formula_sum   'Sr12 Co6 P12 O48'
_cell_volume   1091.67176565
_cell_formula_units_Z   6
loop_
 _symmetry_equiv_pos_site_id
 _symmetry_equiv_pos_as_xyz
  1  'x, y, z'
loop_
 _atom_site_type_symbol
 _atom_site_label
 _atom_site_symmetry_multiplicity
 _atom_site_fract_x
 _atom_site_fract_y
 _atom_site_fract_z
 _atom_site_occupancy
  Sr  Sr0  1  0.64919500  0.66597500  0.84843200  1
  Sr  Sr1  1  0.22709800  0.33439700  0.81071200  1
  Sr  Sr2  1  0.35080500  0.33402500  0.15156800  1
  Sr  Sr3  1  0.85080500  0.16597500  0.84843200  1
  Sr  Sr4  1  0.11450700  0.69640500  0.50414400  1
  Sr  Sr5  1  0.72709800  0.16560300  0.18928800  1
  Sr  Sr6  1  0.27290200  0.83439700  0.81071200  1
  Sr  Sr7  1  0.88549300  0.30359500  0.49585600  1
  Sr  Sr8  1  0.77290200  0.66560300  0.18928800  1
  Sr  Sr9  1  0.61450700  0.80359500  0.49585600  1
  Sr  Sr10  1  0.38549300  0.19640500  0.50414400  1
  Sr  Sr11  1  0.14919500  0.83402500  0.15156800  1
  Co  Co12  1  0.60964900  0.37223200  0.67528800  1
  Co  Co13  1  0.39035100  0.62776800  0.32471200  1
  Co  Co14  1  0.10964900  0.12776800  0.32471200  1
  Co  Co15  1  0.89035100  0.87223200  0.67528800  1
  Co  Co16  1  0.50000000  0.00000000  0.00000000  1
  Co  Co17  1  0.00000000  0.50000000  0.00000000  1
  P  P18  1  0.39746600  0.56232000  0.62646200  1
  P  P19  1  0.93166600  0.79128000  0.95702000  1
  P  P20  1  0.06833400  0.20872000  0.04298000  1
  P  P21  1  0.56833400  0.29128000  0.95702000  1
  P  P22  1  0.89746600  0.93768000  0.37353800  1
  P  P23  1  0.10253400  0.06232000  0.62646200  1
  P  P24  1  0.43166600  0.70872000  0.04298000  1
  P  P25  1  0.07374000  0.50857100  0.28652200  1
  P  P26  1  0.42626000  0.00857100  0.28652200  1
  P  P27  1  0.57374000  0.99142900  0.71347800  1
  P  P28  1  0.60253400  0.43768000  0.37353800  1
  P  P29  1  0.92626000  0.49142900  0.71347800  1
  O  O30  1  0.31390600  0.11488500  0.31600500  1
  O  O31  1  0.08261200  0.13190800  0.93594300  1
  O  O32  1  0.13014200  0.35212100  0.29110100  1
  O  O33  1  0.86613200  0.86358400  0.49665100  1
  O  O34  1  0.84600700  0.64428400  0.97845700  1
  O  O35  1  0.95734800  0.10114100  0.65688700  1
  O  O36  1  0.57598900  0.76216400  0.05863700  1
  O  O37  1  0.68609400  0.88511500  0.68399500  1
  O  O38  1  0.96253700  0.52415300  0.37358300  1
  O  O39  1  0.58261200  0.36809200  0.06405700  1
  O  O40  1  0.81390600  0.38511500  0.68399500  1
  O  O41  1  0.15399300  0.35571600  0.02154300  1
  O  O42  1  0.87828400  0.88931600  0.85040400  1
  O  O43  1  0.53746300  0.02415300  0.37358300  1
  O  O44  1  0.37828400  0.61068400  0.14959600  1
  O  O45  1  0.92401100  0.26216400  0.05863700  1
  O  O46  1  0.18609400  0.61488500  0.31600500  1
  O  O47  1  0.20699300  0.11220000  0.70730400  1
  O  O48  1  0.03746300  0.47584700  0.62641700  1
  O  O49  1  0.91738800  0.86809200  0.06405700  1
  O  O50  1  0.10427400  0.88940100  0.63897300  1
  O  O51  1  0.46253700  0.97584700  0.62641700  1
  O  O52  1  0.60427400  0.61059900  0.36102700  1
  O  O53  1  0.89572600  0.11059900  0.36102700  1
  O  O54  1  0.42401100  0.23783600  0.94136300  1
  O  O55  1  0.41738800  0.63190800  0.93594300  1
  O  O56  1  0.45734800  0.39885900  0.34311300  1
  O  O57  1  0.62171600  0.38931600  0.85040400  1
  O  O58  1  0.13386800  0.13641600  0.50334900  1
  O  O59  1  0.07598900  0.73783600  0.94136300  1
  O  O60  1  0.04265200  0.89885900  0.34311300  1
  O  O61  1  0.12171600  0.11068400  0.14959600  1
  O  O62  1  0.63386800  0.36358400  0.49665100  1
  O  O63  1  0.36613200  0.63641600  0.50334900  1
  O  O64  1  0.02014700  0.56826500  0.16528200  1
  O  O65  1  0.36985800  0.85212100  0.29110100  1
  O  O66  1  0.70699300  0.38780000  0.29269600  1
  O  O67  1  0.63014200  0.14787900  0.70889900  1
  O  O68  1  0.97985300  0.43173500  0.83471800  1
  O  O69  1  0.54265200  0.60114100  0.65688700  1
  O  O70  1  0.79300700  0.88780000  0.29269600  1
  O  O71  1  0.52014700  0.93173500  0.83471800  1
  O  O72  1  0.34600700  0.85571600  0.02154300  1
  O  O73  1  0.65399300  0.14428400  0.97845700  1
  O  O74  1  0.39572600  0.38940100  0.63897300  1
  O  O75  1  0.47985300  0.06826500  0.16528200  1
  O  O76  1  0.29300700  0.61220000  0.70730400  1
  O  O77  1  0.86985800  0.64787900  0.70889900  1
