# generated using pymatgen
data_Sm11Cd45
_symmetry_space_group_name_H-M   'P 1'
_cell_length_a   15.56299175
_cell_length_b   15.56299175
_cell_length_c   15.56299175
_cell_angle_alpha   60.00000000
_cell_angle_beta   60.00000000
_cell_angle_gamma   60.00000000
_symmetry_Int_Tables_number   1
_chemical_formula_structural   Sm11Cd45
_chemical_formula_sum   'Sm22 Cd90'
_cell_volume   2665.41147829
_cell_formula_units_Z   2
loop_
 _symmetry_equiv_pos_site_id
 _symmetry_equiv_pos_as_xyz
  1  'x, y, z'
loop_
 _atom_site_type_symbol
 _atom_site_label
 _atom_site_symmetry_multiplicity
 _atom_site_fract_x
 _atom_site_fract_y
 _atom_site_fract_z
 _atom_site_occupancy
  Sm  Sm0  1  0.66153600  0.66153600  0.01539300  1
  Sm  Sm1  1  0.40668000  0.40668000  0.77996000  1
  Sm  Sm2  1  0.40668000  0.77996000  0.40668000  1
  Sm  Sm3  1  0.33307800  0.01403700  0.01403700  1
  Sm  Sm4  1  0.63884900  0.01403700  0.01403700  1
  Sm  Sm5  1  0.77996000  0.40668000  0.40668000  1
  Sm  Sm6  1  0.25000000  0.25000000  0.25000000  1
  Sm  Sm7  1  0.66153600  0.01539300  0.66153600  1
  Sm  Sm8  1  0.33307800  0.01403700  0.63884900  1
  Sm  Sm9  1  0.01403700  0.33307800  0.01403700  1
  Sm  Sm10  1  0.40668000  0.40668000  0.40668000  1
  Sm  Sm11  1  0.01403700  0.63884900  0.01403700  1
  Sm  Sm12  1  0.63884900  0.33307800  0.01403700  1
  Sm  Sm13  1  0.01403700  0.01403700  0.33307800  1
  Sm  Sm14  1  0.01403700  0.63884900  0.33307800  1
  Sm  Sm15  1  0.63884900  0.01403700  0.33307800  1
  Sm  Sm16  1  0.00000000  0.00000000  0.00000000  1
  Sm  Sm17  1  0.33307800  0.63884900  0.01403700  1
  Sm  Sm18  1  0.01403700  0.01403700  0.63884900  1
  Sm  Sm19  1  0.66153600  0.66153600  0.66153600  1
  Sm  Sm20  1  0.01539300  0.66153600  0.66153600  1
  Sm  Sm21  1  0.01403700  0.33307800  0.63884900  1
  Cd  Cd22  1  0.61144200  0.26261600  0.86332600  1
  Cd  Cd23  1  0.58900600  0.91099400  0.58900600  1
  Cd  Cd24  1  0.51243600  0.51243600  0.83328200  1
  Cd  Cd25  1  0.51243600  0.14184500  0.83328200  1
  Cd  Cd26  1  0.26261600  0.26261600  0.86332600  1
  Cd  Cd27  1  0.08315700  0.08315700  0.08315700  1
  Cd  Cd28  1  0.84357300  0.15642700  0.84357300  1
  Cd  Cd29  1  0.84357300  0.15642700  0.15642700  1
  Cd  Cd30  1  0.91206000  0.26382000  0.91206000  1
  Cd  Cd31  1  0.76423400  0.06786400  0.40366900  1
  Cd  Cd32  1  0.83328200  0.51243600  0.51243600  1
  Cd  Cd33  1  0.64031500  0.45045100  0.26891900  1
  Cd  Cd34  1  0.61144200  0.86332600  0.26261600  1
  Cd  Cd35  1  0.51243600  0.83328200  0.14184500  1
  Cd  Cd36  1  0.16373700  0.16373700  0.16373700  1
  Cd  Cd37  1  0.61144200  0.26261600  0.26261600  1
  Cd  Cd38  1  0.82972900  0.82972900  0.51081300  1
  Cd  Cd39  1  0.26261600  0.86332600  0.61144200  1
  Cd  Cd40  1  0.26261600  0.26261600  0.61144200  1
  Cd  Cd41  1  0.40366900  0.76423400  0.06786400  1
  Cd  Cd42  1  0.26891900  0.64031500  0.64031500  1
  Cd  Cd43  1  0.51081300  0.82972900  0.82972900  1
  Cd  Cd44  1  0.45045100  0.64031500  0.26891900  1
  Cd  Cd45  1  0.39069600  0.39069600  0.20140600  1
  Cd  Cd46  1  0.45045100  0.64031500  0.64031500  1
  Cd  Cd47  1  0.01720200  0.39069600  0.39069600  1
  Cd  Cd48  1  0.14184500  0.51243600  0.51243600  1
  Cd  Cd49  1  0.06786400  0.40366900  0.76423400  1
  Cd  Cd50  1  0.64031500  0.64031500  0.26891900  1
  Cd  Cd51  1  0.58900600  0.58900600  0.91099400  1
  Cd  Cd52  1  0.82972900  0.51081300  0.82972900  1
  Cd  Cd53  1  0.39069600  0.39069600  0.01720200  1
  Cd  Cd54  1  0.76423400  0.76423400  0.40366900  1
  Cd  Cd55  1  0.39069600  0.01720200  0.39069600  1
  Cd  Cd56  1  0.20140600  0.39069600  0.01720200  1
  Cd  Cd57  1  0.26382000  0.91206000  0.91206000  1
  Cd  Cd58  1  0.84357300  0.84357300  0.15642700  1
  Cd  Cd59  1  0.64031500  0.45045100  0.64031500  1
  Cd  Cd60  1  0.82972900  0.82972900  0.82972900  1
  Cd  Cd61  1  0.64031500  0.26891900  0.64031500  1
  Cd  Cd62  1  0.20140600  0.01720200  0.39069600  1
  Cd  Cd63  1  0.08315700  0.75052900  0.08315700  1
  Cd  Cd64  1  0.91099400  0.58900600  0.91099400  1
  Cd  Cd65  1  0.83328200  0.14184500  0.51243600  1
  Cd  Cd66  1  0.20140600  0.39069600  0.39069600  1
  Cd  Cd67  1  0.75000000  0.75000000  0.75000000  1
  Cd  Cd68  1  0.86332600  0.61144200  0.26261600  1
  Cd  Cd69  1  0.51243600  0.83328200  0.51243600  1
  Cd  Cd70  1  0.91206000  0.91206000  0.91206000  1
  Cd  Cd71  1  0.86332600  0.26261600  0.61144200  1
  Cd  Cd72  1  0.50878900  0.16373700  0.16373700  1
  Cd  Cd73  1  0.64031500  0.64031500  0.45045100  1
  Cd  Cd74  1  0.14184500  0.51243600  0.83328200  1
  Cd  Cd75  1  0.76423400  0.06786400  0.76423400  1
  Cd  Cd76  1  0.76423400  0.40366900  0.76423400  1
  Cd  Cd77  1  0.75052900  0.08315700  0.08315700  1
  Cd  Cd78  1  0.45045100  0.26891900  0.64031500  1
  Cd  Cd79  1  0.26261600  0.61144200  0.26261600  1
  Cd  Cd80  1  0.26261600  0.86332600  0.26261600  1
  Cd  Cd81  1  0.06786400  0.76423400  0.40366900  1
  Cd  Cd82  1  0.51243600  0.14184500  0.51243600  1
  Cd  Cd83  1  0.15642700  0.84357300  0.84357300  1
  Cd  Cd84  1  0.40366900  0.76423400  0.76423400  1
  Cd  Cd85  1  0.51243600  0.51243600  0.14184500  1
  Cd  Cd86  1  0.39069600  0.20140600  0.01720200  1
  Cd  Cd87  1  0.86332600  0.26261600  0.26261600  1
  Cd  Cd88  1  0.26891900  0.45045100  0.64031500  1
  Cd  Cd89  1  0.16373700  0.50878900  0.16373700  1
  Cd  Cd90  1  0.15642700  0.84357300  0.15642700  1
  Cd  Cd91  1  0.39069600  0.20140600  0.39069600  1
  Cd  Cd92  1  0.83328200  0.51243600  0.14184500  1
  Cd  Cd93  1  0.58900600  0.91099400  0.91099400  1
  Cd  Cd94  1  0.91099400  0.58900600  0.58900600  1
  Cd  Cd95  1  0.91099400  0.91099400  0.58900600  1
  Cd  Cd96  1  0.91206000  0.91206000  0.26382000  1
  Cd  Cd97  1  0.64031500  0.26891900  0.45045100  1
  Cd  Cd98  1  0.76423400  0.40366900  0.06786400  1
  Cd  Cd99  1  0.39069600  0.01720200  0.20140600  1
  Cd  Cd100  1  0.50000000  0.50000000  0.50000000  1
  Cd  Cd101  1  0.26261600  0.61144200  0.86332600  1
  Cd  Cd102  1  0.16373700  0.16373700  0.50878900  1
  Cd  Cd103  1  0.08315700  0.08315700  0.75052900  1
  Cd  Cd104  1  0.26891900  0.64031500  0.45045100  1
  Cd  Cd105  1  0.01720200  0.39069600  0.20140600  1
  Cd  Cd106  1  0.76423400  0.76423400  0.06786400  1
  Cd  Cd107  1  0.01720200  0.20140600  0.39069600  1
  Cd  Cd108  1  0.06786400  0.76423400  0.76423400  1
  Cd  Cd109  1  0.14184500  0.83328200  0.51243600  1
  Cd  Cd110  1  0.15642700  0.15642700  0.84357300  1
  Cd  Cd111  1  0.40366900  0.06786400  0.76423400  1
