# generated using pymatgen
data_RbVPO5
_symmetry_space_group_name_H-M   'P 1'
_cell_length_a   7.75197900
_cell_length_b   8.02055100
_cell_length_c   8.52077800
_cell_angle_alpha   90.00000000
_cell_angle_beta   90.00000000
_cell_angle_gamma   90.00000000
_symmetry_Int_Tables_number   1
_chemical_formula_structural   RbVPO5
_chemical_formula_sum   'Rb4 V4 P4 O20'
_cell_volume   529.78058994
_cell_formula_units_Z   4
loop_
 _symmetry_equiv_pos_site_id
 _symmetry_equiv_pos_as_xyz
  1  'x, y, z'
loop_
 _atom_site_type_symbol
 _atom_site_label
 _atom_site_symmetry_multiplicity
 _atom_site_fract_x
 _atom_site_fract_y
 _atom_site_fract_z
 _atom_site_occupancy
  Rb  Rb0  1  0.12032100  0.45370600  0.22980800  1
  Rb  Rb1  1  0.87967900  0.95370600  0.27019200  1
  Rb  Rb2  1  0.62032100  0.04629400  0.77019200  1
  Rb  Rb3  1  0.37967900  0.54629400  0.72980800  1
  V  V4  1  0.88723200  0.53579700  0.62266800  1
  V  V5  1  0.38723200  0.96420300  0.37733200  1
  V  V6  1  0.61276800  0.46420300  0.12266800  1
  V  V7  1  0.11276800  0.03579700  0.87733200  1
  P  P8  1  0.62462000  0.32087300  0.40265900  1
  P  P9  1  0.87538000  0.67912700  0.90265900  1
  P  P10  1  0.12462000  0.17912700  0.59734100  1
  P  P11  1  0.37538000  0.82087300  0.09734100  1
  O  O12  1  0.51952000  0.93067100  0.17550300  1
  O  O13  1  0.98048000  0.06932900  0.67550300  1
  O  O14  1  0.93092000  0.66984900  0.48315800  1
  O  O15  1  0.23234300  0.83290500  0.22664500  1
  O  O16  1  0.31287700  0.89351600  0.93860400  1
  O  O17  1  0.68712300  0.39351600  0.56139600  1
  O  O18  1  0.18712300  0.10648400  0.43860400  1
  O  O19  1  0.43768300  0.64191900  0.06676700  1
  O  O20  1  0.73234300  0.66709500  0.77335500  1
  O  O21  1  0.76765700  0.33290500  0.27335500  1
  O  O22  1  0.56908000  0.33015100  0.98315800  1
  O  O23  1  0.01952000  0.56932900  0.82449700  1
  O  O24  1  0.26765700  0.16709500  0.72664500  1
  O  O25  1  0.93768300  0.85808100  0.93323300  1
  O  O26  1  0.06231700  0.35808100  0.56676700  1
  O  O27  1  0.81287700  0.60648400  0.06139600  1
  O  O28  1  0.06908000  0.16984900  0.01684200  1
  O  O29  1  0.43092000  0.83015100  0.51684200  1
  O  O30  1  0.48048000  0.43067100  0.32449700  1
  O  O31  1  0.56231700  0.14191900  0.43323300  1
