# generated using pymatgen
data_K3(PdO2)2
_symmetry_space_group_name_H-M   'P 1'
_cell_length_a   5.60577773
_cell_length_b   5.60577773
_cell_length_c   11.55507700
_cell_angle_alpha   90.00000000
_cell_angle_beta   90.00000000
_cell_angle_gamma   112.51763244
_symmetry_Int_Tables_number   1
_chemical_formula_structural   K3(PdO2)2
_chemical_formula_sum   'K6 Pd4 O8'
_cell_volume   335.43204752
_cell_formula_units_Z   2
loop_
 _symmetry_equiv_pos_site_id
 _symmetry_equiv_pos_as_xyz
  1  'x, y, z'
loop_
 _atom_site_type_symbol
 _atom_site_label
 _atom_site_symmetry_multiplicity
 _atom_site_fract_x
 _atom_site_fract_y
 _atom_site_fract_z
 _atom_site_occupancy
  K  K0  1  0.35098600  0.64901400  0.56819600  1
  K  K1  1  0.64901400  0.35098600  0.06819600  1
  K  K2  1  0.28987400  0.71012600  0.25000000  1
  K  K3  1  0.64901400  0.35098600  0.43180400  1
  K  K4  1  0.71012600  0.28987400  0.75000000  1
  K  K5  1  0.35098600  0.64901400  0.93180400  1
  Pd  Pd6  1  0.07479900  0.92520100  0.75000000  1
  Pd  Pd7  1  0.00000000  0.00000000  0.00000000  1
  Pd  Pd8  1  0.92520100  0.07479900  0.25000000  1
  Pd  Pd9  1  0.00000000  0.00000000  0.50000000  1
  O  O10  1  0.13397000  0.29115300  0.38392700  1
  O  O11  1  0.70884700  0.86603000  0.38392700  1
  O  O12  1  0.29115300  0.13397000  0.61607300  1
  O  O13  1  0.70884700  0.86603000  0.11607300  1
  O  O14  1  0.86603000  0.70884700  0.61607300  1
  O  O15  1  0.29115300  0.13397000  0.88392700  1
  O  O16  1  0.13397000  0.29115300  0.11607300  1
  O  O17  1  0.86603000  0.70884700  0.88392700  1
