# generated using pymatgen
data_Ba4Nb2(OF4)3
_symmetry_space_group_name_H-M   'P 1'
_cell_length_a   13.32919392
_cell_length_b   13.32919392
_cell_length_c   15.25237917
_cell_angle_alpha   69.20348457
_cell_angle_beta   69.20348457
_cell_angle_gamma   60.00635376
_symmetry_Int_Tables_number   1
_chemical_formula_structural   Ba4Nb2(OF4)3
_chemical_formula_sum   'Ba24 Nb12 O18 F72'
_cell_volume   2140.62982245
_cell_formula_units_Z   6
loop_
 _symmetry_equiv_pos_site_id
 _symmetry_equiv_pos_as_xyz
  1  'x, y, z'
loop_
 _atom_site_type_symbol
 _atom_site_label
 _atom_site_symmetry_multiplicity
 _atom_site_fract_x
 _atom_site_fract_y
 _atom_site_fract_z
 _atom_site_occupancy
  Ba  Ba0  1  0.08299700  0.76348300  0.38999900  1
  Ba  Ba1  1  0.59032600  0.57805700  0.11282100  1
  Ba  Ba2  1  0.91602000  0.56207300  0.16942200  1
  Ba  Ba3  1  0.42194300  0.40967400  0.38717900  1
  Ba  Ba4  1  0.91700300  0.23651700  0.61000100  1
  Ba  Ba5  1  0.56207300  0.91602000  0.66942200  1
  Ba  Ba6  1  0.24192000  0.56934400  0.15898700  1
  Ba  Ba7  1  0.91800600  0.90860300  0.64258700  1
  Ba  Ba8  1  0.76348300  0.08299700  0.88999900  1
  Ba  Ba9  1  0.91467800  0.25099500  0.11146200  1
  Ba  Ba10  1  0.74900500  0.08532200  0.38853800  1
  Ba  Ba11  1  0.40967400  0.42194300  0.88717900  1
  Ba  Ba12  1  0.56934400  0.24192000  0.65898700  1
  Ba  Ba13  1  0.57805700  0.59032600  0.61282100  1
  Ba  Ba14  1  0.90860300  0.91800600  0.14258700  1
  Ba  Ba15  1  0.75808000  0.43065600  0.84101300  1
  Ba  Ba16  1  0.43065600  0.75808000  0.34101300  1
  Ba  Ba17  1  0.09139700  0.08199400  0.85741300  1
  Ba  Ba18  1  0.43792700  0.08398000  0.33057800  1
  Ba  Ba19  1  0.08398000  0.43792700  0.83057800  1
  Ba  Ba20  1  0.25099500  0.91467800  0.61146200  1
  Ba  Ba21  1  0.08199400  0.09139700  0.35741300  1
  Ba  Ba22  1  0.08532200  0.74900500  0.88853800  1
  Ba  Ba23  1  0.23651700  0.91700300  0.11000100  1
  Nb  Nb24  1  0.28218400  0.19579600  0.61112500  1
  Nb  Nb25  1  0.80420400  0.71781600  0.88887500  1
  Nb  Nb26  1  0.40044000  0.12486600  0.91323300  1
  Nb  Nb27  1  0.27321100  0.60512700  0.60210400  1
  Nb  Nb28  1  0.72678900  0.39487300  0.39789600  1
  Nb  Nb29  1  0.71781600  0.80420400  0.38887500  1
  Nb  Nb30  1  0.39487300  0.72678900  0.89789600  1
  Nb  Nb31  1  0.59956000  0.87513400  0.08676700  1
  Nb  Nb32  1  0.87513400  0.59956000  0.58676700  1
  Nb  Nb33  1  0.12486600  0.40044000  0.41323300  1
  Nb  Nb34  1  0.19579600  0.28218400  0.11112500  1
  Nb  Nb35  1  0.60512700  0.27321100  0.10210400  1
  O  O36  1  0.17736500  0.53471300  0.65360900  1
  O  O37  1  0.57974700  0.81022500  0.39185700  1
  O  O38  1  0.71580700  0.91716900  0.06484600  1
  O  O39  1  0.67345600  0.76816200  0.99360900  1
  O  O40  1  0.23183800  0.32654400  0.50639100  1
  O  O41  1  0.46528700  0.82263500  0.84639100  1
  O  O42  1  0.42025300  0.18977500  0.60814300  1
  O  O43  1  0.18977500  0.42025300  0.10814300  1
  O  O44  1  0.53471300  0.17736500  0.15360900  1
  O  O45  1  0.32654400  0.23183800  0.00639100  1
  O  O46  1  0.76816200  0.67345600  0.49360900  1
  O  O47  1  0.00000000  0.50000000  0.50000000  1
  O  O48  1  0.81022500  0.57974700  0.89185700  1
  O  O49  1  0.08283100  0.28419400  0.43515400  1
  O  O50  1  0.82263500  0.46528700  0.34639100  1
  O  O51  1  0.91716900  0.71580600  0.56484600  1
  O  O52  1  0.50000000  0.00000000  0.00000000  1
  O  O53  1  0.28419400  0.08283100  0.93515400  1
  F  F54  1  0.03729300  0.04790100  0.04731700  1
  F  F55  1  0.04790100  0.03729300  0.54731700  1
  F  F56  1  0.52190400  0.18726700  0.38220900  1
  F  F57  1  0.29708800  0.96737200  0.40851700  1
  F  F58  1  0.65111200  0.91976100  0.47498900  1
  F  F59  1  0.18726700  0.52190400  0.88220900  1
  F  F60  1  0.62199100  0.28959800  0.46192400  1
  F  F61  1  0.95209900  0.96270700  0.45268300  1
  F  F62  1  0.96737200  0.29708800  0.90851700  1
  F  F63  1  0.87138800  0.84188300  0.35693000  1
  F  F64  1  0.45898000  0.80784700  0.13861400  1
  F  F65  1  0.70418700  0.37637900  0.54474700  1
  F  F66  1  0.15811700  0.12861200  0.14307000  1
  F  F67  1  0.11701100  0.78522600  0.19969400  1
  F  F68  1  0.12861200  0.15811700  0.64307000  1
  F  F69  1  0.19215300  0.54102000  0.36138600  1
  F  F70  1  0.78522600  0.11701100  0.69969400  1
  F  F71  1  0.54931500  0.58888900  0.93877100  1
  F  F72  1  0.95116800  0.04883200  0.25000000  1
  F  F73  1  0.47600600  0.61500100  0.80429200  1
  F  F74  1  0.03262800  0.70291200  0.09148300  1
  F  F75  1  0.71622900  0.66288100  0.68479300  1
  F  F76  1  0.70291200  0.03262800  0.59148300  1
  F  F77  1  0.05988600  0.50340900  0.29391700  1
  F  F78  1  0.84188300  0.87138800  0.85693000  1
  F  F79  1  0.71040200  0.37800900  0.03807600  1
  F  F80  1  0.08023900  0.34888800  0.02501100  1
  F  F81  1  0.38499900  0.52399400  0.69570800  1
  F  F82  1  0.88298900  0.21477400  0.80030600  1
  F  F83  1  0.31478400  0.03508800  0.71292700  1
  F  F84  1  0.86002300  0.23452700  0.45047200  1
  F  F85  1  0.80784700  0.45898000  0.63861400  1
  F  F86  1  0.23452700  0.86002300  0.95047200  1
  F  F87  1  0.96270700  0.95209900  0.95268300  1
  F  F88  1  0.04883200  0.95116800  0.75000000  1
  F  F89  1  0.13997700  0.76547300  0.54952800  1
  F  F90  1  0.54102000  0.19215300  0.86138600  1
  F  F91  1  0.37800900  0.71040200  0.53807600  1
  F  F92  1  0.66288100  0.71622900  0.18479300  1
  F  F93  1  0.20089300  0.71165300  0.69866400  1
  F  F94  1  0.28959800  0.62199100  0.96192400  1
  F  F95  1  0.28834700  0.79910700  0.80133600  1
  F  F96  1  0.73057100  0.81960300  0.77628300  1
  F  F97  1  0.68521600  0.96491200  0.28707300  1
  F  F98  1  0.18039700  0.26942900  0.72371700  1
  F  F99  1  0.29581300  0.62362100  0.45525300  1
  F  F100  1  0.79910700  0.28834700  0.30133600  1
  F  F101  1  0.41111100  0.45068500  0.56122900  1
  F  F102  1  0.81960300  0.73057100  0.27628300  1
  F  F103  1  0.47809600  0.81273300  0.61779100  1
  F  F104  1  0.52399400  0.38499900  0.19570800  1
  F  F105  1  0.61100100  0.38899900  0.75000000  1
  F  F106  1  0.62362100  0.29581300  0.95525300  1
  F  F107  1  0.76547300  0.13997700  0.04952800  1
  F  F108  1  0.33711900  0.28377100  0.81520700  1
  F  F109  1  0.71165300  0.20089300  0.19866400  1
  F  F110  1  0.61500100  0.47600600  0.30429200  1
  F  F111  1  0.28377100  0.33711900  0.31520700  1
  F  F112  1  0.34888800  0.08023900  0.52501100  1
  F  F113  1  0.91976100  0.65111200  0.97498900  1
  F  F114  1  0.94011400  0.49659100  0.70608300  1
  F  F115  1  0.45068500  0.41111100  0.06122900  1
  F  F116  1  0.96491200  0.68521600  0.78707300  1
  F  F117  1  0.03508800  0.31478400  0.21292700  1
  F  F118  1  0.58888900  0.54931500  0.43877100  1
  F  F119  1  0.21477400  0.88298900  0.30030600  1
  F  F120  1  0.38899900  0.61100100  0.25000000  1
  F  F121  1  0.50340900  0.05988600  0.79391700  1
  F  F122  1  0.37637900  0.70418700  0.04474700  1
  F  F123  1  0.81273300  0.47809600  0.11779100  1
  F  F124  1  0.49659100  0.94011400  0.20608300  1
  F  F125  1  0.26942900  0.18039700  0.22371700  1
