# generated using pymatgen
data_Ba3ErMn2O9
_symmetry_space_group_name_H-M   'P 1'
_cell_length_a   5.90789152
_cell_length_b   5.90789152
_cell_length_c   14.42562800
_cell_angle_alpha   90.00000000
_cell_angle_beta   90.00000000
_cell_angle_gamma   119.99999462
_symmetry_Int_Tables_number   1
_chemical_formula_structural   Ba3ErMn2O9
_chemical_formula_sum   'Ba6 Er2 Mn4 O18'
_cell_volume   436.04409376
_cell_formula_units_Z   2
loop_
 _symmetry_equiv_pos_site_id
 _symmetry_equiv_pos_as_xyz
  1  'x, y, z'
loop_
 _atom_site_type_symbol
 _atom_site_label
 _atom_site_symmetry_multiplicity
 _atom_site_fract_x
 _atom_site_fract_y
 _atom_site_fract_z
 _atom_site_occupancy
  Ba  Ba0  1  0.00000000  0.00000000  0.75000000  1
  Ba  Ba1  1  0.00000000  0.00000000  0.25000000  1
  Ba  Ba2  1  0.66666700  0.33333300  0.90844000  1
  Ba  Ba3  1  0.33333300  0.66666700  0.40844000  1
  Ba  Ba4  1  0.33333300  0.66666700  0.09156000  1
  Ba  Ba5  1  0.66666700  0.33333300  0.59156000  1
  Er  Er6  1  0.00000000  0.00000000  0.00000000  1
  Er  Er7  1  0.00000000  0.00000000  0.50000000  1
  Mn  Mn8  1  0.33333300  0.66666700  0.84084200  1
  Mn  Mn9  1  0.66666700  0.33333300  0.34084200  1
  Mn  Mn10  1  0.66666700  0.33333300  0.15915800  1
  Mn  Mn11  1  0.33333300  0.66666700  0.65915800  1
  O  O12  1  0.17895800  0.35791600  0.91274200  1
  O  O13  1  0.82104200  0.64208400  0.41274200  1
  O  O14  1  0.82104200  0.64208400  0.08725800  1
  O  O15  1  0.17895800  0.35791600  0.58725800  1
  O  O16  1  0.17895800  0.82104200  0.91274200  1
  O  O17  1  0.64208400  0.82104200  0.91274200  1
  O  O18  1  0.82104200  0.17895800  0.41274200  1
  O  O19  1  0.35791600  0.17895800  0.41274200  1
  O  O20  1  0.82104200  0.17895800  0.08725800  1
  O  O21  1  0.35791600  0.17895800  0.08725800  1
  O  O22  1  0.17895800  0.82104200  0.58725800  1
  O  O23  1  0.64208400  0.82104200  0.58725800  1
  O  O24  1  0.04552000  0.52276000  0.75000000  1
  O  O25  1  0.47724000  0.52276000  0.75000000  1
  O  O26  1  0.95448000  0.47724000  0.25000000  1
  O  O27  1  0.52276000  0.47724000  0.25000000  1
  O  O28  1  0.47724000  0.95448000  0.75000000  1
  O  O29  1  0.52276000  0.04552000  0.25000000  1
