# generated using pymatgen
data_NiPS
_symmetry_space_group_name_H-M   'P 1'
_cell_length_a   5.53621900
_cell_length_b   5.53621900
_cell_length_c   5.53621900
_cell_angle_alpha   90.00000000
_cell_angle_beta   90.00000000
_cell_angle_gamma   90.00000000
_symmetry_Int_Tables_number   1
_chemical_formula_structural   NiPS
_chemical_formula_sum   'Ni4 P4 S4'
_cell_volume   169.68356673
_cell_formula_units_Z   4
loop_
 _symmetry_equiv_pos_site_id
 _symmetry_equiv_pos_as_xyz
  1  'x, y, z'
loop_
 _atom_site_type_symbol
 _atom_site_label
 _atom_site_symmetry_multiplicity
 _atom_site_fract_x
 _atom_site_fract_y
 _atom_site_fract_z
 _atom_site_occupancy
  Ni  Ni0  1  0.00529500  0.00529500  0.00529500  1
  Ni  Ni1  1  0.49470500  0.99470500  0.50529500  1
  Ni  Ni2  1  0.50529500  0.49470500  0.99470500  1
  Ni  Ni3  1  0.99470500  0.50529500  0.49470500  1
  P  P4  1  0.61269500  0.61269500  0.61269500  1
  P  P5  1  0.88730500  0.38730500  0.11269500  1
  P  P6  1  0.11269500  0.88730500  0.38730500  1
  P  P7  1  0.38730500  0.11269500  0.88730500  1
  S  S8  1  0.38796500  0.38796500  0.38796500  1
  S  S9  1  0.11203500  0.61203500  0.88796500  1
  S  S10  1  0.88796500  0.11203500  0.61203500  1
  S  S11  1  0.61203500  0.88796500  0.11203500  1
