# generated using pymatgen
data_TbCoC2
_symmetry_space_group_name_H-M   'P 1'
_cell_length_a   3.75653011
_cell_length_b   3.75653011
_cell_length_c   3.59979700
_cell_angle_alpha   90.00000000
_cell_angle_beta   90.00000000
_cell_angle_gamma   106.15080899
_symmetry_Int_Tables_number   1
_chemical_formula_structural   TbCoC2
_chemical_formula_sum   'Tb1 Co1 C2'
_cell_volume   48.79372627
_cell_formula_units_Z   1
loop_
 _symmetry_equiv_pos_site_id
 _symmetry_equiv_pos_as_xyz
  1  'x, y, z'
loop_
 _atom_site_type_symbol
 _atom_site_label
 _atom_site_symmetry_multiplicity
 _atom_site_fract_x
 _atom_site_fract_y
 _atom_site_fract_z
 _atom_site_occupancy
  Tb  Tb0  1  0.99599900  0.00400100  0.00000000  1
  Co  Co1  1  0.37941200  0.62058800  0.50000000  1
  C  C2  1  0.53697500  0.15738700  0.50000000  1
  C  C3  1  0.84261300  0.46302500  0.50000000  1
