# generated using pymatgen
data_Na4Ga3Si3B(HO3)4
_symmetry_space_group_name_H-M   'P 1'
_cell_length_a   9.04077800
_cell_length_b   9.04077800
_cell_length_c   9.04077800
_cell_angle_alpha   90.00000000
_cell_angle_beta   90.00000000
_cell_angle_gamma   90.00000000
_symmetry_Int_Tables_number   1
_chemical_formula_structural   Na4Ga3Si3B(HO3)4
_chemical_formula_sum   'Na8 Ga6 Si6 B2 H8 O24'
_cell_volume   738.95401863
_cell_formula_units_Z   2
loop_
 _symmetry_equiv_pos_site_id
 _symmetry_equiv_pos_as_xyz
  1  'x, y, z'
loop_
 _atom_site_type_symbol
 _atom_site_label
 _atom_site_symmetry_multiplicity
 _atom_site_fract_x
 _atom_site_fract_y
 _atom_site_fract_z
 _atom_site_occupancy
  Na  Na0  1  0.82788100  0.82788100  0.17211900  1
  Na  Na1  1  0.82788100  0.17211900  0.82788100  1
  Na  Na2  1  0.17211900  0.82788100  0.82788100  1
  Na  Na3  1  0.17211900  0.17211900  0.17211900  1
  Na  Na4  1  0.32788100  0.32788100  0.67211900  1
  Na  Na5  1  0.32788100  0.67211900  0.32788100  1
  Na  Na6  1  0.67211900  0.32788100  0.32788100  1
  Na  Na7  1  0.67211900  0.67211900  0.67211900  1
  Ga  Ga8  1  0.75000000  0.00000000  0.50000000  1
  Ga  Ga9  1  0.00000000  0.50000000  0.75000000  1
  Ga  Ga10  1  0.25000000  0.00000000  0.50000000  1
  Ga  Ga11  1  0.50000000  0.25000000  0.00000000  1
  Ga  Ga12  1  0.50000000  0.75000000  0.00000000  1
  Ga  Ga13  1  0.00000000  0.50000000  0.25000000  1
  Si  Si14  1  0.75000000  0.50000000  0.00000000  1
  Si  Si15  1  0.00000000  0.75000000  0.50000000  1
  Si  Si16  1  0.25000000  0.50000000  0.00000000  1
  Si  Si17  1  0.50000000  0.00000000  0.25000000  1
  Si  Si18  1  0.50000000  0.00000000  0.75000000  1
  Si  Si19  1  0.00000000  0.25000000  0.50000000  1
  B  B20  1  0.00000000  0.00000000  0.00000000  1
  B  B21  1  0.50000000  0.50000000  0.50000000  1
  H  H22  1  0.57851300  0.57851300  0.42148700  1
  H  H23  1  0.57851300  0.42148700  0.57851300  1
  H  H24  1  0.07851300  0.07851300  0.92148700  1
  H  H25  1  0.07851300  0.92148700  0.07851300  1
  H  H26  1  0.42148700  0.57851300  0.57851300  1
  H  H27  1  0.42148700  0.42148700  0.42148700  1
  H  H28  1  0.92148700  0.92148700  0.92148700  1
  H  H29  1  0.92148700  0.07851300  0.07851300  1
  O  O30  1  0.57360300  0.86601800  0.15120300  1
  O  O31  1  0.57360300  0.13398200  0.84879700  1
  O  O32  1  0.84879700  0.57360300  0.13398200  1
  O  O33  1  0.84879700  0.42639700  0.86601800  1
  O  O34  1  0.86601800  0.15120300  0.57360300  1
  O  O35  1  0.86601800  0.84879700  0.42639700  1
  O  O36  1  0.07360300  0.34879700  0.63398200  1
  O  O37  1  0.07360300  0.65120300  0.36601800  1
  O  O38  1  0.13398200  0.84879700  0.57360300  1
  O  O39  1  0.13398200  0.15120300  0.42639700  1
  O  O40  1  0.15120300  0.57360300  0.86601800  1
  O  O41  1  0.15120300  0.42639700  0.13398200  1
  O  O42  1  0.34879700  0.36601800  0.92639700  1
  O  O43  1  0.34879700  0.63398200  0.07360300  1
  O  O44  1  0.36601800  0.07360300  0.65120300  1
  O  O45  1  0.36601800  0.92639700  0.34879700  1
  O  O46  1  0.42639700  0.86601800  0.84879700  1
  O  O47  1  0.42639700  0.13398200  0.15120300  1
  O  O48  1  0.63398200  0.07360300  0.34879700  1
  O  O49  1  0.63398200  0.92639700  0.65120300  1
  O  O50  1  0.65120300  0.36601800  0.07360300  1
  O  O51  1  0.65120300  0.63398200  0.92639700  1
  O  O52  1  0.92639700  0.34879700  0.36601800  1
  O  O53  1  0.92639700  0.65120300  0.63398200  1
