# generated using pymatgen
data_K2VPO6
_symmetry_space_group_name_H-M   'P 1'
_cell_length_a   13.63017300
_cell_length_b   7.01653100
_cell_length_c   8.30956206
_cell_angle_alpha   59.58528917
_cell_angle_beta   90.00000000
_cell_angle_gamma   90.00000000
_symmetry_Int_Tables_number   1
_chemical_formula_structural   K2VPO6
_chemical_formula_sum   'K8 V4 P4 O24'
_cell_volume   685.33434867
_cell_formula_units_Z   4
loop_
 _symmetry_equiv_pos_site_id
 _symmetry_equiv_pos_as_xyz
  1  'x, y, z'
loop_
 _atom_site_type_symbol
 _atom_site_label
 _atom_site_symmetry_multiplicity
 _atom_site_fract_x
 _atom_site_fract_y
 _atom_site_fract_z
 _atom_site_occupancy
  K  K0  1  0.58155100  0.28325600  0.41466600  1
  K  K1  1  0.63315200  0.08800400  0.05206300  1
  K  K2  1  0.41844900  0.71674400  0.58533400  1
  K  K3  1  0.08155100  0.71674400  0.08533400  1
  K  K4  1  0.91844900  0.28325600  0.91466600  1
  K  K5  1  0.36684800  0.91199600  0.94793700  1
  K  K6  1  0.86684800  0.08800400  0.55206300  1
  K  K7  1  0.13315200  0.91199600  0.44793700  1
  V  V8  1  0.20082000  0.39647000  0.89969200  1
  V  V9  1  0.79918000  0.60353000  0.10030800  1
  V  V10  1  0.70082000  0.60353000  0.60030800  1
  V  V11  1  0.29918000  0.39647000  0.39969200  1
  P  P12  1  0.62246300  0.77180100  0.80193300  1
  P  P13  1  0.87753700  0.77180100  0.30193300  1
  P  P14  1  0.37753700  0.22819900  0.19806700  1
  P  P15  1  0.12246300  0.22819900  0.69806700  1
  O  O16  1  0.52977500  0.90539000  0.76751300  1
  O  O17  1  0.97022500  0.90539000  0.26751300  1
  O  O18  1  0.67368400  0.73417600  0.98400900  1
  O  O19  1  0.76251600  0.33861900  0.20650400  1
  O  O20  1  0.17368400  0.26582400  0.51599100  1
  O  O21  1  0.32631600  0.26582400  0.01599100  1
  O  O22  1  0.37306700  0.34967100  0.57510000  1
  O  O23  1  0.39440900  0.45535100  0.19170900  1
  O  O24  1  0.82631600  0.73417600  0.48400900  1
  O  O25  1  0.30374600  0.12288900  0.36623200  1
  O  O26  1  0.87306700  0.65032900  0.92490000  1
  O  O27  1  0.60559100  0.54464900  0.80829100  1
  O  O28  1  0.26251600  0.66138100  0.29349600  1
  O  O29  1  0.23748400  0.66138100  0.79349600  1
  O  O30  1  0.19625400  0.12288900  0.86623200  1
  O  O31  1  0.80374600  0.87711100  0.13376800  1
  O  O32  1  0.69625400  0.87711100  0.63376800  1
  O  O33  1  0.89440900  0.54464900  0.30829100  1
  O  O34  1  0.10559100  0.45535100  0.69170900  1
  O  O35  1  0.02977500  0.09461000  0.73248700  1
  O  O36  1  0.12693300  0.34967100  0.07510000  1
  O  O37  1  0.62693300  0.65032900  0.42490000  1
  O  O38  1  0.47022500  0.09461000  0.23248700  1
  O  O39  1  0.73748400  0.33861900  0.70650400  1
