# generated using pymatgen
data_SiH17S3N5
_symmetry_space_group_name_H-M   'P 1'
_cell_length_a   6.43318700
_cell_length_b   6.56491838
_cell_length_c   13.14081578
_cell_angle_alpha   96.51153468
_cell_angle_beta   92.39494107
_cell_angle_gamma   95.17420484
_symmetry_Int_Tables_number   1
_chemical_formula_structural   SiH17S3N5
_chemical_formula_sum   'Si2 H34 S6 N10'
_cell_volume   548.39433750
_cell_formula_units_Z   2
loop_
 _symmetry_equiv_pos_site_id
 _symmetry_equiv_pos_as_xyz
  1  'x, y, z'
loop_
 _atom_site_type_symbol
 _atom_site_label
 _atom_site_symmetry_multiplicity
 _atom_site_fract_x
 _atom_site_fract_y
 _atom_site_fract_z
 _atom_site_occupancy
  Si  Si0  1  0.11434900  0.68444400  0.19328500  1
  Si  Si1  1  0.88565100  0.31555600  0.80671500  1
  H  H2  1  0.71109400  0.82814200  0.30368700  1
  H  H3  1  0.76866500  0.53866600  0.95931700  1
  H  H4  1  0.28890600  0.17185800  0.69631300  1
  H  H5  1  0.89483000  0.04093200  0.12834700  1
  H  H6  1  0.57506300  0.47325600  0.86788100  1
  H  H7  1  0.22315100  0.73464200  0.87468200  1
  H  H8  1  0.37284300  0.96464600  0.87127400  1
  H  H9  1  0.62715700  0.03535400  0.12872600  1
  H  H10  1  0.23133500  0.46133400  0.04068300  1
  H  H11  1  0.29360600  0.13355100  0.56466200  1
  H  H12  1  0.64234800  0.06069600  0.36191100  1
  H  H13  1  0.83914800  0.96851700  0.60406500  1
  H  H14  1  0.48035100  0.83304900  0.35742500  1
  H  H15  1  0.10517000  0.95906800  0.87165300  1
  H  H16  1  0.77565000  0.42405100  0.34413200  1
  H  H17  1  0.67171800  0.38828500  0.45301300  1
  H  H18  1  0.24359300  0.91788300  0.97859800  1
  H  H19  1  0.81316200  0.71323700  0.59427300  1
  H  H20  1  0.16085200  0.03148300  0.39593500  1
  H  H21  1  0.18683800  0.28676300  0.40572700  1
  H  H22  1  0.35765200  0.93930400  0.63808900  1
  H  H23  1  0.22435000  0.57594900  0.65586800  1
  H  H24  1  0.01234400  0.16977800  0.47059000  1
  H  H25  1  0.75640700  0.08211700  0.02140200  1
  H  H26  1  0.23887800  0.34015500  0.14627100  1
  H  H27  1  0.32828200  0.61171500  0.54698700  1
  H  H28  1  0.76112200  0.65984500  0.85372900  1
  H  H29  1  0.42493700  0.52674400  0.13211900  1
  H  H30  1  0.70639400  0.86644900  0.43533800  1
  H  H31  1  0.48027700  0.60143000  0.64912300  1
  H  H32  1  0.77684900  0.26535800  0.12531800  1
  H  H33  1  0.51972300  0.39857000  0.35087700  1
  H  H34  1  0.98765600  0.83022200  0.52941000  1
  H  H35  1  0.51964900  0.16695100  0.64257500  1
  S  S36  1  0.80215800  0.60433800  0.13765400  1
  S  S37  1  0.17325300  0.64116600  0.34567400  1
  S  S38  1  0.75240200  0.03663900  0.85221900  1
  S  S39  1  0.19784200  0.39566200  0.86234600  1
  S  S40  1  0.24759800  0.96336100  0.14778100  1
  S  S41  1  0.82674700  0.35883400  0.65432600  1
  N  N42  1  0.26638100  0.48259200  0.12001100  1
  N  N43  1  0.16104400  0.16311600  0.44658300  1
  N  N44  1  0.23735900  0.89476300  0.89755300  1
  N  N45  1  0.34502900  0.65660400  0.62440500  1
  N  N46  1  0.36407100  0.10148900  0.63580100  1
  N  N47  1  0.76264100  0.10523700  0.10244700  1
  N  N48  1  0.65497100  0.34339600  0.37559500  1
  N  N49  1  0.73361900  0.51740800  0.87998900  1
  N  N50  1  0.63592900  0.89851100  0.36419900  1
  N  N51  1  0.83895600  0.83688400  0.55341700  1
