# generated using pymatgen
data_K2ZnCu3P3O12F
_symmetry_space_group_name_H-M   'P 1'
_cell_length_a   14.60545900
_cell_length_b   4.97339000
_cell_length_c   8.04599219
_cell_angle_alpha   89.27440427
_cell_angle_beta   90.00000000
_cell_angle_gamma   90.00000000
_symmetry_Int_Tables_number   1
_chemical_formula_structural   K2ZnCu3P3O12F
_chemical_formula_sum   'K4 Zn2 Cu6 P6 O24 F2'
_cell_volume   584.40309447
_cell_formula_units_Z   2
loop_
 _symmetry_equiv_pos_site_id
 _symmetry_equiv_pos_as_xyz
  1  'x, y, z'
loop_
 _atom_site_type_symbol
 _atom_site_label
 _atom_site_symmetry_multiplicity
 _atom_site_fract_x
 _atom_site_fract_y
 _atom_site_fract_z
 _atom_site_occupancy
  K  K0  1  0.25000000  0.45197300  0.36226600  1
  K  K1  1  0.50000000  0.50000000  0.00000000  1
  K  K2  1  0.75000000  0.54802700  0.63773400  1
  K  K3  1  0.00000000  0.50000000  0.00000000  1
  Zn  Zn4  1  0.75000000  0.02688200  0.95358700  1
  Zn  Zn5  1  0.25000000  0.97311800  0.04641300  1
  Cu  Cu6  1  0.63626600  0.06723400  0.35621000  1
  Cu  Cu7  1  0.86373400  0.06723400  0.35621000  1
  Cu  Cu8  1  0.13626600  0.93276600  0.64379000  1
  Cu  Cu9  1  0.36373400  0.93276600  0.64379000  1
  Cu  Cu10  1  0.00000000  0.50000000  0.50000000  1
  Cu  Cu11  1  0.50000000  0.50000000  0.50000000  1
  P  P12  1  0.06667500  0.99752000  0.29559600  1
  P  P13  1  0.75000000  0.51867900  0.17739400  1
  P  P14  1  0.93332500  0.00248000  0.70440400  1
  P  P15  1  0.25000000  0.48132100  0.82260600  1
  P  P16  1  0.56667500  0.00248000  0.70440400  1
  P  P17  1  0.43332500  0.99752000  0.29559600  1
  O  O18  1  0.33792800  0.56898700  0.72757300  1
  O  O19  1  0.66207200  0.43101300  0.27242700  1
  O  O20  1  0.52836200  0.05938900  0.21830800  1
  O  O21  1  0.75000000  0.41185800  0.99658800  1
  O  O22  1  0.86003100  0.91754900  0.83092600  1
  O  O23  1  0.57925100  0.83153600  0.53984600  1
  O  O24  1  0.25000000  0.58814200  0.00341200  1
  O  O25  1  0.47163800  0.94061100  0.78169200  1
  O  O26  1  0.92325700  0.30618400  0.65868200  1
  O  O27  1  0.25000000  0.16642000  0.83036300  1
  O  O28  1  0.36003100  0.08245100  0.16907400  1
  O  O29  1  0.16207200  0.56898700  0.72757300  1
  O  O30  1  0.42074900  0.16846400  0.46015400  1
  O  O31  1  0.57674300  0.30618400  0.65868200  1
  O  O32  1  0.02836200  0.94061100  0.78169200  1
  O  O33  1  0.42325700  0.69381600  0.34131800  1
  O  O34  1  0.92074900  0.83153600  0.53984600  1
  O  O35  1  0.63996900  0.91754900  0.83092600  1
  O  O36  1  0.97163800  0.05938900  0.21830800  1
  O  O37  1  0.75000000  0.83358000  0.16963700  1
  O  O38  1  0.07925100  0.16846400  0.46015400  1
  O  O39  1  0.83792800  0.43101300  0.27242700  1
  O  O40  1  0.07674300  0.69381600  0.34131800  1
  O  O41  1  0.13996900  0.08245100  0.16907400  1
  F  F42  1  0.75000000  0.05519400  0.48790000  1
  F  F43  1  0.25000000  0.94480600  0.51210000  1
