# generated using pymatgen
data_Na3GaS3
_symmetry_space_group_name_H-M   'P 1'
_cell_length_a   12.20304900
_cell_length_b   7.70270900
_cell_length_c   13.81947290
_cell_angle_alpha   81.62221764
_cell_angle_beta   90.00000000
_cell_angle_gamma   90.00000000
_symmetry_Int_Tables_number   1
_chemical_formula_structural   Na3GaS3
_chemical_formula_sum   'Na24 Ga8 S24'
_cell_volume   1285.12100742
_cell_formula_units_Z   8
loop_
 _symmetry_equiv_pos_site_id
 _symmetry_equiv_pos_as_xyz
  1  'x, y, z'
loop_
 _atom_site_type_symbol
 _atom_site_label
 _atom_site_symmetry_multiplicity
 _atom_site_fract_x
 _atom_site_fract_y
 _atom_site_fract_z
 _atom_site_occupancy
  Na  Na0  1  0.74947200  0.49688900  0.01385100  1
  Na  Na1  1  0.30790800  0.96364800  0.24068800  1
  Na  Na2  1  0.75052800  0.99688900  0.01385100  1
  Na  Na3  1  0.26368000  0.08439800  0.47386400  1
  Na  Na4  1  0.91194700  0.10983100  0.36656800  1
  Na  Na5  1  0.41194700  0.39016900  0.63343200  1
  Na  Na6  1  0.32812100  0.99450000  0.75694600  1
  Na  Na7  1  0.25052800  0.50311100  0.98614900  1
  Na  Na8  1  0.69209200  0.03635200  0.75931200  1
  Na  Na9  1  0.08805300  0.89016900  0.63343200  1
  Na  Na10  1  0.73632000  0.91560200  0.52613600  1
  Na  Na11  1  0.67187900  0.00550000  0.24305400  1
  Na  Na12  1  0.19209200  0.46364800  0.24068800  1
  Na  Na13  1  0.80790800  0.53635200  0.75931200  1
  Na  Na14  1  0.48100000  0.41857800  0.19351000  1
  Na  Na15  1  0.58805300  0.60983100  0.36656800  1
  Na  Na16  1  0.98100000  0.08142200  0.80649000  1
  Na  Na17  1  0.01900000  0.91857800  0.19351000  1
  Na  Na18  1  0.76368000  0.41560200  0.52613600  1
  Na  Na19  1  0.17187900  0.49450000  0.75694600  1
  Na  Na20  1  0.24947200  0.00311100  0.98614900  1
  Na  Na21  1  0.51900000  0.58142200  0.80649000  1
  Na  Na22  1  0.82812100  0.50550000  0.24305400  1
  Na  Na23  1  0.23632000  0.58439800  0.47386400  1
  Ga  Ga24  1  0.50750800  0.17859500  0.92609600  1
  Ga  Ga25  1  0.97788700  0.68277100  0.43345300  1
  Ga  Ga26  1  0.49249200  0.82140500  0.07390400  1
  Ga  Ga27  1  0.99249200  0.67859500  0.92609600  1
  Ga  Ga28  1  0.47788700  0.81722900  0.56654700  1
  Ga  Ga29  1  0.52211300  0.18277100  0.43345300  1
  Ga  Ga30  1  0.02211300  0.31722900  0.56654700  1
  Ga  Ga31  1  0.00750800  0.32140500  0.07390400  1
  S  S32  1  0.18632500  0.23591700  0.63092400  1
  S  S33  1  0.64114200  0.68846900  0.14819500  1
  S  S34  1  0.49791300  0.11973800  0.09790500  1
  S  S35  1  0.68632500  0.26408300  0.36907600  1
  S  S36  1  0.50208700  0.88026200  0.90209500  1
  S  S37  1  0.46654000  0.90856800  0.39544100  1
  S  S38  1  0.53346000  0.09143200  0.60455900  1
  S  S39  1  0.99791300  0.38026200  0.90209500  1
  S  S40  1  0.03346000  0.40856800  0.39544100  1
  S  S41  1  0.31367500  0.73591700  0.63092400  1
  S  S42  1  0.17049200  0.20156100  0.12290500  1
  S  S43  1  0.82950800  0.79843900  0.87709500  1
  S  S44  1  0.81367500  0.76408300  0.36907600  1
  S  S45  1  0.38955500  0.38276900  0.38621400  1
  S  S46  1  0.85885800  0.18846900  0.14819500  1
  S  S47  1  0.00208700  0.61973800  0.09790500  1
  S  S48  1  0.11044500  0.88276900  0.38621400  1
  S  S49  1  0.61044500  0.61723100  0.61378600  1
  S  S50  1  0.96654000  0.59143200  0.60455900  1
  S  S51  1  0.35885800  0.31153100  0.85180500  1
  S  S52  1  0.32950800  0.70156100  0.12290500  1
  S  S53  1  0.88955500  0.11723100  0.61378600  1
  S  S54  1  0.14114200  0.81153100  0.85180500  1
  S  S55  1  0.67049200  0.29843900  0.87709500  1
