# generated using pymatgen
data_CsAgF3
_symmetry_space_group_name_H-M   'P 1'
_cell_length_a   6.38463414
_cell_length_b   6.38463414
_cell_length_c   6.38463414
_cell_angle_alpha   118.42505896
_cell_angle_beta   118.42505896
_cell_angle_gamma   92.75023494
_symmetry_Int_Tables_number   1
_chemical_formula_structural   CsAgF3
_chemical_formula_sum   'Cs2 Ag2 F6'
_cell_volume   188.17827976
_cell_formula_units_Z   2
loop_
 _symmetry_equiv_pos_site_id
 _symmetry_equiv_pos_as_xyz
  1  'x, y, z'
loop_
 _atom_site_type_symbol
 _atom_site_label
 _atom_site_symmetry_multiplicity
 _atom_site_fract_x
 _atom_site_fract_y
 _atom_site_fract_z
 _atom_site_occupancy
  Cs  Cs0  1  0.25000000  0.25000000  0.00000000  1
  Cs  Cs1  1  0.75000000  0.75000000  0.00000000  1
  Ag  Ag2  1  0.00000000  0.50000000  0.50000000  1
  Ag  Ag3  1  0.50000000  0.00000000  0.50000000  1
  F  F4  1  0.77035300  0.27035300  0.04070500  1
  F  F5  1  0.72964700  0.77035300  0.50000000  1
  F  F6  1  0.75000000  0.25000000  0.50000000  1
  F  F7  1  0.22964700  0.72964700  0.95929500  1
  F  F8  1  0.27035300  0.22964700  0.50000000  1
  F  F9  1  0.25000000  0.75000000  0.50000000  1
