# generated using pymatgen
data_CeCoSb3
_symmetry_space_group_name_H-M   'P 1'
_cell_length_a   6.18968900
_cell_length_b   12.16785100
_cell_length_c   12.57147400
_cell_angle_alpha   90.00000000
_cell_angle_beta   90.00000000
_cell_angle_gamma   90.00000000
_symmetry_Int_Tables_number   1
_chemical_formula_structural   CeCoSb3
_chemical_formula_sum   'Ce8 Co8 Sb24'
_cell_volume   946.82324817
_cell_formula_units_Z   8
loop_
 _symmetry_equiv_pos_site_id
 _symmetry_equiv_pos_as_xyz
  1  'x, y, z'
loop_
 _atom_site_type_symbol
 _atom_site_label
 _atom_site_symmetry_multiplicity
 _atom_site_fract_x
 _atom_site_fract_y
 _atom_site_fract_z
 _atom_site_occupancy
  Ce  Ce0  1  0.22784100  0.25000000  0.30204100  1
  Ce  Ce1  1  0.77215900  0.75000000  0.69795900  1
  Ce  Ce2  1  0.75000000  0.50000000  0.29949100  1
  Ce  Ce3  1  0.25000000  0.50000000  0.70050900  1
  Ce  Ce4  1  0.72784100  0.25000000  0.69795900  1
  Ce  Ce5  1  0.27215900  0.75000000  0.30204100  1
  Ce  Ce6  1  0.75000000  0.00000000  0.29949100  1
  Ce  Ce7  1  0.25000000  0.00000000  0.70050900  1
  Co  Co8  1  0.53688300  0.86420300  0.89963600  1
  Co  Co9  1  0.46311700  0.36420300  0.10036400  1
  Co  Co10  1  0.53688300  0.63579700  0.89963600  1
  Co  Co11  1  0.46311700  0.13579700  0.10036400  1
  Co  Co12  1  0.96311700  0.13579700  0.89963600  1
  Co  Co13  1  0.03688300  0.86420300  0.10036400  1
  Co  Co14  1  0.03688300  0.63579700  0.10036400  1
  Co  Co15  1  0.96311700  0.36420300  0.89963600  1
  Sb  Sb16  1  0.38411000  0.75000000  0.05529700  1
  Sb  Sb17  1  0.26716200  0.75000000  0.78024400  1
  Sb  Sb18  1  0.11589000  0.25000000  0.05529700  1
  Sb  Sb19  1  0.75000000  0.00000000  0.77593300  1
  Sb  Sb20  1  0.01151600  0.87557200  0.49765500  1
  Sb  Sb21  1  0.76716200  0.75000000  0.21975600  1
  Sb  Sb22  1  0.23283800  0.25000000  0.78024400  1
  Sb  Sb23  1  0.75000000  0.50000000  0.02808300  1
  Sb  Sb24  1  0.73283800  0.25000000  0.21975600  1
  Sb  Sb25  1  0.48848400  0.12442800  0.49765500  1
  Sb  Sb26  1  0.75000000  0.50000000  0.77593300  1
  Sb  Sb27  1  0.98848400  0.12442800  0.50234500  1
  Sb  Sb28  1  0.61589000  0.25000000  0.94470300  1
  Sb  Sb29  1  0.88411000  0.75000000  0.94470300  1
  Sb  Sb30  1  0.25000000  0.50000000  0.22406700  1
  Sb  Sb31  1  0.25000000  0.00000000  0.97191700  1
  Sb  Sb32  1  0.01151600  0.62442800  0.49765500  1
  Sb  Sb33  1  0.48848400  0.37557200  0.49765500  1
  Sb  Sb34  1  0.25000000  0.00000000  0.22406700  1
  Sb  Sb35  1  0.75000000  0.00000000  0.02808300  1
  Sb  Sb36  1  0.51151600  0.62442800  0.50234500  1
  Sb  Sb37  1  0.98848400  0.37557200  0.50234500  1
  Sb  Sb38  1  0.25000000  0.50000000  0.97191700  1
  Sb  Sb39  1  0.51151600  0.87557200  0.50234500  1
