# generated using pymatgen
data_FePCl8
_symmetry_space_group_name_H-M   'P 1'
_cell_length_a   6.33779700
_cell_length_b   13.96980000
_cell_length_c   14.40193000
_cell_angle_alpha   90.00000000
_cell_angle_beta   90.00000000
_cell_angle_gamma   90.00000000
_symmetry_Int_Tables_number   1
_chemical_formula_structural   FePCl8
_chemical_formula_sum   'Fe4 P4 Cl32'
_cell_volume   1275.11457191
_cell_formula_units_Z   4
loop_
 _symmetry_equiv_pos_site_id
 _symmetry_equiv_pos_as_xyz
  1  'x, y, z'
loop_
 _atom_site_type_symbol
 _atom_site_label
 _atom_site_symmetry_multiplicity
 _atom_site_fract_x
 _atom_site_fract_y
 _atom_site_fract_z
 _atom_site_occupancy
  Fe  Fe0  1  0.27346000  0.02644000  0.25000000  1
  Fe  Fe1  1  0.27346000  0.47356000  0.75000000  1
  Fe  Fe2  1  0.72654000  0.52644000  0.25000000  1
  Fe  Fe3  1  0.72654000  0.97356000  0.75000000  1
  P  P4  1  0.95483000  0.25000000  0.00000000  1
  P  P5  1  0.04517000  0.75000000  0.50000000  1
  P  P6  1  0.04517000  0.75000000  0.00000000  1
  P  P7  1  0.95483000  0.25000000  0.50000000  1
  Cl  Cl8  1  0.40273500  0.96195200  0.12198000  1
  Cl  Cl9  1  0.40273500  0.53804800  0.87802000  1
  Cl  Cl10  1  0.59726500  0.46195200  0.37802000  1
  Cl  Cl11  1  0.59726500  0.03804800  0.62198000  1
  Cl  Cl12  1  0.59726500  0.03804800  0.87802000  1
  Cl  Cl13  1  0.59726500  0.46195200  0.12198000  1
  Cl  Cl14  1  0.40273500  0.53804800  0.62198000  1
  Cl  Cl15  1  0.40273500  0.96195200  0.37802000  1
  Cl  Cl16  1  0.34163700  0.18292500  0.25000000  1
  Cl  Cl17  1  0.34163700  0.31707500  0.75000000  1
  Cl  Cl18  1  0.65836300  0.68292500  0.25000000  1
  Cl  Cl19  1  0.65836300  0.81707500  0.75000000  1
  Cl  Cl20  1  0.92971500  0.00372700  0.25000000  1
  Cl  Cl21  1  0.92971500  0.49627300  0.75000000  1
  Cl  Cl22  1  0.07028500  0.50372700  0.25000000  1
  Cl  Cl23  1  0.07028500  0.99627300  0.75000000  1
  Cl  Cl24  1  0.13460300  0.35158400  0.05025100  1
  Cl  Cl25  1  0.13460300  0.14841600  0.94974900  1
  Cl  Cl26  1  0.86539700  0.85158400  0.44974900  1
  Cl  Cl27  1  0.86539700  0.64841600  0.55025100  1
  Cl  Cl28  1  0.86539700  0.64841600  0.94974900  1
  Cl  Cl29  1  0.86539700  0.85158400  0.05025100  1
  Cl  Cl30  1  0.13460300  0.14841600  0.55025100  1
  Cl  Cl31  1  0.13460300  0.35158400  0.44974900  1
  Cl  Cl32  1  0.77500800  0.19808700  0.09856300  1
  Cl  Cl33  1  0.77500800  0.30191300  0.90143700  1
  Cl  Cl34  1  0.22499200  0.69808700  0.40143700  1
  Cl  Cl35  1  0.22499200  0.80191300  0.59856300  1
  Cl  Cl36  1  0.22499200  0.80191300  0.90143700  1
  Cl  Cl37  1  0.22499200  0.69808700  0.09856300  1
  Cl  Cl38  1  0.77500800  0.30191300  0.59856300  1
  Cl  Cl39  1  0.77500800  0.19808700  0.40143700  1
