# generated using pymatgen
data_Na2SeO4
_symmetry_space_group_name_H-M   'P 1'
_cell_length_a   8.22310552
_cell_length_b   7.10570982
_cell_length_c   6.02957858
_cell_angle_alpha   77.03316807
_cell_angle_beta   57.36044972
_cell_angle_gamma   45.60638221
_symmetry_Int_Tables_number   1
_chemical_formula_structural   Na2SeO4
_chemical_formula_sum   'Na4 Se2 O8'
_cell_volume   205.02894379
_cell_formula_units_Z   2
loop_
 _symmetry_equiv_pos_site_id
 _symmetry_equiv_pos_as_xyz
  1  'x, y, z'
loop_
 _atom_site_type_symbol
 _atom_site_label
 _atom_site_symmetry_multiplicity
 _atom_site_fract_x
 _atom_site_fract_y
 _atom_site_fract_z
 _atom_site_occupancy
  Na  Na0  1  0.18509100  0.81490900  0.18509100  1
  Na  Na1  1  0.43509100  0.06490900  0.43509100  1
  Na  Na2  1  0.81490900  0.18509100  0.81490900  1
  Na  Na3  1  0.06490900  0.43509100  0.06490900  1
  Se  Se4  1  0.75000000  0.75000000  0.75000000  1
  Se  Se5  1  0.50000000  0.50000000  0.50000000  1
  O  O6  1  0.93078400  0.42423000  0.76534700  1
  O  O7  1  0.76534700  0.87963900  0.93078400  1
  O  O8  1  0.37036100  0.48465300  0.82577000  1
  O  O9  1  0.31921600  0.82577000  0.48465300  1
  O  O10  1  0.82577000  0.31921600  0.37036100  1
  O  O11  1  0.42423000  0.93078400  0.87963900  1
  O  O12  1  0.87963900  0.76534700  0.42423000  1
  O  O13  1  0.48465300  0.37036100  0.31921600  1
