# generated using pymatgen
data_K14In4O13
_symmetry_space_group_name_H-M   'P 1'
_cell_length_a   31.86390400
_cell_length_b   6.92610500
_cell_length_c   6.92984830
_cell_angle_alpha   60.76877143
_cell_angle_beta   90.00000000
_cell_angle_gamma   90.00000000
_symmetry_Int_Tables_number   1
_chemical_formula_structural   K14In4O13
_chemical_formula_sum   'K28 In8 O26'
_cell_volume   1334.61156698
_cell_formula_units_Z   2
loop_
 _symmetry_equiv_pos_site_id
 _symmetry_equiv_pos_as_xyz
  1  'x, y, z'
loop_
 _atom_site_type_symbol
 _atom_site_label
 _atom_site_symmetry_multiplicity
 _atom_site_fract_x
 _atom_site_fract_y
 _atom_site_fract_z
 _atom_site_occupancy
  K  K0  1  0.21847700  0.71165900  0.05393600  1
  K  K1  1  0.28152300  0.71165900  0.55393600  1
  K  K2  1  0.00087300  0.26991200  0.96049000  1
  K  K3  1  0.27516300  0.27886200  0.44069900  1
  K  K4  1  0.44719400  0.15755400  0.00041300  1
  K  K5  1  0.11084600  0.74765500  0.04035200  1
  K  K6  1  0.50087300  0.73008800  0.53951000  1
  K  K7  1  0.94719400  0.84244600  0.49958700  1
  K  K8  1  0.61283600  0.71678600  0.53952600  1
  K  K9  1  0.71847700  0.28834100  0.44606400  1
  K  K10  1  0.11283600  0.28321400  0.96047400  1
  K  K11  1  0.65808700  0.13319800  0.00489300  1
  K  K12  1  0.55280600  0.84244600  0.99958700  1
  K  K13  1  0.61084600  0.25234500  0.45964800  1
  K  K14  1  0.77516300  0.72113800  0.05930100  1
  K  K15  1  0.99912700  0.73008800  0.03951000  1
  K  K16  1  0.49912700  0.26991200  0.46049000  1
  K  K17  1  0.38915400  0.74765500  0.54035200  1
  K  K18  1  0.15808700  0.86680200  0.49510700  1
  K  K19  1  0.72483700  0.72113800  0.55930100  1
  K  K20  1  0.05280600  0.15755400  0.50041300  1
  K  K21  1  0.88716400  0.71678600  0.03952600  1
  K  K22  1  0.88915400  0.25234500  0.95964800  1
  K  K23  1  0.84191300  0.13319800  0.50489300  1
  K  K24  1  0.78152300  0.28834100  0.94606400  1
  K  K25  1  0.22483700  0.27886200  0.94069900  1
  K  K26  1  0.34191300  0.86680200  0.99510700  1
  K  K27  1  0.38716400  0.28321400  0.46047400  1
  In  In28  1  0.33406600  0.34257100  0.00121900  1
  In  In29  1  0.94472900  0.32882700  0.49939300  1
  In  In30  1  0.66593400  0.65742900  0.99878100  1
  In  In31  1  0.55527100  0.32882700  0.99939300  1
  In  In32  1  0.05527100  0.67117300  0.50060700  1
  In  In33  1  0.16593400  0.34257100  0.50121900  1
  In  In34  1  0.44472900  0.67117300  0.00060700  1
  In  In35  1  0.83406600  0.65742900  0.49878100  1
  O  O36  1  0.67042300  0.95738900  0.70668000  1
  O  O37  1  0.17223400  0.32059000  0.21289600  1
  O  O38  1  0.60385700  0.53473600  0.00286000  1
  O  O39  1  0.94233200  0.02968500  0.78942300  1
  O  O40  1  0.10385700  0.46526400  0.49714000  1
  O  O41  1  0.21008900  0.56816700  0.49845100  1
  O  O42  1  0.94294200  0.31955600  0.20676800  1
  O  O43  1  0.71008900  0.43183300  0.00154900  1
  O  O44  1  0.44233200  0.97031500  0.71057700  1
  O  O45  1  0.32776600  0.32059000  0.71289600  1
  O  O46  1  0.55705800  0.31955600  0.70676800  1
  O  O47  1  0.05766800  0.97031500  0.21057700  1
  O  O48  1  0.44294200  0.68044400  0.29323200  1
  O  O49  1  0.17042300  0.04261100  0.79332000  1
  O  O50  1  0.55766800  0.02968500  0.28942300  1
  O  O51  1  0.89614300  0.53473600  0.50286000  1
  O  O52  1  0.32957700  0.04261100  0.29332000  1
  O  O53  1  0.00000000  0.50000000  0.50000000  1
  O  O54  1  0.82957700  0.95738900  0.20668000  1
  O  O55  1  0.82776600  0.67941000  0.78710400  1
  O  O56  1  0.28991100  0.56816700  0.99845100  1
  O  O57  1  0.39614300  0.46526400  0.99714000  1
  O  O58  1  0.05705800  0.68044400  0.79323200  1
  O  O59  1  0.50000000  0.50000000  0.00000000  1
  O  O60  1  0.78991100  0.43183300  0.50154900  1
  O  O61  1  0.67223400  0.67941000  0.28710400  1
