# generated using pymatgen
data_K2NaAl3F12
_symmetry_space_group_name_H-M   'P 1'
_cell_length_a   7.08574600
_cell_length_b   7.04790100
_cell_length_c   9.81030706
_cell_angle_alpha   89.82634230
_cell_angle_beta   90.00000000
_cell_angle_gamma   90.00000000
_symmetry_Int_Tables_number   1
_chemical_formula_structural   K2NaAl3F12
_chemical_formula_sum   'K4 Na2 Al6 F24'
_cell_volume   489.92091648
_cell_formula_units_Z   2
loop_
 _symmetry_equiv_pos_site_id
 _symmetry_equiv_pos_as_xyz
  1  'x, y, z'
loop_
 _atom_site_type_symbol
 _atom_site_label
 _atom_site_symmetry_multiplicity
 _atom_site_fract_x
 _atom_site_fract_y
 _atom_site_fract_z
 _atom_site_occupancy
  K  K0  1  0.25000000  0.53543200  0.35834100  1
  K  K1  1  0.25000000  0.98561000  0.10540400  1
  K  K2  1  0.75000000  0.46456800  0.64165900  1
  K  K3  1  0.75000000  0.01439000  0.89459600  1
  Na  Na4  1  0.75000000  0.79096000  0.24081500  1
  Na  Na5  1  0.25000000  0.20904000  0.75918500  1
  Al  Al6  1  0.00000000  0.50000000  0.00000000  1
  Al  Al7  1  0.25000000  0.69216100  0.71883600  1
  Al  Al8  1  0.75000000  0.30783900  0.28116400  1
  Al  Al9  1  0.50000000  0.00000000  0.50000000  1
  Al  Al10  1  0.50000000  0.50000000  0.00000000  1
  Al  Al11  1  0.00000000  0.00000000  0.50000000  1
  F  F12  1  0.43807100  0.78778100  0.60543800  1
  F  F13  1  0.04013800  0.86624400  0.34909300  1
  F  F14  1  0.45652900  0.26204400  0.94916100  1
  F  F15  1  0.95986200  0.13375600  0.65090700  1
  F  F16  1  0.93807100  0.21221900  0.39456200  1
  F  F17  1  0.25000000  0.52614800  0.05813700  1
  F  F18  1  0.43964600  0.58177500  0.82573300  1
  F  F19  1  0.25000000  0.07939700  0.50172300  1
  F  F20  1  0.95652900  0.73795600  0.05083900  1
  F  F21  1  0.25000000  0.48020100  0.62104400  1
  F  F22  1  0.04347100  0.26204400  0.94916100  1
  F  F23  1  0.56035400  0.41822500  0.17426700  1
  F  F24  1  0.93964600  0.41822500  0.17426700  1
  F  F25  1  0.75000000  0.47385200  0.94186300  1
  F  F26  1  0.06192900  0.78778100  0.60543800  1
  F  F27  1  0.25000000  0.89587500  0.82176500  1
  F  F28  1  0.75000000  0.10412500  0.17823500  1
  F  F29  1  0.45986200  0.86624400  0.34909300  1
  F  F30  1  0.75000000  0.51979900  0.37895600  1
  F  F31  1  0.54013800  0.13375600  0.65090700  1
  F  F32  1  0.56192900  0.21221900  0.39456200  1
  F  F33  1  0.06035400  0.58177500  0.82573300  1
  F  F34  1  0.75000000  0.92060300  0.49827700  1
  F  F35  1  0.54347100  0.73795600  0.05083900  1
