# generated using pymatgen
data_Bi2Pt
_symmetry_space_group_name_H-M   'P 1'
_cell_length_a   6.87273400
_cell_length_b   6.92979000
_cell_length_c   13.61900900
_cell_angle_alpha   90.00000000
_cell_angle_beta   90.00000000
_cell_angle_gamma   90.00000000
_symmetry_Int_Tables_number   1
_chemical_formula_structural   Bi2Pt
_chemical_formula_sum   'Bi16 Pt8'
_cell_volume   648.62713961
_cell_formula_units_Z   8
loop_
 _symmetry_equiv_pos_site_id
 _symmetry_equiv_pos_as_xyz
  1  'x, y, z'
loop_
 _atom_site_type_symbol
 _atom_site_label
 _atom_site_symmetry_multiplicity
 _atom_site_fract_x
 _atom_site_fract_y
 _atom_site_fract_z
 _atom_site_occupancy
  Bi  Bi0  1  0.37152700  0.53825200  0.18585600  1
  Bi  Bi1  1  0.63994100  0.80585400  0.06448900  1
  Bi  Bi2  1  0.13994100  0.80585400  0.43551100  1
  Bi  Bi3  1  0.87152700  0.96174800  0.81414400  1
  Bi  Bi4  1  0.36005900  0.30585400  0.43551100  1
  Bi  Bi5  1  0.87152700  0.53825200  0.31414400  1
  Bi  Bi6  1  0.62847300  0.46174800  0.81414400  1
  Bi  Bi7  1  0.62847300  0.03825200  0.31414400  1
  Bi  Bi8  1  0.37152700  0.96174800  0.68585600  1
  Bi  Bi9  1  0.12847300  0.03825200  0.18585600  1
  Bi  Bi10  1  0.86005900  0.30585400  0.06448900  1
  Bi  Bi11  1  0.12847300  0.46174800  0.68585600  1
  Bi  Bi12  1  0.13994100  0.69414600  0.93551100  1
  Bi  Bi13  1  0.86005900  0.19414600  0.56448900  1
  Bi  Bi14  1  0.36005900  0.19414600  0.93551100  1
  Bi  Bi15  1  0.63994100  0.69414600  0.56448900  1
  Pt  Pt16  1  0.50280500  0.66614300  0.37098200  1
  Pt  Pt17  1  0.50280500  0.83385700  0.87098200  1
  Pt  Pt18  1  0.49719500  0.33385700  0.62901800  1
  Pt  Pt19  1  0.00280500  0.83385700  0.62901800  1
  Pt  Pt20  1  0.00280500  0.66614300  0.12901800  1
  Pt  Pt21  1  0.99719500  0.33385700  0.87098200  1
  Pt  Pt22  1  0.49719500  0.16614300  0.12901800  1
  Pt  Pt23  1  0.99719500  0.16614300  0.37098200  1
