# generated using pymatgen
data_PtF5
_symmetry_space_group_name_H-M   'P 1'
_cell_length_a   10.13545300
_cell_length_b   5.69091400
_cell_length_c   12.77250079
_cell_angle_alpha   78.71804275
_cell_angle_beta   90.00000000
_cell_angle_gamma   90.00000000
_symmetry_Int_Tables_number   1
_chemical_formula_structural   PtF5
_chemical_formula_sum   'Pt8 F40'
_cell_volume   722.48163347
_cell_formula_units_Z   8
loop_
 _symmetry_equiv_pos_site_id
 _symmetry_equiv_pos_as_xyz
  1  'x, y, z'
loop_
 _atom_site_type_symbol
 _atom_site_label
 _atom_site_symmetry_multiplicity
 _atom_site_fract_x
 _atom_site_fract_y
 _atom_site_fract_z
 _atom_site_occupancy
  Pt  Pt0  1  0.75097400  0.00082600  0.00232200  1
  Pt  Pt1  1  0.25097400  0.99917400  0.49767800  1
  Pt  Pt2  1  0.24902600  0.99917400  0.99767800  1
  Pt  Pt3  1  0.74902600  0.00082600  0.50232200  1
  Pt  Pt4  1  0.00197300  0.70128900  0.19771900  1
  Pt  Pt5  1  0.50197300  0.29871100  0.30228100  1
  Pt  Pt6  1  0.99802700  0.29871100  0.80228100  1
  Pt  Pt7  1  0.49802700  0.70128900  0.69771900  1
  F  F8  1  0.16558100  0.90306600  0.14648800  1
  F  F9  1  0.66558100  0.09693400  0.35351200  1
  F  F10  1  0.83441900  0.09693400  0.85351200  1
  F  F11  1  0.33441900  0.90306600  0.64648800  1
  F  F12  1  0.85240800  0.51584100  0.24900200  1
  F  F13  1  0.35240800  0.48415900  0.25099800  1
  F  F14  1  0.14759200  0.48415900  0.75099800  1
  F  F15  1  0.64759200  0.51584100  0.74900200  1
  F  F16  1  0.60252100  0.18890600  0.95085900  1
  F  F17  1  0.10252100  0.81109400  0.54914100  1
  F  F18  1  0.39747900  0.81109400  0.04914100  1
  F  F19  1  0.89747900  0.18890600  0.45085900  1
  F  F20  1  0.67053500  0.90773200  0.13802700  1
  F  F21  1  0.17053500  0.09226800  0.36197300  1
  F  F22  1  0.32946500  0.09226800  0.86197300  1
  F  F23  1  0.82946500  0.90773200  0.63802700  1
  F  F24  1  0.66562100  0.26771100  0.54444000  1
  F  F25  1  0.16562100  0.73228900  0.95556000  1
  F  F26  1  0.33437900  0.73228900  0.45556000  1
  F  F27  1  0.83437900  0.26771100  0.04444000  1
  F  F28  1  0.91517500  0.80016500  0.05055300  1
  F  F29  1  0.41517500  0.19983500  0.44944700  1
  F  F30  1  0.08482500  0.19983500  0.94944700  1
  F  F31  1  0.58482500  0.80016500  0.55055300  1
  F  F32  1  0.57797900  0.56389700  0.35097400  1
  F  F33  1  0.07797900  0.43610300  0.14902600  1
  F  F34  1  0.42202100  0.43610300  0.64902600  1
  F  F35  1  0.92202100  0.56389700  0.85097400  1
  F  F36  1  0.91254400  0.39182000  0.66882000  1
  F  F37  1  0.41254400  0.60818000  0.83118000  1
  F  F38  1  0.08745600  0.60818000  0.33118000  1
  F  F39  1  0.58745600  0.39182000  0.16882000  1
  F  F40  1  0.92842400  0.97594100  0.23989000  1
  F  F41  1  0.42842400  0.02405900  0.26011000  1
  F  F42  1  0.07157600  0.02405900  0.76011000  1
  F  F43  1  0.57157600  0.97594100  0.73989000  1
  F  F44  1  0.67791200  0.72943800  0.95714100  1
  F  F45  1  0.17791200  0.27056200  0.54285900  1
  F  F46  1  0.32208800  0.27056200  0.04285900  1
  F  F47  1  0.82208800  0.72943800  0.45714100  1
