# generated using pymatgen
data_Al13Os4
_symmetry_space_group_name_H-M   'P 1'
_cell_length_a   9.10575400
_cell_length_b   9.10575400
_cell_length_c   7.81811309
_cell_angle_alpha   64.93508622
_cell_angle_beta   64.93508622
_cell_angle_gamma   26.93503428
_symmetry_Int_Tables_number   1
_chemical_formula_structural   Al13Os4
_chemical_formula_sum   'Al13 Os4'
_cell_volume   264.31235622
_cell_formula_units_Z   1
loop_
 _symmetry_equiv_pos_site_id
 _symmetry_equiv_pos_as_xyz
  1  'x, y, z'
loop_
 _atom_site_type_symbol
 _atom_site_label
 _atom_site_symmetry_multiplicity
 _atom_site_fract_x
 _atom_site_fract_y
 _atom_site_fract_z
 _atom_site_occupancy
  Al  Al0  1  0.86991700  0.86991700  0.15575600  1
  Al  Al1  1  0.79167300  0.79167300  0.91510800  1
  Al  Al2  1  0.58835400  0.58835400  0.19901700  1
  Al  Al3  1  0.58758900  0.58758900  0.63322600  1
  Al  Al4  1  0.13008300  0.13008300  0.84424400  1
  Al  Al5  1  0.74098400  0.74098400  0.61504200  1
  Al  Al6  1  0.08521000  0.08521000  0.43080200  1
  Al  Al7  1  0.41241100  0.41241100  0.36677400  1
  Al  Al8  1  0.50000000  0.50000000  0.00000000  1
  Al  Al9  1  0.41164600  0.41164600  0.80098300  1
  Al  Al10  1  0.25901600  0.25901600  0.38495800  1
  Al  Al11  1  0.20832700  0.20832700  0.08489200  1
  Al  Al12  1  0.91479000  0.91479000  0.56919800  1
  Os  Os13  1  0.00827800  0.00827800  0.19573700  1
  Os  Os14  1  0.29419900  0.29419900  0.70844200  1
  Os  Os15  1  0.99172200  0.99172200  0.80426300  1
  Os  Os16  1  0.70580100  0.70580100  0.29155800  1
