# generated using pymatgen
data_Cs2Mn(PO3)4
_symmetry_space_group_name_H-M   'P 1'
_cell_length_a   13.46831100
_cell_length_b   8.12199700
_cell_length_c   12.79616473
_cell_angle_alpha   63.59250639
_cell_angle_beta   90.00000000
_cell_angle_gamma   90.00000000
_symmetry_Int_Tables_number   1
_chemical_formula_structural   Cs2Mn(PO3)4
_chemical_formula_sum   'Cs8 Mn4 P16 O48'
_cell_volume   1253.70644612
_cell_formula_units_Z   4
loop_
 _symmetry_equiv_pos_site_id
 _symmetry_equiv_pos_as_xyz
  1  'x, y, z'
loop_
 _atom_site_type_symbol
 _atom_site_label
 _atom_site_symmetry_multiplicity
 _atom_site_fract_x
 _atom_site_fract_y
 _atom_site_fract_z
 _atom_site_occupancy
  Cs  Cs0  1  0.12022300  0.44165200  0.63623400  1
  Cs  Cs1  1  0.12479100  0.06909300  0.34360000  1
  Cs  Cs2  1  0.62479100  0.93090700  0.15640000  1
  Cs  Cs3  1  0.62022300  0.55834800  0.86376600  1
  Cs  Cs4  1  0.87520900  0.93090700  0.65640000  1
  Cs  Cs5  1  0.37977700  0.44165200  0.13623400  1
  Cs  Cs6  1  0.87977700  0.55834800  0.36376600  1
  Cs  Cs7  1  0.37520900  0.06909300  0.84360000  1
  Mn  Mn8  1  0.35573600  0.25325400  0.48734000  1
  Mn  Mn9  1  0.64426400  0.74674600  0.51266000  1
  Mn  Mn10  1  0.85573600  0.74674600  0.01266000  1
  Mn  Mn11  1  0.14426400  0.25325400  0.98734000  1
  P  P12  1  0.67461000  0.07417200  0.82999300  1
  P  P13  1  0.17461000  0.92582800  0.67000700  1
  P  P14  1  0.42508300  0.94527300  0.37944500  1
  P  P15  1  0.40754100  0.58244400  0.58737900  1
  P  P16  1  0.81265700  0.39443200  0.70155100  1
  P  P17  1  0.09245900  0.58244400  0.08737900  1
  P  P18  1  0.07491700  0.94527300  0.87944500  1
  P  P19  1  0.90754100  0.41755600  0.91262100  1
  P  P20  1  0.31265700  0.60556800  0.79844900  1
  P  P21  1  0.59245900  0.41755600  0.41262100  1
  P  P22  1  0.92508300  0.05472700  0.12055500  1
  P  P23  1  0.32539000  0.92582800  0.17000700  1
  P  P24  1  0.57491700  0.05472700  0.62055500  1
  P  P25  1  0.68734300  0.39443200  0.20155100  1
  P  P26  1  0.18734300  0.60556800  0.29844900  1
  P  P27  1  0.82539000  0.07417200  0.32999300  1
  O  O28  1  0.35846200  0.08645600  0.38949600  1
  O  O29  1  0.33942100  0.64898200  0.66521000  1
  O  O30  1  0.61964700  0.25713500  0.54020900  1
  O  O31  1  0.90994900  0.04093500  0.24987300  1
  O  O32  1  0.59855000  0.38778100  0.13392800  1
  O  O33  1  0.24640000  0.43825800  0.84814800  1
  O  O34  1  0.22849300  0.10545200  0.60277600  1
  O  O35  1  0.64153800  0.91354400  0.61050400  1
  O  O36  1  0.16057900  0.64898200  0.16521000  1
  O  O37  1  0.77150700  0.89454800  0.39722400  1
  O  O38  1  0.59005100  0.04093500  0.74987300  1
  O  O39  1  0.25360000  0.43825800  0.34814800  1
  O  O40  1  0.37728700  0.83644100  0.10557400  1
  O  O41  1  0.03520000  0.05160800  0.10475200  1
  O  O42  1  0.87728700  0.16355900  0.39442600  1
  O  O43  1  0.75132600  0.21023700  0.22891100  1
  O  O44  1  0.46480000  0.05160800  0.60475200  1
  O  O45  1  0.09855000  0.61221900  0.36607200  1
  O  O46  1  0.66057900  0.35101800  0.33479000  1
  O  O47  1  0.38035300  0.74286500  0.45979100  1
  O  O48  1  0.14153800  0.08645600  0.88949600  1
  O  O49  1  0.09005100  0.95906500  0.75012700  1
  O  O50  1  0.74640000  0.56174200  0.65185200  1
  O  O51  1  0.25132600  0.78976300  0.27108900  1
  O  O52  1  0.51530300  0.58609200  0.61574700  1
  O  O53  1  0.62271300  0.16355900  0.89442600  1
  O  O54  1  0.96480000  0.94839200  0.89524800  1
  O  O55  1  0.83942100  0.35101800  0.83479000  1
  O  O56  1  0.86270300  0.59162000  0.90647600  1
  O  O57  1  0.72849300  0.89454800  0.89722400  1
  O  O58  1  0.36270300  0.40838000  0.59352400  1
  O  O59  1  0.40145000  0.61221900  0.86607200  1
  O  O60  1  0.40994900  0.95906500  0.25012700  1
  O  O61  1  0.85846200  0.91354400  0.11050400  1
  O  O62  1  0.48469700  0.41390800  0.38425300  1
  O  O63  1  0.27150700  0.10545200  0.10277600  1
  O  O64  1  0.01530300  0.41390800  0.88425300  1
  O  O65  1  0.13729700  0.40838000  0.09352400  1
  O  O66  1  0.90145000  0.38778100  0.63392800  1
  O  O67  1  0.74867400  0.21023700  0.72891100  1
  O  O68  1  0.98469700  0.58609200  0.11574700  1
  O  O69  1  0.24867400  0.78976300  0.77108900  1
  O  O70  1  0.88035300  0.25713500  0.04020900  1
  O  O71  1  0.63729700  0.59162000  0.40647600  1
  O  O72  1  0.12271300  0.83644100  0.60557400  1
  O  O73  1  0.53520000  0.94839200  0.39524800  1
  O  O74  1  0.75360000  0.56174200  0.15185200  1
  O  O75  1  0.11964700  0.74286500  0.95979100  1
