# generated using pymatgen
data_K2YZr(PO4)3
_symmetry_space_group_name_H-M   'P 1'
_cell_length_a   10.48429700
_cell_length_b   10.48429700
_cell_length_c   10.48429700
_cell_angle_alpha   90.00000000
_cell_angle_beta   90.00000000
_cell_angle_gamma   90.00000000
_symmetry_Int_Tables_number   1
_chemical_formula_structural   K2YZr(PO4)3
_chemical_formula_sum   'K8 Y4 Zr4 P12 O48'
_cell_volume   1152.43899628
_cell_formula_units_Z   4
loop_
 _symmetry_equiv_pos_site_id
 _symmetry_equiv_pos_as_xyz
  1  'x, y, z'
loop_
 _atom_site_type_symbol
 _atom_site_label
 _atom_site_symmetry_multiplicity
 _atom_site_fract_x
 _atom_site_fract_y
 _atom_site_fract_z
 _atom_site_occupancy
  K  K0  1  0.06677300  0.06677300  0.06677300  1
  K  K1  1  0.19625000  0.69625000  0.80375000  1
  K  K2  1  0.30375000  0.30375000  0.30375000  1
  K  K3  1  0.43322700  0.93322700  0.56677300  1
  K  K4  1  0.56677300  0.43322700  0.93322700  1
  K  K5  1  0.69625000  0.80375000  0.19625000  1
  K  K6  1  0.80375000  0.19625000  0.69625000  1
  K  K7  1  0.93322700  0.56677300  0.43322700  1
  Y  Y8  1  0.14719700  0.35280300  0.64719700  1
  Y  Y9  1  0.35280300  0.64719700  0.14719700  1
  Y  Y10  1  0.64719700  0.14719700  0.35280300  1
  Y  Y11  1  0.85280300  0.85280300  0.85280300  1
  Zr  Zr12  1  0.08780500  0.91219500  0.41219500  1
  Zr  Zr13  1  0.41219500  0.08780500  0.91219500  1
  Zr  Zr14  1  0.58780500  0.58780500  0.58780500  1
  Zr  Zr15  1  0.91219500  0.41219500  0.08780500  1
  P  P16  1  0.03176600  0.72760700  0.12971600  1
  P  P17  1  0.12971600  0.03176600  0.72760700  1
  P  P18  1  0.22760700  0.37028400  0.96823400  1
  P  P19  1  0.27239300  0.62971600  0.46823400  1
  P  P20  1  0.37028400  0.96823400  0.22760700  1
  P  P21  1  0.46823400  0.27239300  0.62971600  1
  P  P22  1  0.53176600  0.77239300  0.87028400  1
  P  P23  1  0.62971600  0.46823400  0.27239300  1
  P  P24  1  0.72760700  0.12971600  0.03176600  1
  P  P25  1  0.77239300  0.87028400  0.53176600  1
  P  P26  1  0.87028400  0.53176600  0.77239300  1
  P  P27  1  0.96823400  0.22760700  0.37028400  1
  O  O28  1  0.99209100  0.58529100  0.14782500  1
  O  O29  1  0.02473100  0.79141400  0.26402000  1
  O  O30  1  0.04351900  0.93651200  0.79848100  1
  O  O31  1  0.06348800  0.29848100  0.45648100  1
  O  O32  1  0.07546700  0.16788700  0.73400600  1
  O  O33  1  0.08529100  0.35217500  0.00790900  1
  O  O34  1  0.14782500  0.99209100  0.58529100  1
  O  O35  1  0.16788700  0.73400600  0.07546700  1
  O  O36  1  0.20858600  0.76402000  0.47526900  1
  O  O37  1  0.20151900  0.54351900  0.56348800  1
  O  O38  1  0.23400600  0.42453300  0.83211300  1
  O  O39  1  0.23598000  0.97526900  0.29141400  1
  O  O40  1  0.26402000  0.02473100  0.79141400  1
  O  O41  1  0.26599400  0.57546700  0.33211300  1
  O  O42  1  0.29848100  0.45648100  0.06348800  1
  O  O43  1  0.29141400  0.23598000  0.97526900  1
  O  O44  1  0.33211300  0.26599400  0.57546700  1
  O  O45  1  0.35217500  0.00790900  0.08529100  1
  O  O46  1  0.41470900  0.64782500  0.50790900  1
  O  O47  1  0.42453300  0.83211300  0.23400600  1
  O  O48  1  0.43651200  0.70151900  0.95648100  1
  O  O49  1  0.45648100  0.06348800  0.29848100  1
  O  O50  1  0.47526900  0.20858600  0.76402000  1
  O  O51  1  0.50790900  0.41470900  0.64782500  1
  O  O52  1  0.49209100  0.91470900  0.85217500  1
  O  O53  1  0.52473100  0.70858600  0.73598000  1
  O  O54  1  0.54351900  0.56348800  0.20151900  1
  O  O55  1  0.56348800  0.20151900  0.54351900  1
  O  O56  1  0.57546700  0.33211300  0.26599400  1
  O  O57  1  0.58529100  0.14782500  0.99209100  1
  O  O58  1  0.64782500  0.50790900  0.41470900  1
  O  O59  1  0.66788700  0.76599400  0.92453300  1
  O  O60  1  0.70858600  0.73598000  0.52473100  1
  O  O61  1  0.70151900  0.95648100  0.43651200  1
  O  O62  1  0.73400600  0.07546700  0.16788700  1
  O  O63  1  0.73598000  0.52473100  0.70858600  1
  O  O64  1  0.76402000  0.47526900  0.20858600  1
  O  O65  1  0.76599400  0.92453300  0.66788700  1
  O  O66  1  0.79848100  0.04351900  0.93651200  1
  O  O67  1  0.79141400  0.26402000  0.02473100  1
  O  O68  1  0.83211300  0.23400600  0.42453300  1
  O  O69  1  0.85217500  0.49209100  0.91470900  1
  O  O70  1  0.91470900  0.85217500  0.49209100  1
  O  O71  1  0.92453300  0.66788700  0.76599400  1
  O  O72  1  0.93651200  0.79848100  0.04351900  1
  O  O73  1  0.95648100  0.43651200  0.70151900  1
  O  O74  1  0.97526900  0.29141400  0.23598000  1
  O  O75  1  0.00790900  0.08529100  0.35217500  1
