# generated using pymatgen
data_CoSeO4
_symmetry_space_group_name_H-M   'P 1'
_cell_length_a   4.98819300
_cell_length_b   6.87251909
_cell_length_c   9.11837901
_cell_angle_alpha   89.98853783
_cell_angle_beta   90.00094022
_cell_angle_gamma   89.99667206
_symmetry_Int_Tables_number   1
_chemical_formula_structural   CoSeO4
_chemical_formula_sum   'Co4 Se4 O16'
_cell_volume   312.59126217
_cell_formula_units_Z   4
loop_
 _symmetry_equiv_pos_site_id
 _symmetry_equiv_pos_as_xyz
  1  'x, y, z'
loop_
 _atom_site_type_symbol
 _atom_site_label
 _atom_site_symmetry_multiplicity
 _atom_site_fract_x
 _atom_site_fract_y
 _atom_site_fract_z
 _atom_site_occupancy
  Co  Co0  1  0.50000000  0.00000000  0.50000000  1
  Co  Co1  1  0.00000000  0.00000000  0.00000000  1
  Co  Co2  1  0.00000000  0.50000000  0.00000000  1
  Co  Co3  1  0.50000000  0.50000000  0.50000000  1
  Se  Se4  1  0.97025500  0.74998600  0.32057000  1
  Se  Se5  1  0.47027600  0.24997800  0.17942400  1
  Se  Se6  1  0.52972400  0.75002200  0.82057600  1
  Se  Se7  1  0.02974400  0.25001400  0.67943000  1
  O  O8  1  0.79016300  0.25000100  0.11862400  1
  O  O9  1  0.70985800  0.25005600  0.61862100  1
  O  O10  1  0.29014200  0.74994400  0.38137900  1
  O  O11  1  0.20983700  0.74999900  0.88137500  1
  O  O12  1  0.56140100  0.75004100  0.63376200  1
  O  O13  1  0.43859900  0.24995900  0.36623800  1
  O  O14  1  0.93858700  0.75002200  0.13375500  1
  O  O15  1  0.06141300  0.24997800  0.86624500  1
  O  O16  1  0.82278500  0.95521900  0.37586800  1
  O  O17  1  0.17729100  0.45524800  0.62415200  1
  O  O18  1  0.17721400  0.04478100  0.62413100  1
  O  O19  1  0.67720500  0.95525000  0.87586000  1
  O  O20  1  0.82270900  0.54475200  0.37584800  1
  O  O21  1  0.67725500  0.54477500  0.87587400  1
  O  O22  1  0.32274500  0.45522600  0.12412600  1
  O  O23  1  0.32279500  0.04475000  0.12414000  1
