# generated using pymatgen
data_Nd2Te2W2O13
_symmetry_space_group_name_H-M   'P 1'
_cell_length_a   6.73116600
_cell_length_b   6.99305236
_cell_length_c   11.77325253
_cell_angle_alpha   90.58221741
_cell_angle_beta   98.38252978
_cell_angle_gamma   93.55247356
_symmetry_Int_Tables_number   1
_chemical_formula_structural   Nd2Te2W2O13
_chemical_formula_sum   'Nd4 Te4 W4 O26'
_cell_volume   547.10609667
_cell_formula_units_Z   2
loop_
 _symmetry_equiv_pos_site_id
 _symmetry_equiv_pos_as_xyz
  1  'x, y, z'
loop_
 _atom_site_type_symbol
 _atom_site_label
 _atom_site_symmetry_multiplicity
 _atom_site_fract_x
 _atom_site_fract_y
 _atom_site_fract_z
 _atom_site_occupancy
  Nd  Nd0  1  0.76930400  0.87074500  0.88171300  1
  Nd  Nd1  1  0.63229800  0.37179000  0.36756900  1
  Nd  Nd2  1  0.36770200  0.62821000  0.63243100  1
  Nd  Nd3  1  0.23069600  0.12925500  0.11828700  1
  Te  Te4  1  0.24856100  0.61281000  0.94919000  1
  Te  Te5  1  0.75143900  0.38719000  0.05081000  1
  Te  Te6  1  0.17026600  0.17903700  0.44131600  1
  Te  Te7  1  0.82973400  0.82096300  0.55868400  1
  W  W8  1  0.11032000  0.62312800  0.29753200  1
  W  W9  1  0.24654300  0.11882700  0.81332900  1
  W  W10  1  0.88968000  0.37687200  0.70246800  1
  W  W11  1  0.75345700  0.88117300  0.18667100  1
  O  O12  1  0.42318500  0.67963900  0.84241700  1
  O  O13  1  0.17907300  0.75052400  0.43509200  1
  O  O14  1  0.92388400  0.16793500  0.80375900  1
  O  O15  1  0.79714600  0.04671200  0.31028300  1
  O  O16  1  0.15626300  0.95241800  0.93034500  1
  O  O17  1  0.01148800  0.41400800  0.14590100  1
  O  O18  1  0.00934400  0.38744200  0.37743100  1
  O  O19  1  0.57681500  0.32036100  0.15758300  1
  O  O20  1  0.07611600  0.83206500  0.19624100  1
  O  O21  1  0.84373700  0.04758200  0.06965500  1
  O  O22  1  0.27180300  0.33149600  0.95171800  1
  O  O23  1  0.20221700  0.34799600  0.71937900  1
  O  O24  1  0.72819700  0.66850400  0.04828200  1
  O  O25  1  0.61852200  0.65391700  0.48680000  1
  O  O26  1  0.48590300  0.89946200  0.14587600  1
  O  O27  1  0.34970300  0.54164300  0.27683600  1
  O  O28  1  0.67797700  0.85436700  0.67987700  1
  O  O29  1  0.20285400  0.95328800  0.68971700  1
  O  O30  1  0.79778300  0.65200400  0.28062100  1
  O  O31  1  0.38147800  0.34608300  0.51320000  1
  O  O32  1  0.32202300  0.14563300  0.32012300  1
  O  O33  1  0.99065600  0.61255800  0.62256900  1
  O  O34  1  0.65029700  0.45835700  0.72316400  1
  O  O35  1  0.82092700  0.24947600  0.56490800  1
  O  O36  1  0.51409700  0.10053800  0.85412400  1
  O  O37  1  0.98851200  0.58599200  0.85409900  1
