# generated using pymatgen
data_CuBi2(SeO3)4
_symmetry_space_group_name_H-M   'P 1'
_cell_length_a   7.46305300
_cell_length_b   8.18020900
_cell_length_c   10.83381155
_cell_angle_alpha   69.39037298
_cell_angle_beta   90.00000000
_cell_angle_gamma   90.00000000
_symmetry_Int_Tables_number   1
_chemical_formula_structural   CuBi2(SeO3)4
_chemical_formula_sum   'Cu2 Bi4 Se8 O24'
_cell_volume   619.06783414
_cell_formula_units_Z   2
loop_
 _symmetry_equiv_pos_site_id
 _symmetry_equiv_pos_as_xyz
  1  'x, y, z'
loop_
 _atom_site_type_symbol
 _atom_site_label
 _atom_site_symmetry_multiplicity
 _atom_site_fract_x
 _atom_site_fract_y
 _atom_site_fract_z
 _atom_site_occupancy
  Cu  Cu0  1  0.00000000  0.00000000  0.00000000  1
  Cu  Cu1  1  0.50000000  0.50000000  0.00000000  1
  Bi  Bi2  1  0.88484100  0.74793200  0.39887600  1
  Bi  Bi3  1  0.38484100  0.75206800  0.60112400  1
  Bi  Bi4  1  0.11515900  0.25206800  0.60112400  1
  Bi  Bi5  1  0.61515900  0.24793200  0.39887600  1
  Se  Se6  1  0.82791800  0.85543400  0.68666600  1
  Se  Se7  1  0.16582800  0.38912200  0.86903600  1
  Se  Se8  1  0.67208200  0.35543400  0.68666600  1
  Se  Se9  1  0.33417200  0.88912200  0.86903600  1
  Se  Se10  1  0.32791800  0.64456600  0.31333400  1
  Se  Se11  1  0.17208200  0.14456600  0.31333400  1
  Se  Se12  1  0.83417200  0.61087800  0.13096400  1
  Se  Se13  1  0.66582800  0.11087800  0.13096400  1
  O  O14  1  0.72581100  0.02159400  0.29493100  1
  O  O15  1  0.85519900  0.42038200  0.57692100  1
  O  O16  1  0.14480100  0.57961800  0.42307900  1
  O  O17  1  0.51678000  0.30568500  0.58759500  1
  O  O18  1  0.22581100  0.47840600  0.70506900  1
  O  O19  1  0.77418900  0.52159400  0.29493100  1
  O  O20  1  0.64480100  0.92038200  0.57692100  1
  O  O21  1  0.89029500  0.81266000  0.14673300  1
  O  O22  1  0.11497600  0.94038700  0.31148400  1
  O  O23  1  0.27418900  0.97840600  0.70506900  1
  O  O24  1  0.13781100  0.82548900  0.95747000  1
  O  O25  1  0.36218900  0.32548900  0.95747000  1
  O  O26  1  0.88502400  0.05961300  0.68851600  1
  O  O27  1  0.10970500  0.18734000  0.85326700  1
  O  O28  1  0.39029500  0.68734000  0.85326700  1
  O  O29  1  0.35519900  0.07961800  0.42307900  1
  O  O30  1  0.60970500  0.31266000  0.14673300  1
  O  O31  1  0.48322000  0.69431500  0.41240500  1
  O  O32  1  0.01678000  0.19431500  0.41240500  1
  O  O33  1  0.98322000  0.80568500  0.58759500  1
  O  O34  1  0.61497600  0.55961300  0.68851600  1
  O  O35  1  0.63781100  0.67451100  0.04253000  1
  O  O36  1  0.86218900  0.17451100  0.04253000  1
  O  O37  1  0.38502400  0.44038700  0.31148400  1
