# generated using pymatgen
data_NbBi4BrO8
_symmetry_space_group_name_H-M   'P 1'
_cell_length_a   5.58037300
_cell_length_b   5.64904300
_cell_length_c   29.78132500
_cell_angle_alpha   90.00000000
_cell_angle_beta   90.00000000
_cell_angle_gamma   90.00000000
_symmetry_Int_Tables_number   1
_chemical_formula_structural   NbBi4BrO8
_chemical_formula_sum   'Nb4 Bi16 Br4 O32'
_cell_volume   938.81955124
_cell_formula_units_Z   4
loop_
 _symmetry_equiv_pos_site_id
 _symmetry_equiv_pos_as_xyz
  1  'x, y, z'
loop_
 _atom_site_type_symbol
 _atom_site_label
 _atom_site_symmetry_multiplicity
 _atom_site_fract_x
 _atom_site_fract_y
 _atom_site_fract_z
 _atom_site_occupancy
  Nb  Nb0  1  0.00000000  0.00811300  0.25000000  1
  Nb  Nb1  1  0.00000000  0.99188700  0.75000000  1
  Nb  Nb2  1  0.50000000  0.50811300  0.25000000  1
  Nb  Nb3  1  0.50000000  0.49188700  0.75000000  1
  Bi  Bi4  1  0.48789500  0.50665000  0.57254700  1
  Bi  Bi5  1  0.48789500  0.49335000  0.07254700  1
  Bi  Bi6  1  0.52123800  0.94606700  0.15924500  1
  Bi  Bi7  1  0.01210500  0.99335000  0.07254700  1
  Bi  Bi8  1  0.51210500  0.50665000  0.92745300  1
  Bi  Bi9  1  0.52123800  0.05393300  0.65924500  1
  Bi  Bi10  1  0.02123800  0.44606700  0.34075500  1
  Bi  Bi11  1  0.02123800  0.55393300  0.84075500  1
  Bi  Bi12  1  0.98789500  0.00665000  0.92745300  1
  Bi  Bi13  1  0.97876200  0.44606700  0.15924500  1
  Bi  Bi14  1  0.98789500  0.99335000  0.42745300  1
  Bi  Bi15  1  0.51210500  0.49335000  0.42745300  1
  Bi  Bi16  1  0.47876200  0.94606700  0.34075500  1
  Bi  Bi17  1  0.01210500  0.00665000  0.57254700  1
  Bi  Bi18  1  0.47876200  0.05393300  0.84075500  1
  Bi  Bi19  1  0.97876200  0.55393300  0.65924500  1
  Br  Br20  1  0.00000000  0.50000000  0.00000000  1
  Br  Br21  1  0.00000000  0.50000000  0.50000000  1
  Br  Br22  1  0.50000000  0.00000000  0.00000000  1
  Br  Br23  1  0.50000000  0.00000000  0.50000000  1
  O  O24  1  0.25156300  0.30012200  0.23312900  1
  O  O25  1  0.74874600  0.75340300  0.10798300  1
  O  O26  1  0.60469600  0.58032300  0.18699400  1
  O  O27  1  0.39530400  0.41967700  0.81300600  1
  O  O28  1  0.39530400  0.58032300  0.31300600  1
  O  O29  1  0.75305100  0.75417100  0.88992700  1
  O  O30  1  0.74843700  0.30012200  0.26687100  1
  O  O31  1  0.75156300  0.80012200  0.26687100  1
  O  O32  1  0.89530400  0.08032300  0.18699400  1
  O  O33  1  0.25305100  0.74582900  0.11007300  1
  O  O34  1  0.75125400  0.25340300  0.10798300  1
  O  O35  1  0.24694900  0.75417100  0.61007300  1
  O  O36  1  0.25125400  0.75340300  0.39201700  1
  O  O37  1  0.74694900  0.25417100  0.88992700  1
  O  O38  1  0.25156300  0.69987800  0.73312900  1
  O  O39  1  0.74843700  0.69987800  0.76687100  1
  O  O40  1  0.75305100  0.24582900  0.38992700  1
  O  O41  1  0.75156300  0.19987800  0.76687100  1
  O  O42  1  0.75125400  0.74659700  0.60798300  1
  O  O43  1  0.25125400  0.24659700  0.89201700  1
  O  O44  1  0.10469600  0.91967700  0.81300600  1
  O  O45  1  0.24843700  0.19987800  0.73312900  1
  O  O46  1  0.89530400  0.91967700  0.68699400  1
  O  O47  1  0.74694900  0.74582900  0.38992700  1
  O  O48  1  0.10469600  0.08032300  0.31300600  1
  O  O49  1  0.24843700  0.80012200  0.23312900  1
  O  O50  1  0.60469600  0.41967700  0.68699400  1
  O  O51  1  0.74874600  0.24659700  0.60798300  1
  O  O52  1  0.24694900  0.24582900  0.11007300  1
  O  O53  1  0.24874600  0.25340300  0.39201700  1
  O  O54  1  0.24874600  0.74659700  0.89201700  1
  O  O55  1  0.25305100  0.25417100  0.61007300  1
