# generated using pymatgen
data_Co2PHO5
_symmetry_space_group_name_H-M   'P 1'
_cell_length_a   6.03704900
_cell_length_b   8.16475800
_cell_length_c   8.40594400
_cell_angle_alpha   90.00000000
_cell_angle_beta   90.00000000
_cell_angle_gamma   90.00000000
_symmetry_Int_Tables_number   1
_chemical_formula_structural   Co2PHO5
_chemical_formula_sum   'Co8 P4 H4 O20'
_cell_volume   414.33775657
_cell_formula_units_Z   4
loop_
 _symmetry_equiv_pos_site_id
 _symmetry_equiv_pos_as_xyz
  1  'x, y, z'
loop_
 _atom_site_type_symbol
 _atom_site_label
 _atom_site_symmetry_multiplicity
 _atom_site_fract_x
 _atom_site_fract_y
 _atom_site_fract_z
 _atom_site_occupancy
  Co  Co0  1  0.50000000  0.36116700  0.36961900  1
  Co  Co1  1  0.50000000  0.63883300  0.63038100  1
  Co  Co2  1  0.00000000  0.86116700  0.13038100  1
  Co  Co3  1  0.00000000  0.13883300  0.86961900  1
  Co  Co4  1  0.25487000  0.50000000  0.00000000  1
  Co  Co5  1  0.24513000  0.00000000  0.50000000  1
  Co  Co6  1  0.74513000  0.50000000  0.00000000  1
  Co  Co7  1  0.75487000  0.00000000  0.50000000  1
  P  P8  1  0.00000000  0.24850000  0.24076600  1
  P  P9  1  0.00000000  0.75150000  0.75923400  1
  P  P10  1  0.50000000  0.74850000  0.25923400  1
  P  P11  1  0.50000000  0.25150000  0.74076600  1
  H  H12  1  0.50000000  0.27354900  0.08168400  1
  H  H13  1  0.50000000  0.72645100  0.91831600  1
  H  H14  1  0.00000000  0.77354900  0.41831600  1
  H  H15  1  0.00000000  0.22645100  0.58168400  1
  O  O16  1  0.00000000  0.10950900  0.11299100  1
  O  O17  1  0.00000000  0.89049100  0.88700900  1
  O  O18  1  0.50000000  0.60950900  0.38700900  1
  O  O19  1  0.50000000  0.39049100  0.61299100  1
  O  O20  1  0.00000000  0.41353500  0.14680200  1
  O  O21  1  0.00000000  0.58646500  0.85319800  1
  O  O22  1  0.50000000  0.91353500  0.35319800  1
  O  O23  1  0.50000000  0.08646500  0.64680200  1
  O  O24  1  0.20874100  0.23336800  0.34846600  1
  O  O25  1  0.20874100  0.76663200  0.65153400  1
  O  O26  1  0.29125900  0.73336800  0.15153400  1
  O  O27  1  0.29125900  0.26663200  0.84846600  1
  O  O28  1  0.79125900  0.76663200  0.65153400  1
  O  O29  1  0.79125900  0.23336800  0.34846600  1
  O  O30  1  0.70874100  0.26663200  0.84846600  1
  O  O31  1  0.70874100  0.73336800  0.15153400  1
  O  O32  1  0.50000000  0.38469000  0.12443900  1
  O  O33  1  0.50000000  0.61531000  0.87556100  1
  O  O34  1  0.00000000  0.88469000  0.37556100  1
  O  O35  1  0.00000000  0.11531000  0.62443900  1
