# generated using pymatgen
data_ZnBi2B2O7
_symmetry_space_group_name_H-M   'P 1'
_cell_length_a   4.95292200
_cell_length_b   10.95786600
_cell_length_c   11.12700800
_cell_angle_alpha   90.00000000
_cell_angle_beta   90.00000000
_cell_angle_gamma   90.00000000
_symmetry_Int_Tables_number   1
_chemical_formula_structural   ZnBi2B2O7
_chemical_formula_sum   'Zn4 Bi8 B8 O28'
_cell_volume   603.90117448
_cell_formula_units_Z   4
loop_
 _symmetry_equiv_pos_site_id
 _symmetry_equiv_pos_as_xyz
  1  'x, y, z'
loop_
 _atom_site_type_symbol
 _atom_site_label
 _atom_site_symmetry_multiplicity
 _atom_site_fract_x
 _atom_site_fract_y
 _atom_site_fract_z
 _atom_site_occupancy
  Zn  Zn0  1  0.06995800  0.74147300  0.24023700  1
  Zn  Zn1  1  0.06995800  0.24147300  0.25976300  1
  Zn  Zn2  1  0.06995800  0.25852700  0.75976300  1
  Zn  Zn3  1  0.06995800  0.75852700  0.74023700  1
  Bi  Bi4  1  0.58168400  0.32016500  0.03271100  1
  Bi  Bi5  1  0.57795200  0.51496100  0.31275000  1
  Bi  Bi6  1  0.57795200  0.48503900  0.68725000  1
  Bi  Bi7  1  0.58168400  0.67983500  0.96728900  1
  Bi  Bi8  1  0.57795200  0.98503900  0.81275000  1
  Bi  Bi9  1  0.58168400  0.17983500  0.53271100  1
  Bi  Bi10  1  0.58168400  0.82016500  0.46728900  1
  Bi  Bi11  1  0.57795200  0.01496100  0.18725000  1
  B  B12  1  0.12473500  0.51432500  0.87323500  1
  B  B13  1  0.08080400  0.38451400  0.47991700  1
  B  B14  1  0.12473500  0.98567500  0.37323500  1
  B  B15  1  0.08080400  0.88451400  0.02008300  1
  B  B16  1  0.12473500  0.01432500  0.62676500  1
  B  B17  1  0.08080400  0.11548600  0.97991700  1
  B  B18  1  0.08080400  0.61548600  0.52008300  1
  B  B19  1  0.12473500  0.48567500  0.12676500  1
  O  O20  1  0.95698400  0.50000000  0.50000000  1
  O  O21  1  0.21637900  0.50000000  0.00000000  1
  O  O22  1  0.93038100  0.19645000  0.91537200  1
  O  O23  1  0.93038100  0.69645000  0.58462800  1
  O  O24  1  0.73778200  0.19961400  0.17447200  1
  O  O25  1  0.95698400  0.00000000  0.00000000  1
  O  O26  1  0.82943600  0.47892600  0.14017200  1
  O  O27  1  0.24842300  0.08698300  0.29996700  1
  O  O28  1  0.82943600  0.52107400  0.85982800  1
  O  O29  1  0.21637900  0.00000000  0.50000000  1
  O  O30  1  0.73778200  0.30038600  0.67447200  1
  O  O31  1  0.93038100  0.80355000  0.08462800  1
  O  O32  1  0.93038100  0.30355000  0.41537200  1
  O  O33  1  0.26717900  0.87130000  0.32673700  1
  O  O34  1  0.26717900  0.12870000  0.67326300  1
  O  O35  1  0.33593500  0.63455600  0.47796800  1
  O  O36  1  0.33593500  0.86544400  0.97796800  1
  O  O37  1  0.33593500  0.13455600  0.02203200  1
  O  O38  1  0.24842300  0.58698300  0.20003300  1
  O  O39  1  0.24842300  0.91301700  0.70003300  1
  O  O40  1  0.82943600  0.97892600  0.35982800  1
  O  O41  1  0.33593500  0.36544400  0.52203200  1
  O  O42  1  0.73778200  0.69961400  0.32552800  1
  O  O43  1  0.24842300  0.41301700  0.79996700  1
  O  O44  1  0.82943600  0.02107400  0.64017200  1
  O  O45  1  0.73778200  0.80038600  0.82552800  1
  O  O46  1  0.26717900  0.37130000  0.17326300  1
  O  O47  1  0.26717900  0.62870000  0.82673700  1
