# generated using pymatgen
data_Cs3PSe4
_symmetry_space_group_name_H-M   'P 1'
_cell_length_a   10.17822000
_cell_length_b   10.20039000
_cell_length_c   12.26788100
_cell_angle_alpha   90.00000000
_cell_angle_beta   90.00000000
_cell_angle_gamma   90.00000000
_symmetry_Int_Tables_number   1
_chemical_formula_structural   Cs3PSe4
_chemical_formula_sum   'Cs12 P4 Se16'
_cell_volume   1273.67365329
_cell_formula_units_Z   4
loop_
 _symmetry_equiv_pos_site_id
 _symmetry_equiv_pos_as_xyz
  1  'x, y, z'
loop_
 _atom_site_type_symbol
 _atom_site_label
 _atom_site_symmetry_multiplicity
 _atom_site_fract_x
 _atom_site_fract_y
 _atom_site_fract_z
 _atom_site_occupancy
  Cs  Cs0  1  0.40371300  0.84369400  0.75000000  1
  Cs  Cs1  1  0.59628700  0.15630600  0.25000000  1
  Cs  Cs2  1  0.09628700  0.34369400  0.75000000  1
  Cs  Cs3  1  0.70556500  0.53487300  0.95793800  1
  Cs  Cs4  1  0.29443500  0.46512700  0.04206200  1
  Cs  Cs5  1  0.90371300  0.65630600  0.25000000  1
  Cs  Cs6  1  0.20556500  0.96512700  0.04206200  1
  Cs  Cs7  1  0.29443500  0.46512700  0.45793800  1
  Cs  Cs8  1  0.20556500  0.96512700  0.45793800  1
  Cs  Cs9  1  0.70556500  0.53487300  0.54206200  1
  Cs  Cs10  1  0.79443500  0.03487300  0.54206200  1
  Cs  Cs11  1  0.79443500  0.03487300  0.95793800  1
  P  P12  1  0.97908600  0.77471400  0.75000000  1
  P  P13  1  0.52091400  0.27471400  0.75000000  1
  P  P14  1  0.02091400  0.22528600  0.25000000  1
  P  P15  1  0.47908600  0.72528600  0.25000000  1
  Se  Se16  1  0.56454800  0.52279400  0.25000000  1
  Se  Se17  1  0.06454800  0.97720600  0.75000000  1
  Se  Se18  1  0.45442900  0.17168900  0.90061200  1
  Se  Se19  1  0.04557100  0.67168900  0.59938800  1
  Se  Se20  1  0.43545200  0.47720600  0.75000000  1
  Se  Se21  1  0.95442900  0.32831100  0.09938800  1
  Se  Se22  1  0.54557100  0.82831100  0.40061200  1
  Se  Se23  1  0.76009900  0.78407900  0.75000000  1
  Se  Se24  1  0.04557100  0.67168900  0.90061200  1
  Se  Se25  1  0.26009900  0.71592100  0.25000000  1
  Se  Se26  1  0.54557100  0.82831100  0.09938800  1
  Se  Se27  1  0.23990100  0.21592100  0.25000000  1
  Se  Se28  1  0.73990100  0.28407900  0.75000000  1
  Se  Se29  1  0.45442900  0.17168900  0.59938800  1
  Se  Se30  1  0.93545200  0.02279400  0.25000000  1
  Se  Se31  1  0.95442900  0.32831100  0.40061200  1
