# generated using pymatgen
data_ZrHg3(SeBr3)2
_symmetry_space_group_name_H-M   'P 1'
_cell_length_a   7.79328300
_cell_length_b   7.18728500
_cell_length_c   13.89566734
_cell_angle_alpha   88.00183514
_cell_angle_beta   90.00000000
_cell_angle_gamma   90.00000000
_symmetry_Int_Tables_number   1
_chemical_formula_structural   ZrHg3(SeBr3)2
_chemical_formula_sum   'Zr2 Hg6 Se4 Br12'
_cell_volume   777.85843713
_cell_formula_units_Z   2
loop_
 _symmetry_equiv_pos_site_id
 _symmetry_equiv_pos_as_xyz
  1  'x, y, z'
loop_
 _atom_site_type_symbol
 _atom_site_label
 _atom_site_symmetry_multiplicity
 _atom_site_fract_x
 _atom_site_fract_y
 _atom_site_fract_z
 _atom_site_occupancy
  Zr  Zr0  1  0.00000000  0.50000000  0.00000000  1
  Zr  Zr1  1  0.50000000  0.50000000  0.50000000  1
  Hg  Hg2  1  0.19985900  0.00711400  0.23860200  1
  Hg  Hg3  1  0.80014100  0.99288600  0.76139800  1
  Hg  Hg4  1  0.30014100  0.00711400  0.73860200  1
  Hg  Hg5  1  0.69985900  0.99288600  0.26139800  1
  Hg  Hg6  1  0.50000000  0.00000000  0.00000000  1
  Hg  Hg7  1  0.00000000  0.00000000  0.50000000  1
  Se  Se8  1  0.54190300  0.16220800  0.83190900  1
  Se  Se9  1  0.95809700  0.16220800  0.33190900  1
  Se  Se10  1  0.45809700  0.83779200  0.16809100  1
  Se  Se11  1  0.04190300  0.83779200  0.66809100  1
  Br  Br12  1  0.20242500  0.36907800  0.56368700  1
  Br  Br13  1  0.05018700  0.35644100  0.82930500  1
  Br  Br14  1  0.44981300  0.35644100  0.32930500  1
  Br  Br15  1  0.70242500  0.63092200  0.93631300  1
  Br  Br16  1  0.29757500  0.36907800  0.06368700  1
  Br  Br17  1  0.14651000  0.81797700  0.93878000  1
  Br  Br18  1  0.55018700  0.64355900  0.67069500  1
  Br  Br19  1  0.85349000  0.18202300  0.06122000  1
  Br  Br20  1  0.79757500  0.63092200  0.43631300  1
  Br  Br21  1  0.64651000  0.18202300  0.56122000  1
  Br  Br22  1  0.94981300  0.64355900  0.17069500  1
  Br  Br23  1  0.35349000  0.81797700  0.43878000  1
