# generated using pymatgen
data_Fe3(P2O7)2
_symmetry_space_group_name_H-M   'P 1'
_cell_length_a   9.08172200
_cell_length_b   10.32635100
_cell_length_c   12.39696300
_cell_angle_alpha   90.00000000
_cell_angle_beta   90.00000000
_cell_angle_gamma   90.00000000
_symmetry_Int_Tables_number   1
_chemical_formula_structural   Fe3(P2O7)2
_chemical_formula_sum   'Fe12 P16 O56'
_cell_volume   1162.60019525
_cell_formula_units_Z   4
loop_
 _symmetry_equiv_pos_site_id
 _symmetry_equiv_pos_as_xyz
  1  'x, y, z'
loop_
 _atom_site_type_symbol
 _atom_site_label
 _atom_site_symmetry_multiplicity
 _atom_site_fract_x
 _atom_site_fract_y
 _atom_site_fract_z
 _atom_site_occupancy
  Fe  Fe0  1  0.74943900  0.37903300  0.51146200  1
  Fe  Fe1  1  0.24675300  0.61868300  0.25000000  1
  Fe  Fe2  1  0.25056100  0.62096700  0.01146200  1
  Fe  Fe3  1  0.74675300  0.88131700  0.25000000  1
  Fe  Fe4  1  0.75056100  0.87903300  0.01146200  1
  Fe  Fe5  1  0.75056100  0.87903300  0.48853800  1
  Fe  Fe6  1  0.75324700  0.38131700  0.75000000  1
  Fe  Fe7  1  0.74943900  0.37903300  0.98853800  1
  Fe  Fe8  1  0.25056100  0.62096700  0.48853800  1
  Fe  Fe9  1  0.25324700  0.11868300  0.75000000  1
  Fe  Fe10  1  0.24943900  0.12096700  0.51146200  1
  Fe  Fe11  1  0.24943900  0.12096700  0.98853800  1
  P  P12  1  0.42736900  0.86508600  0.62706600  1
  P  P13  1  0.08678200  0.88040100  0.13268100  1
  P  P14  1  0.57263100  0.13491400  0.12706600  1
  P  P15  1  0.58678200  0.61959900  0.36731900  1
  P  P16  1  0.92736900  0.63491400  0.62706600  1
  P  P17  1  0.07263100  0.36508600  0.37293400  1
  P  P18  1  0.42736900  0.86508600  0.87293400  1
  P  P19  1  0.41321800  0.38040100  0.86731900  1
  P  P20  1  0.91321800  0.11959900  0.86731900  1
  P  P21  1  0.07263100  0.36508600  0.12706600  1
  P  P22  1  0.58678200  0.61959900  0.13268100  1
  P  P23  1  0.57263100  0.13491400  0.37293400  1
  P  P24  1  0.91321800  0.11959900  0.63268100  1
  P  P25  1  0.08678200  0.88040100  0.36731900  1
  P  P26  1  0.41321800  0.38040100  0.63268100  1
  P  P27  1  0.92736900  0.63491400  0.87293400  1
  O  O28  1  0.34192000  0.24511300  0.62634100  1
  O  O29  1  0.08236800  0.12869200  0.63159800  1
  O  O30  1  0.36961900  0.43712000  0.75000000  1
  O  O31  1  0.92104200  0.39086100  0.07996600  1
  O  O32  1  0.34748700  0.75446600  0.57217000  1
  O  O33  1  0.42104200  0.10913900  0.07996600  1
  O  O34  1  0.42104200  0.10913900  0.42003400  1
  O  O35  1  0.57895800  0.89086100  0.57996600  1
  O  O36  1  0.33492000  0.99038100  0.63154000  1
  O  O37  1  0.84748700  0.74553400  0.57217000  1
  O  O38  1  0.65251300  0.24553400  0.07217000  1
  O  O39  1  0.91763200  0.87130800  0.36840200  1
  O  O40  1  0.64812400  0.52723600  0.05091100  1
  O  O41  1  0.34192000  0.24511300  0.87365900  1
  O  O42  1  0.08236800  0.12869200  0.86840200  1
  O  O43  1  0.35187600  0.47276400  0.94908900  1
  O  O44  1  0.15808000  0.74511300  0.37365900  1
  O  O45  1  0.64812400  0.52723600  0.44908900  1
  O  O46  1  0.04727200  0.31951700  0.25000000  1
  O  O47  1  0.15808000  0.74511300  0.12634100  1
  O  O48  1  0.07895800  0.60913900  0.57996600  1
  O  O49  1  0.54727200  0.18048300  0.25000000  1
  O  O50  1  0.65808000  0.75488700  0.37365900  1
  O  O51  1  0.95272800  0.68048300  0.75000000  1
  O  O52  1  0.84192000  0.25488700  0.87365900  1
  O  O53  1  0.83492000  0.50961900  0.86846000  1
  O  O54  1  0.86961900  0.06288000  0.75000000  1
  O  O55  1  0.16508000  0.49038100  0.13154000  1
  O  O56  1  0.65808000  0.75488700  0.12634100  1
  O  O57  1  0.66508000  0.00961900  0.36846000  1
  O  O58  1  0.14812400  0.97276400  0.44908900  1
  O  O59  1  0.58236800  0.37130800  0.86840200  1
  O  O60  1  0.84748700  0.74553400  0.92783000  1
  O  O61  1  0.15251300  0.25446600  0.42783000  1
  O  O62  1  0.41763200  0.62869200  0.13159800  1
  O  O63  1  0.45272800  0.81951700  0.75000000  1
  O  O64  1  0.63038100  0.56288000  0.25000000  1
  O  O65  1  0.57895800  0.89086100  0.92003400  1
  O  O66  1  0.33492000  0.99038100  0.86846000  1
  O  O67  1  0.66508000  0.00961900  0.13154000  1
  O  O68  1  0.84192000  0.25488700  0.62634100  1
  O  O69  1  0.58236800  0.37130800  0.63159800  1
  O  O70  1  0.91763200  0.87130800  0.13159800  1
  O  O71  1  0.14812400  0.97276400  0.05091100  1
  O  O72  1  0.65251300  0.24553400  0.42783000  1
  O  O73  1  0.15251300  0.25446600  0.07217000  1
  O  O74  1  0.13038100  0.93712000  0.25000000  1
  O  O75  1  0.85187600  0.02723600  0.94908900  1
  O  O76  1  0.85187600  0.02723600  0.55091100  1
  O  O77  1  0.16508000  0.49038100  0.36846000  1
  O  O78  1  0.92104200  0.39086100  0.42003400  1
  O  O79  1  0.34748700  0.75446600  0.92783000  1
  O  O80  1  0.83492000  0.50961900  0.63154000  1
  O  O81  1  0.35187600  0.47276400  0.55091100  1
  O  O82  1  0.41763200  0.62869200  0.36840200  1
  O  O83  1  0.07895800  0.60913900  0.92003400  1
