# generated using pymatgen
data_TlIn5S7
_symmetry_space_group_name_H-M   'P 1'
_cell_length_a   3.94942500
_cell_length_b   9.24582400
_cell_length_c   17.69433417
_cell_angle_alpha   77.75444551
_cell_angle_beta   90.00000000
_cell_angle_gamma   90.00000000
_symmetry_Int_Tables_number   1
_chemical_formula_structural   TlIn5S7
_chemical_formula_sum   'Tl2 In10 S14'
_cell_volume   631.41997320
_cell_formula_units_Z   2
loop_
 _symmetry_equiv_pos_site_id
 _symmetry_equiv_pos_as_xyz
  1  'x, y, z'
loop_
 _atom_site_type_symbol
 _atom_site_label
 _atom_site_symmetry_multiplicity
 _atom_site_fract_x
 _atom_site_fract_y
 _atom_site_fract_z
 _atom_site_occupancy
  Tl  Tl0  1  0.25000000  0.97372800  0.72528500  1
  Tl  Tl1  1  0.75000000  0.02627200  0.27471500  1
  In  In2  1  0.25000000  0.14521700  0.04538200  1
  In  In3  1  0.25000000  0.52282100  0.39810300  1
  In  In4  1  0.75000000  0.85478300  0.95461800  1
  In  In5  1  0.75000000  0.43375000  0.11878700  1
  In  In6  1  0.75000000  0.17195000  0.46772200  1
  In  In7  1  0.25000000  0.31931800  0.81153200  1
  In  In8  1  0.75000000  0.68068200  0.18846800  1
  In  In9  1  0.25000000  0.82805000  0.53227800  1
  In  In10  1  0.75000000  0.47717900  0.60189700  1
  In  In11  1  0.25000000  0.56625000  0.88121300  1
  S  S12  1  0.75000000  0.96401400  0.58796700  1
  S  S13  1  0.25000000  0.33148300  0.53221700  1
  S  S14  1  0.25000000  0.66494500  0.00576500  1
  S  S15  1  0.25000000  0.05719700  0.91075800  1
  S  S16  1  0.75000000  0.66851700  0.46778300  1
  S  S17  1  0.75000000  0.26324000  0.72870100  1
  S  S18  1  0.75000000  0.74305900  0.82941300  1
  S  S19  1  0.25000000  0.73676000  0.27129900  1
  S  S20  1  0.25000000  0.03598600  0.41203300  1
  S  S21  1  0.75000000  0.38553900  0.34913800  1
  S  S22  1  0.25000000  0.61446100  0.65086200  1
  S  S23  1  0.75000000  0.33505500  0.99423500  1
  S  S24  1  0.25000000  0.25694100  0.17058700  1
  S  S25  1  0.75000000  0.94280300  0.08924200  1
