# generated using pymatgen
data_Rb(In3Au2)2
_symmetry_space_group_name_H-M   'P 1'
_cell_length_a   8.31356793
_cell_length_b   8.31356793
_cell_length_c   4.55275400
_cell_angle_alpha   90.00000000
_cell_angle_beta   90.00000000
_cell_angle_gamma   119.99999942
_symmetry_Int_Tables_number   1
_chemical_formula_structural   Rb(In3Au2)2
_chemical_formula_sum   'Rb1 In6 Au4'
_cell_volume   272.50828970
_cell_formula_units_Z   1
loop_
 _symmetry_equiv_pos_site_id
 _symmetry_equiv_pos_as_xyz
  1  'x, y, z'
loop_
 _atom_site_type_symbol
 _atom_site_label
 _atom_site_symmetry_multiplicity
 _atom_site_fract_x
 _atom_site_fract_y
 _atom_site_fract_z
 _atom_site_occupancy
  Rb  Rb0  1  0.00000000  0.00000000  0.00000000  1
  In  In1  1  0.53474900  0.46525100  0.00000000  1
  In  In2  1  0.19798500  0.80201500  0.50000000  1
  In  In3  1  0.53474900  0.06949700  0.00000000  1
  In  In4  1  0.19798500  0.39597000  0.50000000  1
  In  In5  1  0.93050300  0.46525100  0.00000000  1
  In  In6  1  0.60403000  0.80201500  0.50000000  1
  Au  Au7  1  0.79392900  0.20607100  0.50000000  1
  Au  Au8  1  0.33333300  0.66666700  0.00000000  1
  Au  Au9  1  0.79392900  0.58785800  0.50000000  1
  Au  Au10  1  0.41214200  0.20607100  0.50000000  1
