# generated using pymatgen
data_Sc2CrB6
_symmetry_space_group_name_H-M   'P 1'
_cell_length_a   3.37145200
_cell_length_b   8.90138400
_cell_length_c   11.17071500
_cell_angle_alpha   90.00000000
_cell_angle_beta   90.00000000
_cell_angle_gamma   90.00000000
_symmetry_Int_Tables_number   1
_chemical_formula_structural   Sc2CrB6
_chemical_formula_sum   'Sc8 Cr4 B24'
_cell_volume   335.23973547
_cell_formula_units_Z   4
loop_
 _symmetry_equiv_pos_site_id
 _symmetry_equiv_pos_as_xyz
  1  'x, y, z'
loop_
 _atom_site_type_symbol
 _atom_site_label
 _atom_site_symmetry_multiplicity
 _atom_site_fract_x
 _atom_site_fract_y
 _atom_site_fract_z
 _atom_site_occupancy
  Sc  Sc0  1  0.00000000  0.82331100  0.08546200  1
  Sc  Sc1  1  0.00000000  0.17668900  0.91453800  1
  Sc  Sc2  1  0.00000000  0.32331100  0.41453800  1
  Sc  Sc3  1  0.00000000  0.67668900  0.58546200  1
  Sc  Sc4  1  0.00000000  0.44312900  0.13100300  1
  Sc  Sc5  1  0.00000000  0.55687100  0.86899700  1
  Sc  Sc6  1  0.00000000  0.94312900  0.36899700  1
  Sc  Sc7  1  0.00000000  0.05687100  0.63100300  1
  Cr  Cr8  1  0.00000000  0.14140300  0.18071500  1
  Cr  Cr9  1  0.00000000  0.85859700  0.81928500  1
  Cr  Cr10  1  0.00000000  0.64140300  0.31928500  1
  Cr  Cr11  1  0.00000000  0.35859700  0.68071500  1
  B  B12  1  0.50000000  0.05389500  0.06535100  1
  B  B13  1  0.50000000  0.94610500  0.93464900  1
  B  B14  1  0.50000000  0.55389500  0.43464900  1
  B  B15  1  0.50000000  0.44610500  0.56535100  1
  B  B16  1  0.50000000  0.25217000  0.07975200  1
  B  B17  1  0.50000000  0.74783000  0.92024800  1
  B  B18  1  0.50000000  0.75217000  0.42024800  1
  B  B19  1  0.50000000  0.24783000  0.57975200  1
  B  B20  1  0.50000000  0.29529900  0.23716800  1
  B  B21  1  0.50000000  0.70470100  0.76283200  1
  B  B22  1  0.50000000  0.79529900  0.26283200  1
  B  B23  1  0.50000000  0.20470100  0.73716800  1
  B  B24  1  0.50000000  0.13129000  0.31761000  1
  B  B25  1  0.50000000  0.86871000  0.68239000  1
  B  B26  1  0.50000000  0.63129000  0.18239000  1
  B  B27  1  0.50000000  0.36871000  0.81761000  1
  B  B28  1  0.50000000  0.48097100  0.28849200  1
  B  B29  1  0.50000000  0.51902900  0.71150800  1
  B  B30  1  0.50000000  0.98097100  0.21150800  1
  B  B31  1  0.50000000  0.01902900  0.78849200  1
  B  B32  1  0.50000000  0.09834200  0.47316900  1
  B  B33  1  0.50000000  0.90165800  0.52683100  1
  B  B34  1  0.50000000  0.59834200  0.02683100  1
  B  B35  1  0.50000000  0.40165800  0.97316900  1
