# generated using pymatgen
data_KCr2PbF9
_symmetry_space_group_name_H-M   'P 1'
_cell_length_a   5.53211400
_cell_length_b   10.01560800
_cell_length_c   14.23263800
_cell_angle_alpha   90.00000000
_cell_angle_beta   90.00000000
_cell_angle_gamma   90.00000000
_symmetry_Int_Tables_number   1
_chemical_formula_structural   KCr2PbF9
_chemical_formula_sum   'K4 Cr8 Pb4 F36'
_cell_volume   788.59467984
_cell_formula_units_Z   4
loop_
 _symmetry_equiv_pos_site_id
 _symmetry_equiv_pos_as_xyz
  1  'x, y, z'
loop_
 _atom_site_type_symbol
 _atom_site_label
 _atom_site_symmetry_multiplicity
 _atom_site_fract_x
 _atom_site_fract_y
 _atom_site_fract_z
 _atom_site_occupancy
  K  K0  1  0.25000000  0.73009900  0.29950600  1
  K  K1  1  0.25000000  0.23009900  0.20049400  1
  K  K2  1  0.75000000  0.76990100  0.79950600  1
  K  K3  1  0.75000000  0.26990100  0.70049400  1
  Cr  Cr4  1  0.25000000  0.06645100  0.84470400  1
  Cr  Cr5  1  0.25000000  0.56645100  0.65529600  1
  Cr  Cr6  1  0.75000000  0.23118700  0.99232200  1
  Cr  Cr7  1  0.75000000  0.73118700  0.50767800  1
  Cr  Cr8  1  0.25000000  0.76881300  0.00767800  1
  Cr  Cr9  1  0.75000000  0.93354900  0.15529600  1
  Cr  Cr10  1  0.25000000  0.26881300  0.49232200  1
  Cr  Cr11  1  0.75000000  0.43354900  0.34470400  1
  Pb  Pb12  1  0.25000000  0.44769700  0.88868100  1
  Pb  Pb13  1  0.25000000  0.94769700  0.61131900  1
  Pb  Pb14  1  0.75000000  0.55230300  0.11131900  1
  Pb  Pb15  1  0.75000000  0.05230300  0.38868100  1
  F  F16  1  0.00157100  0.61711400  0.56296200  1
  F  F17  1  0.25000000  0.38118800  0.60690500  1
  F  F18  1  0.49842900  0.11711400  0.93703800  1
  F  F19  1  0.48618600  0.51573600  0.74828900  1
  F  F20  1  0.98618600  0.98426400  0.24828900  1
  F  F21  1  0.00901700  0.65405000  0.95059200  1
  F  F22  1  0.00157100  0.11711400  0.93703800  1
  F  F23  1  0.25000000  0.15186900  0.38613000  1
  F  F24  1  0.50157100  0.38288600  0.43703800  1
  F  F25  1  0.75000000  0.25552300  0.29394200  1
  F  F26  1  0.99098300  0.84595000  0.45059200  1
  F  F27  1  0.25000000  0.24447700  0.79394200  1
  F  F28  1  0.75000000  0.75552300  0.20605800  1
  F  F29  1  0.49098300  0.65405000  0.95059200  1
  F  F30  1  0.50901700  0.34595000  0.04940800  1
  F  F31  1  0.99842900  0.88288600  0.06296200  1
  F  F32  1  0.50901700  0.84595000  0.45059200  1
  F  F33  1  0.50157100  0.88288600  0.06296200  1
  F  F34  1  0.51381400  0.48426400  0.25171100  1
  F  F35  1  0.75000000  0.34813100  0.88613000  1
  F  F36  1  0.75000000  0.11881200  0.10690500  1
  F  F37  1  0.51381400  0.98426400  0.24828900  1
  F  F38  1  0.00901700  0.15405000  0.54940800  1
  F  F39  1  0.01381400  0.51573600  0.74828900  1
  F  F40  1  0.25000000  0.88118800  0.89309500  1
  F  F41  1  0.99098300  0.34595000  0.04940800  1
  F  F42  1  0.99842900  0.38288600  0.43703800  1
  F  F43  1  0.49098300  0.15405000  0.54940800  1
  F  F44  1  0.25000000  0.65186900  0.11387000  1
  F  F45  1  0.75000000  0.84813100  0.61387000  1
  F  F46  1  0.25000000  0.74447700  0.70605800  1
  F  F47  1  0.75000000  0.61881200  0.39309500  1
  F  F48  1  0.48618600  0.01573500  0.75171100  1
  F  F49  1  0.49842900  0.61711400  0.56296200  1
  F  F50  1  0.01381400  0.01573500  0.75171100  1
  F  F51  1  0.98618600  0.48426400  0.25171100  1
