# generated using pymatgen
data_RbNb(GeO3)3
_symmetry_space_group_name_H-M   'P 1'
_cell_length_a   7.16918583
_cell_length_b   7.16918583
_cell_length_c   10.32929800
_cell_angle_alpha   90.00000000
_cell_angle_beta   90.00000000
_cell_angle_gamma   119.99999840
_symmetry_Int_Tables_number   1
_chemical_formula_structural   RbNb(GeO3)3
_chemical_formula_sum   'Rb2 Nb2 Ge6 O18'
_cell_volume   459.77051936
_cell_formula_units_Z   2
loop_
 _symmetry_equiv_pos_site_id
 _symmetry_equiv_pos_as_xyz
  1  'x, y, z'
loop_
 _atom_site_type_symbol
 _atom_site_label
 _atom_site_symmetry_multiplicity
 _atom_site_fract_x
 _atom_site_fract_y
 _atom_site_fract_z
 _atom_site_occupancy
  Rb  Rb0  1  0.66666700  0.33333300  0.00000000  1
  Rb  Rb1  1  0.66666700  0.33333300  0.50000000  1
  Nb  Nb2  1  0.33333300  0.66666700  0.00000000  1
  Nb  Nb3  1  0.33333300  0.66666700  0.50000000  1
  Ge  Ge4  1  0.07603800  0.28809500  0.25000000  1
  Ge  Ge5  1  0.21205700  0.92396200  0.25000000  1
  Ge  Ge6  1  0.71190500  0.78794300  0.25000000  1
  Ge  Ge7  1  0.71190500  0.92396200  0.75000000  1
  Ge  Ge8  1  0.21205700  0.28809500  0.75000000  1
  Ge  Ge9  1  0.07603800  0.78794300  0.75000000  1
  O  O10  1  0.26412900  0.19482200  0.25000000  1
  O  O11  1  0.93069300  0.73587100  0.25000000  1
  O  O12  1  0.80517800  0.06930700  0.25000000  1
  O  O13  1  0.80517800  0.73587100  0.75000000  1
  O  O14  1  0.93069300  0.19482200  0.75000000  1
  O  O15  1  0.26412900  0.06930700  0.75000000  1
  O  O16  1  0.10187800  0.43823400  0.11067400  1
  O  O17  1  0.33635500  0.89812200  0.38932600  1
  O  O18  1  0.56176600  0.66364500  0.38932600  1
  O  O19  1  0.56176600  0.66364500  0.11067400  1
  O  O20  1  0.33635500  0.89812200  0.11067400  1
  O  O21  1  0.56176600  0.89812200  0.88932600  1
  O  O22  1  0.33635500  0.43823400  0.88932600  1
  O  O23  1  0.10187800  0.66364500  0.88932600  1
  O  O24  1  0.33635500  0.43823400  0.61067400  1
  O  O25  1  0.10187800  0.66364500  0.61067400  1
  O  O26  1  0.10187800  0.43823400  0.38932600  1
  O  O27  1  0.56176600  0.89812200  0.61067400  1
