# generated using pymatgen
data_KNaZnO2
_symmetry_space_group_name_H-M   'P 1'
_cell_length_a   6.05322487
_cell_length_b   6.05322487
_cell_length_c   5.61989585
_cell_angle_alpha   69.54644476
_cell_angle_beta   69.54644476
_cell_angle_gamma   108.04555960
_symmetry_Int_Tables_number   1
_chemical_formula_structural   KNaZnO2
_chemical_formula_sum   'K2 Na2 Zn2 O4'
_cell_volume   157.38628982
_cell_formula_units_Z   2
loop_
 _symmetry_equiv_pos_site_id
 _symmetry_equiv_pos_as_xyz
  1  'x, y, z'
loop_
 _atom_site_type_symbol
 _atom_site_label
 _atom_site_symmetry_multiplicity
 _atom_site_fract_x
 _atom_site_fract_y
 _atom_site_fract_z
 _atom_site_occupancy
  K  K0  1  0.12380800  0.87619200  0.75000000  1
  K  K1  1  0.87619200  0.12380800  0.25000000  1
  Na  Na2  1  0.22943900  0.77056100  0.25000000  1
  Na  Na3  1  0.77056100  0.22943900  0.75000000  1
  Zn  Zn4  1  0.48968400  0.51031600  0.75000000  1
  Zn  Zn5  1  0.51031600  0.48968400  0.25000000  1
  O  O6  1  0.57356300  0.78795500  0.86724000  1
  O  O7  1  0.21204500  0.42643700  0.63276000  1
  O  O8  1  0.78795500  0.57356300  0.36724000  1
  O  O9  1  0.42643700  0.21204500  0.13276000  1
