# generated using pymatgen
data_Cs2Se5
_symmetry_space_group_name_H-M   'P 1'
_cell_length_a   7.32419800
_cell_length_b   7.67350700
_cell_length_c   19.49180100
_cell_angle_alpha   90.00000000
_cell_angle_beta   90.00000000
_cell_angle_gamma   90.00000000
_symmetry_Int_Tables_number   1
_chemical_formula_structural   Cs2Se5
_chemical_formula_sum   'Cs8 Se20'
_cell_volume   1095.48374760
_cell_formula_units_Z   4
loop_
 _symmetry_equiv_pos_site_id
 _symmetry_equiv_pos_as_xyz
  1  'x, y, z'
loop_
 _atom_site_type_symbol
 _atom_site_label
 _atom_site_symmetry_multiplicity
 _atom_site_fract_x
 _atom_site_fract_y
 _atom_site_fract_z
 _atom_site_occupancy
  Cs  Cs0  1  0.62206200  0.41722000  0.51253600  1
  Cs  Cs1  1  0.12206200  0.08278000  0.48746400  1
  Cs  Cs2  1  0.37793800  0.91722000  0.98746400  1
  Cs  Cs3  1  0.87793800  0.58278000  0.01253600  1
  Cs  Cs4  1  0.08017300  0.25043200  0.83759900  1
  Cs  Cs5  1  0.58017300  0.24956800  0.16240100  1
  Cs  Cs6  1  0.91982700  0.75043200  0.66240100  1
  Cs  Cs7  1  0.41982700  0.74956800  0.33759900  1
  Se  Se8  1  0.59818800  0.91916500  0.52193400  1
  Se  Se9  1  0.09818800  0.58083500  0.47806600  1
  Se  Se10  1  0.40181200  0.41916500  0.97806600  1
  Se  Se11  1  0.90181200  0.08083500  0.02193400  1
  Se  Se12  1  0.43421400  0.87121900  0.62409000  1
  Se  Se13  1  0.93421400  0.62878100  0.37591000  1
  Se  Se14  1  0.56578600  0.37121900  0.87591000  1
  Se  Se15  1  0.06578600  0.12878100  0.12409000  1
  Se  Se16  1  0.45538100  0.12103800  0.69759000  1
  Se  Se17  1  0.95538000  0.37896200  0.30241000  1
  Se  Se18  1  0.54462000  0.62103800  0.80241000  1
  Se  Se19  1  0.04461900  0.87896200  0.19759000  1
  Se  Se20  1  0.25447800  0.33925100  0.65073300  1
  Se  Se21  1  0.75447800  0.16074900  0.34926700  1
  Se  Se22  1  0.74552200  0.83925100  0.84926700  1
  Se  Se23  1  0.24552200  0.66074900  0.15073300  1
  Se  Se24  1  0.94819100  0.24595600  0.65743100  1
  Se  Se25  1  0.44819100  0.25404400  0.34256900  1
  Se  Se26  1  0.05180900  0.74595600  0.84256900  1
  Se  Se27  1  0.55180900  0.75404400  0.15743100  1
