# generated using pymatgen
data_LiBeH3
_symmetry_space_group_name_H-M   'P 1'
_cell_length_a   6.16580100
_cell_length_b   6.05422500
_cell_length_c   13.21218816
_cell_angle_alpha   82.33495305
_cell_angle_beta   90.00000000
_cell_angle_gamma   90.00000000
_symmetry_Int_Tables_number   1
_chemical_formula_structural   LiBeH3
_chemical_formula_sum   'Li12 Be12 H36'
_cell_volume   488.79284715
_cell_formula_units_Z   12
loop_
 _symmetry_equiv_pos_site_id
 _symmetry_equiv_pos_as_xyz
  1  'x, y, z'
loop_
 _atom_site_type_symbol
 _atom_site_label
 _atom_site_symmetry_multiplicity
 _atom_site_fract_x
 _atom_site_fract_y
 _atom_site_fract_z
 _atom_site_occupancy
  Li  Li0  1  0.11777900  0.23926400  0.40684400  1
  Li  Li1  1  0.61901000  0.01048800  0.74772600  1
  Li  Li2  1  0.88099000  0.01048800  0.24772600  1
  Li  Li3  1  0.12759700  0.74722200  0.10097000  1
  Li  Li4  1  0.87240300  0.25277800  0.89903000  1
  Li  Li5  1  0.11901000  0.98951200  0.75227400  1
  Li  Li6  1  0.38099000  0.98951200  0.25227400  1
  Li  Li7  1  0.37240300  0.74722200  0.60097000  1
  Li  Li8  1  0.88222100  0.76073600  0.59315600  1
  Li  Li9  1  0.62759700  0.25277800  0.39903000  1
  Li  Li10  1  0.38222100  0.23926400  0.90684400  1
  Li  Li11  1  0.61777900  0.76073600  0.09315600  1
  Be  Be12  1  0.40673200  0.22848300  0.58773900  1
  Be  Be13  1  0.16569700  0.77582700  0.40824400  1
  Be  Be14  1  0.83430300  0.22417300  0.59175600  1
  Be  Be15  1  0.90673200  0.77151700  0.91226100  1
  Be  Be16  1  0.33430300  0.77582700  0.90824400  1
  Be  Be17  1  0.59326800  0.77151700  0.41226100  1
  Be  Be18  1  0.66569700  0.22417300  0.09175600  1
  Be  Be19  1  0.61764800  0.56568000  0.81378000  1
  Be  Be20  1  0.88235200  0.56568000  0.31378000  1
  Be  Be21  1  0.09326800  0.22848300  0.08773900  1
  Be  Be22  1  0.38235200  0.43432000  0.18622000  1
  Be  Be23  1  0.11764800  0.43432000  0.68622000  1
  H  H24  1  0.11699800  0.29250100  0.78119800  1
  H  H25  1  0.88008200  0.29237100  0.11594100  1
  H  H26  1  0.30443400  0.42249800  0.61986600  1
  H  H27  1  0.35579200  0.02720400  0.65154600  1
  H  H28  1  0.38130900  0.66840900  0.19402300  1
  H  H29  1  0.62031300  0.02603300  0.15872100  1
  H  H30  1  0.64420800  0.97279600  0.34845400  1
  H  H31  1  0.36885300  0.80269800  0.01015700  1
  H  H32  1  0.61869100  0.33159100  0.80597700  1
  H  H33  1  0.37968700  0.97396700  0.84127900  1
  H  H34  1  0.37655800  0.22525300  0.48211000  1
  H  H35  1  0.69556600  0.57750200  0.38013400  1
  H  H36  1  0.87655800  0.77474700  0.01789000  1
  H  H37  1  0.80443400  0.57750200  0.88013400  1
  H  H38  1  0.61991800  0.29237100  0.61594100  1
  H  H39  1  0.56436800  0.42433300  0.11751700  1
  H  H40  1  0.61699800  0.70749900  0.71880200  1
  H  H41  1  0.43563200  0.57566700  0.88248300  1
  H  H42  1  0.14420800  0.02720400  0.15154600  1
  H  H43  1  0.86885300  0.19730200  0.48984300  1
  H  H44  1  0.38008200  0.70762900  0.38405900  1
  H  H45  1  0.12344200  0.22525300  0.98211000  1
  H  H46  1  0.11869100  0.66840900  0.69402300  1
  H  H47  1  0.88300200  0.70749900  0.21880200  1
  H  H48  1  0.93563200  0.42433300  0.61751700  1
  H  H49  1  0.12031300  0.97396700  0.34127900  1
  H  H50  1  0.88130900  0.33159100  0.30597700  1
  H  H51  1  0.13114700  0.80269800  0.51015700  1
  H  H52  1  0.85579200  0.97279600  0.84845400  1
  H  H53  1  0.38300200  0.29250100  0.28119800  1
  H  H54  1  0.19556600  0.42249800  0.11986600  1
  H  H55  1  0.11991800  0.70762900  0.88405900  1
  H  H56  1  0.63114700  0.19730200  0.98984300  1
  H  H57  1  0.06436800  0.57566700  0.38248300  1
  H  H58  1  0.62344200  0.77474700  0.51789000  1
  H  H59  1  0.87968700  0.02603300  0.65872100  1
