# generated using pymatgen
data_NaNd(Si3O7)2
_symmetry_space_group_name_H-M   'P 1'
_cell_length_a   13.22856455
_cell_length_b   13.22856455
_cell_length_c   13.22856455
_cell_angle_alpha   145.94293755
_cell_angle_beta   107.77440747
_cell_angle_gamma   82.31364210
_symmetry_Int_Tables_number   1
_chemical_formula_structural   NaNd(Si3O7)2
_chemical_formula_sum   'Na4 Nd4 Si24 O56'
_cell_volume   1203.30842939
_cell_formula_units_Z   4
loop_
 _symmetry_equiv_pos_site_id
 _symmetry_equiv_pos_as_xyz
  1  'x, y, z'
loop_
 _atom_site_type_symbol
 _atom_site_label
 _atom_site_symmetry_multiplicity
 _atom_site_fract_x
 _atom_site_fract_y
 _atom_site_fract_z
 _atom_site_occupancy
  Na  Na0  1  0.75000000  0.75000000  0.00000000  1
  Na  Na1  1  0.50000000  0.00000000  0.50000000  1
  Na  Na2  1  0.25000000  0.25000000  0.00000000  1
  Na  Na3  1  0.00000000  0.50000000  0.50000000  1
  Nd  Nd4  1  0.97854900  0.75000000  0.22854900  1
  Nd  Nd5  1  0.02145100  0.25000000  0.77145100  1
  Nd  Nd6  1  0.47854900  0.25000000  0.22854900  1
  Nd  Nd7  1  0.52145100  0.75000000  0.77145100  1
  Si  Si8  1  0.47207000  0.00391900  0.77103600  1
  Si  Si9  1  0.93163600  0.59218000  0.81711800  1
  Si  Si10  1  0.52793000  0.99608100  0.22896400  1
  Si  Si11  1  0.72493800  0.90782000  0.33945600  1
  Si  Si12  1  0.33390600  0.73198900  0.06589500  1
  Si  Si13  1  0.02793000  0.79896600  0.53184900  1
  Si  Si14  1  0.43163600  0.61451800  0.33945600  1
  Si  Si15  1  0.56836400  0.38548200  0.66054400  1
  Si  Si16  1  0.26711700  0.49608100  0.46815100  1
  Si  Si17  1  0.77506200  0.11451800  0.18288200  1
  Si  Si18  1  0.83390600  0.76801100  0.60191700  1
  Si  Si19  1  0.06836400  0.40782000  0.18288200  1
  Si  Si20  1  0.63357700  0.67818800  0.31176500  1
  Si  Si21  1  0.22493800  0.88548200  0.81711800  1
  Si  Si22  1  0.66609400  0.26801100  0.93410500  1
  Si  Si23  1  0.97207000  0.20103400  0.46815100  1
  Si  Si24  1  0.13357700  0.82181200  0.95538900  1
  Si  Si25  1  0.36642300  0.32181200  0.68823500  1
  Si  Si26  1  0.76711700  0.29896600  0.77103600  1
  Si  Si27  1  0.16609400  0.23198900  0.39808300  1
  Si  Si28  1  0.27506200  0.09218000  0.66054400  1
  Si  Si29  1  0.73288300  0.50391900  0.53184900  1
  Si  Si30  1  0.86642300  0.17818800  0.04461100  1
  Si  Si31  1  0.23288300  0.70103400  0.22896400  1
  O  O32  1  0.81023300  0.60284100  0.54207500  1
  O  O33  1  0.79875100  0.77755500  0.21258900  1
  O  O34  1  0.64252700  0.81776800  0.33371700  1
  O  O35  1  0.50759400  0.05012400  0.93494700  1
  O  O36  1  0.30910300  0.61796100  0.26264200  1
  O  O37  1  0.48405100  0.30881000  0.66628300  1
  O  O38  1  0.11517700  0.57264700  0.06505300  1
  O  O39  1  0.46310300  0.77647800  0.57217500  1
  O  O40  1  0.19089700  0.45353900  0.30885800  1
  O  O41  1  0.36323500  0.53091100  0.89414600  1
  O  O42  1  0.43923400  0.89715900  0.20739200  1
  O  O43  1  0.38482300  0.44987600  0.45747000  1
  O  O44  1  0.00759400  0.07264700  0.45747000  1
  O  O45  1  0.13676500  0.03091100  0.16767600  1
  O  O46  1  0.63676500  0.46908900  0.10585400  1
  O  O47  1  0.18976700  0.39715900  0.45792500  1
  O  O48  1  0.20124900  0.22244500  0.78741100  1
  O  O49  1  0.93923400  0.73184200  0.54207500  1
  O  O50  1  0.86323500  0.96908900  0.83232400  1
  O  O51  1  0.93503400  0.72244500  0.02119600  1
  O  O52  1  0.73009000  0.75799200  0.48808200  1
  O  O53  1  0.64468100  0.95353900  0.26264200  1
  O  O54  1  0.80910300  0.54646100  0.69114200  1
  O  O55  1  0.35747300  0.18223200  0.66628300  1
  O  O56  1  0.14252700  0.80881000  0.82475900  1
  O  O57  1  0.56496600  0.58616200  0.78741100  1
  O  O58  1  0.79569700  0.10907200  0.57217500  1
  O  O59  1  0.49240600  0.94987600  0.06505300  1
  O  O60  1  0.76991000  0.25799200  0.02790200  1
  O  O61  1  0.51594900  0.69119000  0.33371700  1
  O  O62  1  0.14468100  0.88203900  0.69114200  1
  O  O63  1  0.01594900  0.68223200  0.82475900  1
  O  O64  1  0.26991000  0.24200800  0.51191800  1
  O  O65  1  0.96310300  0.39092800  0.68662500  1
  O  O66  1  0.98405100  0.31776800  0.17524100  1
  O  O67  1  0.99240600  0.92735300  0.54253000  1
  O  O68  1  0.70124900  0.91383800  0.97880400  1
  O  O69  1  0.70430300  0.27647800  0.31337500  1
  O  O70  1  0.61517700  0.55012400  0.54253000  1
  O  O71  1  0.29875100  0.08616200  0.02119600  1
  O  O72  1  0.31023300  0.76815800  0.20739200  1
  O  O73  1  0.68976700  0.23184200  0.79260800  1
  O  O74  1  0.53689700  0.22352200  0.42782500  1
  O  O75  1  0.88482300  0.42735300  0.93494700  1
  O  O76  1  0.20430300  0.89092800  0.42782500  1
  O  O77  1  0.56076600  0.10284100  0.79260800  1
  O  O78  1  0.06076600  0.26815800  0.45792500  1
  O  O79  1  0.43503400  0.41383800  0.21258900  1
  O  O80  1  0.06496600  0.27755500  0.97880400  1
  O  O81  1  0.85747300  0.19119000  0.17524100  1
  O  O82  1  0.23009000  0.74200800  0.97209800  1
  O  O83  1  0.35531900  0.04646100  0.73735800  1
  O  O84  1  0.29569700  0.72352200  0.68662500  1
  O  O85  1  0.03689700  0.60907200  0.31337500  1
  O  O86  1  0.69089700  0.38203900  0.73735800  1
  O  O87  1  0.85531900  0.11796100  0.30885800  1
