# generated using pymatgen
data_Li3Gd(BO3)2
_symmetry_space_group_name_H-M   'P 1'
_cell_length_a   6.50026200
_cell_length_b   8.80703100
_cell_length_c   10.17817430
_cell_angle_alpha   63.09797581
_cell_angle_beta   90.00000000
_cell_angle_gamma   90.00000000
_symmetry_Int_Tables_number   1
_chemical_formula_structural   Li3Gd(BO3)2
_chemical_formula_sum   'Li12 Gd4 B8 O24'
_cell_volume   519.62346075
_cell_formula_units_Z   4
loop_
 _symmetry_equiv_pos_site_id
 _symmetry_equiv_pos_as_xyz
  1  'x, y, z'
loop_
 _atom_site_type_symbol
 _atom_site_label
 _atom_site_symmetry_multiplicity
 _atom_site_fract_x
 _atom_site_fract_y
 _atom_site_fract_z
 _atom_site_occupancy
  Li  Li0  1  0.56176900  0.29552300  0.66619800  1
  Li  Li1  1  0.25617400  0.39530100  0.47826000  1
  Li  Li2  1  0.24382600  0.39530100  0.97826000  1
  Li  Li3  1  0.75617400  0.60469900  0.02174000  1
  Li  Li4  1  0.78080400  0.16393600  0.54068300  1
  Li  Li5  1  0.06176900  0.70447700  0.83380200  1
  Li  Li6  1  0.43823100  0.70447700  0.33380200  1
  Li  Li7  1  0.21919600  0.83606400  0.45931700  1
  Li  Li8  1  0.74382600  0.60469900  0.52174000  1
  Li  Li9  1  0.28080400  0.83606400  0.95931700  1
  Li  Li10  1  0.71919600  0.16393600  0.04068300  1
  Li  Li11  1  0.93823100  0.29552300  0.16619800  1
  Gd  Gd12  1  0.97233800  0.81739600  0.19992000  1
  Gd  Gd13  1  0.47233800  0.18260400  0.30008000  1
  Gd  Gd14  1  0.02766200  0.18260400  0.80008000  1
  Gd  Gd15  1  0.52766200  0.81739600  0.69992000  1
  B  B16  1  0.66285700  0.45950400  0.32266000  1
  B  B17  1  0.67224500  0.94775100  0.89242200  1
  B  B18  1  0.33714300  0.54049600  0.67734000  1
  B  B19  1  0.83714300  0.45950400  0.82266000  1
  B  B20  1  0.17224500  0.05224900  0.60757800  1
  B  B21  1  0.32775500  0.05224900  0.10757800  1
  B  B22  1  0.16285700  0.54049600  0.17734000  1
  B  B23  1  0.82775500  0.94775100  0.39242200  1
  O  O24  1  0.71000800  0.61801300  0.31126900  1
  O  O25  1  0.43957300  0.66298700  0.55257300  1
  O  O26  1  0.78587400  0.98930000  0.98637500  1
  O  O27  1  0.28999200  0.38198700  0.68873100  1
  O  O28  1  0.81966600  0.05908000  0.24225200  1
  O  O29  1  0.21000800  0.38198700  0.18873100  1
  O  O30  1  0.56042700  0.33701300  0.44742700  1
  O  O31  1  0.70845200  0.41007700  0.21346000  1
  O  O32  1  0.93957300  0.33701300  0.94742700  1
  O  O33  1  0.06042700  0.66298700  0.05257300  1
  O  O34  1  0.28587400  0.01070000  0.51362500  1
  O  O35  1  0.21412600  0.01070000  0.01362500  1
  O  O36  1  0.43519900  0.20258900  0.06111800  1
  O  O37  1  0.78999200  0.61801300  0.81126900  1
  O  O38  1  0.79154800  0.41007700  0.71346000  1
  O  O39  1  0.93519900  0.79741100  0.43888200  1
  O  O40  1  0.31966600  0.94092000  0.25774800  1
  O  O41  1  0.56480100  0.79741100  0.93888200  1
  O  O42  1  0.18033400  0.94092000  0.75774800  1
  O  O43  1  0.29154800  0.58992300  0.78654000  1
  O  O44  1  0.20845200  0.58992300  0.28654000  1
  O  O45  1  0.71412600  0.98930000  0.48637500  1
  O  O46  1  0.06480100  0.20258900  0.56111800  1
  O  O47  1  0.68033400  0.05908000  0.74225200  1
