# generated using pymatgen
data_Sm3RuO7
_symmetry_space_group_name_H-M   'P 1'
_cell_length_a   7.49696600
_cell_length_b   10.80074600
_cell_length_c   14.92838300
_cell_angle_alpha   90.00000000
_cell_angle_beta   90.00000000
_cell_angle_gamma   90.00000000
_symmetry_Int_Tables_number   1
_chemical_formula_structural   Sm3RuO7
_chemical_formula_sum   'Sm24 Ru8 O56'
_cell_volume   1208.79335220
_cell_formula_units_Z   8
loop_
 _symmetry_equiv_pos_site_id
 _symmetry_equiv_pos_as_xyz
  1  'x, y, z'
loop_
 _atom_site_type_symbol
 _atom_site_label
 _atom_site_symmetry_multiplicity
 _atom_site_fract_x
 _atom_site_fract_y
 _atom_site_fract_z
 _atom_site_occupancy
  Sm  Sm0  1  0.74918300  0.95215500  0.47080400  1
  Sm  Sm1  1  0.75507500  0.90870100  0.72117800  1
  Sm  Sm2  1  0.50421100  0.67245300  0.38956000  1
  Sm  Sm3  1  0.25081700  0.45215500  0.52919600  1
  Sm  Sm4  1  0.73428800  0.39731200  0.97588400  1
  Sm  Sm5  1  0.49596900  0.68855900  0.86042900  1
  Sm  Sm6  1  0.74277300  0.46335100  0.22550600  1
  Sm  Sm7  1  0.24492500  0.40870100  0.27882200  1
  Sm  Sm8  1  0.49578900  0.17245300  0.61044000  1
  Sm  Sm9  1  0.26571200  0.89731200  0.02411600  1
  Sm  Sm10  1  0.24277300  0.96335100  0.27449400  1
  Sm  Sm11  1  0.25722700  0.96335100  0.77449400  1
  Sm  Sm12  1  0.75722700  0.46335100  0.72550600  1
  Sm  Sm13  1  0.23428800  0.89731200  0.52411600  1
  Sm  Sm14  1  0.99578900  0.67245300  0.88956000  1
  Sm  Sm15  1  0.00421100  0.17245300  0.11044000  1
  Sm  Sm16  1  0.74492500  0.90870100  0.22117800  1
  Sm  Sm17  1  0.75081700  0.95215500  0.97080400  1
  Sm  Sm18  1  0.50403100  0.18855900  0.13957100  1
  Sm  Sm19  1  0.25507500  0.40870100  0.77882200  1
  Sm  Sm20  1  0.00403100  0.68855900  0.36042900  1
  Sm  Sm21  1  0.99596900  0.18855900  0.63957100  1
  Sm  Sm22  1  0.24918300  0.45215500  0.02919600  1
  Sm  Sm23  1  0.76571200  0.39731200  0.47588400  1
  Ru  Ru24  1  0.49834400  0.67935800  0.12638900  1
  Ru  Ru25  1  0.00165600  0.67935800  0.62638900  1
  Ru  Ru26  1  0.99869800  0.68142500  0.12478100  1
  Ru  Ru27  1  0.50130200  0.68142500  0.62478100  1
  Ru  Ru28  1  0.49869800  0.18142500  0.37521900  1
  Ru  Ru29  1  0.99834400  0.17935800  0.37361100  1
  Ru  Ru30  1  0.00130200  0.18142500  0.87521900  1
  Ru  Ru31  1  0.50165600  0.17935800  0.87361100  1
  O  O32  1  0.53379400  0.80894700  0.53197200  1
  O  O33  1  0.53569000  0.05633500  0.28055900  1
  O  O34  1  0.74932900  0.68797600  0.16825600  1
  O  O35  1  0.45076800  0.83034000  0.19141500  1
  O  O36  1  0.73511200  0.31145100  0.61836800  1
  O  O37  1  0.04347600  0.02408100  0.43832100  1
  O  O38  1  0.54161700  0.55450800  0.53178700  1
  O  O39  1  0.54347600  0.52408100  0.06167900  1
  O  O40  1  0.76488800  0.31145100  0.11836800  1
  O  O41  1  0.54923200  0.33034000  0.80858500  1
  O  O42  1  0.95076800  0.33034000  0.30858500  1
  O  O43  1  0.96345000  0.31049700  0.78017700  1
  O  O44  1  0.74900600  0.17243600  0.41756700  1
  O  O45  1  0.26365700  0.31335400  0.64357500  1
  O  O46  1  0.24073000  0.04923800  0.63152800  1
  O  O47  1  0.96431000  0.05633500  0.78055900  1
  O  O48  1  0.45838300  0.05450800  0.46821300  1
  O  O49  1  0.03655000  0.81049700  0.21982300  1
  O  O50  1  0.95652400  0.52408100  0.56167900  1
  O  O51  1  0.04092600  0.28228800  0.48402400  1
  O  O52  1  0.25927000  0.04923800  0.13152800  1
  O  O53  1  0.23407700  0.54663400  0.39427400  1
  O  O54  1  0.54092600  0.78228800  0.01597600  1
  O  O55  1  0.74073000  0.54923800  0.86847200  1
  O  O56  1  0.75927000  0.54923800  0.36847200  1
  O  O57  1  0.24900600  0.67243600  0.08243300  1
  O  O58  1  0.53995400  0.07478400  0.76398700  1
  O  O59  1  0.25067100  0.18797600  0.83174400  1
  O  O60  1  0.76592300  0.04663400  0.60572600  1
  O  O61  1  0.24932900  0.18797600  0.33174400  1
  O  O62  1  0.03995400  0.57478400  0.73601300  1
  O  O63  1  0.26488800  0.81145100  0.38163200  1
  O  O64  1  0.53655000  0.31049700  0.28017700  1
  O  O65  1  0.25099400  0.67243600  0.58243300  1
  O  O66  1  0.76365700  0.81335400  0.85642500  1
  O  O67  1  0.04161700  0.05450800  0.96821300  1
  O  O68  1  0.46620600  0.30894700  0.46802800  1
  O  O69  1  0.96620600  0.80894700  0.03197200  1
  O  O70  1  0.75067100  0.68797600  0.66825600  1
  O  O71  1  0.46345000  0.81049700  0.71982300  1
  O  O72  1  0.03569000  0.55633500  0.21944100  1
  O  O73  1  0.45907400  0.28228800  0.98402400  1
  O  O74  1  0.45652400  0.02408100  0.93832100  1
  O  O75  1  0.75099400  0.17243600  0.91756700  1
  O  O76  1  0.73407700  0.04663400  0.10572600  1
  O  O77  1  0.23634300  0.31335400  0.14357500  1
  O  O78  1  0.46004600  0.57478400  0.23601300  1
  O  O79  1  0.95907400  0.78228800  0.51597600  1
  O  O80  1  0.26592300  0.54663400  0.89427400  1
  O  O81  1  0.46431000  0.55633500  0.71944100  1
  O  O82  1  0.03379400  0.30894700  0.96802800  1
  O  O83  1  0.95838300  0.55450800  0.03178700  1
  O  O84  1  0.96004600  0.07478400  0.26398700  1
  O  O85  1  0.23511200  0.81145100  0.88163200  1
  O  O86  1  0.04923200  0.83034000  0.69141500  1
  O  O87  1  0.73634300  0.81335400  0.35642500  1
