# generated using pymatgen
data_Nb2Se9
_symmetry_space_group_name_H-M   'P 1'
_cell_length_a   8.52516200
_cell_length_b   8.77065637
_cell_length_c   8.84056047
_cell_angle_alpha   100.06237596
_cell_angle_beta   96.01152688
_cell_angle_gamma   94.29068013
_symmetry_Int_Tables_number   1
_chemical_formula_structural   Nb2Se9
_chemical_formula_sum   'Nb4 Se18'
_cell_volume   644.33989681
_cell_formula_units_Z   2
loop_
 _symmetry_equiv_pos_site_id
 _symmetry_equiv_pos_as_xyz
  1  'x, y, z'
loop_
 _atom_site_type_symbol
 _atom_site_label
 _atom_site_symmetry_multiplicity
 _atom_site_fract_x
 _atom_site_fract_y
 _atom_site_fract_z
 _atom_site_occupancy
  Nb  Nb0  1  0.08964600  0.09794700  0.13810000  1
  Nb  Nb1  1  0.91035400  0.90205300  0.86190000  1
  Nb  Nb2  1  0.41447800  0.36194400  0.39839700  1
  Nb  Nb3  1  0.58552200  0.63805600  0.60160300  1
  Se  Se4  1  0.97887400  0.18443600  0.40637300  1
  Se  Se5  1  0.02112600  0.81556400  0.59362700  1
  Se  Se6  1  0.33882800  0.47740500  0.67931300  1
  Se  Se7  1  0.66117200  0.52259500  0.32068700  1
  Se  Se8  1  0.61282000  0.79072500  0.90464400  1
  Se  Se9  1  0.38718000  0.20927500  0.09535600  1
  Se  Se10  1  0.96043500  0.81316400  0.13662800  1
  Se  Se11  1  0.03956500  0.18683600  0.86337200  1
  Se  Se12  1  0.26544000  0.08068300  0.40674000  1
  Se  Se13  1  0.73456000  0.91931700  0.59326000  1
  Se  Se14  1  0.57111900  0.35204100  0.67073900  1
  Se  Se15  1  0.42888100  0.64795900  0.32926100  1
  Se  Se16  1  0.17923900  0.82781000  0.99855200  1
  Se  Se17  1  0.82076100  0.17219000  0.00144800  1
  Se  Se18  1  0.89654500  0.60498800  0.69183000  1
  Se  Se19  1  0.10345500  0.39501200  0.30817000  1
  Se  Se20  1  0.54096100  0.10390100  0.28867600  1
  Se  Se21  1  0.45903900  0.89609900  0.71132400  1
