# generated using pymatgen
data_Pb3(BrO)2
_symmetry_space_group_name_H-M   'P 1'
_cell_length_a   6.00099300
_cell_length_b   10.16118600
_cell_length_c   12.52233900
_cell_angle_alpha   90.00000000
_cell_angle_beta   90.00000000
_cell_angle_gamma   90.00000000
_symmetry_Int_Tables_number   1
_chemical_formula_structural   Pb3(BrO)2
_chemical_formula_sum   'Pb12 Br8 O8'
_cell_volume   763.57724553
_cell_formula_units_Z   4
loop_
 _symmetry_equiv_pos_site_id
 _symmetry_equiv_pos_as_xyz
  1  'x, y, z'
loop_
 _atom_site_type_symbol
 _atom_site_label
 _atom_site_symmetry_multiplicity
 _atom_site_fract_x
 _atom_site_fract_y
 _atom_site_fract_z
 _atom_site_occupancy
  Pb  Pb0  1  0.25000000  0.07455700  0.07839700  1
  Pb  Pb1  1  0.75000000  0.92544300  0.92160300  1
  Pb  Pb2  1  0.75000000  0.57455700  0.42160300  1
  Pb  Pb3  1  0.25000000  0.42544300  0.57839700  1
  Pb  Pb4  1  0.25000000  0.36317200  0.29161100  1
  Pb  Pb5  1  0.75000000  0.63682800  0.70838900  1
  Pb  Pb6  1  0.75000000  0.86317200  0.20838900  1
  Pb  Pb7  1  0.25000000  0.13682800  0.79161100  1
  Pb  Pb8  1  0.25000000  0.78426900  0.55837800  1
  Pb  Pb9  1  0.75000000  0.21573100  0.44162200  1
  Pb  Pb10  1  0.75000000  0.28426900  0.94162200  1
  Pb  Pb11  1  0.25000000  0.71573100  0.05837800  1
  Br  Br12  1  0.25000000  0.08093900  0.37178300  1
  Br  Br13  1  0.75000000  0.91906100  0.62821700  1
  Br  Br14  1  0.75000000  0.58093900  0.12821700  1
  Br  Br15  1  0.25000000  0.41906100  0.87178300  1
  Br  Br16  1  0.25000000  0.80435200  0.81020900  1
  Br  Br17  1  0.75000000  0.19564800  0.18979100  1
  Br  Br18  1  0.75000000  0.30435200  0.68979100  1
  Br  Br19  1  0.25000000  0.69564800  0.31020900  1
  O  O20  1  0.99589700  0.38935800  0.42344400  1
  O  O21  1  0.49589700  0.61064200  0.57655600  1
  O  O22  1  0.00410300  0.88935800  0.07655600  1
  O  O23  1  0.50410300  0.11064200  0.92344400  1
  O  O24  1  0.00410300  0.61064200  0.57655600  1
  O  O25  1  0.50410300  0.38935800  0.42344400  1
  O  O26  1  0.99589700  0.11064200  0.92344400  1
  O  O27  1  0.49589700  0.88935800  0.07655600  1
