# generated using pymatgen
data_Cs2U(SiO4)2
_symmetry_space_group_name_H-M   'P 1'
_cell_length_a   13.71619737
_cell_length_b   13.71619737
_cell_length_c   13.71619737
_cell_angle_alpha   111.98934019
_cell_angle_beta   110.97838305
_cell_angle_gamma   105.51854243
_symmetry_Int_Tables_number   1
_chemical_formula_structural   Cs2U(SiO4)2
_chemical_formula_sum   'Cs16 U8 Si16 O64'
_cell_volume   1979.26454583
_cell_formula_units_Z   8
loop_
 _symmetry_equiv_pos_site_id
 _symmetry_equiv_pos_as_xyz
  1  'x, y, z'
loop_
 _atom_site_type_symbol
 _atom_site_label
 _atom_site_symmetry_multiplicity
 _atom_site_fract_x
 _atom_site_fract_y
 _atom_site_fract_z
 _atom_site_occupancy
  Cs  Cs0  1  0.84937200  0.09937200  0.75000000  1
  Cs  Cs1  1  0.60201700  0.85201700  0.75000000  1
  Cs  Cs2  1  0.62964700  0.75000000  0.37964700  1
  Cs  Cs3  1  0.89798300  0.64798300  0.25000000  1
  Cs  Cs4  1  0.34937200  0.59937200  0.75000000  1
  Cs  Cs5  1  0.65062800  0.40062800  0.25000000  1
  Cs  Cs6  1  0.25000000  0.35639300  0.10639300  1
  Cs  Cs7  1  0.39798300  0.14798300  0.25000000  1
  Cs  Cs8  1  0.87035300  0.25000000  0.12035300  1
  Cs  Cs9  1  0.15062800  0.90062800  0.25000000  1
  Cs  Cs10  1  0.12964700  0.75000000  0.87964700  1
  Cs  Cs11  1  0.75000000  0.64360700  0.89360700  1
  Cs  Cs12  1  0.25000000  0.85639300  0.60639300  1
  Cs  Cs13  1  0.10201700  0.35201700  0.75000000  1
  Cs  Cs14  1  0.37035300  0.25000000  0.62035300  1
  Cs  Cs15  1  0.75000000  0.14360700  0.39360700  1
  U  U16  1  0.50000000  0.50000000  0.00000000  1
  U  U17  1  0.50000000  0.00000000  0.50000000  1
  U  U18  1  0.50000000  0.50000000  0.50000000  1
  U  U19  1  0.00000000  0.50000000  0.50000000  1
  U  U20  1  0.00000000  0.00000000  0.00000000  1
  U  U21  1  0.50000000  0.00000000  0.00000000  1
  U  U22  1  0.00000000  0.00000000  0.50000000  1
  U  U23  1  0.00000000  0.50000000  0.00000000  1
  Si  Si24  1  0.24614900  0.54721900  0.43945800  1
  Si  Si25  1  0.52685900  0.12256700  0.81507700  1
  Si  Si26  1  0.47314100  0.87743300  0.18492300  1
  Si  Si27  1  0.25385100  0.69330800  0.30106900  1
  Si  Si28  1  0.02685900  0.21178200  0.40429200  1
  Si  Si29  1  0.30749000  0.62256700  0.09570800  1
  Si  Si30  1  0.75385100  0.45278100  0.56054200  1
  Si  Si31  1  0.80749000  0.71178200  0.68492300  1
  Si  Si32  1  0.69251000  0.37743300  0.90429200  1
  Si  Si33  1  0.89223900  0.95278100  0.19893100  1
  Si  Si34  1  0.39223900  0.19330800  0.93945800  1
  Si  Si35  1  0.74614900  0.30669200  0.69893100  1
  Si  Si36  1  0.60776100  0.80669200  0.06054200  1
  Si  Si37  1  0.97314100  0.78821800  0.59570800  1
  Si  Si38  1  0.10776100  0.04721900  0.80106900  1
  Si  Si39  1  0.19251000  0.28821800  0.31507700  1
  O  O40  1  0.45078200  0.95882500  0.12639300  1
  O  O41  1  0.58166400  0.92230500  0.55061500  1
  O  O42  1  0.41818100  0.14920500  0.82506100  1
  O  O43  1  0.75000000  0.36712900  0.61712900  1
  O  O44  1  0.44310100  0.33723500  0.01222700  1
  O  O45  1  0.67499200  0.16276500  0.60586600  1
  O  O46  1  0.25000000  0.13287100  0.88287100  1
  O  O47  1  0.12831000  0.96895200  0.05061500  1
  O  O48  1  0.54921800  0.04117500  0.87360700  1
  O  O49  1  0.41833600  0.07769500  0.44938500  1
  O  O50  1  0.82500800  0.43087400  0.48777300  1
  O  O51  1  0.64950600  0.25000000  0.89950600  1
  O  O52  1  0.51192600  0.94033400  0.32872100  1
  O  O53  1  0.38838700  0.55966600  0.07159100  1
  O  O54  1  0.17499200  0.56912600  0.51222700  1
  O  O55  1  0.55689900  0.66276500  0.98777300  1
  O  O56  1  0.01192600  0.68320500  0.57159100  1
  O  O57  1  0.11871400  0.65070400  0.19898000  1
  O  O58  1  0.88838700  0.81679500  0.82872100  1
  O  O59  1  0.37169000  0.42230500  0.84064100  1
  O  O60  1  0.91818100  0.09312000  0.26897700  1
  O  O61  1  0.61871400  0.41973400  0.46801000  1
  O  O62  1  0.64965500  0.11244600  0.13484100  1
  O  O63  1  0.61161300  0.44033400  0.92840900  1
  O  O64  1  0.38128600  0.58026600  0.53199000  1
  O  O65  1  0.83243200  0.45882500  0.00804300  1
  O  O66  1  0.32500800  0.83723500  0.39413400  1
  O  O67  1  0.02239600  0.38755400  0.03721000  1
  O  O68  1  0.95172300  0.91973400  0.30102000  1
  O  O69  1  0.48807400  0.05966600  0.67127900  1
  O  O70  1  0.17585700  0.40688000  0.32506100  1
  O  O71  1  0.54827700  0.84929600  0.96801000  1
  O  O72  1  0.94310100  0.93087400  0.10586600  1
  O  O73  1  0.35034500  0.88755400  0.86515900  1
  O  O74  1  0.33243200  0.32438900  0.37360700  1
  O  O75  1  0.85049400  0.75000000  0.60049400  1
  O  O76  1  0.16756800  0.54117500  0.99195700  1
  O  O77  1  0.85034500  0.98518600  0.46279000  1
  O  O78  1  0.45172300  0.15070400  0.03199000  1
  O  O79  1  0.08166400  0.53104800  0.65935900  1
  O  O80  1  0.04827700  0.08026600  0.69898000  1
  O  O81  1  0.11161300  0.18320500  0.17127900  1
  O  O82  1  0.25000000  0.63287100  0.38287100  1
  O  O83  1  0.14950600  0.25000000  0.39950600  1
  O  O84  1  0.58181900  0.85079500  0.17493900  1
  O  O85  1  0.91833600  0.46895200  0.34064100  1
  O  O86  1  0.47760400  0.51481400  0.36515900  1
  O  O87  1  0.66756800  0.67561100  0.62639300  1
  O  O88  1  0.14965500  0.01481400  0.53721000  1
  O  O89  1  0.97760400  0.61244600  0.96279000  1
  O  O90  1  0.88128600  0.34929600  0.80102000  1
  O  O91  1  0.98807400  0.31679500  0.42840900  1
  O  O92  1  0.62831000  0.57769500  0.15935900  1
  O  O93  1  0.67585700  0.35079500  0.76897700  1
  O  O94  1  0.75000000  0.86712900  0.11712900  1
  O  O95  1  0.87169000  0.03104800  0.94938500  1
  O  O96  1  0.05689900  0.06912600  0.89413400  1
  O  O97  1  0.08181900  0.90688000  0.73102300  1
  O  O98  1  0.82414300  0.59312000  0.67493900  1
  O  O99  1  0.52239600  0.48518600  0.63484100  1
  O  O100  1  0.04921800  0.17561100  0.50804300  1
  O  O101  1  0.95078200  0.82438900  0.49195700  1
  O  O102  1  0.35049400  0.75000000  0.10049400  1
  O  O103  1  0.32414300  0.64920500  0.23102300  1
