# generated using pymatgen
data_Lu14(InCo)3
_symmetry_space_group_name_H-M   'P 1'
_cell_length_a   9.34036400
_cell_length_b   9.34036400
_cell_length_c   22.76693200
_cell_angle_alpha   90.00000000
_cell_angle_beta   90.00000000
_cell_angle_gamma   90.00000000
_symmetry_Int_Tables_number   1
_chemical_formula_structural   Lu14(InCo)3
_chemical_formula_sum   'Lu56 In12 Co12'
_cell_volume   1986.24178041
_cell_formula_units_Z   4
loop_
 _symmetry_equiv_pos_site_id
 _symmetry_equiv_pos_as_xyz
  1  'x, y, z'
loop_
 _atom_site_type_symbol
 _atom_site_label
 _atom_site_symmetry_multiplicity
 _atom_site_fract_x
 _atom_site_fract_y
 _atom_site_fract_z
 _atom_site_occupancy
  Lu  Lu0  1  0.31640800  0.81641800  0.35486100  1
  Lu  Lu1  1  0.31641800  0.81640800  0.85486100  1
  Lu  Lu2  1  0.30975100  0.69024900  0.50000000  1
  Lu  Lu3  1  0.18359200  0.68358200  0.14513900  1
  Lu  Lu4  1  0.18358200  0.68359200  0.64513900  1
  Lu  Lu5  1  0.31641800  0.18359200  0.85486100  1
  Lu  Lu6  1  0.50000000  0.50000000  0.60448700  1
  Lu  Lu7  1  0.50000000  0.30883100  0.73411400  1
  Lu  Lu8  1  0.80975100  0.80975100  0.00000000  1
  Lu  Lu9  1  0.80975100  0.19024900  0.00000000  1
  Lu  Lu10  1  0.68358200  0.81640800  0.85486100  1
  Lu  Lu11  1  0.81641800  0.68359200  0.64513900  1
  Lu  Lu12  1  0.19116900  0.00000000  0.23411400  1
  Lu  Lu13  1  0.00000000  0.31142800  0.28073300  1
  Lu  Lu14  1  0.00000000  0.50000000  0.53655300  1
  Lu  Lu15  1  0.19024900  0.19024900  0.00000000  1
  Lu  Lu16  1  0.00000000  0.50000000  0.03655300  1
  Lu  Lu17  1  0.19024900  0.80975100  0.00000000  1
  Lu  Lu18  1  0.00000000  0.80883100  0.76588600  1
  Lu  Lu19  1  0.00000000  0.00000000  0.10448700  1
  Lu  Lu20  1  0.18359200  0.31641800  0.14513900  1
  Lu  Lu21  1  0.00000000  0.19116900  0.76588600  1
  Lu  Lu22  1  0.68359200  0.81641800  0.35486100  1
  Lu  Lu23  1  0.69861300  0.50000000  0.94711200  1
  Lu  Lu24  1  0.81640800  0.31641800  0.14513900  1
  Lu  Lu25  1  0.18358200  0.31640800  0.64513900  1
  Lu  Lu26  1  0.68358200  0.18359200  0.85486100  1
  Lu  Lu27  1  0.31640800  0.18358200  0.35486100  1
  Lu  Lu28  1  0.30975100  0.30975100  0.50000000  1
  Lu  Lu29  1  0.68857200  0.00000000  0.71926700  1
  Lu  Lu30  1  0.81641800  0.31640800  0.64513900  1
  Lu  Lu31  1  0.69116900  0.50000000  0.26588600  1
  Lu  Lu32  1  0.50000000  0.18857200  0.21926700  1
  Lu  Lu33  1  0.30138700  0.50000000  0.94711200  1
  Lu  Lu34  1  0.18857200  0.50000000  0.78073300  1
  Lu  Lu35  1  0.00000000  0.68857200  0.28073300  1
  Lu  Lu36  1  0.50000000  0.00000000  0.46344700  1
  Lu  Lu37  1  0.69024900  0.30975100  0.50000000  1
  Lu  Lu38  1  0.00000000  0.80138700  0.44711200  1
  Lu  Lu39  1  0.19861300  0.00000000  0.55288800  1
  Lu  Lu40  1  0.50000000  0.69861300  0.05288800  1
  Lu  Lu41  1  0.50000000  0.81142800  0.21926700  1
  Lu  Lu42  1  0.00000000  0.19861300  0.44711200  1
  Lu  Lu43  1  0.00000000  0.00000000  0.89551300  1
  Lu  Lu44  1  0.50000000  0.69116900  0.73411400  1
  Lu  Lu45  1  0.80138700  0.00000000  0.55288800  1
  Lu  Lu46  1  0.50000000  0.50000000  0.39551300  1
  Lu  Lu47  1  0.81142800  0.50000000  0.78073300  1
  Lu  Lu48  1  0.50000000  0.30138700  0.05288800  1
  Lu  Lu49  1  0.68359200  0.18358200  0.35486100  1
  Lu  Lu50  1  0.30883100  0.50000000  0.26588600  1
  Lu  Lu51  1  0.80883100  0.00000000  0.23411400  1
  Lu  Lu52  1  0.69024900  0.69024900  0.50000000  1
  Lu  Lu53  1  0.50000000  0.00000000  0.96344700  1
  Lu  Lu54  1  0.31142800  0.00000000  0.71926700  1
  Lu  Lu55  1  0.81640800  0.68358200  0.14513900  1
  In  In56  1  0.00000000  0.00000000  0.65653500  1
  In  In57  1  0.50000000  0.50000000  0.84346500  1
  In  In58  1  0.50000000  0.50000000  0.15653500  1
  In  In59  1  0.50000000  0.83980000  0.60468100  1
  In  In60  1  0.16020000  0.50000000  0.39531900  1
  In  In61  1  0.66020000  0.00000000  0.10468100  1
  In  In62  1  0.00000000  0.00000000  0.34346500  1
  In  In63  1  0.33980000  0.00000000  0.10468100  1
  In  In64  1  0.50000000  0.16020000  0.60468100  1
  In  In65  1  0.00000000  0.33980000  0.89531900  1
  In  In66  1  0.83980000  0.50000000  0.39531900  1
  In  In67  1  0.00000000  0.66020000  0.89531900  1
  Co  Co68  1  0.00000000  0.21875700  0.56194000  1
  Co  Co69  1  0.50000000  0.00000000  0.80122600  1
  Co  Co70  1  0.28124300  0.50000000  0.06194000  1
  Co  Co71  1  0.50000000  0.28124300  0.93806000  1
  Co  Co72  1  0.00000000  0.78124300  0.56194000  1
  Co  Co73  1  0.71875700  0.50000000  0.06194000  1
  Co  Co74  1  0.50000000  0.00000000  0.30122600  1
  Co  Co75  1  0.50000000  0.71875700  0.93806000  1
  Co  Co76  1  0.78124300  0.00000000  0.43806000  1
  Co  Co77  1  0.00000000  0.50000000  0.19877400  1
  Co  Co78  1  0.21875700  0.00000000  0.43806000  1
  Co  Co79  1  0.00000000  0.50000000  0.69877400  1
