# generated using pymatgen
data_CaSb10(S3O5)2
_symmetry_space_group_name_H-M   'P 1'
_cell_length_a   13.27253478
_cell_length_b   13.27253478
_cell_length_c   17.24906491
_cell_angle_alpha   62.98633803
_cell_angle_beta   62.98633803
_cell_angle_gamma   25.08866844
_symmetry_Int_Tables_number   1
_chemical_formula_structural   CaSb10(S3O5)2
_chemical_formula_sum   'Ca2 Sb20 S12 O20'
_cell_volume   1140.44820694
_cell_formula_units_Z   2
loop_
 _symmetry_equiv_pos_site_id
 _symmetry_equiv_pos_as_xyz
  1  'x, y, z'
loop_
 _atom_site_type_symbol
 _atom_site_label
 _atom_site_symmetry_multiplicity
 _atom_site_fract_x
 _atom_site_fract_y
 _atom_site_fract_z
 _atom_site_occupancy
  Ca  Ca0  1  0.54975800  0.45024200  0.75000000  1
  Ca  Ca1  1  0.45024200  0.54975800  0.25000000  1
  Sb  Sb2  1  0.95720400  0.94716600  0.91075800  1
  Sb  Sb3  1  0.05283400  0.04279600  0.58924200  1
  Sb  Sb4  1  0.04279600  0.05283400  0.08924200  1
  Sb  Sb5  1  0.94716600  0.95720400  0.41075800  1
  Sb  Sb6  1  0.61759300  0.50235300  0.91533500  1
  Sb  Sb7  1  0.49764700  0.38240700  0.58466500  1
  Sb  Sb8  1  0.38240700  0.49764700  0.08466500  1
  Sb  Sb9  1  0.50235300  0.61759300  0.41533500  1
  Sb  Sb10  1  0.01364600  0.79110100  0.75209200  1
  Sb  Sb11  1  0.20889900  0.98635400  0.74790800  1
  Sb  Sb12  1  0.98635400  0.20889900  0.24790800  1
  Sb  Sb13  1  0.79110100  0.01364600  0.25209200  1
  Sb  Sb14  1  0.78120300  0.54873100  0.54790300  1
  Sb  Sb15  1  0.45126900  0.21879700  0.95209700  1
  Sb  Sb16  1  0.21879700  0.45126900  0.45209700  1
  Sb  Sb17  1  0.54873100  0.78120300  0.04790300  1
  Sb  Sb18  1  0.13396400  0.32085700  0.86616400  1
  Sb  Sb19  1  0.67914300  0.86603600  0.63383600  1
  Sb  Sb20  1  0.86603600  0.67914300  0.13383600  1
  Sb  Sb21  1  0.32085700  0.13396400  0.36616400  1
  S  S22  1  0.81409900  0.77466600  0.97469800  1
  S  S23  1  0.22533400  0.18590100  0.52530200  1
  S  S24  1  0.18590100  0.22533400  0.02530200  1
  S  S25  1  0.77466600  0.81409900  0.47469800  1
  S  S26  1  0.74295900  0.60035100  0.68834100  1
  S  S27  1  0.39964900  0.25704100  0.81165900  1
  S  S28  1  0.25704100  0.39964900  0.31165900  1
  S  S29  1  0.60035100  0.74295900  0.18834100  1
  S  S30  1  0.06612900  0.58220800  0.64360100  1
  S  S31  1  0.41779200  0.93387100  0.85639900  1
  S  S32  1  0.93387100  0.41779200  0.35639900  1
  S  S33  1  0.58220800  0.06612900  0.14360100  1
  O  O34  1  0.69675100  0.35156100  0.51765300  1
  O  O35  1  0.64843900  0.30324900  0.98234700  1
  O  O36  1  0.30324900  0.64843900  0.48234700  1
  O  O37  1  0.35156100  0.69675100  0.01765300  1
  O  O38  1  0.82873200  0.33687800  0.62771900  1
  O  O39  1  0.66312200  0.17126800  0.87228100  1
  O  O40  1  0.17126800  0.66312200  0.37228100  1
  O  O41  1  0.33687800  0.82873200  0.12771900  1
  O  O42  1  0.31185600  0.60094800  0.66471000  1
  O  O43  1  0.39905200  0.68814400  0.83529000  1
  O  O44  1  0.68814400  0.39905200  0.33529000  1
  O  O45  1  0.60094800  0.31185600  0.16471000  1
  O  O46  1  0.15879400  0.71768700  0.82682400  1
  O  O47  1  0.28231300  0.84120600  0.67317600  1
  O  O48  1  0.84120600  0.28231300  0.17317600  1
  O  O49  1  0.71768700  0.15879400  0.32682400  1
  O  O50  1  0.91112700  0.15050500  0.82104800  1
  O  O51  1  0.84949500  0.08887300  0.67895200  1
  O  O52  1  0.08887300  0.84949500  0.17895200  1
  O  O53  1  0.15050500  0.91112700  0.32104800  1
