# generated using pymatgen
data_Tl4Ag18Te11
_symmetry_space_group_name_H-M   'P 1'
_cell_length_a   13.40809296
_cell_length_b   13.40809296
_cell_length_c   13.40809296
_cell_angle_alpha   120.06810606
_cell_angle_beta   120.06810606
_cell_angle_gamma   89.88207726
_symmetry_Int_Tables_number   1
_chemical_formula_structural   Tl4Ag18Te11
_chemical_formula_sum   'Tl8 Ag36 Te22'
_cell_volume   1702.69844715
_cell_formula_units_Z   2
loop_
 _symmetry_equiv_pos_site_id
 _symmetry_equiv_pos_as_xyz
  1  'x, y, z'
loop_
 _atom_site_type_symbol
 _atom_site_label
 _atom_site_symmetry_multiplicity
 _atom_site_fract_x
 _atom_site_fract_y
 _atom_site_fract_z
 _atom_site_occupancy
  Tl  Tl0  1  0.99916800  0.99916800  0.00000000  1
  Tl  Tl1  1  0.76437100  0.76437100  0.00000000  1
  Tl  Tl2  1  0.23525500  0.76574800  0.00000000  1
  Tl  Tl3  1  0.23525500  0.23525500  0.46950600  1
  Tl  Tl4  1  0.76574800  0.76574800  0.53049400  1
  Tl  Tl5  1  0.44029900  0.44029900  0.00000000  1
  Tl  Tl6  1  0.76574800  0.23525500  0.00000000  1
  Tl  Tl7  1  0.22734200  0.22734200  0.00000000  1
  Ag  Ag8  1  0.74302100  0.47871400  0.48508300  1
  Ag  Ag9  1  0.74302100  0.25793700  0.26430700  1
  Ag  Ag10  1  0.52197000  0.25659100  0.26537900  1
  Ag  Ag11  1  0.74268000  0.47758000  0.73490000  1
  Ag  Ag12  1  0.99363100  0.47871400  0.73569300  1
  Ag  Ag13  1  0.99363100  0.25793700  0.51491700  1
  Ag  Ag14  1  0.52141000  0.25751200  0.51518700  1
  Ag  Ag15  1  0.99121300  0.25659100  0.73462100  1
  Ag  Ag16  1  0.74232500  0.25751200  0.73610200  1
  Ag  Ag17  1  0.74268000  0.00778100  0.26510000  1
  Ag  Ag18  1  0.52141000  0.00622300  0.26389800  1
  Ag  Ag19  1  0.47758000  0.74268000  0.73490000  1
  Ag  Ag20  1  0.25751200  0.74232500  0.73610200  1
  Ag  Ag21  1  0.74232500  0.00622300  0.48481300  1
  Ag  Ag22  1  0.25751200  0.52141000  0.51518700  1
  Ag  Ag23  1  0.00778100  0.74268000  0.26510000  1
  Ag  Ag24  1  0.25793700  0.74302100  0.26430700  1
  Ag  Ag25  1  0.47871400  0.74302100  0.48508300  1
  Ag  Ag26  1  0.00622300  0.74232500  0.48481300  1
  Ag  Ag27  1  0.00622300  0.52141000  0.26389800  1
  Ag  Ag28  1  0.25659100  0.52197000  0.26537900  1
  Ag  Ag29  1  0.38664900  0.00003000  0.38661900  1
  Ag  Ag30  1  0.99771400  0.99771400  0.38215100  1
  Ag  Ag31  1  0.25793700  0.99363100  0.51491700  1
  Ag  Ag32  1  0.61341200  0.00003000  0.61338100  1
  Ag  Ag33  1  0.99870100  0.99870100  0.61320900  1
  Ag  Ag34  1  0.25659100  0.99121300  0.73462100  1
  Ag  Ag35  1  0.47871400  0.99363100  0.73569300  1
  Ag  Ag36  1  0.99771400  0.61556200  0.00000000  1
  Ag  Ag37  1  0.61556200  0.99771400  0.00000000  1
  Ag  Ag38  1  0.38549300  0.99870100  0.00000000  1
  Ag  Ag39  1  0.99870100  0.38549300  0.00000000  1
  Ag  Ag40  1  0.61556200  0.61556200  0.61784900  1
  Ag  Ag41  1  0.00003000  0.61341200  0.61338100  1
  Ag  Ag42  1  0.38549300  0.38549300  0.38679100  1
  Ag  Ag43  1  0.00003000  0.38664900  0.38661900  1
  Te  Te44  1  0.89099900  0.67266300  0.78166400  1
  Te  Te45  1  0.89099900  0.10933500  0.21833600  1
  Te  Te46  1  0.32643900  0.10825100  0.21818800  1
  Te  Te47  1  0.74952500  0.24952500  0.50000000  1
  Te  Te48  1  0.50016600  0.81570400  0.00000000  1
  Te  Te49  1  0.89006400  0.10825100  0.78181200  1
  Te  Te50  1  0.50050600  0.81514400  0.31463800  1
  Te  Te51  1  0.81570400  0.81570400  0.31553800  1
  Te  Te52  1  0.50016600  0.50016600  0.68446200  1
  Te  Te53  1  0.18586800  0.50050600  0.68536200  1
  Te  Te54  1  0.81570400  0.50016600  0.00000000  1
  Te  Te55  1  0.18322500  0.49907300  0.00000000  1
  Te  Te56  1  0.50050600  0.18586800  0.68536200  1
  Te  Te57  1  0.18322500  0.18322500  0.68415200  1
  Te  Te58  1  0.49907300  0.49907300  0.31584800  1
  Te  Te59  1  0.81514400  0.50050600  0.31463800  1
  Te  Te60  1  0.10933500  0.89099900  0.21833600  1
  Te  Te61  1  0.49907300  0.18322500  0.00000000  1
  Te  Te62  1  0.67266300  0.89099900  0.78166400  1
  Te  Te63  1  0.10825100  0.89006400  0.78181200  1
  Te  Te64  1  0.24952500  0.74952500  0.50000000  1
  Te  Te65  1  0.10825100  0.32643900  0.21818800  1
