# generated using pymatgen
data_Cs7Fe4F15
_symmetry_space_group_name_H-M   'P 1'
_cell_length_a   11.30437500
_cell_length_b   7.96583600
_cell_length_c   12.00457315
_cell_angle_alpha   88.30766660
_cell_angle_beta   90.00000000
_cell_angle_gamma   90.00000000
_symmetry_Int_Tables_number   1
_chemical_formula_structural   Cs7Fe4F15
_chemical_formula_sum   'Cs14 Fe8 F30'
_cell_volume   1080.52586564
_cell_formula_units_Z   2
loop_
 _symmetry_equiv_pos_site_id
 _symmetry_equiv_pos_as_xyz
  1  'x, y, z'
loop_
 _atom_site_type_symbol
 _atom_site_label
 _atom_site_symmetry_multiplicity
 _atom_site_fract_x
 _atom_site_fract_y
 _atom_site_fract_z
 _atom_site_occupancy
  Cs  Cs0  1  0.31882100  0.49826600  0.46991000  1
  Cs  Cs1  1  0.65304500  0.84331900  0.80312900  1
  Cs  Cs2  1  0.81882100  0.50173400  0.03009000  1
  Cs  Cs3  1  0.99785300  0.67216400  0.66611300  1
  Cs  Cs4  1  0.00000000  0.00000000  0.00000000  1
  Cs  Cs5  1  0.15304500  0.15668100  0.69687100  1
  Cs  Cs6  1  0.50214700  0.67216400  0.16611300  1
  Cs  Cs7  1  0.49785300  0.32783600  0.83388700  1
  Cs  Cs8  1  0.68117900  0.50173400  0.53009000  1
  Cs  Cs9  1  0.18117900  0.49826600  0.96991000  1
  Cs  Cs10  1  0.50000000  0.00000000  0.50000000  1
  Cs  Cs11  1  0.84695500  0.84331900  0.30312900  1
  Cs  Cs12  1  0.00214700  0.32783600  0.33388700  1
  Cs  Cs13  1  0.34695500  0.15668100  0.19687100  1
  Fe  Fe14  1  0.17209900  0.73634600  0.22528000  1
  Fe  Fe15  1  0.33743700  0.92224100  0.92833700  1
  Fe  Fe16  1  0.82790100  0.26365400  0.77472000  1
  Fe  Fe17  1  0.83743700  0.07775900  0.57166300  1
  Fe  Fe18  1  0.16256300  0.92224100  0.42833700  1
  Fe  Fe19  1  0.67209900  0.26365400  0.27472000  1
  Fe  Fe20  1  0.32790100  0.73634600  0.72528000  1
  Fe  Fe21  1  0.66256300  0.07775900  0.07166300  1
  F  F22  1  0.97659900  0.32885400  0.85999200  1
  F  F23  1  0.39945900  0.97879800  0.75621100  1
  F  F24  1  0.23400700  0.82652500  0.58136000  1
  F  F25  1  0.26599300  0.82652500  0.08136000  1
  F  F26  1  0.25040900  0.50561600  0.72175000  1
  F  F27  1  0.68798500  0.17831300  0.66742800  1
  F  F28  1  0.75040900  0.49438400  0.77825000  1
  F  F29  1  0.31201500  0.82168700  0.33257200  1
  F  F30  1  0.59146900  0.31275800  0.10504400  1
  F  F31  1  0.76599300  0.17347500  0.41864000  1
  F  F32  1  0.24959100  0.50561600  0.22175000  1
  F  F33  1  0.89945900  0.02120200  0.74378900  1
  F  F34  1  0.81201500  0.17831300  0.16742800  1
  F  F35  1  0.90853100  0.31275800  0.60504400  1
  F  F36  1  0.73705000  0.85215700  0.05692600  1
  F  F37  1  0.26295000  0.14784300  0.94307400  1
  F  F38  1  0.47659900  0.67114600  0.64000800  1
  F  F39  1  0.02340100  0.67114600  0.14000800  1
  F  F40  1  0.09146900  0.68724200  0.39495600  1
  F  F41  1  0.76295000  0.85215700  0.55692600  1
  F  F42  1  0.74959100  0.49438400  0.27825000  1
  F  F43  1  0.10054100  0.97879800  0.25621100  1
  F  F44  1  0.73400700  0.17347500  0.91864000  1
  F  F45  1  0.23705000  0.14784300  0.44307400  1
  F  F46  1  0.60054100  0.02120200  0.24378900  1
  F  F47  1  0.18798500  0.82168700  0.83257200  1
  F  F48  1  0.52340100  0.32885400  0.35999200  1
  F  F49  1  0.40853100  0.68724200  0.89495600  1
  F  F50  1  0.00000000  0.00000000  0.50000000  1
  F  F51  1  0.50000000  0.00000000  0.00000000  1
