# generated using pymatgen
data_SiBr4
_symmetry_space_group_name_H-M   'P 1'
_cell_length_a   12.19617200
_cell_length_b   12.19617200
_cell_length_c   12.19617200
_cell_angle_alpha   90.00000000
_cell_angle_beta   90.00000000
_cell_angle_gamma   90.00000000
_symmetry_Int_Tables_number   1
_chemical_formula_structural   SiBr4
_chemical_formula_sum   'Si8 Br32'
_cell_volume   1814.13925771
_cell_formula_units_Z   8
loop_
 _symmetry_equiv_pos_site_id
 _symmetry_equiv_pos_as_xyz
  1  'x, y, z'
loop_
 _atom_site_type_symbol
 _atom_site_label
 _atom_site_symmetry_multiplicity
 _atom_site_fract_x
 _atom_site_fract_y
 _atom_site_fract_z
 _atom_site_occupancy
  Si  Si0  1  0.36813200  0.63186800  0.13186800  1
  Si  Si1  1  0.13186800  0.13186800  0.13186800  1
  Si  Si2  1  0.86813200  0.86813200  0.86813200  1
  Si  Si3  1  0.13186800  0.36813200  0.63186800  1
  Si  Si4  1  0.63186800  0.13186800  0.36813200  1
  Si  Si5  1  0.86813200  0.63186800  0.36813200  1
  Si  Si6  1  0.36813200  0.86813200  0.63186800  1
  Si  Si7  1  0.63186800  0.36813200  0.86813200  1
  Br  Br8  1  0.26336300  0.76336300  0.73663700  1
  Br  Br9  1  0.73690600  0.46623900  0.97933500  1
  Br  Br10  1  0.52066500  0.23690600  0.46623900  1
  Br  Br11  1  0.76309400  0.96623900  0.97933500  1
  Br  Br12  1  0.03376100  0.02066500  0.23690600  1
  Br  Br13  1  0.73663700  0.23663700  0.26336300  1
  Br  Br14  1  0.73663700  0.26336300  0.76336300  1
  Br  Br15  1  0.52066500  0.26309400  0.96623900  1
  Br  Br16  1  0.03376100  0.47933500  0.73690600  1
  Br  Br17  1  0.46623900  0.52066500  0.23690600  1
  Br  Br18  1  0.53376100  0.47933500  0.76309400  1
  Br  Br19  1  0.96623900  0.52066500  0.26309400  1
  Br  Br20  1  0.97933500  0.73690600  0.46623900  1
  Br  Br21  1  0.26309400  0.96623900  0.52066500  1
  Br  Br22  1  0.53376100  0.02066500  0.26309400  1
  Br  Br23  1  0.23690600  0.46623900  0.52066500  1
  Br  Br24  1  0.23663700  0.23663700  0.23663700  1
  Br  Br25  1  0.23663700  0.26336300  0.73663700  1
  Br  Br26  1  0.02066500  0.26309400  0.53376100  1
  Br  Br27  1  0.76309400  0.53376100  0.47933500  1
  Br  Br28  1  0.96623900  0.97933500  0.76309400  1
  Br  Br29  1  0.02066500  0.23690600  0.03376100  1
  Br  Br30  1  0.73690600  0.03376100  0.47933500  1
  Br  Br31  1  0.23690600  0.03376100  0.02066500  1
  Br  Br32  1  0.46623900  0.97933500  0.73690600  1
  Br  Br33  1  0.76336300  0.73663700  0.26336300  1
  Br  Br34  1  0.47933500  0.76309400  0.53376100  1
  Br  Br35  1  0.26336300  0.73663700  0.23663700  1
  Br  Br36  1  0.76336300  0.76336300  0.76336300  1
  Br  Br37  1  0.97933500  0.76309400  0.96623900  1
  Br  Br38  1  0.26309400  0.53376100  0.02066500  1
  Br  Br39  1  0.47933500  0.73690600  0.03376100  1
