# generated using pymatgen
data_Y3CuSiSe7
_symmetry_space_group_name_H-M   'P 1'
_cell_length_a   10.36455035
_cell_length_b   10.36455035
_cell_length_c   6.03296500
_cell_angle_alpha   90.00000000
_cell_angle_beta   90.00000000
_cell_angle_gamma   120.00000222
_symmetry_Int_Tables_number   1
_chemical_formula_structural   Y3CuSiSe7
_chemical_formula_sum   'Y6 Cu2 Si2 Se14'
_cell_volume   561.25776026
_cell_formula_units_Z   2
loop_
 _symmetry_equiv_pos_site_id
 _symmetry_equiv_pos_as_xyz
  1  'x, y, z'
loop_
 _atom_site_type_symbol
 _atom_site_label
 _atom_site_symmetry_multiplicity
 _atom_site_fract_x
 _atom_site_fract_y
 _atom_site_fract_z
 _atom_site_occupancy
  Y  Y0  1  0.22289900  0.35591000  0.92310900  1
  Y  Y1  1  0.64409000  0.86698900  0.92310900  1
  Y  Y2  1  0.86698900  0.22289900  0.42310900  1
  Y  Y3  1  0.77710100  0.64409000  0.42310900  1
  Y  Y4  1  0.13301100  0.77710100  0.92310900  1
  Y  Y5  1  0.35591000  0.13301100  0.42310900  1
  Cu  Cu6  1  0.00000000  0.00000000  0.97167600  1
  Cu  Cu7  1  0.00000000  0.00000000  0.47167600  1
  Si  Si8  1  0.66666700  0.33333300  0.83386800  1
  Si  Si9  1  0.33333300  0.66666700  0.33386800  1
  Se  Se10  1  0.83791900  0.73858100  0.95267800  1
  Se  Se11  1  0.42100800  0.89941900  0.17929700  1
  Se  Se12  1  0.26141900  0.09933800  0.95267800  1
  Se  Se13  1  0.16208100  0.26141900  0.45267800  1
  Se  Se14  1  0.47841100  0.57899200  0.17929700  1
  Se  Se15  1  0.73858100  0.90066200  0.45267800  1
  Se  Se16  1  0.57899200  0.10058100  0.67929700  1
  Se  Se17  1  0.33333300  0.66666700  0.71111200  1
  Se  Se18  1  0.89941900  0.47841100  0.67929700  1
  Se  Se19  1  0.66666700  0.33333300  0.21111200  1
  Se  Se20  1  0.90066200  0.16208100  0.95267800  1
  Se  Se21  1  0.09933800  0.83791900  0.45267800  1
  Se  Se22  1  0.10058100  0.52158900  0.17929700  1
  Se  Se23  1  0.52158900  0.42100800  0.67929700  1
