# generated using pymatgen
data_Ag(BCl)6
_symmetry_space_group_name_H-M   'P 1'
_cell_length_a   12.60898300
_cell_length_b   12.60898300
_cell_length_c   12.60898300
_cell_angle_alpha   90.00000000
_cell_angle_beta   90.00000000
_cell_angle_gamma   90.00000000
_symmetry_Int_Tables_number   1
_chemical_formula_structural   Ag(BCl)6
_chemical_formula_sum   'Ag8 B48 Cl48'
_cell_volume   2004.65747421
_cell_formula_units_Z   8
loop_
 _symmetry_equiv_pos_site_id
 _symmetry_equiv_pos_as_xyz
  1  'x, y, z'
loop_
 _atom_site_type_symbol
 _atom_site_label
 _atom_site_symmetry_multiplicity
 _atom_site_fract_x
 _atom_site_fract_y
 _atom_site_fract_z
 _atom_site_occupancy
  Ag  Ag0  1  0.63289800  0.63289800  0.63289800  1
  Ag  Ag1  1  0.63289800  0.86710200  0.13289800  1
  Ag  Ag2  1  0.13289800  0.86710200  0.36710200  1
  Ag  Ag3  1  0.86710200  0.36710200  0.13289800  1
  Ag  Ag4  1  0.36710200  0.36710200  0.36710200  1
  Ag  Ag5  1  0.13289800  0.63289800  0.86710200  1
  Ag  Ag6  1  0.86710200  0.13289800  0.63289800  1
  Ag  Ag7  1  0.36710200  0.13289800  0.86710200  1
  B  B8  1  0.90691500  0.07188000  0.06525900  1
  B  B9  1  0.12948300  0.47285200  0.53042000  1
  B  B10  1  0.42812000  0.56525900  0.90691500  1
  B  B11  1  0.07188000  0.06525900  0.90691500  1
  B  B12  1  0.40691500  0.07188000  0.43474100  1
  B  B13  1  0.59308500  0.92812000  0.56525900  1
  B  B14  1  0.02714800  0.03042000  0.12948300  1
  B  B15  1  0.03042000  0.12948300  0.02714800  1
  B  B16  1  0.57188000  0.06525900  0.59308500  1
  B  B17  1  0.47285200  0.53042000  0.12948300  1
  B  B18  1  0.92812000  0.56525900  0.59308500  1
  B  B19  1  0.42812000  0.93474100  0.40691500  1
  B  B20  1  0.46958000  0.62948300  0.02714800  1
  B  B21  1  0.46958000  0.87051700  0.52714800  1
  B  B22  1  0.93474100  0.40691500  0.42812000  1
  B  B23  1  0.09308500  0.92812000  0.93474100  1
  B  B24  1  0.06525900  0.59308500  0.57188000  1
  B  B25  1  0.07188000  0.43474100  0.40691500  1
  B  B26  1  0.09308500  0.57188000  0.43474100  1
  B  B27  1  0.62948300  0.02714800  0.46958000  1
  B  B28  1  0.53042000  0.37051700  0.97285200  1
  B  B29  1  0.06525900  0.90691500  0.07188000  1
  B  B30  1  0.52714800  0.03042000  0.37051700  1
  B  B31  1  0.90691500  0.42812000  0.56525900  1
  B  B32  1  0.03042000  0.37051700  0.52714800  1
  B  B33  1  0.92812000  0.93474100  0.09308500  1
  B  B34  1  0.62948300  0.47285200  0.96958000  1
  B  B35  1  0.97285200  0.53042000  0.37051700  1
  B  B36  1  0.87051700  0.52714800  0.46958000  1
  B  B37  1  0.40691500  0.42812000  0.93474100  1
  B  B38  1  0.02714800  0.46958000  0.62948300  1
  B  B39  1  0.59308500  0.57188000  0.06525900  1
  B  B40  1  0.56525900  0.59308500  0.92812000  1
  B  B41  1  0.43474100  0.40691500  0.07188000  1
  B  B42  1  0.56525900  0.90691500  0.42812000  1
  B  B43  1  0.97285200  0.96958000  0.87051700  1
  B  B44  1  0.37051700  0.52714800  0.03042000  1
  B  B45  1  0.96958000  0.62948300  0.47285200  1
  B  B46  1  0.52714800  0.46958000  0.87051700  1
  B  B47  1  0.43474100  0.09308500  0.57188000  1
  B  B48  1  0.96958000  0.87051700  0.97285200  1
  B  B49  1  0.12948300  0.02714800  0.03042000  1
  B  B50  1  0.87051700  0.97285200  0.96958000  1
  B  B51  1  0.57188000  0.43474100  0.09308500  1
  B  B52  1  0.93474100  0.09308500  0.92812000  1
  B  B53  1  0.37051700  0.97285200  0.53042000  1
  B  B54  1  0.53042000  0.12948300  0.47285200  1
  B  B55  1  0.47285200  0.96958000  0.62948300  1
  Cl  Cl56  1  0.80657100  0.14756200  0.13128100  1
  Cl  Cl57  1  0.73259500  0.55333500  0.44304600  1
  Cl  Cl58  1  0.64756200  0.36871900  0.19342900  1
  Cl  Cl59  1  0.05695400  0.23259500  0.55333500  1
  Cl  Cl60  1  0.94666500  0.55695400  0.23259500  1
  Cl  Cl61  1  0.55333500  0.44304600  0.73259500  1
  Cl  Cl62  1  0.55695400  0.23259500  0.94666500  1
  Cl  Cl63  1  0.05695400  0.26740500  0.05333500  1
  Cl  Cl64  1  0.44304600  0.73259500  0.55333500  1
  Cl  Cl65  1  0.94304600  0.76740500  0.44666500  1
  Cl  Cl66  1  0.19342900  0.64756200  0.36871900  1
  Cl  Cl67  1  0.85243800  0.86871900  0.19342900  1
  Cl  Cl68  1  0.44666500  0.55695400  0.26740500  1
  Cl  Cl69  1  0.05333500  0.44304600  0.76740500  1
  Cl  Cl70  1  0.44666500  0.94304600  0.76740500  1
  Cl  Cl71  1  0.94666500  0.94304600  0.73259500  1
  Cl  Cl72  1  0.36871900  0.30657100  0.14756200  1
  Cl  Cl73  1  0.13128100  0.69342900  0.64756200  1
  Cl  Cl74  1  0.13128100  0.80657100  0.14756200  1
  Cl  Cl75  1  0.63128100  0.69342900  0.85243800  1
  Cl  Cl76  1  0.35243800  0.63128100  0.80657100  1
  Cl  Cl77  1  0.30657100  0.14756200  0.36871900  1
  Cl  Cl78  1  0.23259500  0.94666500  0.55695400  1
  Cl  Cl79  1  0.69342900  0.64756200  0.13128100  1
  Cl  Cl80  1  0.14756200  0.36871900  0.30657100  1
  Cl  Cl81  1  0.35243800  0.86871900  0.30657100  1
  Cl  Cl82  1  0.44304600  0.76740500  0.05333500  1
  Cl  Cl83  1  0.85243800  0.63128100  0.69342900  1
  Cl  Cl84  1  0.55333500  0.05695400  0.23259500  1
  Cl  Cl85  1  0.64756200  0.13128100  0.69342900  1
  Cl  Cl86  1  0.86871900  0.19342900  0.85243800  1
  Cl  Cl87  1  0.26740500  0.05333500  0.05695400  1
  Cl  Cl88  1  0.30657100  0.35243800  0.86871900  1
  Cl  Cl89  1  0.19342900  0.85243800  0.86871900  1
  Cl  Cl90  1  0.69342900  0.85243800  0.63128100  1
  Cl  Cl91  1  0.26740500  0.44666500  0.55695400  1
  Cl  Cl92  1  0.63128100  0.80657100  0.35243800  1
  Cl  Cl93  1  0.86871900  0.30657100  0.35243800  1
  Cl  Cl94  1  0.36871900  0.19342900  0.64756200  1
  Cl  Cl95  1  0.94304600  0.73259500  0.94666500  1
  Cl  Cl96  1  0.05333500  0.05695400  0.26740500  1
  Cl  Cl97  1  0.80657100  0.35243800  0.63128100  1
  Cl  Cl98  1  0.14756200  0.13128100  0.80657100  1
  Cl  Cl99  1  0.76740500  0.05333500  0.44304600  1
  Cl  Cl100  1  0.76740500  0.44666500  0.94304600  1
  Cl  Cl101  1  0.55695400  0.26740500  0.44666500  1
  Cl  Cl102  1  0.23259500  0.55333500  0.05695400  1
  Cl  Cl103  1  0.73259500  0.94666500  0.94304600  1
