# generated using pymatgen
data_LiV2F6
_symmetry_space_group_name_H-M   'P 1'
_cell_length_a   4.77013400
_cell_length_b   4.77013400
_cell_length_c   9.45602100
_cell_angle_alpha   90.00000000
_cell_angle_beta   90.00000000
_cell_angle_gamma   90.00000000
_symmetry_Int_Tables_number   1
_chemical_formula_structural   LiV2F6
_chemical_formula_sum   'Li2 V4 F12'
_cell_volume   215.16398858
_cell_formula_units_Z   2
loop_
 _symmetry_equiv_pos_site_id
 _symmetry_equiv_pos_as_xyz
  1  'x, y, z'
loop_
 _atom_site_type_symbol
 _atom_site_label
 _atom_site_symmetry_multiplicity
 _atom_site_fract_x
 _atom_site_fract_y
 _atom_site_fract_z
 _atom_site_occupancy
  Li  Li0  1  0.50000000  0.50000000  0.50000000  1
  Li  Li1  1  0.00000000  0.00000000  0.00000000  1
  V  V2  1  0.00000000  0.00000000  0.66730600  1
  V  V3  1  0.50000000  0.50000000  0.16730600  1
  V  V4  1  0.50000000  0.50000000  0.83269400  1
  V  V5  1  0.00000000  0.00000000  0.33269400  1
  F  F6  1  0.69901000  0.69901000  0.66895200  1
  F  F7  1  0.30099000  0.30099000  0.66895200  1
  F  F8  1  0.30570500  0.30570500  0.00000000  1
  F  F9  1  0.19429500  0.80570500  0.50000000  1
  F  F10  1  0.80570500  0.19429500  0.50000000  1
  F  F11  1  0.69429500  0.69429500  0.00000000  1
  F  F12  1  0.30099000  0.30099000  0.33104800  1
  F  F13  1  0.19901000  0.80099000  0.83104800  1
  F  F14  1  0.80099000  0.19901000  0.83104800  1
  F  F15  1  0.80099000  0.19901000  0.16895200  1
  F  F16  1  0.19901000  0.80099000  0.16895200  1
  F  F17  1  0.69901000  0.69901000  0.33104800  1
