# generated using pymatgen
data_Sr4CN4
_symmetry_space_group_name_H-M   'P 1'
_cell_length_a   3.83909200
_cell_length_b   12.35934400
_cell_length_c   14.55628100
_cell_angle_alpha   90.00000000
_cell_angle_beta   90.00000000
_cell_angle_gamma   90.00000000
_symmetry_Int_Tables_number   1
_chemical_formula_structural   Sr4CN4
_chemical_formula_sum   'Sr16 C4 N16'
_cell_volume   690.67600876
_cell_formula_units_Z   4
loop_
 _symmetry_equiv_pos_site_id
 _symmetry_equiv_pos_as_xyz
  1  'x, y, z'
loop_
 _atom_site_type_symbol
 _atom_site_label
 _atom_site_symmetry_multiplicity
 _atom_site_fract_x
 _atom_site_fract_y
 _atom_site_fract_z
 _atom_site_occupancy
  Sr  Sr0  1  0.25000000  0.11317200  0.40354200  1
  Sr  Sr1  1  0.25000000  0.40666100  0.68550600  1
  Sr  Sr2  1  0.75000000  0.66033200  0.73844100  1
  Sr  Sr3  1  0.25000000  0.61317200  0.09645800  1
  Sr  Sr4  1  0.25000000  0.90666100  0.81449400  1
  Sr  Sr5  1  0.75000000  0.16033200  0.76155900  1
  Sr  Sr6  1  0.75000000  0.59333900  0.31449400  1
  Sr  Sr7  1  0.25000000  0.62511300  0.53221600  1
  Sr  Sr8  1  0.75000000  0.87488700  0.03221600  1
  Sr  Sr9  1  0.75000000  0.38682800  0.90354200  1
  Sr  Sr10  1  0.25000000  0.33966800  0.26155900  1
  Sr  Sr11  1  0.25000000  0.83966800  0.23844100  1
  Sr  Sr12  1  0.75000000  0.09333900  0.18550600  1
  Sr  Sr13  1  0.75000000  0.37488700  0.46778400  1
  Sr  Sr14  1  0.75000000  0.88682800  0.59645800  1
  Sr  Sr15  1  0.25000000  0.12511300  0.96778400  1
  C  C16  1  0.25000000  0.14941400  0.59668600  1
  C  C17  1  0.25000000  0.64941400  0.90331400  1
  C  C18  1  0.75000000  0.35058600  0.09668600  1
  C  C19  1  0.75000000  0.85058600  0.40331400  1
  N  N20  1  0.25000000  0.05539900  0.62790400  1
  N  N21  1  0.75000000  0.51421300  0.62068800  1
  N  N22  1  0.75000000  0.01421300  0.87931200  1
  N  N23  1  0.75000000  0.44460100  0.12790400  1
  N  N24  1  0.25000000  0.98578700  0.12068800  1
  N  N25  1  0.25000000  0.28028500  0.83076900  1
  N  N26  1  0.25000000  0.55539900  0.87209600  1
  N  N27  1  0.75000000  0.75812300  0.43691000  1
  N  N28  1  0.25000000  0.74187700  0.93691000  1
  N  N29  1  0.25000000  0.24187700  0.56309000  1
  N  N30  1  0.75000000  0.71971500  0.16923100  1
  N  N31  1  0.25000000  0.48578700  0.37931200  1
  N  N32  1  0.75000000  0.25812300  0.06309000  1
  N  N33  1  0.75000000  0.21971500  0.33076900  1
  N  N34  1  0.75000000  0.94460100  0.37209600  1
  N  N35  1  0.25000000  0.78028500  0.66923100  1
