# generated using pymatgen
data_InI3
_symmetry_space_group_name_H-M   'P 1'
_cell_length_a   6.65067300
_cell_length_b   10.32269700
_cell_length_c   12.91039665
_cell_angle_alpha   72.41319072
_cell_angle_beta   90.00000000
_cell_angle_gamma   90.00000000
_symmetry_Int_Tables_number   1
_chemical_formula_structural   InI3
_chemical_formula_sum   'In4 I12'
_cell_volume   844.90882465
_cell_formula_units_Z   4
loop_
 _symmetry_equiv_pos_site_id
 _symmetry_equiv_pos_as_xyz
  1  'x, y, z'
loop_
 _atom_site_type_symbol
 _atom_site_label
 _atom_site_symmetry_multiplicity
 _atom_site_fract_x
 _atom_site_fract_y
 _atom_site_fract_z
 _atom_site_occupancy
  In  In0  1  0.00048700  0.20121200  0.95095900  1
  In  In1  1  0.99951300  0.79878800  0.04904100  1
  In  In2  1  0.49951300  0.20121200  0.45095900  1
  In  In3  1  0.50048700  0.79878800  0.54904100  1
  I  I4  1  0.75268100  0.67079000  0.71049300  1
  I  I5  1  0.27714800  0.00032900  0.61617200  1
  I  I6  1  0.75182100  0.33158800  0.54861700  1
  I  I7  1  0.25268100  0.32921000  0.78950700  1
  I  I8  1  0.74731900  0.67079000  0.21049300  1
  I  I9  1  0.72285200  0.99967100  0.38382800  1
  I  I10  1  0.25182100  0.66841200  0.95138300  1
  I  I11  1  0.77714800  0.99967100  0.88382800  1
  I  I12  1  0.74817900  0.33158800  0.04861700  1
  I  I13  1  0.24731900  0.32921000  0.28950700  1
  I  I14  1  0.24817900  0.66841200  0.45138300  1
  I  I15  1  0.22285200  0.00032900  0.11617200  1
