# generated using pymatgen
data_Sb8Br2O11
_symmetry_space_group_name_H-M   'P 1'
_cell_length_a   10.79588900
_cell_length_b   11.58663013
_cell_length_c   14.27497877
_cell_angle_alpha   78.71824564
_cell_angle_beta   76.70457845
_cell_angle_gamma   72.85117706
_symmetry_Int_Tables_number   1
_chemical_formula_structural   Sb8Br2O11
_chemical_formula_sum   'Sb32 Br8 O44'
_cell_volume   1644.74888106
_cell_formula_units_Z   4
loop_
 _symmetry_equiv_pos_site_id
 _symmetry_equiv_pos_as_xyz
  1  'x, y, z'
loop_
 _atom_site_type_symbol
 _atom_site_label
 _atom_site_symmetry_multiplicity
 _atom_site_fract_x
 _atom_site_fract_y
 _atom_site_fract_z
 _atom_site_occupancy
  Sb  Sb0  1  0.81549100  0.32919400  0.20786500  1
  Sb  Sb1  1  0.00542600  0.61893500  0.18814700  1
  Sb  Sb2  1  0.15630200  0.42043300  0.03236900  1
  Sb  Sb3  1  0.01733000  0.61264000  0.55932200  1
  Sb  Sb4  1  0.17383800  0.91397400  0.55728700  1
  Sb  Sb5  1  0.99278100  0.89811800  0.93154800  1
  Sb  Sb6  1  0.33609200  0.14274400  0.49290600  1
  Sb  Sb7  1  0.72596100  0.62258200  0.36220000  1
  Sb  Sb8  1  0.69698300  0.13805500  0.86533700  1
  Sb  Sb9  1  0.29300100  0.62571200  0.39176400  1
  Sb  Sb10  1  0.69681100  0.87038100  0.13882200  1
  Sb  Sb11  1  0.30318900  0.12961900  0.86117800  1
  Sb  Sb12  1  0.00721900  0.10188200  0.06845200  1
  Sb  Sb13  1  0.84203800  0.85177700  0.68270300  1
  Sb  Sb14  1  0.99457400  0.38106500  0.81185300  1
  Sb  Sb15  1  0.30301700  0.86194500  0.13466300  1
  Sb  Sb16  1  0.15796200  0.14822300  0.31729700  1
  Sb  Sb17  1  0.84369800  0.57956700  0.96763100  1
  Sb  Sb18  1  0.98267000  0.38736000  0.44067800  1
  Sb  Sb19  1  0.02910500  0.84849400  0.31259500  1
  Sb  Sb20  1  0.82616200  0.08602600  0.44271300  1
  Sb  Sb21  1  0.70699900  0.37428800  0.60823600  1
  Sb  Sb22  1  0.18450900  0.67080600  0.79213500  1
  Sb  Sb23  1  0.36263300  0.64708600  0.97353800  1
  Sb  Sb24  1  0.33166000  0.39784800  0.24594300  1
  Sb  Sb25  1  0.64003300  0.11138500  0.27073500  1
  Sb  Sb26  1  0.35996700  0.88861500  0.72926500  1
  Sb  Sb27  1  0.66834000  0.60215200  0.75405700  1
  Sb  Sb28  1  0.27403900  0.37741800  0.63780000  1
  Sb  Sb29  1  0.66390800  0.85725600  0.50709400  1
  Sb  Sb30  1  0.63736700  0.35291400  0.02646200  1
  Sb  Sb31  1  0.97089500  0.15150600  0.68740500  1
  Br  Br32  1  0.49361600  0.63519900  0.58818700  1
  Br  Br33  1  0.45544500  0.17244600  0.09244800  1
  Br  Br34  1  0.50638400  0.36480100  0.41181300  1
  Br  Br35  1  0.54455500  0.82755400  0.90755200  1
  Br  Br36  1  0.52306300  0.10283800  0.65283200  1
  Br  Br37  1  0.48696100  0.37573700  0.83052700  1
  Br  Br38  1  0.51303900  0.62426300  0.16947300  1
  Br  Br39  1  0.47693700  0.89716200  0.34716800  1
  O  O40  1  0.88988900  0.02715300  0.84170800  1
  O  O41  1  0.23771100  0.01342200  0.80932500  1
  O  O42  1  0.15850700  0.14594100  0.97678700  1
  O  O43  1  0.74458500  0.73154700  0.66292800  1
  O  O44  1  0.75800000  0.23294200  0.94099500  1
  O  O45  1  0.77205700  0.20519600  0.72874400  1
  O  O46  1  0.17875700  0.45004000  0.17026200  1
  O  O47  1  0.90499900  0.27408500  0.56895300  1
  O  O48  1  0.01822500  0.73515100  0.64291600  1
  O  O49  1  0.20691300  0.83099200  0.70108700  1
  O  O50  1  0.84149300  0.85405900  0.02321300  1
  O  O51  1  0.97325200  0.52629800  0.09040900  1
  O  O52  1  0.00907300  0.99399200  0.37971900  1
  O  O53  1  0.69784700  0.25887000  0.15074500  1
  O  O54  1  0.20160200  0.28243100  0.78691900  1
  O  O55  1  0.30215300  0.74113000  0.84925500  1
  O  O56  1  0.78871600  0.42590300  0.03088400  1
  O  O57  1  0.21536800  0.53862600  0.53133600  1
  O  O58  1  0.22255400  0.53066000  0.32362500  1
  O  O59  1  0.79308700  0.16900800  0.29891300  1
  O  O60  1  0.98177500  0.26484900  0.35708400  1
  O  O61  1  0.79839800  0.71756900  0.21308100  1
  O  O62  1  0.78546600  0.72987400  0.42840100  1
  O  O63  1  0.76228900  0.98657800  0.19067500  1
  O  O64  1  0.00947500  0.76177600  0.85738000  1
  O  O65  1  0.18011900  0.09472000  0.45817300  1
  O  O66  1  0.78463200  0.46137400  0.46866400  1
  O  O67  1  0.11011100  0.97284700  0.15829200  1
  O  O68  1  0.24200000  0.76705800  0.05900500  1
  O  O69  1  0.02674800  0.47370200  0.90959100  1
  O  O70  1  0.77744600  0.46934000  0.67637500  1
  O  O71  1  0.21453400  0.27012600  0.57159900  1
  O  O72  1  0.70924500  0.99994000  0.40078400  1
  O  O73  1  0.92233300  0.53073400  0.31271300  1
  O  O74  1  0.25541500  0.26845300  0.33707200  1
  O  O75  1  0.21128400  0.57409700  0.96911600  1
  O  O76  1  0.82124300  0.54996000  0.82973800  1
  O  O77  1  0.22794300  0.79480400  0.27125600  1
  O  O78  1  0.81988100  0.90528000  0.54182700  1
  O  O79  1  0.09500100  0.72591500  0.43104700  1
  O  O80  1  0.99092700  0.00600800  0.62028100  1
  O  O81  1  0.29075500  0.00006000  0.59921600  1
  O  O82  1  0.07766700  0.46926600  0.68728700  1
  O  O83  1  0.99052500  0.23822400  0.14262000  1
