# generated using pymatgen
data_In2TeO6
_symmetry_space_group_name_H-M   'P 1'
_cell_length_a   9.05660835
_cell_length_b   9.05660835
_cell_length_c   4.90079500
_cell_angle_alpha   90.00000000
_cell_angle_beta   90.00000000
_cell_angle_gamma   120.00000253
_symmetry_Int_Tables_number   1
_chemical_formula_structural   In2TeO6
_chemical_formula_sum   'In6 Te3 O18'
_cell_volume   348.11948399
_cell_formula_units_Z   3
loop_
 _symmetry_equiv_pos_site_id
 _symmetry_equiv_pos_as_xyz
  1  'x, y, z'
loop_
 _atom_site_type_symbol
 _atom_site_label
 _atom_site_symmetry_multiplicity
 _atom_site_fract_x
 _atom_site_fract_y
 _atom_site_fract_z
 _atom_site_occupancy
  In  In0  1  0.63212000  0.00000000  0.00000000  1
  In  In1  1  0.00000000  0.63212000  0.00000000  1
  In  In2  1  0.36788000  0.36788000  0.00000000  1
  In  In3  1  0.29493600  0.00000000  0.50000000  1
  In  In4  1  0.00000000  0.29493600  0.50000000  1
  In  In5  1  0.70506400  0.70506400  0.50000000  1
  Te  Te6  1  0.00000000  0.00000000  0.00000000  1
  Te  Te7  1  0.33333300  0.66666700  0.51355100  1
  Te  Te8  1  0.66666700  0.33333300  0.48644900  1
  O  O9  1  0.08651900  0.88065000  0.78003900  1
  O  O10  1  0.11935000  0.20586900  0.78003900  1
  O  O11  1  0.79413100  0.91348100  0.78003900  1
  O  O12  1  0.20586900  0.11935000  0.21996100  1
  O  O13  1  0.91348100  0.79413100  0.21996100  1
  O  O14  1  0.88065000  0.08651900  0.21996100  1
  O  O15  1  0.46103900  0.58965100  0.73780100  1
  O  O16  1  0.41034900  0.87138700  0.73780100  1
  O  O17  1  0.12861300  0.53896100  0.73780100  1
  O  O18  1  0.87138700  0.41034900  0.26219900  1
  O  O19  1  0.53896100  0.12861300  0.26219900  1
  O  O20  1  0.58965100  0.46103900  0.26219900  1
  O  O21  1  0.22041400  0.76034400  0.28950500  1
  O  O22  1  0.23965600  0.46007000  0.28950500  1
  O  O23  1  0.53993000  0.77958600  0.28950500  1
  O  O24  1  0.46007000  0.23965600  0.71049500  1
  O  O25  1  0.77958600  0.53993000  0.71049500  1
  O  O26  1  0.76034400  0.22041400  0.71049500  1
