# generated using pymatgen
data_Pr3CuSiS7
_symmetry_space_group_name_H-M   'P 1'
_cell_length_a   10.28199983
_cell_length_b   10.28199983
_cell_length_c   5.79820300
_cell_angle_alpha   90.00000000
_cell_angle_beta   90.00000000
_cell_angle_gamma   119.99999888
_symmetry_Int_Tables_number   1
_chemical_formula_structural   Pr3CuSiS7
_chemical_formula_sum   'Pr6 Cu2 Si2 S14'
_cell_volume   530.85906428
_cell_formula_units_Z   2
loop_
 _symmetry_equiv_pos_site_id
 _symmetry_equiv_pos_as_xyz
  1  'x, y, z'
loop_
 _atom_site_type_symbol
 _atom_site_label
 _atom_site_symmetry_multiplicity
 _atom_site_fract_x
 _atom_site_fract_y
 _atom_site_fract_z
 _atom_site_occupancy
  Pr  Pr0  1  0.12376400  0.35668300  0.73094300  1
  Pr  Pr1  1  0.76708100  0.12376400  0.23094300  1
  Pr  Pr2  1  0.23291900  0.87623600  0.73094300  1
  Pr  Pr3  1  0.35668300  0.23291900  0.23094300  1
  Pr  Pr4  1  0.64331700  0.76708100  0.73094300  1
  Pr  Pr5  1  0.87623600  0.64331700  0.23094300  1
  Cu  Cu6  1  0.00000000  0.00000000  0.21565800  1
  Cu  Cu7  1  0.00000000  0.00000000  0.71565800  1
  Si  Si8  1  0.66666700  0.33333300  0.81636100  1
  Si  Si9  1  0.33333300  0.66666700  0.31636100  1
  S  S10  1  0.47552500  0.88615700  0.45850300  1
  S  S11  1  0.11384300  0.58936900  0.45850300  1
  S  S12  1  0.66666700  0.33333300  0.45193700  1
  S  S13  1  0.08581900  0.25016500  0.22165900  1
  S  S14  1  0.41063100  0.52447400  0.45850300  1
  S  S15  1  0.33333300  0.66666700  0.95193700  1
  S  S16  1  0.88615700  0.41063100  0.95850300  1
  S  S17  1  0.91418100  0.74983500  0.72165900  1
  S  S18  1  0.16434700  0.91418100  0.22165900  1
  S  S19  1  0.58936900  0.47552500  0.95850300  1
  S  S20  1  0.74983500  0.83565300  0.22165900  1
  S  S21  1  0.52447400  0.11384300  0.95850300  1
  S  S22  1  0.25016500  0.16434700  0.72165900  1
  S  S23  1  0.83565300  0.08581900  0.72165900  1
