# generated using pymatgen
data_NaNb3(TeO4)4
_symmetry_space_group_name_H-M   'P 1'
_cell_length_a   7.55558600
_cell_length_b   6.71265000
_cell_length_c   14.42705257
_cell_angle_alpha   77.91133187
_cell_angle_beta   90.00000000
_cell_angle_gamma   90.00000000
_symmetry_Int_Tables_number   1
_chemical_formula_structural   NaNb3(TeO4)4
_chemical_formula_sum   'Na2 Nb6 Te8 O32'
_cell_volume   715.48537945
_cell_formula_units_Z   2
loop_
 _symmetry_equiv_pos_site_id
 _symmetry_equiv_pos_as_xyz
  1  'x, y, z'
loop_
 _atom_site_type_symbol
 _atom_site_label
 _atom_site_symmetry_multiplicity
 _atom_site_fract_x
 _atom_site_fract_y
 _atom_site_fract_z
 _atom_site_occupancy
  Na  Na0  1  0.50000000  0.50000000  0.50000000  1
  Na  Na1  1  0.00000000  0.50000000  0.50000000  1
  Nb  Nb2  1  0.49978700  0.07699000  0.72640500  1
  Nb  Nb3  1  0.00021300  0.07699000  0.72640500  1
  Nb  Nb4  1  0.50021300  0.92301000  0.27359500  1
  Nb  Nb5  1  0.50000000  0.00000000  0.00000000  1
  Nb  Nb6  1  0.99978700  0.92301000  0.27359500  1
  Nb  Nb7  1  0.00000000  0.00000000  0.00000000  1
  Te  Te8  1  0.25000000  0.48923300  0.99929100  1
  Te  Te9  1  0.25000000  0.59567700  0.72128800  1
  Te  Te10  1  0.75000000  0.05253900  0.50170500  1
  Te  Te11  1  0.75000000  0.57431700  0.71060800  1
  Te  Te12  1  0.75000000  0.51076700  0.00070900  1
  Te  Te13  1  0.25000000  0.94746100  0.49829500  1
  Te  Te14  1  0.25000000  0.42568300  0.28939200  1
  Te  Te15  1  0.75000000  0.40432300  0.27871200  1
  O  O16  1  0.25000000  0.00980700  0.26097600  1
  O  O17  1  0.56081500  0.37900700  0.70500400  1
  O  O18  1  0.44645900  0.78102300  0.71799900  1
  O  O19  1  0.25000000  0.31208700  0.41896300  1
  O  O20  1  0.25000000  0.14335600  0.68918500  1
  O  O21  1  0.75000000  0.38745400  0.12748600  1
  O  O22  1  0.75000000  0.68791300  0.58103700  1
  O  O23  1  0.05354100  0.78102300  0.71799900  1
  O  O24  1  0.75000000  0.34607800  0.42302900  1
  O  O25  1  0.53312700  0.95257800  0.14210400  1
  O  O26  1  0.94645900  0.21897700  0.28200100  1
  O  O27  1  0.05753000  0.87658800  0.42594500  1
  O  O28  1  0.03312700  0.04742200  0.85789600  1
  O  O29  1  0.43918500  0.62099300  0.29499600  1
  O  O30  1  0.75000000  0.85664400  0.31081500  1
  O  O31  1  0.75000000  0.99019300  0.73902400  1
  O  O32  1  0.93918500  0.37900700  0.70500400  1
  O  O33  1  0.46687300  0.04742200  0.85789600  1
  O  O34  1  0.44068000  0.29699500  0.99505100  1
  O  O35  1  0.94247000  0.12341200  0.57405500  1
  O  O36  1  0.94068000  0.70300500  0.00494900  1
  O  O37  1  0.25000000  0.61254600  0.87251400  1
  O  O38  1  0.75000000  0.07971900  0.98090500  1
  O  O39  1  0.44247000  0.87658800  0.42594500  1
  O  O40  1  0.25000000  0.65392200  0.57697100  1
  O  O41  1  0.05932000  0.29699500  0.99505100  1
  O  O42  1  0.55753000  0.12341200  0.57405500  1
  O  O43  1  0.55932000  0.70300500  0.00494900  1
  O  O44  1  0.25000000  0.92028100  0.01909500  1
  O  O45  1  0.06081500  0.62099300  0.29499600  1
  O  O46  1  0.96687300  0.95257800  0.14210400  1
  O  O47  1  0.55354100  0.21897700  0.28200100  1
