# generated using pymatgen
data_Tm2Mn3Si5
_symmetry_space_group_name_H-M   'P 1'
_cell_length_a   10.52899000
_cell_length_b   10.52899000
_cell_length_c   5.36936200
_cell_angle_alpha   90.00000000
_cell_angle_beta   90.00000000
_cell_angle_gamma   90.00000000
_symmetry_Int_Tables_number   1
_chemical_formula_structural   Tm2Mn3Si5
_chemical_formula_sum   'Tm8 Mn12 Si20'
_cell_volume   595.24548691
_cell_formula_units_Z   4
loop_
 _symmetry_equiv_pos_site_id
 _symmetry_equiv_pos_as_xyz
  1  'x, y, z'
loop_
 _atom_site_type_symbol
 _atom_site_label
 _atom_site_symmetry_multiplicity
 _atom_site_fract_x
 _atom_site_fract_y
 _atom_site_fract_z
 _atom_site_occupancy
  Tm  Tm0  1  0.23612600  0.07606500  0.00000000  1
  Tm  Tm1  1  0.07606500  0.76387400  0.00000000  1
  Tm  Tm2  1  0.92393500  0.23612600  0.00000000  1
  Tm  Tm3  1  0.76387400  0.92393500  0.00000000  1
  Tm  Tm4  1  0.26387400  0.57606500  0.50000000  1
  Tm  Tm5  1  0.73612600  0.42393500  0.50000000  1
  Tm  Tm6  1  0.57606500  0.73612600  0.50000000  1
  Tm  Tm7  1  0.42393500  0.26387400  0.50000000  1
  Mn  Mn8  1  0.50000000  0.00000000  0.25000000  1
  Mn  Mn9  1  0.00000000  0.50000000  0.25000000  1
  Mn  Mn10  1  0.50000000  0.00000000  0.75000000  1
  Mn  Mn11  1  0.00000000  0.50000000  0.75000000  1
  Mn  Mn12  1  0.35407800  0.37857400  0.00000000  1
  Mn  Mn13  1  0.37857400  0.64592200  0.00000000  1
  Mn  Mn14  1  0.62142600  0.35407800  0.00000000  1
  Mn  Mn15  1  0.64592200  0.62142600  0.00000000  1
  Mn  Mn16  1  0.14592200  0.87857400  0.50000000  1
  Mn  Mn17  1  0.85407800  0.12142600  0.50000000  1
  Mn  Mn18  1  0.87857400  0.85407800  0.50000000  1
  Mn  Mn19  1  0.12142600  0.14592200  0.50000000  1
  Si  Si20  1  0.00000000  0.00000000  0.25540400  1
  Si  Si21  1  0.50000000  0.50000000  0.24459600  1
  Si  Si22  1  0.00000000  0.00000000  0.74459600  1
  Si  Si23  1  0.50000000  0.50000000  0.75540400  1
  Si  Si24  1  0.67449700  0.17449700  0.25000000  1
  Si  Si25  1  0.17449700  0.32550300  0.25000000  1
  Si  Si26  1  0.82550300  0.67449700  0.25000000  1
  Si  Si27  1  0.32550300  0.82550300  0.25000000  1
  Si  Si28  1  0.32550300  0.82550300  0.75000000  1
  Si  Si29  1  0.82550300  0.67449700  0.75000000  1
  Si  Si30  1  0.17449700  0.32550300  0.75000000  1
  Si  Si31  1  0.67449700  0.17449700  0.75000000  1
  Si  Si32  1  0.47453000  0.18556900  0.00000000  1
  Si  Si33  1  0.18556900  0.52547000  0.00000000  1
  Si  Si34  1  0.81443100  0.47453000  0.00000000  1
  Si  Si35  1  0.52547000  0.81443100  0.00000000  1
  Si  Si36  1  0.02547000  0.68556900  0.50000000  1
  Si  Si37  1  0.97453000  0.31443100  0.50000000  1
  Si  Si38  1  0.68556900  0.97453000  0.50000000  1
  Si  Si39  1  0.31443100  0.02547000  0.50000000  1
