# generated using pymatgen
data_EuCu(MoO4)2
_symmetry_space_group_name_H-M   'P 1'
_cell_length_a   10.06501961
_cell_length_b   10.58264942
_cell_length_c   15.07684641
_cell_angle_alpha   90.00000000
_cell_angle_beta   90.00000000
_cell_angle_gamma   90.00000000
_symmetry_Int_Tables_number   1
_chemical_formula_structural   EuCu(MoO4)2
_chemical_formula_sum   'Eu8 Cu8 Mo16 O64'
_cell_volume   1605.90387169
_cell_formula_units_Z   8
loop_
 _symmetry_equiv_pos_site_id
 _symmetry_equiv_pos_as_xyz
  1  'x, y, z'
loop_
 _atom_site_type_symbol
 _atom_site_label
 _atom_site_symmetry_multiplicity
 _atom_site_fract_x
 _atom_site_fract_y
 _atom_site_fract_z
 _atom_site_occupancy
  Eu  Eu0  1  0.27553527  0.96628195  0.39846737  1
  Eu  Eu1  1  0.77553527  0.53371805  0.39846737  1
  Eu  Eu2  1  0.77553527  0.03371805  0.10153263  1
  Eu  Eu3  1  0.72446473  0.53371805  0.89846737  1
  Eu  Eu4  1  0.22446473  0.96628195  0.89846737  1
  Eu  Eu5  1  0.27553527  0.46628195  0.10153263  1
  Eu  Eu6  1  0.22446473  0.46628195  0.60153263  1
  Eu  Eu7  1  0.72446473  0.03371805  0.60153263  1
  Cu  Cu8  1  0.19765166  0.81611749  0.70044938  1
  Cu  Cu9  1  0.30234834  0.31611749  0.29955062  1
  Cu  Cu10  1  0.80234834  0.68388251  0.20044938  1
  Cu  Cu11  1  0.69765166  0.18388251  0.79955062  1
  Cu  Cu12  1  0.69765166  0.68388251  0.70044938  1
  Cu  Cu13  1  0.80234834  0.18388251  0.29955062  1
  Cu  Cu14  1  0.19765166  0.31611749  0.79955062  1
  Cu  Cu15  1  0.30234834  0.81611749  0.20044938  1
  Mo  Mo16  1  0.66859091  0.89639390  0.34542338  1
  Mo  Mo17  1  0.33140909  0.60360610  0.84542338  1
  Mo  Mo18  1  0.50040118  0.27757567  0.44348715  1
  Mo  Mo19  1  0.00040118  0.22242433  0.44348715  1
  Mo  Mo20  1  0.49959882  0.72242433  0.55651285  1
  Mo  Mo21  1  0.83140909  0.89639390  0.84542338  1
  Mo  Mo22  1  0.49959882  0.22242433  0.94348715  1
  Mo  Mo23  1  0.00040118  0.72242433  0.05651285  1
  Mo  Mo24  1  0.16859091  0.60360610  0.34542338  1
  Mo  Mo25  1  0.99959882  0.27757567  0.94348715  1
  Mo  Mo26  1  0.16859091  0.10360610  0.15457662  1
  Mo  Mo27  1  0.33140909  0.10360610  0.65457662  1
  Mo  Mo28  1  0.99959882  0.77757567  0.55651285  1
  Mo  Mo29  1  0.66859091  0.39639390  0.15457662  1
  Mo  Mo30  1  0.83140909  0.39639390  0.65457662  1
  Mo  Mo31  1  0.50040118  0.77757567  0.05651285  1
  O  O32  1  0.40308673  0.11663199  0.87682334  1
  O  O33  1  0.49386420  0.90997079  0.33280185  1
  O  O34  1  0.74791307  0.01436013  0.77539612  1
  O  O35  1  0.75208693  0.51436013  0.22460388  1
  O  O36  1  0.58969924  0.13608751  0.02491476  1
  O  O37  1  0.79060121  0.42066120  0.54179356  1
  O  O38  1  0.61542063  0.80973159  0.63138778  1
  O  O39  1  0.75208693  0.01436013  0.27539612  1
  O  O40  1  0.29060121  0.57933880  0.95820644  1
  O  O41  1  0.10782149  0.83369620  0.00525519  1
  O  O42  1  0.09691327  0.11663199  0.37682334  1
  O  O43  1  0.11542063  0.69026841  0.63138778  1
  O  O44  1  0.60782149  0.66630380  0.00525519  1
  O  O45  1  0.24791307  0.98563987  0.72460388  1
  O  O46  1  0.50613580  0.59002921  0.83280185  1
  O  O47  1  0.89217851  0.16630380  0.99474481  1
  O  O48  1  0.72727382  0.23872804  0.18551868  1
  O  O49  1  0.70939879  0.92066120  0.45820644  1
  O  O50  1  0.88457937  0.80973159  0.13138778  1
  O  O51  1  0.79060121  0.92066120  0.95820644  1
  O  O52  1  0.90308673  0.88336801  0.62317666  1
  O  O53  1  0.25208693  0.48563987  0.27539612  1
  O  O54  1  0.38457937  0.19026841  0.36861222  1
  O  O55  1  0.59691327  0.88336801  0.12317666  1
  O  O56  1  0.09691327  0.61663199  0.12317666  1
  O  O57  1  0.41030076  0.36391249  0.52491476  1
  O  O58  1  0.08969924  0.86391249  0.47508524  1
  O  O59  1  0.25208693  0.98563987  0.22460388  1
  O  O60  1  0.99386420  0.59002921  0.33280185  1
  O  O61  1  0.58969924  0.63608751  0.47508524  1
  O  O62  1  0.61542063  0.30973159  0.86861222  1
  O  O63  1  0.99386420  0.09002921  0.16719815  1
  O  O64  1  0.91030076  0.63608751  0.97508524  1
  O  O65  1  0.91030076  0.13608751  0.52491476  1
  O  O66  1  0.27272618  0.76127196  0.81448132  1
  O  O67  1  0.08969924  0.36391249  0.02491476  1
  O  O68  1  0.40308673  0.61663199  0.62317666  1
  O  O69  1  0.60782149  0.16630380  0.49474481  1
  O  O70  1  0.10782149  0.33369620  0.49474481  1
  O  O71  1  0.00613580  0.90997079  0.83280185  1
  O  O72  1  0.70939879  0.42066120  0.04179356  1
  O  O73  1  0.39217851  0.33369620  0.99474481  1
  O  O74  1  0.24791307  0.48563987  0.77539612  1
  O  O75  1  0.00613580  0.40997079  0.66719815  1
  O  O76  1  0.88457937  0.30973159  0.36861222  1
  O  O77  1  0.38457937  0.69026841  0.13138778  1
  O  O78  1  0.90308673  0.38336801  0.87682334  1
  O  O79  1  0.72727382  0.73872804  0.31448132  1
  O  O80  1  0.22727382  0.26127196  0.18551868  1
  O  O81  1  0.49386420  0.40997079  0.16719815  1
  O  O82  1  0.77272618  0.23872804  0.68551868  1
  O  O83  1  0.89217851  0.66630380  0.50525519  1
  O  O84  1  0.22727382  0.76127196  0.31448132  1
  O  O85  1  0.74791307  0.51436013  0.72460388  1
  O  O86  1  0.20939879  0.57933880  0.45820644  1
  O  O87  1  0.20939879  0.07933880  0.04179356  1
  O  O88  1  0.77272618  0.73872804  0.81448132  1
  O  O89  1  0.59691327  0.38336801  0.37682334  1
  O  O90  1  0.39217851  0.83369620  0.50525519  1
  O  O91  1  0.11542063  0.19026841  0.86861222  1
  O  O92  1  0.27272618  0.26127196  0.68551868  1
  O  O93  1  0.29060121  0.07933880  0.54179356  1
  O  O94  1  0.50613580  0.09002921  0.66719815  1
  O  O95  1  0.41030076  0.86391249  0.97508524  1
