# generated using pymatgen
data_BaZr(BO3)2
_symmetry_space_group_name_H-M   'P 1'
_cell_length_a   11.95031483
_cell_length_b   11.95031483
_cell_length_c   11.95031481
_cell_angle_alpha   25.24661982
_cell_angle_beta   25.24661982
_cell_angle_gamma   25.24662069
_symmetry_Int_Tables_number   1
_chemical_formula_structural   BaZr(BO3)2
_chemical_formula_sum   'Ba2 Zr2 B4 O12'
_cell_volume   273.21452339
_cell_formula_units_Z   2
loop_
 _symmetry_equiv_pos_site_id
 _symmetry_equiv_pos_as_xyz
  1  'x, y, z'
loop_
 _atom_site_type_symbol
 _atom_site_label
 _atom_site_symmetry_multiplicity
 _atom_site_fract_x
 _atom_site_fract_y
 _atom_site_fract_z
 _atom_site_occupancy
  Ba  Ba0  1  0.75000000  0.75000000  0.75000000  1
  Ba  Ba1  1  0.25000000  0.25000000  0.25000000  1
  Zr  Zr2  1  0.00000000  0.00000000  0.00000000  1
  Zr  Zr3  1  0.50000000  0.50000000  0.50000000  1
  B  B4  1  0.63111100  0.63111100  0.63111100  1
  B  B5  1  0.86888900  0.86888900  0.86888900  1
  B  B6  1  0.36888900  0.36888900  0.36888900  1
  B  B7  1  0.13111100  0.13111100  0.13111100  1
  O  O8  1  0.33672400  0.83207400  0.22192400  1
  O  O9  1  0.33207400  0.83672400  0.72192400  1
  O  O10  1  0.16327600  0.27807600  0.66792600  1
  O  O11  1  0.72192400  0.33207400  0.83672400  1
  O  O12  1  0.66327600  0.16792600  0.77807600  1
  O  O13  1  0.27807600  0.66792600  0.16327600  1
  O  O14  1  0.66792600  0.16327600  0.27807600  1
  O  O15  1  0.83207400  0.22192400  0.33672400  1
  O  O16  1  0.16792600  0.77807600  0.66327600  1
  O  O17  1  0.77807600  0.66327600  0.16792600  1
  O  O18  1  0.22192400  0.33672400  0.83207400  1
  O  O19  1  0.83672400  0.72192400  0.33207400  1
