# generated using pymatgen
data_EuCo8P5
_symmetry_space_group_name_H-M   'P 1'
_cell_length_a   3.53747000
_cell_length_b   9.23875400
_cell_length_c   10.50026000
_cell_angle_alpha   90.00000000
_cell_angle_beta   90.00000000
_cell_angle_gamma   90.00000000
_symmetry_Int_Tables_number   1
_chemical_formula_structural   EuCo8P5
_chemical_formula_sum   'Eu2 Co16 P10'
_cell_volume   343.16755595
_cell_formula_units_Z   2
loop_
 _symmetry_equiv_pos_site_id
 _symmetry_equiv_pos_as_xyz
  1  'x, y, z'
loop_
 _atom_site_type_symbol
 _atom_site_label
 _atom_site_symmetry_multiplicity
 _atom_site_fract_x
 _atom_site_fract_y
 _atom_site_fract_z
 _atom_site_occupancy
  Eu  Eu0  1  0.50000000  0.17795100  0.50000000  1
  Eu  Eu1  1  0.00000000  0.82204900  0.00000000  1
  Co  Co2  1  0.00000000  0.52039500  0.16767000  1
  Co  Co3  1  0.00000000  0.45565600  0.50000000  1
  Co  Co4  1  0.50000000  0.88929500  0.25547000  1
  Co  Co5  1  0.50000000  0.47960500  0.33233000  1
  Co  Co6  1  0.50000000  0.85070400  0.50000000  1
  Co  Co7  1  0.50000000  0.30275100  0.14028100  1
  Co  Co8  1  0.50000000  0.54434400  0.00000000  1
  Co  Co9  1  0.00000000  0.69724900  0.64028100  1
  Co  Co10  1  0.00000000  0.14929600  0.00000000  1
  Co  Co11  1  0.00000000  0.69724900  0.35971900  1
  Co  Co12  1  0.50000000  0.47960500  0.66767000  1
  Co  Co13  1  0.50000000  0.30275100  0.85971900  1
  Co  Co14  1  0.00000000  0.11070500  0.24453000  1
  Co  Co15  1  0.50000000  0.88929500  0.74453000  1
  Co  Co16  1  0.00000000  0.52039500  0.83233000  1
  Co  Co17  1  0.00000000  0.11070500  0.75547000  1
  P  P18  1  0.00000000  0.33869300  0.69102000  1
  P  P19  1  0.00000000  0.93378200  0.37974100  1
  P  P20  1  0.00000000  0.38535400  0.00000000  1
  P  P21  1  0.50000000  0.66130700  0.19102000  1
  P  P22  1  0.50000000  0.06621800  0.12025900  1
  P  P23  1  0.50000000  0.66130700  0.80898000  1
  P  P24  1  0.00000000  0.93378200  0.62025900  1
  P  P25  1  0.00000000  0.33869300  0.30898000  1
  P  P26  1  0.50000000  0.61464600  0.50000000  1
  P  P27  1  0.50000000  0.06621800  0.87974100  1
