# generated using pymatgen
data_Ba5P3BrO12
_symmetry_space_group_name_H-M   'P 1'
_cell_length_a   10.52349251
_cell_length_b   10.52349251
_cell_length_c   7.76466400
_cell_angle_alpha   90.00000000
_cell_angle_beta   90.00000000
_cell_angle_gamma   120.00000322
_symmetry_Int_Tables_number   1
_chemical_formula_structural   Ba5P3BrO12
_chemical_formula_sum   'Ba10 P6 Br2 O24'
_cell_volume   744.68580863
_cell_formula_units_Z   2
loop_
 _symmetry_equiv_pos_site_id
 _symmetry_equiv_pos_as_xyz
  1  'x, y, z'
loop_
 _atom_site_type_symbol
 _atom_site_label
 _atom_site_symmetry_multiplicity
 _atom_site_fract_x
 _atom_site_fract_y
 _atom_site_fract_z
 _atom_site_occupancy
  Ba  Ba0  1  0.66666700  0.33333300  0.50048200  1
  Ba  Ba1  1  0.01213100  0.26603000  0.25000000  1
  Ba  Ba2  1  0.26603000  0.25389800  0.75000000  1
  Ba  Ba3  1  0.73397000  0.74610200  0.25000000  1
  Ba  Ba4  1  0.33333300  0.66666700  0.00048200  1
  Ba  Ba5  1  0.98786900  0.73397000  0.75000000  1
  Ba  Ba6  1  0.74610200  0.01213100  0.75000000  1
  Ba  Ba7  1  0.25389800  0.98786900  0.25000000  1
  Ba  Ba8  1  0.33333300  0.66666700  0.49951800  1
  Ba  Ba9  1  0.66666700  0.33333300  0.99951800  1
  P  P10  1  0.62898800  0.03727700  0.25000000  1
  P  P11  1  0.37101200  0.96272300  0.75000000  1
  P  P12  1  0.59171100  0.62898800  0.75000000  1
  P  P13  1  0.03727700  0.40828900  0.75000000  1
  P  P14  1  0.96272300  0.59171100  0.25000000  1
  P  P15  1  0.40828900  0.37101200  0.25000000  1
  Br  Br16  1  0.00000000  0.00000000  0.00000000  1
  Br  Br17  1  0.00000000  0.00000000  0.50000000  1
  O  O18  1  0.35859900  0.27157900  0.08664800  1
  O  O19  1  0.65387000  0.52162200  0.75000000  1
  O  O20  1  0.34613000  0.47837800  0.25000000  1
  O  O21  1  0.58047400  0.46021000  0.25000000  1
  O  O22  1  0.72842100  0.08701900  0.41335200  1
  O  O23  1  0.35859900  0.27157900  0.41335200  1
  O  O24  1  0.53979000  0.12026400  0.25000000  1
  O  O25  1  0.27157900  0.91298100  0.91335200  1
  O  O26  1  0.52162200  0.86775200  0.25000000  1
  O  O27  1  0.08701900  0.35859900  0.58664800  1
  O  O28  1  0.27157900  0.91298100  0.58664800  1
  O  O29  1  0.13224800  0.65387000  0.25000000  1
  O  O30  1  0.91298100  0.64140100  0.41335200  1
  O  O31  1  0.87973600  0.41952600  0.25000000  1
  O  O32  1  0.12026400  0.58047400  0.75000000  1
  O  O33  1  0.64140100  0.72842100  0.91335200  1
  O  O34  1  0.41952600  0.53979000  0.75000000  1
  O  O35  1  0.08701900  0.35859900  0.91335200  1
  O  O36  1  0.46021000  0.87973600  0.75000000  1
  O  O37  1  0.64140100  0.72842100  0.58664800  1
  O  O38  1  0.86775200  0.34613000  0.75000000  1
  O  O39  1  0.72842100  0.08701900  0.08664800  1
  O  O40  1  0.47837800  0.13224800  0.75000000  1
  O  O41  1  0.91298100  0.64140100  0.08664800  1
