# generated using pymatgen
data_K3Np(MoO5)2
_symmetry_space_group_name_H-M   'P 1'
_cell_length_a   7.49409700
_cell_length_b   8.07523188
_cell_length_c   10.45884597
_cell_angle_alpha   91.97630768
_cell_angle_beta   94.26544580
_cell_angle_gamma   109.08517559
_symmetry_Int_Tables_number   1
_chemical_formula_structural   K3Np(MoO5)2
_chemical_formula_sum   'K6 Np2 Mo4 O20'
_cell_volume   595.32425204
_cell_formula_units_Z   2
loop_
 _symmetry_equiv_pos_site_id
 _symmetry_equiv_pos_as_xyz
  1  'x, y, z'
loop_
 _atom_site_type_symbol
 _atom_site_label
 _atom_site_symmetry_multiplicity
 _atom_site_fract_x
 _atom_site_fract_y
 _atom_site_fract_z
 _atom_site_occupancy
  K  K0  1  0.73352300  0.88198300  0.40698900  1
  K  K1  1  0.78776800  0.16283700  0.76589700  1
  K  K2  1  0.26647700  0.11801700  0.59301100  1
  K  K3  1  0.28078100  0.61425200  0.92805900  1
  K  K4  1  0.71921900  0.38574800  0.07194100  1
  K  K5  1  0.21223200  0.83716300  0.23410300  1
  Np  Np6  1  0.85546000  0.70360200  0.73956100  1
  Np  Np7  1  0.14454000  0.29639800  0.26043900  1
  Mo  Mo8  1  0.30292800  0.62905500  0.57485600  1
  Mo  Mo9  1  0.75039100  0.89109400  0.06416300  1
  Mo  Mo10  1  0.69707200  0.37094500  0.42514400  1
  Mo  Mo11  1  0.24960900  0.10890600  0.93583700  1
  O  O12  1  0.10080400  0.08897200  0.34540900  1
  O  O13  1  0.31572100  0.19258100  0.10258100  1
  O  O14  1  0.51473100  0.60950800  0.65668100  1
  O  O15  1  0.46188600  0.11326700  0.86931000  1
  O  O16  1  0.48526900  0.39049200  0.34331900  1
  O  O17  1  0.16334300  0.68581400  0.69315300  1
  O  O18  1  0.89919600  0.91102800  0.65459100  1
  O  O19  1  0.63287300  0.19849400  0.53173500  1
  O  O20  1  0.83665700  0.31418600  0.30684700  1
  O  O21  1  0.83684300  0.74604600  0.15558000  1
  O  O22  1  0.17627700  0.49792500  0.17095000  1
  O  O23  1  0.68427900  0.80741900  0.89741900  1
  O  O24  1  0.82372300  0.50207500  0.82905000  1
  O  O25  1  0.17535600  0.42485500  0.48453500  1
  O  O26  1  0.53811400  0.88673300  0.13069000  1
  O  O27  1  0.91323500  0.11788100  0.08139000  1
  O  O28  1  0.16315700  0.25395400  0.84442000  1
  O  O29  1  0.82464400  0.57514500  0.51546500  1
  O  O30  1  0.36712700  0.80150600  0.46826500  1
  O  O31  1  0.08676500  0.88211900  0.91861000  1
