# generated using pymatgen
data_VAsO5
_symmetry_space_group_name_H-M   'P 1'
_cell_length_a   6.43858000
_cell_length_b   7.50109200
_cell_length_c   7.98035500
_cell_angle_alpha   90.00000000
_cell_angle_beta   90.00000000
_cell_angle_gamma   90.00000000
_symmetry_Int_Tables_number   1
_chemical_formula_structural   VAsO5
_chemical_formula_sum   'V4 As4 O20'
_cell_volume   385.42226503
_cell_formula_units_Z   4
loop_
 _symmetry_equiv_pos_site_id
 _symmetry_equiv_pos_as_xyz
  1  'x, y, z'
loop_
 _atom_site_type_symbol
 _atom_site_label
 _atom_site_symmetry_multiplicity
 _atom_site_fract_x
 _atom_site_fract_y
 _atom_site_fract_z
 _atom_site_occupancy
  V  V0  1  0.25000000  0.73486400  0.16960700  1
  V  V1  1  0.75000000  0.23486400  0.33039300  1
  V  V2  1  0.25000000  0.76513600  0.66960700  1
  V  V3  1  0.75000000  0.26513600  0.83039300  1
  As  As4  1  0.75000000  0.61490900  0.12125100  1
  As  As5  1  0.25000000  0.11490900  0.37874900  1
  As  As6  1  0.75000000  0.88509100  0.62125100  1
  As  As7  1  0.25000000  0.38509100  0.87874900  1
  O  O8  1  0.25000000  0.50394500  0.06234400  1
  O  O9  1  0.75000000  0.16975700  0.13745200  1
  O  O10  1  0.54120600  0.75559900  0.12153200  1
  O  O11  1  0.95879400  0.75559900  0.12153200  1
  O  O12  1  0.25000000  0.98453400  0.19967700  1
  O  O13  1  0.75000000  0.48453400  0.30032300  1
  O  O14  1  0.04120600  0.25559900  0.37846800  1
  O  O15  1  0.45879400  0.25559900  0.37846800  1
  O  O16  1  0.25000000  0.66975700  0.36254800  1
  O  O17  1  0.75000000  0.00394500  0.43765600  1
  O  O18  1  0.25000000  0.99605500  0.56234400  1
  O  O19  1  0.75000000  0.33024300  0.63745200  1
  O  O20  1  0.54120600  0.74440100  0.62153200  1
  O  O21  1  0.95879400  0.74440100  0.62153200  1
  O  O22  1  0.25000000  0.51546600  0.69967700  1
  O  O23  1  0.75000000  0.01546600  0.80032300  1
  O  O24  1  0.04120600  0.24440100  0.87846800  1
  O  O25  1  0.45879400  0.24440100  0.87846800  1
  O  O26  1  0.25000000  0.83024300  0.86254800  1
  O  O27  1  0.75000000  0.49605500  0.93765600  1
