# generated using pymatgen
data_Ti5Re24
_symmetry_space_group_name_H-M   'P 1'
_cell_length_a   8.35951632
_cell_length_b   8.35951632
_cell_length_c   8.35951632
_cell_angle_alpha   109.47122063
_cell_angle_beta   109.47122063
_cell_angle_gamma   109.47122063
_symmetry_Int_Tables_number   1
_chemical_formula_structural   Ti5Re24
_chemical_formula_sum   'Ti5 Re24'
_cell_volume   449.69862513
_cell_formula_units_Z   1
loop_
 _symmetry_equiv_pos_site_id
 _symmetry_equiv_pos_as_xyz
  1  'x, y, z'
loop_
 _atom_site_type_symbol
 _atom_site_label
 _atom_site_symmetry_multiplicity
 _atom_site_fract_x
 _atom_site_fract_y
 _atom_site_fract_z
 _atom_site_occupancy
  Ti  Ti0  1  0.00000000  0.00000000  0.00000000  1
  Ti  Ti1  1  0.63230300  0.00000000  0.00000000  1
  Ti  Ti2  1  0.00000000  0.63230300  0.00000000  1
  Ti  Ti3  1  0.00000000  0.00000000  0.63230300  1
  Ti  Ti4  1  0.36769700  0.36769700  0.36769700  1
  Re  Re5  1  0.39881100  0.68150300  0.00000000  1
  Re  Re6  1  0.71730800  0.31849700  0.31849700  1
  Re  Re7  1  0.39881100  0.00000000  0.68150300  1
  Re  Re8  1  0.68150300  0.39881100  0.00000000  1
  Re  Re9  1  0.00000000  0.39881100  0.68150300  1
  Re  Re10  1  0.31849700  0.71730800  0.31849700  1
  Re  Re11  1  0.31849700  0.31849700  0.71730800  1
  Re  Re12  1  0.00000000  0.68150300  0.39881100  1
  Re  Re13  1  0.68150300  0.00000000  0.39881100  1
  Re  Re14  1  0.60118900  0.60118900  0.28269200  1
  Re  Re15  1  0.28269200  0.60118900  0.60118900  1
  Re  Re16  1  0.60118900  0.28269200  0.60118900  1
  Re  Re17  1  0.37488400  0.19318900  0.00000000  1
  Re  Re18  1  0.18169500  0.80681100  0.80681100  1
  Re  Re19  1  0.37488400  0.00000000  0.19318900  1
  Re  Re20  1  0.19318900  0.37488400  0.00000000  1
  Re  Re21  1  0.00000000  0.37488400  0.19318900  1
  Re  Re22  1  0.80681100  0.18169500  0.80681100  1
  Re  Re23  1  0.80681100  0.80681100  0.18169500  1
  Re  Re24  1  0.00000000  0.19318900  0.37488400  1
  Re  Re25  1  0.19318900  0.00000000  0.37488400  1
  Re  Re26  1  0.62511600  0.62511600  0.81830500  1
  Re  Re27  1  0.81830500  0.62511600  0.62511600  1
  Re  Re28  1  0.62511600  0.81830500  0.62511600  1
