# generated using pymatgen
data_ReO2F3
_symmetry_space_group_name_H-M   'P 1'
_cell_length_a   7.74579232
_cell_length_b   7.74579232
_cell_length_c   13.87851600
_cell_angle_alpha   90.00000000
_cell_angle_beta   90.00000000
_cell_angle_gamma   95.33161811
_symmetry_Int_Tables_number   1
_chemical_formula_structural   ReO2F3
_chemical_formula_sum   'Re8 O16 F24'
_cell_volume   829.07096928
_cell_formula_units_Z   8
loop_
 _symmetry_equiv_pos_site_id
 _symmetry_equiv_pos_as_xyz
  1  'x, y, z'
loop_
 _atom_site_type_symbol
 _atom_site_label
 _atom_site_symmetry_multiplicity
 _atom_site_fract_x
 _atom_site_fract_y
 _atom_site_fract_z
 _atom_site_occupancy
  Re  Re0  1  0.23898300  0.76101700  0.50000000  1
  Re  Re1  1  0.73898300  0.26101700  0.00000000  1
  Re  Re2  1  0.66836800  0.66836800  0.67633700  1
  Re  Re3  1  0.76101700  0.23898300  0.50000000  1
  Re  Re4  1  0.83163200  0.83163200  0.17633700  1
  Re  Re5  1  0.26101700  0.73898300  0.00000000  1
  Re  Re6  1  0.16836800  0.16836800  0.82366300  1
  Re  Re7  1  0.33163200  0.33163200  0.32366300  1
  O  O8  1  0.15332500  0.38487200  0.26266900  1
  O  O9  1  0.92361000  0.21450300  0.58022700  1
  O  O10  1  0.84667500  0.61512800  0.73733100  1
  O  O11  1  0.65332500  0.88487200  0.23733100  1
  O  O12  1  0.42361000  0.71450300  0.91977300  1
  O  O13  1  0.61512800  0.84667500  0.73733100  1
  O  O14  1  0.07639000  0.78549700  0.41977300  1
  O  O15  1  0.21450300  0.92361000  0.58022700  1
  O  O16  1  0.71450300  0.42361000  0.91977300  1
  O  O17  1  0.34667500  0.11512800  0.76266900  1
  O  O18  1  0.78549700  0.07639000  0.41977300  1
  O  O19  1  0.88487200  0.65332500  0.23733100  1
  O  O20  1  0.11512800  0.34667500  0.76266900  1
  O  O21  1  0.38487200  0.15332500  0.26266900  1
  O  O22  1  0.28549700  0.57639000  0.08022700  1
  O  O23  1  0.57639000  0.28549700  0.08022700  1
  F  F24  1  0.78490000  0.78490000  0.57331200  1
  F  F25  1  0.68744200  0.45564500  0.58009500  1
  F  F26  1  0.81255800  0.04435500  0.08009500  1
  F  F27  1  0.42074100  0.87035600  0.42726400  1
  F  F28  1  0.99484600  0.99484600  0.23221200  1
  F  F29  1  0.49484600  0.49484600  0.26778800  1
  F  F30  1  0.21510000  0.21510000  0.42668800  1
  F  F31  1  0.37035600  0.92074100  0.07273600  1
  F  F32  1  0.87035600  0.42074100  0.42726400  1
  F  F33  1  0.07925900  0.62964400  0.92726400  1
  F  F34  1  0.28490000  0.28490000  0.92668800  1
  F  F35  1  0.00515400  0.00515400  0.76778800  1
  F  F36  1  0.54435500  0.31255800  0.41990500  1
  F  F37  1  0.50515400  0.50515400  0.73221200  1
  F  F38  1  0.18744200  0.95564500  0.91990500  1
  F  F39  1  0.12964400  0.57925900  0.57273600  1
  F  F40  1  0.92074100  0.37035600  0.07273600  1
  F  F41  1  0.95564500  0.18744200  0.91990500  1
  F  F42  1  0.71510000  0.71510000  0.07331200  1
  F  F43  1  0.45564500  0.68744200  0.58009500  1
  F  F44  1  0.62964400  0.07925900  0.92726400  1
  F  F45  1  0.57925900  0.12964400  0.57273600  1
  F  F46  1  0.31255800  0.54435500  0.41990500  1
  F  F47  1  0.04435500  0.81255800  0.08009500  1
