# generated using pymatgen
data_Na2TiF6
_symmetry_space_group_name_H-M   'P 1'
_cell_length_a   9.32289706
_cell_length_b   9.32289706
_cell_length_c   5.23774800
_cell_angle_alpha   90.00000000
_cell_angle_beta   90.00000000
_cell_angle_gamma   120.00000754
_symmetry_Int_Tables_number   1
_chemical_formula_structural   Na2TiF6
_chemical_formula_sum   'Na6 Ti3 F18'
_cell_volume   394.25478819
_cell_formula_units_Z   3
loop_
 _symmetry_equiv_pos_site_id
 _symmetry_equiv_pos_as_xyz
  1  'x, y, z'
loop_
 _atom_site_type_symbol
 _atom_site_label
 _atom_site_symmetry_multiplicity
 _atom_site_fract_x
 _atom_site_fract_y
 _atom_site_fract_z
 _atom_site_occupancy
  Na  Na0  1  0.62442800  0.00000000  0.00000000  1
  Na  Na1  1  0.37557200  0.37557200  0.00000000  1
  Na  Na2  1  0.28946100  0.00000000  0.50000000  1
  Na  Na3  1  0.00000000  0.28946100  0.50000000  1
  Na  Na4  1  0.71053900  0.71053900  0.50000000  1
  Na  Na5  1  0.00000000  0.62442800  0.00000000  1
  Ti  Ti6  1  0.66666700  0.33333300  0.50612000  1
  Ti  Ti7  1  0.33333300  0.66666700  0.49388000  1
  Ti  Ti8  1  0.00000000  0.00000000  0.00000000  1
  F  F9  1  0.47414100  0.25339900  0.30078000  1
  F  F10  1  0.19276400  0.10709700  0.79398800  1
  F  F11  1  0.45381800  0.59562100  0.28729400  1
  F  F12  1  0.25339900  0.47414100  0.69922000  1
  F  F13  1  0.14180300  0.54618200  0.28729400  1
  F  F14  1  0.80723600  0.91433300  0.20601200  1
  F  F15  1  0.08566700  0.89290300  0.20601200  1
  F  F16  1  0.91433300  0.80723600  0.79398800  1
  F  F17  1  0.10709700  0.19276400  0.20601200  1
  F  F18  1  0.22074200  0.74660100  0.69922000  1
  F  F19  1  0.89290300  0.08566700  0.79398800  1
  F  F20  1  0.59562100  0.45381800  0.71270600  1
  F  F21  1  0.40437900  0.85819700  0.28729400  1
  F  F22  1  0.77925800  0.52585900  0.30078000  1
  F  F23  1  0.54618200  0.14180300  0.71270600  1
  F  F24  1  0.85819700  0.40437900  0.71270600  1
  F  F25  1  0.74660100  0.22074200  0.30078000  1
  F  F26  1  0.52585900  0.77925800  0.69922000  1
