# generated using pymatgen
data_Eu2I2O
_symmetry_space_group_name_H-M   'P 1'
_cell_length_a   8.13365084
_cell_length_b   8.13365084
_cell_length_c   8.13365084
_cell_angle_alpha   133.36591345
_cell_angle_beta   125.29835474
_cell_angle_gamma   74.66338955
_symmetry_Int_Tables_number   1
_chemical_formula_structural   Eu2I2O
_chemical_formula_sum   'Eu4 I4 O2'
_cell_volume   311.23037702
_cell_formula_units_Z   2
loop_
 _symmetry_equiv_pos_site_id
 _symmetry_equiv_pos_as_xyz
  1  'x, y, z'
loop_
 _atom_site_type_symbol
 _atom_site_label
 _atom_site_symmetry_multiplicity
 _atom_site_fract_x
 _atom_site_fract_y
 _atom_site_fract_z
 _atom_site_occupancy
  Eu  Eu0  1  0.58206000  0.91035200  0.67170800  1
  Eu  Eu1  1  0.76135600  0.58964800  0.17170800  1
  Eu  Eu2  1  0.23864400  0.41035200  0.82829200  1
  Eu  Eu3  1  0.41794000  0.08964800  0.32829200  1
  I  I4  1  0.99855000  0.15010300  0.84844700  1
  I  I5  1  0.30165600  0.65010300  0.65155300  1
  I  I6  1  0.69834400  0.34989700  0.34844700  1
  I  I7  1  0.00145000  0.84989700  0.15155300  1
  O  O8  1  0.50000000  0.75000000  0.25000000  1
  O  O9  1  0.50000000  0.25000000  0.75000000  1
