# generated using pymatgen
data_V2Ge(O2F)2
_symmetry_space_group_name_H-M   'P 1'
_cell_length_a   4.97762600
_cell_length_b   9.14849700
_cell_length_c   9.50379200
_cell_angle_alpha   90.00000000
_cell_angle_beta   90.00000000
_cell_angle_gamma   90.00000000
_symmetry_Int_Tables_number   1
_chemical_formula_structural   V2Ge(O2F)2
_chemical_formula_sum   'V8 Ge4 O16 F8'
_cell_volume   432.78174634
_cell_formula_units_Z   4
loop_
 _symmetry_equiv_pos_site_id
 _symmetry_equiv_pos_as_xyz
  1  'x, y, z'
loop_
 _atom_site_type_symbol
 _atom_site_label
 _atom_site_symmetry_multiplicity
 _atom_site_fract_x
 _atom_site_fract_y
 _atom_site_fract_z
 _atom_site_occupancy
  V  V0  1  0.40421400  0.91598200  0.12977100  1
  V  V1  1  0.59578600  0.08401800  0.87022900  1
  V  V2  1  0.90421400  0.41598200  0.37022900  1
  V  V3  1  0.09578600  0.58401800  0.62977100  1
  V  V4  1  0.40421400  0.58401800  0.12977100  1
  V  V5  1  0.90421400  0.08401800  0.37022900  1
  V  V6  1  0.09578600  0.91598200  0.62977100  1
  V  V7  1  0.59578600  0.41598200  0.87022900  1
  Ge  Ge8  1  0.60459600  0.75000000  0.43812300  1
  Ge  Ge9  1  0.89540400  0.75000000  0.93812300  1
  Ge  Ge10  1  0.10459600  0.25000000  0.06187700  1
  Ge  Ge11  1  0.39540400  0.25000000  0.56187700  1
  O  O12  1  0.71463000  0.90953300  0.99218400  1
  O  O13  1  0.78537000  0.90953300  0.49218400  1
  O  O14  1  0.78537000  0.59046700  0.49218400  1
  O  O15  1  0.20985900  0.75000000  0.02633900  1
  O  O16  1  0.28537000  0.09046700  0.00781600  1
  O  O17  1  0.28537000  0.40953300  0.00781600  1
  O  O18  1  0.95020700  0.75000000  0.75158100  1
  O  O19  1  0.29014100  0.75000000  0.52633900  1
  O  O20  1  0.21463000  0.09046700  0.50781600  1
  O  O21  1  0.54979300  0.75000000  0.25158100  1
  O  O22  1  0.79014100  0.25000000  0.97366100  1
  O  O23  1  0.21463000  0.40953300  0.50781600  1
  O  O24  1  0.71463000  0.59046700  0.99218400  1
  O  O25  1  0.70985900  0.25000000  0.47366100  1
  O  O26  1  0.04979300  0.25000000  0.24841900  1
  O  O27  1  0.45020700  0.25000000  0.74841900  1
  F  F28  1  0.08874100  0.93595200  0.25140200  1
  F  F29  1  0.08874100  0.56404800  0.25140200  1
  F  F30  1  0.91125900  0.43595200  0.74859800  1
  F  F31  1  0.41125900  0.93595200  0.75140200  1
  F  F32  1  0.58874100  0.06404800  0.24859800  1
  F  F33  1  0.58874100  0.43595200  0.24859800  1
  F  F34  1  0.41125900  0.56404800  0.75140200  1
  F  F35  1  0.91125900  0.06404800  0.74859800  1
