# generated using pymatgen
data_Pr10S14O
_symmetry_space_group_name_H-M   'P 1'
_cell_length_a   14.79030791
_cell_length_b   14.79030791
_cell_length_c   14.79030791
_cell_angle_alpha   117.87926436
_cell_angle_beta   117.87926436
_cell_angle_gamma   93.71422785
_symmetry_Int_Tables_number   1
_chemical_formula_structural   Pr10S14O
_chemical_formula_sum   'Pr40 S56 O4'
_cell_volume   2355.77303452
_cell_formula_units_Z   4
loop_
 _symmetry_equiv_pos_site_id
 _symmetry_equiv_pos_as_xyz
  1  'x, y, z'
loop_
 _atom_site_type_symbol
 _atom_site_label
 _atom_site_symmetry_multiplicity
 _atom_site_fract_x
 _atom_site_fract_y
 _atom_site_fract_z
 _atom_site_occupancy
  Pr  Pr0  1  0.38474100  0.11525800  0.00000000  1
  Pr  Pr1  1  0.80028900  0.92639400  0.86126700  1
  Pr  Pr2  1  0.88474100  0.88474100  0.26948300  1
  Pr  Pr3  1  0.30028900  0.43902100  0.87389500  1
  Pr  Pr4  1  0.04959600  0.19915200  0.40538000  1
  Pr  Pr5  1  0.57360600  0.69971100  0.13873300  1
  Pr  Pr6  1  0.94971100  0.32360600  0.63873300  1
  Pr  Pr7  1  0.70040400  0.05084800  0.09462000  1
  Pr  Pr8  1  0.20040400  0.10578400  0.64955600  1
  Pr  Pr9  1  0.17639400  0.55028900  0.36126700  1
  Pr  Pr10  1  0.11525800  0.38474100  0.00000000  1
  Pr  Pr11  1  0.56097900  0.43487300  0.86126700  1
  Pr  Pr12  1  0.94915200  0.04377200  0.64955600  1
  Pr  Pr13  1  0.67639400  0.31512700  0.62610500  1
  Pr  Pr14  1  0.18487300  0.82360600  0.37389500  1
  Pr  Pr15  1  0.89421600  0.54377200  0.09462000  1
  Pr  Pr16  1  0.07360600  0.93487300  0.87389500  1
  Pr  Pr17  1  0.06512700  0.93902100  0.13873300  1
  Pr  Pr18  1  0.54959600  0.14421600  0.85044400  1
  Pr  Pr19  1  0.68902100  0.05028900  0.37389500  1
  Pr  Pr20  1  0.85578400  0.70622800  0.40538000  1
  Pr  Pr21  1  0.39421600  0.29959600  0.35044400  1
  Pr  Pr22  1  0.63474100  0.86525900  0.50000000  1
  Pr  Pr23  1  0.18902100  0.81512700  0.63873300  1
  Pr  Pr24  1  0.86525900  0.36525800  0.23051700  1
  Pr  Pr25  1  0.06097900  0.19971100  0.12610500  1
  Pr  Pr26  1  0.95622800  0.60578400  0.90538000  1
  Pr  Pr27  1  0.30084800  0.45040400  0.59462000  1
  Pr  Pr28  1  0.45622800  0.55084800  0.35044400  1
  Pr  Pr29  1  0.80084800  0.20622800  0.85044400  1
  Pr  Pr30  1  0.35578400  0.95040400  0.14955600  1
  Pr  Pr31  1  0.29377200  0.69915200  0.14955600  1
  Pr  Pr32  1  0.13474100  0.63474100  0.76948300  1
  Pr  Pr33  1  0.44915200  0.79959600  0.90538000  1
  Pr  Pr34  1  0.61525900  0.61525900  0.73051700  1
  Pr  Pr35  1  0.68487300  0.31097900  0.36126700  1
  Pr  Pr36  1  0.36525800  0.13474100  0.50000000  1
  Pr  Pr37  1  0.79377200  0.64421600  0.59462000  1
  Pr  Pr38  1  0.44971100  0.81097900  0.62610500  1
  Pr  Pr39  1  0.56512700  0.42639400  0.12610500  1
  S  S40  1  0.40269500  0.74534300  0.39173500  1
  S  S41  1  0.77255000  0.87500000  0.39755000  1
  S  S42  1  0.13271000  0.41528600  0.64101800  1
  S  S43  1  0.16528600  0.02426800  0.78257600  1
  S  S44  1  0.43891800  0.95914200  0.83448200  1
  S  S45  1  0.20914200  0.18891800  0.33448200  1
  S  S46  1  0.85443600  0.87466000  0.66551800  1
  S  S47  1  0.04085800  0.87534000  0.47977600  1
  S  S48  1  0.35360700  0.01096000  0.60826500  1
  S  S49  1  0.50830900  0.86729000  0.28257600  1
  S  S50  1  0.76096000  0.65269500  0.15735200  1
  S  S51  1  0.47745000  0.37500000  0.60245000  1
  S  S52  1  0.62534000  0.64556400  0.33448200  1
  S  S53  1  0.26096000  0.10360700  0.10826500  1
  S  S54  1  0.61729000  0.83471400  0.85898200  1
  S  S55  1  0.63271000  0.99169100  0.71742400  1
  S  S56  1  0.12534000  0.79085800  0.97977600  1
  S  S57  1  0.99534300  0.15269500  0.89173500  1
  S  S58  1  0.75465700  0.09730500  0.60826500  1
  S  S59  1  0.89556400  0.37534000  0.83448200  1
  S  S60  1  0.97573200  0.75830900  0.14101800  1
  S  S61  1  0.27255000  0.87500000  0.89755000  1
  S  S62  1  0.54085800  0.06108200  0.16551800  1
  S  S63  1  0.62500000  0.22745000  0.10245000  1
  S  S64  1  0.31108200  0.29085800  0.66551800  1
  S  S65  1  0.39556400  0.56108200  0.52022400  1
  S  S66  1  0.35443600  0.68891800  0.97977600  1
  S  S67  1  0.70914200  0.37466000  0.02022400  1
  S  S68  1  0.12500000  0.52255000  0.89755000  1
  S  S69  1  0.81108200  0.14556400  0.02022400  1
  S  S70  1  0.49534300  0.60360700  0.84264800  1
  S  S71  1  0.27426800  0.91528600  0.28257600  1
  S  S72  1  0.58471400  0.22573200  0.71742400  1
  S  S73  1  0.66528600  0.88271000  0.14101800  1
  S  S74  1  0.11729000  0.25830900  0.78257600  1
  S  S75  1  0.12500000  0.02255000  0.39755000  1
  S  S76  1  0.85360700  0.24534300  0.34264800  1
  S  S77  1  0.84730500  0.73904000  0.84264800  1
  S  S78  1  0.62466000  0.45914200  0.52022400  1
  S  S79  1  0.77426800  0.49169100  0.35898200  1
  S  S80  1  0.25465700  0.64639300  0.65735200  1
  S  S81  1  0.39639300  0.23904000  0.89173500  1
  S  S82  1  0.98904000  0.59730500  0.34264800  1
  S  S83  1  0.47573200  0.33471400  0.21742400  1
  S  S84  1  0.93891800  0.10443600  0.47977600  1
  S  S85  1  0.90269500  0.51096000  0.65735200  1
  S  S86  1  0.48904000  0.14639300  0.39173500  1
  S  S87  1  0.34730500  0.50465700  0.10826500  1
  S  S88  1  0.62500000  0.72745000  0.60245000  1
  S  S89  1  0.00830900  0.72573200  0.64101800  1
  S  S90  1  0.24169100  0.38271000  0.21742400  1
  S  S91  1  0.08471400  0.36729000  0.35898200  1
  S  S92  1  0.97745000  0.37500000  0.10245000  1
  S  S93  1  0.12466000  0.60443600  0.16551800  1
  S  S94  1  0.74169100  0.52426800  0.85898200  1
  S  S95  1  0.89639300  0.00465700  0.15735200  1
  O  O96  1  0.25000000  0.75000000  0.50000000  1
  O  O97  1  0.50000000  0.50000000  0.00000000  1
  O  O98  1  0.75000000  0.25000000  0.50000000  1
  O  O99  1  0.00000000  0.00000000  0.00000000  1
