# generated using pymatgen
data_Ba(GaPt)2
_symmetry_space_group_name_H-M   'P 1'
_cell_length_a   6.47047400
_cell_length_b   8.47081200
_cell_length_c   8.68634469
_cell_angle_alpha   82.16889581
_cell_angle_beta   90.00000000
_cell_angle_gamma   90.00000000
_symmetry_Int_Tables_number   1
_chemical_formula_structural   Ba(GaPt)2
_chemical_formula_sum   'Ba4 Ga8 Pt8'
_cell_volume   471.65991878
_cell_formula_units_Z   4
loop_
 _symmetry_equiv_pos_site_id
 _symmetry_equiv_pos_as_xyz
  1  'x, y, z'
loop_
 _atom_site_type_symbol
 _atom_site_label
 _atom_site_symmetry_multiplicity
 _atom_site_fract_x
 _atom_site_fract_y
 _atom_site_fract_z
 _atom_site_occupancy
  Ba  Ba0  1  0.89037200  0.50217100  0.76624500  1
  Ba  Ba1  1  0.39037200  0.99782900  0.23375500  1
  Ba  Ba2  1  0.60962800  0.00217100  0.76624500  1
  Ba  Ba3  1  0.10962800  0.49782900  0.23375500  1
  Ga  Ga4  1  0.84592600  0.80809200  0.44002300  1
  Ga  Ga5  1  0.07861300  0.87421100  0.92405300  1
  Ga  Ga6  1  0.65407400  0.30809200  0.44002300  1
  Ga  Ga7  1  0.15407400  0.19190800  0.55997700  1
  Ga  Ga8  1  0.57861300  0.62578900  0.07594700  1
  Ga  Ga9  1  0.92138700  0.12578900  0.07594700  1
  Ga  Ga10  1  0.34592600  0.69190800  0.55997700  1
  Ga  Ga11  1  0.42138700  0.37421100  0.92405300  1
  Pt  Pt12  1  0.90448600  0.10490100  0.37280000  1
  Pt  Pt13  1  0.09551400  0.89509900  0.62720000  1
  Pt  Pt14  1  0.16948400  0.17342700  0.85359900  1
  Pt  Pt15  1  0.40448600  0.39509900  0.62720000  1
  Pt  Pt16  1  0.33051600  0.67342700  0.85359900  1
  Pt  Pt17  1  0.83051600  0.82657300  0.14640100  1
  Pt  Pt18  1  0.66948400  0.32657300  0.14640100  1
  Pt  Pt19  1  0.59551400  0.60490100  0.37280000  1
