# generated using pymatgen
data_BaZr4(PO4)6
_symmetry_space_group_name_H-M   'P 1'
_cell_length_a   9.53511478
_cell_length_b   9.53511478
_cell_length_c   9.53511512
_cell_angle_alpha   55.32269973
_cell_angle_beta   55.32269973
_cell_angle_gamma   55.32269577
_symmetry_Int_Tables_number   1
_chemical_formula_structural   BaZr4(PO4)6
_chemical_formula_sum   'Ba1 Zr4 P6 O24'
_cell_volume   546.38163896
_cell_formula_units_Z   1
loop_
 _symmetry_equiv_pos_site_id
 _symmetry_equiv_pos_as_xyz
  1  'x, y, z'
loop_
 _atom_site_type_symbol
 _atom_site_label
 _atom_site_symmetry_multiplicity
 _atom_site_fract_x
 _atom_site_fract_y
 _atom_site_fract_z
 _atom_site_occupancy
  Ba  Ba0  1  0.00000000  0.00000000  0.00000000  1
  Zr  Zr1  1  0.35448100  0.35448100  0.35448100  1
  Zr  Zr2  1  0.64551900  0.64551900  0.64551900  1
  Zr  Zr3  1  0.15101100  0.15101100  0.15101100  1
  Zr  Zr4  1  0.84898900  0.84898900  0.84898900  1
  P  P5  1  0.75311700  0.03206000  0.45981300  1
  P  P6  1  0.24688300  0.96794000  0.54018700  1
  P  P7  1  0.03206000  0.45981300  0.75311700  1
  P  P8  1  0.96794000  0.54018700  0.24688300  1
  P  P9  1  0.45981300  0.75311700  0.03206000  1
  P  P10  1  0.54018700  0.24688300  0.96794000  1
  O  O11  1  0.51957400  0.24295800  0.14289700  1
  O  O12  1  0.85710300  0.48042600  0.75704200  1
  O  O13  1  0.37969500  0.21788000  0.99900600  1
  O  O14  1  0.62030500  0.78212000  0.00099400  1
  O  O15  1  0.08426500  0.27989500  0.91251700  1
  O  O16  1  0.24295800  0.14289700  0.51957400  1
  O  O17  1  0.78212000  0.00099400  0.62030500  1
  O  O18  1  0.27989500  0.91251700  0.08426500  1
  O  O19  1  0.55225200  0.43015200  0.81093900  1
  O  O20  1  0.91573500  0.72010500  0.08748300  1
  O  O21  1  0.91251700  0.08426500  0.27989500  1
  O  O22  1  0.72010500  0.08748300  0.91573500  1
  O  O23  1  0.44774800  0.56984800  0.18906100  1
  O  O24  1  0.81093900  0.55225200  0.43015200  1
  O  O25  1  0.08748300  0.91573500  0.72010500  1
  O  O26  1  0.00099400  0.62030500  0.78212000  1
  O  O27  1  0.99900600  0.37969500  0.21788000  1
  O  O28  1  0.56984800  0.18906100  0.44774800  1
  O  O29  1  0.14289700  0.51957400  0.24295800  1
  O  O30  1  0.75704200  0.85710300  0.48042600  1
  O  O31  1  0.21788000  0.99900600  0.37969500  1
  O  O32  1  0.48042600  0.75704200  0.85710300  1
  O  O33  1  0.43015200  0.81093900  0.55225200  1
  O  O34  1  0.18906100  0.44774800  0.56984800  1
