# generated using pymatgen
data_NaMnF3
_symmetry_space_group_name_H-M   'P 1'
_cell_length_a   5.61933100
_cell_length_b   5.83877200
_cell_length_c   8.12376700
_cell_angle_alpha   90.00000000
_cell_angle_beta   90.00000000
_cell_angle_gamma   90.00000000
_symmetry_Int_Tables_number   1
_chemical_formula_structural   NaMnF3
_chemical_formula_sum   'Na4 Mn4 F12'
_cell_volume   266.54073435
_cell_formula_units_Z   4
loop_
 _symmetry_equiv_pos_site_id
 _symmetry_equiv_pos_as_xyz
  1  'x, y, z'
loop_
 _atom_site_type_symbol
 _atom_site_label
 _atom_site_symmetry_multiplicity
 _atom_site_fract_x
 _atom_site_fract_y
 _atom_site_fract_z
 _atom_site_occupancy
  Na  Na0  1  0.48441900  0.94313100  0.25000000  1
  Na  Na1  1  0.98441900  0.55686900  0.75000000  1
  Na  Na2  1  0.01558100  0.44313100  0.25000000  1
  Na  Na3  1  0.51558100  0.05686900  0.75000000  1
  Mn  Mn4  1  0.50000000  0.50000000  0.00000000  1
  Mn  Mn5  1  0.00000000  0.00000000  0.00000000  1
  Mn  Mn6  1  0.00000000  0.00000000  0.50000000  1
  Mn  Mn7  1  0.50000000  0.50000000  0.50000000  1
  F  F8  1  0.61883800  0.55368400  0.25000000  1
  F  F9  1  0.11883800  0.94631600  0.75000000  1
  F  F10  1  0.88116200  0.05368400  0.25000000  1
  F  F11  1  0.38116200  0.44631600  0.75000000  1
  F  F12  1  0.80838200  0.30414500  0.93711100  1
  F  F13  1  0.30838200  0.19585500  0.06288900  1
  F  F14  1  0.69161800  0.80414500  0.56288900  1
  F  F15  1  0.19161800  0.69585500  0.43711100  1
  F  F16  1  0.80838200  0.30414500  0.56288900  1
  F  F17  1  0.30838200  0.19585500  0.43711100  1
  F  F18  1  0.69161800  0.80414500  0.93711100  1
  F  F19  1  0.19161800  0.69585500  0.06288900  1
