# generated using pymatgen
data_LiCaBi
_symmetry_space_group_name_H-M   'P 1'
_cell_length_a   4.72900700
_cell_length_b   7.84102300
_cell_length_c   8.60674500
_cell_angle_alpha   90.00000000
_cell_angle_beta   90.00000000
_cell_angle_gamma   90.00000000
_symmetry_Int_Tables_number   1
_chemical_formula_structural   LiCaBi
_chemical_formula_sum   'Li4 Ca4 Bi4'
_cell_volume   319.14027913
_cell_formula_units_Z   4
loop_
 _symmetry_equiv_pos_site_id
 _symmetry_equiv_pos_as_xyz
  1  'x, y, z'
loop_
 _atom_site_type_symbol
 _atom_site_label
 _atom_site_symmetry_multiplicity
 _atom_site_fract_x
 _atom_site_fract_y
 _atom_site_fract_z
 _atom_site_occupancy
  Li  Li0  1  0.75000000  0.35162900  0.06923700  1
  Li  Li1  1  0.75000000  0.85162900  0.43076300  1
  Li  Li2  1  0.25000000  0.14837100  0.56923700  1
  Li  Li3  1  0.25000000  0.64837100  0.93076300  1
  Ca  Ca4  1  0.25000000  0.01404100  0.19868100  1
  Ca  Ca5  1  0.75000000  0.48595900  0.69868100  1
  Ca  Ca6  1  0.75000000  0.98595900  0.80131900  1
  Ca  Ca7  1  0.25000000  0.51404100  0.30131900  1
  Bi  Bi8  1  0.75000000  0.73288700  0.10388100  1
  Bi  Bi9  1  0.25000000  0.26711300  0.89611900  1
  Bi  Bi10  1  0.25000000  0.76711300  0.60388100  1
  Bi  Bi11  1  0.75000000  0.23288700  0.39611900  1
