# generated using pymatgen
data_Sm3BWO9
_symmetry_space_group_name_H-M   'P 1'
_cell_length_a   8.70907372
_cell_length_b   8.70907372
_cell_length_c   5.52149100
_cell_angle_alpha   90.00000000
_cell_angle_beta   90.00000000
_cell_angle_gamma   119.99999785
_symmetry_Int_Tables_number   1
_chemical_formula_structural   Sm3BWO9
_chemical_formula_sum   'Sm6 B2 W2 O18'
_cell_volume   362.68612621
_cell_formula_units_Z   2
loop_
 _symmetry_equiv_pos_site_id
 _symmetry_equiv_pos_as_xyz
  1  'x, y, z'
loop_
 _atom_site_type_symbol
 _atom_site_label
 _atom_site_symmetry_multiplicity
 _atom_site_fract_x
 _atom_site_fract_y
 _atom_site_fract_z
 _atom_site_occupancy
  Sm  Sm0  1  0.64391500  0.91960800  0.70480900  1
  Sm  Sm1  1  0.91960800  0.27569200  0.20480900  1
  Sm  Sm2  1  0.08039200  0.72430800  0.70480900  1
  Sm  Sm3  1  0.72430800  0.64391500  0.20480900  1
  Sm  Sm4  1  0.35608500  0.08039200  0.20480900  1
  Sm  Sm5  1  0.27569200  0.35608500  0.70480900  1
  B  B6  1  0.00000000  0.00000000  0.37060400  1
  B  B7  1  0.00000000  0.00000000  0.87060400  1
  W  W8  1  0.66666700  0.33333300  0.74841900  1
  W  W9  1  0.33333300  0.66666700  0.24841900  1
  O  O10  1  0.51823000  0.38471300  0.97527800  1
  O  O11  1  0.86648400  0.48177000  0.97527800  1
  O  O12  1  0.53519900  0.73906000  0.04303700  1
  O  O13  1  0.38471300  0.86648400  0.47527800  1
  O  O14  1  0.17758900  0.05020500  0.86200100  1
  O  O15  1  0.94979500  0.12738300  0.86200100  1
  O  O16  1  0.12738300  0.17758900  0.36200100  1
  O  O17  1  0.82241100  0.94979500  0.36200100  1
  O  O18  1  0.46480100  0.26094000  0.54303700  1
  O  O19  1  0.20386100  0.46480100  0.04303700  1
  O  O20  1  0.05020500  0.87261700  0.36200100  1
  O  O21  1  0.87261700  0.82241100  0.86200100  1
  O  O22  1  0.26094000  0.79613900  0.04303700  1
  O  O23  1  0.79613900  0.53519900  0.54303700  1
  O  O24  1  0.13351600  0.51823000  0.47527800  1
  O  O25  1  0.48177000  0.61528700  0.47527800  1
  O  O26  1  0.61528700  0.13351600  0.97527800  1
  O  O27  1  0.73906000  0.20386100  0.54303700  1
