# generated using pymatgen
data_Rb2ZnCl4
_symmetry_space_group_name_H-M   'P 1'
_cell_length_a   7.61299600
_cell_length_b   12.98280900
_cell_length_c   28.19181300
_cell_angle_alpha   90.00000000
_cell_angle_beta   90.00000000
_cell_angle_gamma   90.00000000
_symmetry_Int_Tables_number   1
_chemical_formula_structural   Rb2ZnCl4
_chemical_formula_sum   'Rb24 Zn12 Cl48'
_cell_volume   2786.42447090
_cell_formula_units_Z   12
loop_
 _symmetry_equiv_pos_site_id
 _symmetry_equiv_pos_as_xyz
  1  'x, y, z'
loop_
 _atom_site_type_symbol
 _atom_site_label
 _atom_site_symmetry_multiplicity
 _atom_site_fract_x
 _atom_site_fract_y
 _atom_site_fract_z
 _atom_site_occupancy
  Rb  Rb0  1  0.77391600  0.91969200  0.71180100  1
  Rb  Rb1  1  0.26195700  0.81531700  0.83319300  1
  Rb  Rb2  1  0.27702300  0.68908200  0.66741400  1
  Rb  Rb3  1  0.77702300  0.18908200  0.83258600  1
  Rb  Rb4  1  0.70037600  0.30988400  0.99999400  1
  Rb  Rb5  1  0.77702300  0.31091800  0.33258600  1
  Rb  Rb6  1  0.27391600  0.08030800  0.28819900  1
  Rb  Rb7  1  0.72929300  0.58295200  0.88191800  1
  Rb  Rb8  1  0.27391600  0.41969200  0.78819900  1
  Rb  Rb9  1  0.20037600  0.80988400  0.50000600  1
  Rb  Rb10  1  0.71304100  0.91632200  0.04423800  1
  Rb  Rb11  1  0.22929300  0.41704800  0.11808200  1
  Rb  Rb12  1  0.77391600  0.58030800  0.21180100  1
  Rb  Rb13  1  0.22929300  0.08295200  0.61808200  1
  Rb  Rb14  1  0.70037600  0.19011600  0.49999400  1
  Rb  Rb15  1  0.76195700  0.18468300  0.16680700  1
  Rb  Rb16  1  0.21304100  0.08367800  0.95576200  1
  Rb  Rb17  1  0.21304100  0.41632200  0.45576200  1
  Rb  Rb18  1  0.72929300  0.91704800  0.38191800  1
  Rb  Rb19  1  0.76195700  0.31531700  0.66680700  1
  Rb  Rb20  1  0.27702300  0.81091800  0.16741400  1
  Rb  Rb21  1  0.71304100  0.58367800  0.54423800  1
  Rb  Rb22  1  0.20037600  0.69011600  0.00000600  1
  Rb  Rb23  1  0.26195700  0.68468300  0.33319300  1
  Zn  Zn24  1  0.21663000  0.41698800  0.59488900  1
  Zn  Zn25  1  0.76029400  0.58548000  0.74124100  1
  Zn  Zn26  1  0.74620000  0.91960800  0.57271600  1
  Zn  Zn27  1  0.74620000  0.58039200  0.07271600  1
  Zn  Zn28  1  0.24620000  0.08039200  0.42728400  1
  Zn  Zn29  1  0.26029400  0.08548000  0.75875900  1
  Zn  Zn30  1  0.71663000  0.91698800  0.90511100  1
  Zn  Zn31  1  0.71663000  0.58301200  0.40511100  1
  Zn  Zn32  1  0.21663000  0.08301200  0.09488900  1
  Zn  Zn33  1  0.26029400  0.41452000  0.25875900  1
  Zn  Zn34  1  0.24620000  0.41960800  0.92728400  1
  Zn  Zn35  1  0.76029400  0.91452000  0.24124100  1
  Cl  Cl36  1  0.02435400  0.30298300  0.91804800  1
  Cl  Cl37  1  0.33062400  0.56730200  0.22150600  1
  Cl  Cl38  1  0.48943700  0.36145800  0.57218200  1
  Cl  Cl39  1  0.32321600  0.05458600  0.50420600  1
  Cl  Cl40  1  0.67546400  0.07038800  0.61136900  1
  Cl  Cl41  1  0.33062400  0.93269800  0.72150600  1
  Cl  Cl42  1  0.02435400  0.19701700  0.41804800  1
  Cl  Cl43  1  0.17898700  0.06139200  0.17377500  1
  Cl  Cl44  1  0.67898700  0.56139200  0.32622500  1
  Cl  Cl45  1  0.51859200  0.79744100  0.93268100  1
  Cl  Cl46  1  0.83062400  0.06730200  0.27849400  1
  Cl  Cl47  1  0.17546400  0.92961200  0.38863100  1
  Cl  Cl48  1  0.52435400  0.69701700  0.08195200  1
  Cl  Cl49  1  0.49672900  0.35864000  0.88968900  1
  Cl  Cl50  1  0.52435400  0.80298300  0.58195200  1
  Cl  Cl51  1  0.47496800  0.29495400  0.24571700  1
  Cl  Cl52  1  0.47496800  0.20504600  0.74571700  1
  Cl  Cl53  1  0.16642300  0.57062600  0.55548500  1
  Cl  Cl54  1  0.97496800  0.70504600  0.75428300  1
  Cl  Cl55  1  0.66642300  0.42937400  0.44451500  1
  Cl  Cl56  1  0.69001600  0.56799900  0.66333200  1
  Cl  Cl57  1  0.98943700  0.86145800  0.92781800  1
  Cl  Cl58  1  0.83062400  0.43269800  0.77849400  1
  Cl  Cl59  1  0.99672900  0.85864000  0.61031100  1
  Cl  Cl60  1  0.00426000  0.13876100  0.72159300  1
  Cl  Cl61  1  0.67898700  0.93860800  0.82622500  1
  Cl  Cl62  1  0.17546400  0.57038800  0.88863100  1
  Cl  Cl63  1  0.69001600  0.93200100  0.16333200  1
  Cl  Cl64  1  0.00426000  0.36123900  0.22159300  1
  Cl  Cl65  1  0.98943700  0.63854200  0.42781800  1
  Cl  Cl66  1  0.67546400  0.42961200  0.11136900  1
  Cl  Cl67  1  0.01859200  0.20255900  0.06731900  1
  Cl  Cl68  1  0.50426000  0.86123900  0.27840700  1
  Cl  Cl69  1  0.82321600  0.55458600  0.99579400  1
  Cl  Cl70  1  0.48943700  0.13854200  0.07218200  1
  Cl  Cl71  1  0.99672900  0.64136000  0.11031100  1
  Cl  Cl72  1  0.17898700  0.43860800  0.67377500  1
  Cl  Cl73  1  0.66642300  0.07062600  0.94451500  1
  Cl  Cl74  1  0.49672900  0.14136000  0.38968900  1
  Cl  Cl75  1  0.01859200  0.29744100  0.56731900  1
  Cl  Cl76  1  0.97496800  0.79495400  0.25428300  1
  Cl  Cl77  1  0.19001600  0.43200100  0.33666800  1
  Cl  Cl78  1  0.51859200  0.70255900  0.43268100  1
  Cl  Cl79  1  0.82321600  0.94541400  0.49579400  1
  Cl  Cl80  1  0.19001600  0.06799900  0.83666800  1
  Cl  Cl81  1  0.32321600  0.44541400  0.00420600  1
  Cl  Cl82  1  0.16642300  0.92937400  0.05548500  1
  Cl  Cl83  1  0.50426000  0.63876100  0.77840700  1
