# generated using pymatgen
data_Sc5As3
_symmetry_space_group_name_H-M   'P 1'
_cell_length_a   7.26423700
_cell_length_b   8.18744700
_cell_length_c   10.76524500
_cell_angle_alpha   90.00000000
_cell_angle_beta   90.00000000
_cell_angle_gamma   90.00000000
_symmetry_Int_Tables_number   1
_chemical_formula_structural   Sc5As3
_chemical_formula_sum   'Sc20 As12'
_cell_volume   640.26892575
_cell_formula_units_Z   4
loop_
 _symmetry_equiv_pos_site_id
 _symmetry_equiv_pos_as_xyz
  1  'x, y, z'
loop_
 _atom_site_type_symbol
 _atom_site_label
 _atom_site_symmetry_multiplicity
 _atom_site_fract_x
 _atom_site_fract_y
 _atom_site_fract_z
 _atom_site_occupancy
  Sc  Sc0  1  0.80859300  0.94765100  0.07096200  1
  Sc  Sc1  1  0.30859300  0.05234900  0.42903800  1
  Sc  Sc2  1  0.19140700  0.44765100  0.92903800  1
  Sc  Sc3  1  0.69140700  0.55234900  0.57096200  1
  Sc  Sc4  1  0.19140700  0.05234900  0.92903800  1
  Sc  Sc5  1  0.69140700  0.94765100  0.57096200  1
  Sc  Sc6  1  0.80859300  0.55234900  0.07096200  1
  Sc  Sc7  1  0.30859300  0.44765100  0.42903800  1
  Sc  Sc8  1  0.16627900  0.75000000  0.22327100  1
  Sc  Sc9  1  0.66627900  0.25000000  0.27672900  1
  Sc  Sc10  1  0.83372100  0.25000000  0.77672900  1
  Sc  Sc11  1  0.33372100  0.75000000  0.72327100  1
  Sc  Sc12  1  0.46983600  0.75000000  0.00401800  1
  Sc  Sc13  1  0.96983600  0.25000000  0.49598200  1
  Sc  Sc14  1  0.53016400  0.25000000  0.99598200  1
  Sc  Sc15  1  0.03016400  0.75000000  0.50401800  1
  Sc  Sc16  1  0.64981800  0.75000000  0.29321400  1
  Sc  Sc17  1  0.14981800  0.25000000  0.20678600  1
  Sc  Sc18  1  0.35018200  0.25000000  0.70678600  1
  Sc  Sc19  1  0.85018200  0.75000000  0.79321400  1
  As  As20  1  0.41701600  0.75000000  0.48257900  1
  As  As21  1  0.91701600  0.25000000  0.01742100  1
  As  As22  1  0.58298400  0.25000000  0.51742100  1
  As  As23  1  0.08298400  0.75000000  0.98257900  1
  As  As24  1  0.93558200  0.50998200  0.32766500  1
  As  As25  1  0.43558200  0.49001800  0.17233500  1
  As  As26  1  0.06441800  0.00998200  0.67233500  1
  As  As27  1  0.56441800  0.99001800  0.82766500  1
  As  As28  1  0.06441800  0.49001800  0.67233500  1
  As  As29  1  0.56441800  0.50998200  0.82766500  1
  As  As30  1  0.93558200  0.99001800  0.32766500  1
  As  As31  1  0.43558200  0.00998200  0.17233500  1
