# generated using pymatgen
data_Zn3(PO4)2
_symmetry_space_group_name_H-M   'P 1'
_cell_length_a   5.03661079
_cell_length_b   5.03661079
_cell_length_c   15.52403190
_cell_angle_alpha   77.96219388
_cell_angle_beta   77.96219388
_cell_angle_gamma   68.51111016
_symmetry_Int_Tables_number   1
_chemical_formula_structural   Zn3(PO4)2
_chemical_formula_sum   'Zn6 P4 O16'
_cell_volume   354.57417918
_cell_formula_units_Z   2
loop_
 _symmetry_equiv_pos_site_id
 _symmetry_equiv_pos_as_xyz
  1  'x, y, z'
loop_
 _atom_site_type_symbol
 _atom_site_label
 _atom_site_symmetry_multiplicity
 _atom_site_fract_x
 _atom_site_fract_y
 _atom_site_fract_z
 _atom_site_occupancy
  Zn  Zn0  1  0.82898800  0.72476600  0.43297600  1
  Zn  Zn1  1  0.75206200  0.24793800  0.25000000  1
  Zn  Zn2  1  0.72476600  0.82898800  0.93297600  1
  Zn  Zn3  1  0.27523400  0.17101200  0.06702400  1
  Zn  Zn4  1  0.24793800  0.75206200  0.75000000  1
  Zn  Zn5  1  0.17101200  0.27523400  0.56702400  1
  P  P6  1  0.90494700  0.76664200  0.12792800  1
  P  P7  1  0.09505300  0.23335800  0.87207200  1
  P  P8  1  0.23335900  0.09505300  0.37207200  1
  P  P9  1  0.76664100  0.90494700  0.62792800  1
  O  O10  1  0.02961900  0.97350900  0.64670600  1
  O  O11  1  0.63064300  0.77631300  0.71639600  1
  O  O12  1  0.56715400  0.18183800  0.58017600  1
  O  O13  1  0.97350900  0.02961900  0.14670600  1
  O  O14  1  0.97038100  0.02649100  0.35329400  1
  O  O15  1  0.77631300  0.63064300  0.21639600  1
  O  O16  1  0.02649100  0.97038100  0.85329400  1
  O  O17  1  0.43284600  0.81816200  0.41982400  1
  O  O18  1  0.22368700  0.36935700  0.78360400  1
  O  O19  1  0.67637300  0.89339900  0.06129600  1
  O  O20  1  0.81816200  0.43284600  0.91982400  1
  O  O21  1  0.32362700  0.10660100  0.93870400  1
  O  O22  1  0.89339900  0.67637300  0.56129600  1
  O  O23  1  0.18183800  0.56715400  0.08017600  1
  O  O24  1  0.10660100  0.32362700  0.43870400  1
  O  O25  1  0.36935700  0.22368700  0.28360400  1
