# generated using pymatgen
data_PtF6
_symmetry_space_group_name_H-M   'P 1'
_cell_length_a   5.06265200
_cell_length_b   8.76576900
_cell_length_c   9.58692300
_cell_angle_alpha   90.00000000
_cell_angle_beta   90.00000000
_cell_angle_gamma   90.00000000
_symmetry_Int_Tables_number   1
_chemical_formula_structural   PtF6
_chemical_formula_sum   'Pt4 F24'
_cell_volume   425.44883281
_cell_formula_units_Z   4
loop_
 _symmetry_equiv_pos_site_id
 _symmetry_equiv_pos_as_xyz
  1  'x, y, z'
loop_
 _atom_site_type_symbol
 _atom_site_label
 _atom_site_symmetry_multiplicity
 _atom_site_fract_x
 _atom_site_fract_y
 _atom_site_fract_z
 _atom_site_occupancy
  Pt  Pt0  1  0.90735200  0.75000000  0.87378600  1
  Pt  Pt1  1  0.40735200  0.25000000  0.62621400  1
  Pt  Pt2  1  0.09264800  0.25000000  0.12621400  1
  Pt  Pt3  1  0.59264800  0.75000000  0.37378600  1
  F  F4  1  0.20800100  0.75000000  0.99186400  1
  F  F5  1  0.70800100  0.25000000  0.50813600  1
  F  F6  1  0.79199900  0.25000000  0.00813600  1
  F  F7  1  0.29199900  0.75000000  0.49186400  1
  F  F8  1  0.60559800  0.75000000  0.75597000  1
  F  F9  1  0.10559800  0.25000000  0.74403000  1
  F  F10  1  0.39440200  0.25000000  0.24403000  1
  F  F11  1  0.89440200  0.75000000  0.25597000  1
  F  F12  1  0.74895600  0.90308100  0.98608900  1
  F  F13  1  0.24895600  0.09691900  0.51391100  1
  F  F14  1  0.25104400  0.40308100  0.01391100  1
  F  F15  1  0.75104400  0.59691900  0.48608900  1
  F  F16  1  0.25104400  0.09691900  0.01391100  1
  F  F17  1  0.75104400  0.90308100  0.48608900  1
  F  F18  1  0.74895600  0.59691900  0.98608900  1
  F  F19  1  0.24895600  0.40308100  0.51391100  1
  F  F20  1  0.06489100  0.90279600  0.76114700  1
  F  F21  1  0.56489100  0.09720400  0.73885300  1
  F  F22  1  0.93510900  0.40279600  0.23885300  1
  F  F23  1  0.43510900  0.59720400  0.26114700  1
  F  F24  1  0.93510900  0.09720400  0.23885300  1
  F  F25  1  0.43510900  0.90279600  0.26114700  1
  F  F26  1  0.06489100  0.59720400  0.76114700  1
  F  F27  1  0.56489100  0.40279600  0.73885300  1
