# generated using pymatgen
data_Na3Sb3(AsO7)2
_symmetry_space_group_name_H-M   'P 1'
_cell_length_a   7.38225100
_cell_length_b   6.56692500
_cell_length_c   12.72523544
_cell_angle_alpha   72.84972148
_cell_angle_beta   90.00000000
_cell_angle_gamma   90.00000000
_symmetry_Int_Tables_number   1
_chemical_formula_structural   Na3Sb3(AsO7)2
_chemical_formula_sum   'Na6 Sb6 As4 O28'
_cell_volume   589.47191218
_cell_formula_units_Z   2
loop_
 _symmetry_equiv_pos_site_id
 _symmetry_equiv_pos_as_xyz
  1  'x, y, z'
loop_
 _atom_site_type_symbol
 _atom_site_label
 _atom_site_symmetry_multiplicity
 _atom_site_fract_x
 _atom_site_fract_y
 _atom_site_fract_z
 _atom_site_occupancy
  Na  Na0  1  0.00000000  0.00000000  0.00000000  1
  Na  Na1  1  0.71321900  0.53562800  0.56725300  1
  Na  Na2  1  0.28678100  0.46437200  0.43274700  1
  Na  Na3  1  0.78678100  0.53562800  0.06725300  1
  Na  Na4  1  0.50000000  0.00000000  0.50000000  1
  Na  Na5  1  0.21321900  0.46437200  0.93274700  1
  Sb  Sb6  1  0.24072900  0.02310400  0.74671600  1
  Sb  Sb7  1  0.25927100  0.02310400  0.24671600  1
  Sb  Sb8  1  0.75927100  0.97689600  0.25328400  1
  Sb  Sb9  1  0.74072900  0.97689600  0.75328400  1
  Sb  Sb10  1  0.00000000  0.00000000  0.50000000  1
  Sb  Sb11  1  0.50000000  0.00000000  0.00000000  1
  As  As12  1  0.76513100  0.41568200  0.33954700  1
  As  As13  1  0.73486900  0.41568200  0.83954700  1
  As  As14  1  0.26513100  0.58431800  0.16045300  1
  As  As15  1  0.23486900  0.58431800  0.66045300  1
  O  O16  1  0.99417400  0.93321400  0.80340800  1
  O  O17  1  0.53133500  0.31711400  0.90794700  1
  O  O18  1  0.27370800  0.70511700  0.76279400  1
  O  O19  1  0.09512100  0.61004000  0.07065600  1
  O  O20  1  0.81213600  0.67007100  0.25569200  1
  O  O21  1  0.79553300  0.03309100  0.59465200  1
  O  O22  1  0.96866500  0.31711400  0.40794700  1
  O  O23  1  0.03133500  0.68288600  0.59205300  1
  O  O24  1  0.59512100  0.38996000  0.42934400  1
  O  O25  1  0.81023800  0.89915000  0.41575900  1
  O  O26  1  0.31213600  0.32992900  0.24430800  1
  O  O27  1  0.68786400  0.67007100  0.75569200  1
  O  O28  1  0.77370800  0.29488300  0.73720600  1
  O  O29  1  0.90487900  0.38996000  0.92934400  1
  O  O30  1  0.00582600  0.06678600  0.19659200  1
  O  O31  1  0.46866500  0.68288600  0.09205300  1
  O  O32  1  0.20446700  0.96690900  0.40534800  1
  O  O33  1  0.49417400  0.06678600  0.69659200  1
  O  O34  1  0.68976200  0.89915000  0.91575900  1
  O  O35  1  0.40487900  0.61004000  0.57065600  1
  O  O36  1  0.22629200  0.70511700  0.26279400  1
  O  O37  1  0.31023800  0.10085000  0.08424100  1
  O  O38  1  0.72629200  0.29488300  0.23720600  1
  O  O39  1  0.29553300  0.96690900  0.90534800  1
  O  O40  1  0.50582600  0.93321400  0.30340800  1
  O  O41  1  0.70446700  0.03309100  0.09465200  1
  O  O42  1  0.18976200  0.10085000  0.58424100  1
  O  O43  1  0.18786400  0.32992900  0.74430800  1
