# generated using pymatgen
data_YP5O14
_symmetry_space_group_name_H-M   'P 1'
_cell_length_a   9.18981092
_cell_length_b   9.18981092
_cell_length_c   12.62279268
_cell_angle_alpha   88.91792491
_cell_angle_beta   88.91792491
_cell_angle_gamma   89.52800474
_symmetry_Int_Tables_number   1
_chemical_formula_structural   YP5O14
_chemical_formula_sum   'Y4 P20 O56'
_cell_volume   1065.61467749
_cell_formula_units_Z   4
loop_
 _symmetry_equiv_pos_site_id
 _symmetry_equiv_pos_as_xyz
  1  'x, y, z'
loop_
 _atom_site_type_symbol
 _atom_site_label
 _atom_site_symmetry_multiplicity
 _atom_site_fract_x
 _atom_site_fract_y
 _atom_site_fract_z
 _atom_site_occupancy
  Y  Y0  1  0.03213000  0.96787000  0.25000000  1
  Y  Y1  1  0.52123800  0.47876200  0.75000000  1
  Y  Y2  1  0.96787000  0.03213000  0.75000000  1
  Y  Y3  1  0.47876200  0.52123800  0.25000000  1
  P  P4  1  0.68163800  0.95448000  0.39040100  1
  P  P5  1  0.57067400  0.07261500  0.75856400  1
  P  P6  1  0.32129600  0.38665000  0.00032300  1
  P  P7  1  0.87302600  0.17496600  0.46645600  1
  P  P8  1  0.12697400  0.82503400  0.53354400  1
  P  P9  1  0.61335000  0.67870400  0.49967700  1
  P  P10  1  0.95448000  0.68163800  0.89040100  1
  P  P11  1  0.92738500  0.42932600  0.74143600  1
  P  P12  1  0.42932600  0.92738500  0.24143600  1
  P  P13  1  0.82503400  0.12697400  0.03354400  1
  P  P14  1  0.31836200  0.04552000  0.60959900  1
  P  P15  1  0.51984000  0.18365700  0.10474700  1
  P  P16  1  0.48016000  0.81634300  0.89525300  1
  P  P17  1  0.18365700  0.51984000  0.60474700  1
  P  P18  1  0.81634300  0.48016000  0.39525300  1
  P  P19  1  0.67870400  0.61335000  0.99967700  1
  P  P20  1  0.17496600  0.87302600  0.96645600  1
  P  P21  1  0.38665000  0.32129600  0.50032300  1
  P  P22  1  0.04552000  0.31836200  0.10959900  1
  P  P23  1  0.07261500  0.57067400  0.25856400  1
  O  O24  1  0.53948700  0.22740500  0.78209700  1
  O  O25  1  0.17496200  0.65421700  0.52462900  1
  O  O26  1  0.97958300  0.28028700  0.76902100  1
  O  O27  1  0.03567300  0.84531900  0.63139000  1
  O  O28  1  0.46051300  0.77259500  0.21790300  1
  O  O29  1  0.64102300  0.51207600  0.91353200  1
  O  O30  1  0.53125200  0.98590300  0.33631300  1
  O  O31  1  0.98039400  0.50599500  0.36157700  1
  O  O32  1  0.71971300  0.02041700  0.73097900  1
  O  O33  1  0.42105400  0.34980700  0.38695500  1
  O  O34  1  0.92090200  0.12873300  0.57330400  1
  O  O35  1  0.35897700  0.48792400  0.08646800  1
  O  O36  1  0.65019300  0.57894600  0.11304500  1
  O  O37  1  0.71060200  0.10536500  0.44429400  1
  O  O38  1  0.01960600  0.49400500  0.63842300  1
  O  O39  1  0.65421700  0.17496200  0.02463000  1
  O  O40  1  0.77259500  0.46051300  0.71790300  1
  O  O41  1  0.57894600  0.65019300  0.61304500  1
  O  O42  1  0.20128700  0.10226100  0.67930500  1
  O  O43  1  0.49400500  0.01960600  0.13842300  1
  O  O44  1  0.89773900  0.79871300  0.82069500  1
  O  O45  1  0.28939800  0.89463500  0.55570600  1
  O  O46  1  0.46874800  0.01409700  0.66368700  1
  O  O47  1  0.53819200  0.28332600  0.19354000  1
  O  O48  1  0.22740500  0.53948700  0.28209700  1
  O  O49  1  0.89463500  0.28939800  0.05570600  1
  O  O50  1  0.28028700  0.97958300  0.26902100  1
  O  O51  1  0.28332600  0.53819200  0.69354000  1
  O  O52  1  0.10226100  0.20128700  0.17930500  1
  O  O53  1  0.10536500  0.71060200  0.94429400  1
  O  O54  1  0.34578300  0.82503800  0.97537100  1
  O  O55  1  0.51207600  0.64102300  0.41353200  1
  O  O56  1  0.14763200  0.35116600  0.00943500  1
  O  O57  1  0.71667400  0.46180800  0.30646000  1
  O  O58  1  0.12873300  0.92090200  0.07330400  1
  O  O59  1  0.22302700  0.38971000  0.52867800  1
  O  O60  1  0.85236800  0.64883400  0.99056500  1
  O  O61  1  0.50599500  0.98039400  0.86157700  1
  O  O62  1  0.82503800  0.34578300  0.47537100  1
  O  O63  1  0.64883400  0.85236800  0.49056500  1
  O  O64  1  0.46180800  0.71667400  0.80646000  1
  O  O65  1  0.02041700  0.71971300  0.23097900  1
  O  O66  1  0.38971000  0.22302700  0.02867800  1
  O  O67  1  0.48792400  0.35897700  0.58646800  1
  O  O68  1  0.01409700  0.46874800  0.16368700  1
  O  O69  1  0.07909800  0.87126700  0.42669600  1
  O  O70  1  0.34980700  0.42105400  0.88695500  1
  O  O71  1  0.79871300  0.89773900  0.32069500  1
  O  O72  1  0.61029000  0.77697300  0.97132200  1
  O  O73  1  0.15468100  0.96432700  0.86861000  1
  O  O74  1  0.77697300  0.61029000  0.47132200  1
  O  O75  1  0.84531900  0.03567300  0.13139000  1
  O  O76  1  0.87126700  0.07909800  0.92669600  1
  O  O77  1  0.96432700  0.15468100  0.36861000  1
  O  O78  1  0.98590300  0.53125200  0.83631300  1
  O  O79  1  0.35116600  0.14763200  0.50943500  1
