# generated using pymatgen
data_Y7FeI12
_symmetry_space_group_name_H-M   'P 1'
_cell_length_a   9.72451388
_cell_length_b   9.72451388
_cell_length_c   9.72451427
_cell_angle_alpha   107.01271804
_cell_angle_beta   107.01271804
_cell_angle_gamma   107.01271541
_symmetry_Int_Tables_number   1
_chemical_formula_structural   Y7FeI12
_chemical_formula_sum   'Y7 Fe1 I12'
_cell_volume   765.59422959
_cell_formula_units_Z   1
loop_
 _symmetry_equiv_pos_site_id
 _symmetry_equiv_pos_as_xyz
  1  'x, y, z'
loop_
 _atom_site_type_symbol
 _atom_site_label
 _atom_site_symmetry_multiplicity
 _atom_site_fract_x
 _atom_site_fract_y
 _atom_site_fract_z
 _atom_site_occupancy
  Y  Y0  1  0.70963700  0.97806400  0.90839800  1
  Y  Y1  1  0.97806400  0.90839800  0.70963700  1
  Y  Y2  1  0.50000000  0.50000000  0.50000000  1
  Y  Y3  1  0.09160200  0.29036300  0.02193600  1
  Y  Y4  1  0.29036300  0.02193600  0.09160200  1
  Y  Y5  1  0.90839800  0.70963700  0.97806400  1
  Y  Y6  1  0.02193600  0.09160200  0.29036300  1
  Fe  Fe7  1  0.00000000  0.00000000  0.00000000  1
  I  I8  1  0.07270300  0.22768100  0.67819800  1
  I  I9  1  0.38658100  0.15917600  0.46427500  1
  I  I10  1  0.61341900  0.84082400  0.53572500  1
  I  I11  1  0.22768100  0.67819800  0.07270300  1
  I  I12  1  0.77231900  0.32180200  0.92729700  1
  I  I13  1  0.67819800  0.07270300  0.22768100  1
  I  I14  1  0.53572500  0.61341900  0.84082400  1
  I  I15  1  0.84082400  0.53572500  0.61341900  1
  I  I16  1  0.92729700  0.77231900  0.32180200  1
  I  I17  1  0.32180200  0.92729700  0.77231900  1
  I  I18  1  0.46427500  0.38658100  0.15917600  1
  I  I19  1  0.15917600  0.46427500  0.38658100  1
