# generated using pymatgen
data_Gd2Mo(SeO4)3
_symmetry_space_group_name_H-M   'P 1'
_cell_length_a   6.66175300
_cell_length_b   7.21906252
_cell_length_c   10.99860837
_cell_angle_alpha   85.18584604
_cell_angle_beta   73.05095821
_cell_angle_gamma   86.42163580
_symmetry_Int_Tables_number   1
_chemical_formula_structural   Gd2Mo(SeO4)3
_chemical_formula_sum   'Gd4 Mo2 Se6 O24'
_cell_volume   503.78126224
_cell_formula_units_Z   2
loop_
 _symmetry_equiv_pos_site_id
 _symmetry_equiv_pos_as_xyz
  1  'x, y, z'
loop_
 _atom_site_type_symbol
 _atom_site_label
 _atom_site_symmetry_multiplicity
 _atom_site_fract_x
 _atom_site_fract_y
 _atom_site_fract_z
 _atom_site_occupancy
  Gd  Gd0  1  0.76806300  0.86108500  0.99046100  1
  Gd  Gd1  1  0.29399900  0.32050100  0.33297700  1
  Gd  Gd2  1  0.23193700  0.13891500  0.00953900  1
  Gd  Gd3  1  0.70600100  0.67949900  0.66702300  1
  Mo  Mo4  1  0.77798900  0.60885800  0.29226300  1
  Mo  Mo5  1  0.22201100  0.39114200  0.70773700  1
  Se  Se6  1  0.29893000  0.84070600  0.28383100  1
  Se  Se7  1  0.71048000  0.36037200  0.00753400  1
  Se  Se8  1  0.83980100  0.14092500  0.35854100  1
  Se  Se9  1  0.70107000  0.15929400  0.71616900  1
  Se  Se10  1  0.16019900  0.85907500  0.64145900  1
  Se  Se11  1  0.28952000  0.63962800  0.99246600  1
  O  O12  1  0.21939700  0.46136400  0.91617000  1
  O  O13  1  0.67718000  0.33219100  0.32082900  1
  O  O14  1  0.39982200  0.00312300  0.35033800  1
  O  O15  1  0.71725900  0.66936600  0.45236800  1
  O  O16  1  0.32282000  0.66780900  0.67917100  1
  O  O17  1  0.04733900  0.52770400  0.26469500  1
  O  O18  1  0.78060300  0.53863600  0.08383000  1
  O  O19  1  0.45834300  0.31057700  0.10730800  1
  O  O20  1  0.05490000  0.76791000  0.53724600  1
  O  O21  1  0.28274100  0.33063400  0.54763200  1
  O  O22  1  0.80611200  0.82748000  0.20070300  1
  O  O23  1  0.85710700  0.16349900  0.04059900  1
  O  O24  1  0.07166100  0.15229900  0.23179300  1
  O  O25  1  0.55709000  0.37011300  0.69531200  1
  O  O26  1  0.94510000  0.23209000  0.46275400  1
  O  O27  1  0.14289300  0.83650100  0.95940100  1
  O  O28  1  0.54165700  0.68942300  0.89269200  1
  O  O29  1  0.44291000  0.62988700  0.30468800  1
  O  O30  1  0.58334700  0.10249200  0.88136900  1
  O  O31  1  0.41665300  0.89750800  0.11863100  1
  O  O32  1  0.60017800  0.99687700  0.64966200  1
  O  O33  1  0.95266100  0.47229600  0.73530500  1
  O  O34  1  0.19388800  0.17252000  0.79929700  1
  O  O35  1  0.92833900  0.84770100  0.76820700  1
