# generated using pymatgen
data_Ba(CuP2)2
_symmetry_space_group_name_H-M   'P 1'
_cell_length_a   10.82847209
_cell_length_b   9.91990076
_cell_length_c   5.81284035
_cell_angle_alpha   82.55776103
_cell_angle_beta   65.28201930
_cell_angle_gamma   32.16021968
_symmetry_Int_Tables_number   1
_chemical_formula_structural   Ba(CuP2)2
_chemical_formula_sum   'Ba2 Cu4 P8'
_cell_volume   267.40482170
_cell_formula_units_Z   2
loop_
 _symmetry_equiv_pos_site_id
 _symmetry_equiv_pos_as_xyz
  1  'x, y, z'
loop_
 _atom_site_type_symbol
 _atom_site_label
 _atom_site_symmetry_multiplicity
 _atom_site_fract_x
 _atom_site_fract_y
 _atom_site_fract_z
 _atom_site_occupancy
  Ba  Ba0  1  0.50000000  0.50000000  0.50000000  1
  Ba  Ba1  1  0.75000000  0.75000000  0.75000000  1
  Cu  Cu2  1  0.37158100  0.37158100  0.12841900  1
  Cu  Cu3  1  0.87841900  0.87841900  0.12158100  1
  Cu  Cu4  1  0.12841900  0.12841900  0.37158100  1
  Cu  Cu5  1  0.12158100  0.12158100  0.87841900  1
  P  P6  1  0.79600800  0.31217300  0.82287800  1
  P  P7  1  0.31217300  0.79600800  0.06894200  1
  P  P8  1  0.18105800  0.42712200  0.93782700  1
  P  P9  1  0.06894200  0.82287800  0.31217300  1
  P  P10  1  0.42712200  0.18105800  0.45399200  1
  P  P11  1  0.93782700  0.45399200  0.18105800  1
  P  P12  1  0.82287800  0.06894200  0.79600800  1
  P  P13  1  0.45399200  0.93782700  0.42712200  1
