# generated using pymatgen
data_NaAs4BrO6
_symmetry_space_group_name_H-M   'P 1'
_cell_length_a   5.32698600
_cell_length_b   8.21356900
_cell_length_c   19.58551800
_cell_angle_alpha   90.00000000
_cell_angle_beta   90.00000000
_cell_angle_gamma   90.00000000
_symmetry_Int_Tables_number   1
_chemical_formula_structural   NaAs4BrO6
_chemical_formula_sum   'Na4 As16 Br4 O24'
_cell_volume   856.93627547
_cell_formula_units_Z   4
loop_
 _symmetry_equiv_pos_site_id
 _symmetry_equiv_pos_as_xyz
  1  'x, y, z'
loop_
 _atom_site_type_symbol
 _atom_site_label
 _atom_site_symmetry_multiplicity
 _atom_site_fract_x
 _atom_site_fract_y
 _atom_site_fract_z
 _atom_site_occupancy
  Na  Na0  1  0.75000000  0.39888500  0.55659500  1
  Na  Na1  1  0.25000000  0.89888500  0.94340500  1
  Na  Na2  1  0.75000000  0.10111500  0.05659500  1
  Na  Na3  1  0.25000000  0.60111500  0.44340500  1
  As  As4  1  0.75000000  0.40807600  0.17777000  1
  As  As5  1  0.25000000  0.66309400  0.61455500  1
  As  As6  1  0.75000000  0.09192400  0.67777000  1
  As  As7  1  0.25000000  0.83690600  0.11455500  1
  As  As8  1  0.25000000  0.90807600  0.32223000  1
  As  As9  1  0.75000000  0.70984900  0.33401300  1
  As  As10  1  0.25000000  0.15438900  0.45157100  1
  As  As11  1  0.75000000  0.79015100  0.83401300  1
  As  As12  1  0.75000000  0.16309400  0.88544500  1
  As  As13  1  0.25000000  0.59192400  0.82223000  1
  As  As14  1  0.75000000  0.33690600  0.38544500  1
  As  As15  1  0.25000000  0.29015100  0.66598700  1
  As  As16  1  0.25000000  0.34561100  0.95157100  1
  As  As17  1  0.75000000  0.65438900  0.04842900  1
  As  As18  1  0.25000000  0.20984900  0.16598700  1
  As  As19  1  0.75000000  0.84561100  0.54842900  1
  Br  Br20  1  0.75000000  0.00407800  0.21766400  1
  Br  Br21  1  0.25000000  0.99592200  0.78233600  1
  Br  Br22  1  0.25000000  0.50407800  0.28233600  1
  Br  Br23  1  0.75000000  0.49592200  0.71766400  1
  O  O24  1  0.99818300  0.30691400  0.45097700  1
  O  O25  1  0.50207600  0.17671700  0.62191500  1
  O  O26  1  0.49818300  0.69308600  0.54902300  1
  O  O27  1  0.99792400  0.17671700  0.62191500  1
  O  O28  1  0.75000000  0.61068700  0.13910400  1
  O  O29  1  0.50207600  0.32328300  0.12191500  1
  O  O30  1  0.25000000  0.38931300  0.86089600  1
  O  O31  1  0.50181700  0.30691400  0.45097700  1
  O  O32  1  0.75000000  0.55424600  0.40365800  1
  O  O33  1  0.49792400  0.82328300  0.37808500  1
  O  O34  1  0.00207600  0.82328300  0.37808500  1
  O  O35  1  0.49792400  0.67671700  0.87808500  1
  O  O36  1  0.75000000  0.94575400  0.90365800  1
  O  O37  1  0.25000000  0.11068700  0.36089600  1
  O  O38  1  0.25000000  0.44575400  0.59634200  1
  O  O39  1  0.25000000  0.05424600  0.09634200  1
  O  O40  1  0.00181700  0.80691400  0.04902300  1
  O  O41  1  0.00207600  0.67671700  0.87808500  1
  O  O42  1  0.00181700  0.69308600  0.54902300  1
  O  O43  1  0.49818300  0.80691400  0.04902300  1
  O  O44  1  0.50181700  0.19308600  0.95097700  1
  O  O45  1  0.75000000  0.88931300  0.63910400  1
  O  O46  1  0.99818300  0.19308600  0.95097700  1
  O  O47  1  0.99792400  0.32328300  0.12191500  1
