# generated using pymatgen
data_Na2BeH4
_symmetry_space_group_name_H-M   'P 1'
_cell_length_a   4.99306900
_cell_length_b   5.07872800
_cell_length_c   6.85350136
_cell_angle_alpha   81.47709190
_cell_angle_beta   90.00000000
_cell_angle_gamma   90.00000000
_symmetry_Int_Tables_number   1
_chemical_formula_structural   Na2BeH4
_chemical_formula_sum   'Na4 Be2 H8'
_cell_volume   171.87483587
_cell_formula_units_Z   2
loop_
 _symmetry_equiv_pos_site_id
 _symmetry_equiv_pos_as_xyz
  1  'x, y, z'
loop_
 _atom_site_type_symbol
 _atom_site_label
 _atom_site_symmetry_multiplicity
 _atom_site_fract_x
 _atom_site_fract_y
 _atom_site_fract_z
 _atom_site_occupancy
  Na  Na0  1  0.25000000  0.26953700  0.02508200  1
  Na  Na1  1  0.75000000  0.73046300  0.97491800  1
  Na  Na2  1  0.75000000  0.73513000  0.47527300  1
  Na  Na3  1  0.25000000  0.26487000  0.52472700  1
  Be  Be4  1  0.25000000  0.72271800  0.22192800  1
  Be  Be5  1  0.75000000  0.27728200  0.77807200  1
  H  H6  1  0.75000000  0.06174500  0.66237800  1
  H  H7  1  0.75000000  0.18551000  0.98666000  1
  H  H8  1  0.52077300  0.44646500  0.73430700  1
  H  H9  1  0.25000000  0.93825500  0.33762200  1
  H  H10  1  0.97922700  0.44646500  0.73430700  1
  H  H11  1  0.02077300  0.55353500  0.26569300  1
  H  H12  1  0.47922700  0.55353500  0.26569300  1
  H  H13  1  0.25000000  0.81449000  0.01334000  1
