# generated using pymatgen
data_Na2CaPO4F
_symmetry_space_group_name_H-M   'P 1'
_cell_length_a   7.16915100
_cell_length_b   10.77983200
_cell_length_c   13.45175840
_cell_angle_alpha   66.42652621
_cell_angle_beta   90.00000000
_cell_angle_gamma   90.00000000
_symmetry_Int_Tables_number   1
_chemical_formula_structural   Na2CaPO4F
_chemical_formula_sum   'Na16 Ca8 P8 O32 F8'
_cell_volume   952.82684379
_cell_formula_units_Z   8
loop_
 _symmetry_equiv_pos_site_id
 _symmetry_equiv_pos_as_xyz
  1  'x, y, z'
loop_
 _atom_site_type_symbol
 _atom_site_label
 _atom_site_symmetry_multiplicity
 _atom_site_fract_x
 _atom_site_fract_y
 _atom_site_fract_z
 _atom_site_occupancy
  Na  Na0  1  0.74611200  0.91309900  0.91003500  1
  Na  Na1  1  0.72725600  0.82352800  0.58760400  1
  Na  Na2  1  0.01884700  0.43218200  0.33054800  1
  Na  Na3  1  0.77274400  0.32352800  0.58760400  1
  Na  Na4  1  0.51884700  0.06781800  0.66945200  1
  Na  Na5  1  0.75388800  0.41309900  0.91003500  1
  Na  Na6  1  0.24611200  0.58690100  0.08996500  1
  Na  Na7  1  0.47658400  0.79027400  0.16403100  1
  Na  Na8  1  0.52341600  0.20972600  0.83596900  1
  Na  Na9  1  0.27274400  0.17647200  0.41239600  1
  Na  Na10  1  0.48115300  0.93218200  0.33054800  1
  Na  Na11  1  0.98115300  0.56781800  0.66945200  1
  Na  Na12  1  0.22725600  0.67647200  0.41239600  1
  Na  Na13  1  0.02341600  0.29027400  0.16403100  1
  Na  Na14  1  0.97658400  0.70972600  0.83596900  1
  Na  Na15  1  0.25388800  0.08690100  0.08996500  1
  Ca  Ca16  1  0.98771800  0.02889000  0.66902700  1
  Ca  Ca17  1  0.50604400  0.72288800  0.82725000  1
  Ca  Ca18  1  0.99395600  0.22288800  0.82725000  1
  Ca  Ca19  1  0.51228200  0.52889000  0.66902700  1
  Ca  Ca20  1  0.00604400  0.77711200  0.17275000  1
  Ca  Ca21  1  0.49395600  0.27711200  0.17275000  1
  Ca  Ca22  1  0.01228200  0.97111000  0.33097300  1
  Ca  Ca23  1  0.48771800  0.47111000  0.33097300  1
  P  P24  1  0.74058700  0.64529900  0.41331100  1
  P  P25  1  0.24058700  0.85470100  0.58668900  1
  P  P26  1  0.25618900  0.43932200  0.91579400  1
  P  P27  1  0.24381100  0.93932200  0.91579400  1
  P  P28  1  0.75941300  0.14529900  0.41331100  1
  P  P29  1  0.75618900  0.06067800  0.08420600  1
  P  P30  1  0.74381100  0.56067800  0.08420600  1
  P  P31  1  0.25941300  0.35470100  0.58668900  1
  O  O32  1  0.73181500  0.63624100  0.53142200  1
  O  O33  1  0.55010200  0.69445100  0.35459000  1
  O  O34  1  0.44989800  0.30554900  0.64541000  1
  O  O35  1  0.07761300  0.41639700  0.85958100  1
  O  O36  1  0.05010200  0.80554900  0.64541000  1
  O  O37  1  0.23181500  0.86375900  0.46857800  1
  O  O38  1  0.57761300  0.08360300  0.14041900  1
  O  O39  1  0.93252200  0.07230400  0.14789400  1
  O  O40  1  0.94989800  0.19445100  0.35459000  1
  O  O41  1  0.40012200  0.75509100  0.64960000  1
  O  O42  1  0.06747800  0.92769600  0.85210600  1
  O  O43  1  0.76818500  0.13624100  0.53142200  1
  O  O44  1  0.22474900  0.49846500  0.58617300  1
  O  O45  1  0.56747800  0.57230400  0.14789400  1
  O  O46  1  0.76760000  0.16668400  0.96487800  1
  O  O47  1  0.77525100  0.50153500  0.41382700  1
  O  O48  1  0.59987800  0.24490900  0.35040000  1
  O  O49  1  0.42238700  0.91639700  0.85958100  1
  O  O50  1  0.72474900  0.00153500  0.41382700  1
  O  O51  1  0.92238700  0.58360300  0.14041900  1
  O  O52  1  0.90012200  0.74490900  0.35040000  1
  O  O53  1  0.23240000  0.83331600  0.03512200  1
  O  O54  1  0.09987800  0.25509100  0.64960000  1
  O  O55  1  0.24884100  0.08508000  0.91523700  1
  O  O56  1  0.43252200  0.42769600  0.85210600  1
  O  O57  1  0.26818500  0.36375900  0.46857800  1
  O  O58  1  0.26760000  0.33331600  0.03512200  1
  O  O59  1  0.27525100  0.99846500  0.58617300  1
  O  O60  1  0.73240000  0.66668400  0.96487800  1
  O  O61  1  0.74884100  0.41492000  0.08476300  1
  O  O62  1  0.25115900  0.58508000  0.91523700  1
  O  O63  1  0.75115900  0.91492000  0.08476300  1
  F  F64  1  0.76967800  0.38424000  0.73644800  1
  F  F65  1  0.27380700  0.37847100  0.24138200  1
  F  F66  1  0.72619300  0.62152900  0.75861800  1
  F  F67  1  0.23032200  0.61576000  0.26355200  1
  F  F68  1  0.73032200  0.88424000  0.73644800  1
  F  F69  1  0.77380700  0.12152900  0.75861800  1
  F  F70  1  0.26967800  0.11576000  0.26355200  1
  F  F71  1  0.22619300  0.87847100  0.24138200  1
