# generated using pymatgen
data_Sr4In13Au9
_symmetry_space_group_name_H-M   'P 1'
_cell_length_a   12.94508931
_cell_length_b   12.94508931
_cell_length_c   4.50198500
_cell_angle_alpha   90.00000000
_cell_angle_beta   90.00000000
_cell_angle_gamma   119.99999648
_symmetry_Int_Tables_number   1
_chemical_formula_structural   Sr4In13Au9
_chemical_formula_sum   'Sr4 In13 Au9'
_cell_volume   653.34834145
_cell_formula_units_Z   1
loop_
 _symmetry_equiv_pos_site_id
 _symmetry_equiv_pos_as_xyz
  1  'x, y, z'
loop_
 _atom_site_type_symbol
 _atom_site_label
 _atom_site_symmetry_multiplicity
 _atom_site_fract_x
 _atom_site_fract_y
 _atom_site_fract_z
 _atom_site_occupancy
  Sr  Sr0  1  0.20615800  0.79384200  0.50000000  1
  Sr  Sr1  1  0.58768400  0.79384200  0.50000000  1
  Sr  Sr2  1  0.20615800  0.41231600  0.50000000  1
  Sr  Sr3  1  0.66666700  0.33333300  0.00000000  1
  In  In4  1  0.95149900  0.29374800  0.00000000  1
  In  In5  1  0.70625200  0.65775100  0.00000000  1
  In  In6  1  0.95149900  0.65775100  0.00000000  1
  In  In7  1  0.34224900  0.04850100  0.00000000  1
  In  In8  1  0.16623800  0.08311900  0.50000000  1
  In  In9  1  0.91688100  0.83376200  0.50000000  1
  In  In10  1  0.70625200  0.04850100  0.00000000  1
  In  In11  1  0.53253600  0.06507100  0.50000000  1
  In  In12  1  0.91688100  0.08311900  0.50000000  1
  In  In13  1  0.34224900  0.29374800  0.00000000  1
  In  In14  1  0.53253600  0.46746400  0.50000000  1
  In  In15  1  0.93492900  0.46746400  0.50000000  1
  In  In16  1  0.33333300  0.66666700  0.00000000  1
  Au  Au17  1  0.45377400  0.54622600  0.00000000  1
  Au  Au18  1  0.82466900  0.91233500  0.00000000  1
  Au  Au19  1  0.45377400  0.90754700  0.00000000  1
  Au  Au20  1  0.08766500  0.17533100  0.00000000  1
  Au  Au21  1  0.08766500  0.91233500  0.00000000  1
  Au  Au22  1  0.78544100  0.57088100  0.50000000  1
  Au  Au23  1  0.09245300  0.54622600  0.00000000  1
  Au  Au24  1  0.78544100  0.21455900  0.50000000  1
  Au  Au25  1  0.42911900  0.21455900  0.50000000  1
