# generated using pymatgen
data_Na5HfAs3
_symmetry_space_group_name_H-M   'P 1'
_cell_length_a   7.56578300
_cell_length_b   8.51211900
_cell_length_c   16.26960238
_cell_angle_alpha   58.89486658
_cell_angle_beta   90.00000000
_cell_angle_gamma   90.00000000
_symmetry_Int_Tables_number   1
_chemical_formula_structural   Na5HfAs3
_chemical_formula_sum   'Na20 Hf4 As12'
_cell_volume   897.12773109
_cell_formula_units_Z   4
loop_
 _symmetry_equiv_pos_site_id
 _symmetry_equiv_pos_as_xyz
  1  'x, y, z'
loop_
 _atom_site_type_symbol
 _atom_site_label
 _atom_site_symmetry_multiplicity
 _atom_site_fract_x
 _atom_site_fract_y
 _atom_site_fract_z
 _atom_site_occupancy
  Na  Na0  1  0.49146300  0.91701000  0.26250700  1
  Na  Na1  1  0.99146300  0.08299000  0.23749300  1
  Na  Na2  1  0.50853700  0.08299000  0.73749300  1
  Na  Na3  1  0.00853700  0.91701000  0.76250700  1
  Na  Na4  1  0.01141200  0.26076000  0.40720600  1
  Na  Na5  1  0.51141200  0.73924000  0.09279400  1
  Na  Na6  1  0.98858800  0.73924000  0.59279400  1
  Na  Na7  1  0.48858800  0.26076000  0.90720600  1
  Na  Na8  1  0.47198200  0.59532300  0.58480800  1
  Na  Na9  1  0.97198200  0.40467700  0.91519200  1
  Na  Na10  1  0.52801800  0.40467700  0.41519200  1
  Na  Na11  1  0.02801800  0.59532300  0.08480800  1
  Na  Na12  1  0.84455800  0.67964700  0.24277300  1
  Na  Na13  1  0.34455800  0.32035300  0.25722700  1
  Na  Na14  1  0.15544200  0.32035300  0.75722700  1
  Na  Na15  1  0.65544200  0.67964700  0.74277300  1
  Na  Na16  1  0.66431100  0.00207900  0.41923700  1
  Na  Na17  1  0.16431100  0.99792100  0.08076300  1
  Na  Na18  1  0.33568900  0.99792100  0.58076300  1
  Na  Na19  1  0.83568900  0.00207900  0.91923700  1
  Hf  Hf20  1  0.14210000  0.66067200  0.41394100  1
  Hf  Hf21  1  0.64210000  0.33932800  0.08605900  1
  Hf  Hf22  1  0.85790000  0.33932800  0.58605900  1
  Hf  Hf23  1  0.35790000  0.66067200  0.91394100  1
  As  As24  1  0.79335200  0.65783700  0.42998900  1
  As  As25  1  0.29335200  0.34216300  0.07001100  1
  As  As26  1  0.20664800  0.34216300  0.57001100  1
  As  As27  1  0.70664800  0.65783700  0.92998900  1
  As  As28  1  0.25744000  0.94379200  0.41732900  1
  As  As29  1  0.75744000  0.05620800  0.08267100  1
  As  As30  1  0.74256000  0.05620800  0.58267100  1
  As  As31  1  0.24256000  0.94379200  0.91732900  1
  As  As32  1  0.23723100  0.64643400  0.26523600  1
  As  As33  1  0.73723100  0.35356600  0.23476400  1
  As  As34  1  0.76276900  0.35356600  0.73476400  1
  As  As35  1  0.26276900  0.64643400  0.76523600  1
