# generated using pymatgen
data_Sr7Nb6O21
_symmetry_space_group_name_H-M   'P 1'
_cell_length_a   16.73547082
_cell_length_b   16.73547082
_cell_length_c   16.73547084
_cell_angle_alpha   19.78360052
_cell_angle_beta   19.78360052
_cell_angle_gamma   19.78360037
_symmetry_Int_Tables_number   1
_chemical_formula_structural   Sr7Nb6O21
_chemical_formula_sum   'Sr7 Nb6 O21'
_cell_volume   469.64928317
_cell_formula_units_Z   1
loop_
 _symmetry_equiv_pos_site_id
 _symmetry_equiv_pos_as_xyz
  1  'x, y, z'
loop_
 _atom_site_type_symbol
 _atom_site_label
 _atom_site_symmetry_multiplicity
 _atom_site_fract_x
 _atom_site_fract_y
 _atom_site_fract_z
 _atom_site_occupancy
  Sr  Sr0  1  0.84732800  0.84732800  0.84732800  1
  Sr  Sr1  1  0.76768300  0.76768300  0.76768300  1
  Sr  Sr2  1  0.23231700  0.23231700  0.23231700  1
  Sr  Sr3  1  0.15267200  0.15267200  0.15267200  1
  Sr  Sr4  1  0.38445500  0.38445500  0.38445500  1
  Sr  Sr5  1  0.61554500  0.61554500  0.61554500  1
  Sr  Sr6  1  0.00000000  0.00000000  0.00000000  1
  Nb  Nb7  1  0.92729300  0.92729300  0.92729300  1
  Nb  Nb8  1  0.45706400  0.45706400  0.45706400  1
  Nb  Nb9  1  0.30954300  0.30954300  0.30954300  1
  Nb  Nb10  1  0.07270700  0.07270700  0.07270700  1
  Nb  Nb11  1  0.69045700  0.69045700  0.69045700  1
  Nb  Nb12  1  0.54293600  0.54293600  0.54293600  1
  O  O13  1  0.75481900  0.30625900  0.21992500  1
  O  O14  1  0.70430700  0.14047000  0.57708000  1
  O  O15  1  0.57708000  0.70430700  0.14047000  1
  O  O16  1  0.62495900  0.14198700  0.09178600  1
  O  O17  1  0.14047000  0.57708000  0.70430700  1
  O  O18  1  0.24518100  0.69374100  0.78007500  1
  O  O19  1  0.78007500  0.24518100  0.69374100  1
  O  O20  1  0.30625900  0.21992500  0.75481900  1
  O  O21  1  0.90821400  0.37504100  0.85801300  1
  O  O22  1  0.29569300  0.85953000  0.42292000  1
  O  O23  1  0.50000000  0.50000000  0.00000000  1
  O  O24  1  0.14198700  0.09178600  0.62495900  1
  O  O25  1  0.42292000  0.29569300  0.85953000  1
  O  O26  1  0.37504100  0.85801300  0.90821400  1
  O  O27  1  0.21992600  0.75481900  0.30625900  1
  O  O28  1  0.85953000  0.42292000  0.29569300  1
  O  O29  1  0.09178600  0.62495900  0.14198700  1
  O  O30  1  0.85801300  0.90821400  0.37504100  1
  O  O31  1  0.69374100  0.78007500  0.24518100  1
  O  O32  1  0.50000000  0.00000000  0.50000000  1
  O  O33  1  0.00000000  0.50000000  0.50000000  1
