# generated using pymatgen
data_Tb8Ni18P11
_symmetry_space_group_name_H-M   'P 1'
_cell_length_a   18.03008779
_cell_length_b   18.03008779
_cell_length_c   3.82218000
_cell_angle_alpha   90.00000000
_cell_angle_beta   90.00000000
_cell_angle_gamma   119.99999924
_symmetry_Int_Tables_number   1
_chemical_formula_structural   Tb8Ni18P11
_chemical_formula_sum   'Tb16 Ni36 P22'
_cell_volume   1076.06239263
_cell_formula_units_Z   2
loop_
 _symmetry_equiv_pos_site_id
 _symmetry_equiv_pos_as_xyz
  1  'x, y, z'
loop_
 _atom_site_type_symbol
 _atom_site_label
 _atom_site_symmetry_multiplicity
 _atom_site_fract_x
 _atom_site_fract_y
 _atom_site_fract_z
 _atom_site_occupancy
  Tb  Tb0  1  0.59394100  0.40605900  0.00000000  1
  Tb  Tb1  1  0.33471200  0.45104200  0.50000000  1
  Tb  Tb2  1  0.33471200  0.88367000  0.50000000  1
  Tb  Tb3  1  0.54895800  0.66528800  0.50000000  1
  Tb  Tb4  1  0.54895800  0.88367000  0.50000000  1
  Tb  Tb5  1  0.38085000  0.19042500  0.00000000  1
  Tb  Tb6  1  0.11633000  0.66528800  0.50000000  1
  Tb  Tb7  1  0.77386900  0.88693400  0.50000000  1
  Tb  Tb8  1  0.80957500  0.19042500  0.00000000  1
  Tb  Tb9  1  0.80957500  0.61915000  0.00000000  1
  Tb  Tb10  1  0.59394100  0.18788100  0.00000000  1
  Tb  Tb11  1  0.11633000  0.45104200  0.50000000  1
  Tb  Tb12  1  0.81211900  0.40605900  0.00000000  1
  Tb  Tb13  1  0.11306600  0.88693400  0.50000000  1
  Tb  Tb14  1  0.33333300  0.66666700  0.50000000  1
  Tb  Tb15  1  0.11306600  0.22613100  0.50000000  1
  Ni  Ni16  1  0.20430700  0.03487600  0.00000000  1
  Ni  Ni17  1  0.04424500  0.08849000  0.00000000  1
  Ni  Ni18  1  0.51800600  0.03601100  0.50000000  1
  Ni  Ni19  1  0.96385000  0.59063300  0.00000000  1
  Ni  Ni20  1  0.18918500  0.81081500  0.00000000  1
  Ni  Ni21  1  0.96385000  0.37321700  0.00000000  1
  Ni  Ni22  1  0.40595500  0.59404500  0.00000000  1
  Ni  Ni23  1  0.96398900  0.48199400  0.50000000  1
  Ni  Ni24  1  0.10360300  0.05180200  0.50000000  1
  Ni  Ni25  1  0.96289400  0.26812500  0.50000000  1
  Ni  Ni26  1  0.40595500  0.81191000  0.00000000  1
  Ni  Ni27  1  0.73187500  0.69476800  0.50000000  1
  Ni  Ni28  1  0.94819800  0.05180200  0.50000000  1
  Ni  Ni29  1  0.04424500  0.95575500  0.00000000  1
  Ni  Ni30  1  0.73876600  0.47753100  0.50000000  1
  Ni  Ni31  1  0.94819800  0.89639700  0.50000000  1
  Ni  Ni32  1  0.62678300  0.03615000  0.00000000  1
  Ni  Ni33  1  0.30523200  0.03710600  0.50000000  1
  Ni  Ni34  1  0.40936700  0.37321700  0.00000000  1
  Ni  Ni35  1  0.62163100  0.81081500  0.00000000  1
  Ni  Ni36  1  0.83056900  0.03487600  0.00000000  1
  Ni  Ni37  1  0.83056900  0.79569300  0.00000000  1
  Ni  Ni38  1  0.18809000  0.59404500  0.00000000  1
  Ni  Ni39  1  0.18918500  0.37836900  0.00000000  1
  Ni  Ni40  1  0.96512400  0.16943100  0.00000000  1
  Ni  Ni41  1  0.52246900  0.26123400  0.50000000  1
  Ni  Ni42  1  0.96512400  0.79569300  0.00000000  1
  Ni  Ni43  1  0.30523200  0.26812500  0.50000000  1
  Ni  Ni44  1  0.91151000  0.95575500  0.00000000  1
  Ni  Ni45  1  0.73876600  0.26123400  0.50000000  1
  Ni  Ni46  1  0.73187500  0.03710600  0.50000000  1
  Ni  Ni47  1  0.51800600  0.48199400  0.50000000  1
  Ni  Ni48  1  0.20430700  0.16943100  0.00000000  1
  Ni  Ni49  1  0.40936700  0.03615000  0.00000000  1
  Ni  Ni50  1  0.62678300  0.59063300  0.00000000  1
  Ni  Ni51  1  0.96289400  0.69476800  0.50000000  1
  P  P52  1  0.26204300  0.31020600  0.00000000  1
  P  P53  1  0.66566500  0.11889400  0.50000000  1
  P  P54  1  0.87910200  0.12089800  0.50000000  1
  P  P55  1  0.47676600  0.73838300  0.00000000  1
  P  P56  1  0.04816300  0.31020600  0.00000000  1
  P  P57  1  0.66566500  0.54677100  0.50000000  1
  P  P58  1  0.87910200  0.75820500  0.50000000  1
  P  P59  1  0.26161700  0.73838300  0.00000000  1
  P  P60  1  0.45322900  0.11889400  0.50000000  1
  P  P61  1  0.26161700  0.52323400  0.00000000  1
  P  P62  1  0.04816300  0.73795700  0.00000000  1
  P  P63  1  0.68979400  0.73795700  0.00000000  1
  P  P64  1  0.88110600  0.33433500  0.50000000  1
  P  P65  1  0.45322900  0.33433500  0.50000000  1
  P  P66  1  0.24179500  0.12089800  0.50000000  1
  P  P67  1  0.47737800  0.95475700  0.00000000  1
  P  P68  1  0.88110600  0.54677100  0.50000000  1
  P  P69  1  0.68979400  0.95183700  0.00000000  1
  P  P70  1  0.66666700  0.33333300  0.50000000  1
  P  P71  1  0.26204300  0.95183700  0.00000000  1
  P  P72  1  0.47737800  0.52262200  0.00000000  1
  P  P73  1  0.04524300  0.52262200  0.00000000  1
