# generated using pymatgen
data_Cs3Ru2Cl9
_symmetry_space_group_name_H-M   'P 1'
_cell_length_a   7.50720367
_cell_length_b   7.50720367
_cell_length_c   17.98105400
_cell_angle_alpha   90.00000000
_cell_angle_beta   90.00000000
_cell_angle_gamma   119.99999713
_symmetry_Int_Tables_number   1
_chemical_formula_structural   Cs3Ru2Cl9
_chemical_formula_sum   'Cs6 Ru4 Cl18'
_cell_volume   877.61126039
_cell_formula_units_Z   2
loop_
 _symmetry_equiv_pos_site_id
 _symmetry_equiv_pos_as_xyz
  1  'x, y, z'
loop_
 _atom_site_type_symbol
 _atom_site_label
 _atom_site_symmetry_multiplicity
 _atom_site_fract_x
 _atom_site_fract_y
 _atom_site_fract_z
 _atom_site_occupancy
  Cs  Cs0  1  0.00000000  0.00000000  0.25000000  1
  Cs  Cs1  1  0.00000000  0.00000000  0.75000000  1
  Cs  Cs2  1  0.33333300  0.66666700  0.07156500  1
  Cs  Cs3  1  0.66666700  0.33333300  0.57156500  1
  Cs  Cs4  1  0.66666700  0.33333300  0.92843500  1
  Cs  Cs5  1  0.33333300  0.66666700  0.42843500  1
  Ru  Ru6  1  0.33333300  0.66666700  0.82430700  1
  Ru  Ru7  1  0.66666700  0.33333300  0.32430700  1
  Ru  Ru8  1  0.66666700  0.33333300  0.17569300  1
  Ru  Ru9  1  0.33333300  0.66666700  0.67569300  1
  Cl  Cl10  1  0.51280200  0.02560300  0.25000000  1
  Cl  Cl11  1  0.48719800  0.51280200  0.75000000  1
  Cl  Cl12  1  0.02560300  0.51280200  0.75000000  1
  Cl  Cl13  1  0.97439700  0.48719800  0.25000000  1
  Cl  Cl14  1  0.51280200  0.48719800  0.25000000  1
  Cl  Cl15  1  0.48719800  0.97439700  0.75000000  1
  Cl  Cl16  1  0.81469900  0.62939800  0.09930800  1
  Cl  Cl17  1  0.18530100  0.81469900  0.59930800  1
  Cl  Cl18  1  0.62939800  0.81469900  0.59930800  1
  Cl  Cl19  1  0.37060200  0.18530100  0.09930800  1
  Cl  Cl20  1  0.81469900  0.18530100  0.09930800  1
  Cl  Cl21  1  0.18530100  0.37060200  0.90069200  1
  Cl  Cl22  1  0.18530100  0.81469900  0.90069200  1
  Cl  Cl23  1  0.18530100  0.37060200  0.59930800  1
  Cl  Cl24  1  0.62939800  0.81469900  0.90069200  1
  Cl  Cl25  1  0.37060200  0.18530100  0.40069200  1
  Cl  Cl26  1  0.81469900  0.62939800  0.40069200  1
  Cl  Cl27  1  0.81469900  0.18530100  0.40069200  1
