# generated using pymatgen
data_SmCuS2
_symmetry_space_group_name_H-M   'P 1'
_cell_length_a   7.12722200
_cell_length_b   6.45408400
_cell_length_c   6.83519935
_cell_angle_alpha   82.54881983
_cell_angle_beta   90.00000000
_cell_angle_gamma   90.00000000
_symmetry_Int_Tables_number   1
_chemical_formula_structural   SmCuS2
_chemical_formula_sum   'Sm4 Cu4 S8'
_cell_volume   311.76202142
_cell_formula_units_Z   4
loop_
 _symmetry_equiv_pos_site_id
 _symmetry_equiv_pos_as_xyz
  1  'x, y, z'
loop_
 _atom_site_type_symbol
 _atom_site_label
 _atom_site_symmetry_multiplicity
 _atom_site_fract_x
 _atom_site_fract_y
 _atom_site_fract_z
 _atom_site_occupancy
  Sm  Sm0  1  0.95072900  0.80805800  0.80033900  1
  Sm  Sm1  1  0.45072900  0.19194200  0.69966100  1
  Sm  Sm2  1  0.04927100  0.19194200  0.19966100  1
  Sm  Sm3  1  0.54927100  0.80805800  0.30033900  1
  Cu  Cu4  1  0.66230700  0.42282600  0.05008400  1
  Cu  Cu5  1  0.33769300  0.57717400  0.94991600  1
  Cu  Cu6  1  0.16230700  0.57717400  0.44991600  1
  Cu  Cu7  1  0.83769300  0.42282600  0.55008400  1
  S  S8  1  0.72621700  0.08058500  0.00161400  1
  S  S9  1  0.22621700  0.91941500  0.49838600  1
  S  S10  1  0.27378300  0.91941500  0.99838600  1
  S  S11  1  0.77378300  0.08058500  0.50161400  1
  S  S12  1  0.11390700  0.40942900  0.77894000  1
  S  S13  1  0.38609300  0.40942900  0.27894000  1
  S  S14  1  0.88609300  0.59057100  0.22106000  1
  S  S15  1  0.61390700  0.59057100  0.72106000  1
