# generated using pymatgen
data_Ti2Co(PO5)2
_symmetry_space_group_name_H-M   'P 1'
_cell_length_a   7.49518399
_cell_length_b   10.53099159
_cell_length_c   10.52753658
_cell_angle_alpha   90.17260993
_cell_angle_beta   110.83240092
_cell_angle_gamma   110.83411282
_symmetry_Int_Tables_number   1
_chemical_formula_structural   Ti2Co(PO5)2
_chemical_formula_sum   'Ti8 Co4 P8 O40'
_cell_volume   717.83088900
_cell_formula_units_Z   4
loop_
 _symmetry_equiv_pos_site_id
 _symmetry_equiv_pos_as_xyz
  1  'x, y, z'
loop_
 _atom_site_type_symbol
 _atom_site_label
 _atom_site_symmetry_multiplicity
 _atom_site_fract_x
 _atom_site_fract_y
 _atom_site_fract_z
 _atom_site_occupancy
  Ti  Ti0  1  0.79218800  0.62478200  0.40219600  1
  Ti  Ti1  1  0.79243600  0.12483600  0.90229800  1
  Ti  Ti2  1  0.29238400  0.40215600  0.12495600  1
  Ti  Ti3  1  0.29272400  0.90210700  0.62515600  1
  Ti  Ti4  1  0.70761600  0.09784400  0.37504400  1
  Ti  Ti5  1  0.70727600  0.59789300  0.87484400  1
  Ti  Ti6  1  0.20781200  0.87521800  0.09780400  1
  Ti  Ti7  1  0.20756400  0.37516400  0.59770200  1
  Co  Co8  1  0.00000000  0.25000000  0.25000000  1
  Co  Co9  1  0.50000000  0.75000000  0.25000000  1
  Co  Co10  1  0.00000000  0.75000000  0.75000000  1
  Co  Co11  1  0.50000000  0.25000000  0.75000000  1
  P  P12  1  0.49607200  0.81411000  0.93550400  1
  P  P13  1  0.49598500  0.31397700  0.43550900  1
  P  P14  1  0.50392800  0.68589000  0.56449600  1
  P  P15  1  0.50401500  0.18602300  0.06449100  1
  P  P16  1  0.99600200  0.93554000  0.31402000  1
  P  P17  1  0.99594300  0.43549200  0.81397300  1
  P  P18  1  0.00399800  0.56446000  0.18598000  1
  P  P19  1  0.00405700  0.06450800  0.68602700  1
  O  O20  1  0.49944800  0.55479100  0.21386100  1
  O  O21  1  0.49961000  0.05494700  0.71388900  1
  O  O22  1  0.99963100  0.71375000  0.55518500  1
  O  O23  1  0.99953800  0.21386700  0.05494100  1
  O  O24  1  0.50055200  0.94520900  0.28613900  1
  O  O25  1  0.50039000  0.44505300  0.78611100  1
  O  O26  1  0.00036900  0.78625000  0.94481500  1
  O  O27  1  0.00046200  0.28613200  0.44505900  1
  O  O28  1  0.57336500  0.69752400  0.93257100  1
  O  O29  1  0.57333600  0.19749000  0.43244500  1
  O  O30  1  0.92666100  0.06754100  0.80257700  1
  O  O31  1  0.92661800  0.56751800  0.30260200  1
  O  O32  1  0.07334000  0.43245900  0.69742300  1
  O  O33  1  0.07338200  0.93248200  0.19739800  1
  O  O34  1  0.42663500  0.80247600  0.56742900  1
  O  O35  1  0.42666400  0.30251000  0.06755500  1
  O  O36  1  0.18344400  0.70285100  0.19883100  1
  O  O37  1  0.18344200  0.20287400  0.69882400  1
  O  O38  1  0.81655600  0.79714900  0.30116900  1
  O  O39  1  0.81655800  0.29712600  0.80117600  1
  O  O40  1  0.68345700  0.19883800  0.20289800  1
  O  O41  1  0.68272400  0.69857900  0.70294700  1
  O  O42  1  0.31654300  0.30116200  0.29710200  1
  O  O43  1  0.31727600  0.80142100  0.79705300  1
  O  O44  1  0.41221000  0.80158800  0.05156900  1
  O  O45  1  0.41218300  0.30155700  0.55155900  1
  O  O46  1  0.91217200  0.05159300  0.30150800  1
  O  O47  1  0.91193500  0.55151100  0.80130400  1
  O  O48  1  0.08782800  0.44840700  0.19849200  1
  O  O49  1  0.08806500  0.94848900  0.69869600  1
  O  O50  1  0.58779000  0.69841200  0.44843100  1
  O  O51  1  0.58781700  0.19844300  0.94844100  1
  O  O52  1  0.67592500  0.95399500  0.96154500  1
  O  O53  1  0.67568900  0.45391500  0.46135100  1
  O  O54  1  0.17566000  0.46144700  0.95393600  1
  O  O55  1  0.17570300  0.96147000  0.45393000  1
  O  O56  1  0.32407500  0.54600500  0.53845500  1
  O  O57  1  0.32431100  0.04608500  0.03864900  1
  O  O58  1  0.82434000  0.03855300  0.54606400  1
  O  O59  1  0.82429700  0.53853000  0.04607000  1
