# generated using pymatgen
data_Li2CdSiO4
_symmetry_space_group_name_H-M   'P 1'
_cell_length_a   5.19036100
_cell_length_b   6.52669500
_cell_length_c   10.88821300
_cell_angle_alpha   90.00000000
_cell_angle_beta   90.00000000
_cell_angle_gamma   90.00000000
_symmetry_Int_Tables_number   1
_chemical_formula_structural   Li2CdSiO4
_chemical_formula_sum   'Li8 Cd4 Si4 O16'
_cell_volume   368.84804947
_cell_formula_units_Z   4
loop_
 _symmetry_equiv_pos_site_id
 _symmetry_equiv_pos_as_xyz
  1  'x, y, z'
loop_
 _atom_site_type_symbol
 _atom_site_label
 _atom_site_symmetry_multiplicity
 _atom_site_fract_x
 _atom_site_fract_y
 _atom_site_fract_z
 _atom_site_occupancy
  Li  Li0  1  0.82780800  0.00071300  0.58866300  1
  Li  Li1  1  0.32780800  0.99928700  0.91133700  1
  Li  Li2  1  0.17219200  0.50071300  0.41133700  1
  Li  Li3  1  0.32780800  0.50071300  0.91133700  1
  Li  Li4  1  0.17219200  0.99928700  0.41133700  1
  Li  Li5  1  0.82780800  0.49928700  0.58866300  1
  Li  Li6  1  0.67219200  0.00071300  0.08866300  1
  Li  Li7  1  0.67219200  0.49928700  0.08866300  1
  Cd  Cd8  1  0.67214600  0.75000000  0.33630400  1
  Cd  Cd9  1  0.17214600  0.25000000  0.16369600  1
  Cd  Cd10  1  0.82785400  0.75000000  0.83630400  1
  Cd  Cd11  1  0.32785400  0.25000000  0.66369600  1
  Si  Si12  1  0.66713800  0.25000000  0.34299100  1
  Si  Si13  1  0.16713800  0.75000000  0.15700900  1
  Si  Si14  1  0.83286200  0.25000000  0.84299100  1
  Si  Si15  1  0.33286200  0.75000000  0.65700900  1
  O  O16  1  0.79098100  0.04687100  0.41195000  1
  O  O17  1  0.70901900  0.45312900  0.91195000  1
  O  O18  1  0.15078100  0.25000000  0.85420100  1
  O  O19  1  0.74336900  0.25000000  0.19407500  1
  O  O20  1  0.20901900  0.54687100  0.58805000  1
  O  O21  1  0.29098100  0.95312900  0.08805000  1
  O  O22  1  0.24336900  0.75000000  0.30592500  1
  O  O23  1  0.84921900  0.75000000  0.14579900  1
  O  O24  1  0.79098100  0.45312900  0.41195000  1
  O  O25  1  0.25663100  0.75000000  0.80592500  1
  O  O26  1  0.34921900  0.25000000  0.35420100  1
  O  O27  1  0.20901900  0.95312900  0.58805000  1
  O  O28  1  0.75663100  0.25000000  0.69407500  1
  O  O29  1  0.29098100  0.54687100  0.08805000  1
  O  O30  1  0.70901900  0.04687100  0.91195000  1
  O  O31  1  0.65078100  0.75000000  0.64579900  1
