# generated using pymatgen
data_K2Mo3O10
_symmetry_space_group_name_H-M   'P 1'
_cell_length_a   8.25132072
_cell_length_b   8.25132072
_cell_length_c   9.11506442
_cell_angle_alpha   82.37640248
_cell_angle_beta   82.37640248
_cell_angle_gamma   58.89322100
_symmetry_Int_Tables_number   1
_chemical_formula_structural   K2Mo3O10
_chemical_formula_sum   'K4 Mo6 O20'
_cell_volume   525.15284039
_cell_formula_units_Z   2
loop_
 _symmetry_equiv_pos_site_id
 _symmetry_equiv_pos_as_xyz
  1  'x, y, z'
loop_
 _atom_site_type_symbol
 _atom_site_label
 _atom_site_symmetry_multiplicity
 _atom_site_fract_x
 _atom_site_fract_y
 _atom_site_fract_z
 _atom_site_occupancy
  K  K0  1  0.59033400  0.77853600  0.84376400  1
  K  K1  1  0.22146400  0.40966600  0.65623600  1
  K  K2  1  0.40966600  0.22146400  0.15623600  1
  K  K3  1  0.77853600  0.59033400  0.34376400  1
  Mo  Mo4  1  0.81545300  0.96961600  0.51894800  1
  Mo  Mo5  1  0.03038400  0.18454700  0.98105200  1
  Mo  Mo6  1  0.18454700  0.03038400  0.48105200  1
  Mo  Mo7  1  0.96961600  0.81545300  0.01894800  1
  Mo  Mo8  1  0.29957800  0.70042200  0.25000000  1
  Mo  Mo9  1  0.70042200  0.29957800  0.75000000  1
  O  O10  1  0.74407600  0.84819300  0.08039700  1
  O  O11  1  0.15180700  0.25592400  0.41960300  1
  O  O12  1  0.25592400  0.15180700  0.91960300  1
  O  O13  1  0.84819300  0.74407600  0.58039700  1
  O  O14  1  0.88637700  0.06366200  0.90954100  1
  O  O15  1  0.93633800  0.11362300  0.59045900  1
  O  O16  1  0.11362300  0.93633800  0.09045900  1
  O  O17  1  0.06366200  0.88637700  0.40954100  1
  O  O18  1  0.67108000  0.05511700  0.37153200  1
  O  O19  1  0.94488300  0.32892000  0.12846800  1
  O  O20  1  0.32892000  0.94488300  0.62846800  1
  O  O21  1  0.05511700  0.67108000  0.87153200  1
  O  O22  1  0.35971600  0.87987200  0.32304800  1
  O  O23  1  0.12012800  0.64028400  0.17695200  1
  O  O24  1  0.64028400  0.12012800  0.67695200  1
  O  O25  1  0.87987200  0.35971600  0.82304800  1
  O  O26  1  0.48862400  0.62203100  0.11424400  1
  O  O27  1  0.37796900  0.51137600  0.38575600  1
  O  O28  1  0.51137600  0.37796900  0.88575600  1
  O  O29  1  0.62203100  0.48862400  0.61424400  1
