# generated using pymatgen
data_Gd2O3
_symmetry_space_group_name_H-M   'P 1'
_cell_length_a   9.40701042
_cell_length_b   9.40701042
_cell_length_c   9.40701042
_cell_angle_alpha   109.47122063
_cell_angle_beta   109.47122063
_cell_angle_gamma   109.47122063
_symmetry_Int_Tables_number   1
_chemical_formula_structural   Gd2O3
_chemical_formula_sum   'Gd16 O24'
_cell_volume   640.81546612
_cell_formula_units_Z   8
loop_
 _symmetry_equiv_pos_site_id
 _symmetry_equiv_pos_as_xyz
  1  'x, y, z'
loop_
 _atom_site_type_symbol
 _atom_site_label
 _atom_site_symmetry_multiplicity
 _atom_site_fract_x
 _atom_site_fract_y
 _atom_site_fract_z
 _atom_site_occupancy
  Gd  Gd0  1  0.50000000  0.50000000  0.50000000  1
  Gd  Gd1  1  0.00000000  0.50000000  0.00000000  1
  Gd  Gd2  1  0.00000000  0.00000000  0.50000000  1
  Gd  Gd3  1  0.50000000  0.00000000  0.00000000  1
  Gd  Gd4  1  0.21861500  0.96861500  0.25000000  1
  Gd  Gd5  1  0.53138500  0.75000000  0.28138500  1
  Gd  Gd6  1  0.75000000  0.28138500  0.53138500  1
  Gd  Gd7  1  0.96861500  0.25000000  0.21861500  1
  Gd  Gd8  1  0.25000000  0.21861500  0.96861500  1
  Gd  Gd9  1  0.28138500  0.53138500  0.75000000  1
  Gd  Gd10  1  0.71861500  0.46861500  0.25000000  1
  Gd  Gd11  1  0.03138500  0.75000000  0.78138500  1
  Gd  Gd12  1  0.75000000  0.78138500  0.03138500  1
  Gd  Gd13  1  0.46861500  0.25000000  0.71861500  1
  Gd  Gd14  1  0.25000000  0.71861500  0.46861500  1
  Gd  Gd15  1  0.78138500  0.03138500  0.75000000  1
  O  O16  1  0.47034400  0.22953600  0.45847800  1
  O  O17  1  0.27046400  0.74080900  0.22894200  1
  O  O18  1  0.75919100  0.02965600  0.48813300  1
  O  O19  1  0.01186700  0.04152200  0.27105800  1
  O  O20  1  0.74080900  0.22894200  0.27046400  1
  O  O21  1  0.48813300  0.75919100  0.02965600  1
  O  O22  1  0.04152200  0.27105800  0.01186700  1
  O  O23  1  0.45847800  0.47034400  0.22953600  1
  O  O24  1  0.22953600  0.45847800  0.47034400  1
  O  O25  1  0.22894200  0.27046400  0.74080900  1
  O  O26  1  0.02965600  0.48813300  0.75919100  1
  O  O27  1  0.27105800  0.01186700  0.04152200  1
  O  O28  1  0.54152200  0.52965600  0.77046400  1
  O  O29  1  0.97034400  0.51186700  0.24080900  1
  O  O30  1  0.98813300  0.95847800  0.72894200  1
  O  O31  1  0.77105800  0.72953600  0.25919100  1
  O  O32  1  0.51186700  0.24080900  0.97034400  1
  O  O33  1  0.72894200  0.98813300  0.95847800  1
  O  O34  1  0.72953600  0.25919100  0.77105800  1
  O  O35  1  0.77046400  0.54152200  0.52965600  1
  O  O36  1  0.52965600  0.77046400  0.54152200  1
  O  O37  1  0.24080900  0.97034400  0.51186700  1
  O  O38  1  0.95847800  0.72894200  0.98813300  1
  O  O39  1  0.25919100  0.77105800  0.72953600  1
