# generated using pymatgen
data_SmSI
_symmetry_space_group_name_H-M   'P 1'
_cell_length_a   11.45171156
_cell_length_b   11.45171156
_cell_length_c   11.45171139
_cell_angle_alpha   23.20324544
_cell_angle_beta   23.20324544
_cell_angle_gamma   23.20324481
_symmetry_Int_Tables_number   1
_chemical_formula_structural   SmSI
_chemical_formula_sum   'Sm2 S2 I2'
_cell_volume   204.65072187
_cell_formula_units_Z   2
loop_
 _symmetry_equiv_pos_site_id
 _symmetry_equiv_pos_as_xyz
  1  'x, y, z'
loop_
 _atom_site_type_symbol
 _atom_site_label
 _atom_site_symmetry_multiplicity
 _atom_site_fract_x
 _atom_site_fract_y
 _atom_site_fract_z
 _atom_site_occupancy
  Sm  Sm0  1  0.38659100  0.38659100  0.38659100  1
  Sm  Sm1  1  0.61340900  0.61340900  0.61340900  1
  S  S2  1  0.30194000  0.30194000  0.30194000  1
  S  S3  1  0.69806000  0.69806000  0.69806000  1
  I  I4  1  0.11321800  0.11321800  0.11321800  1
  I  I5  1  0.88678200  0.88678200  0.88678200  1
