# generated using pymatgen
data_Tm10In20Rh9
_symmetry_space_group_name_H-M   'P 1'
_cell_length_a   13.48987900
_cell_length_b   13.48987900
_cell_length_c   9.36372500
_cell_angle_alpha   90.00000000
_cell_angle_beta   90.00000000
_cell_angle_gamma   90.00000000
_symmetry_Int_Tables_number   1
_chemical_formula_structural   Tm10In20Rh9
_chemical_formula_sum   'Tm20 In40 Rh18'
_cell_volume   1703.98104338
_cell_formula_units_Z   2
loop_
 _symmetry_equiv_pos_site_id
 _symmetry_equiv_pos_as_xyz
  1  'x, y, z'
loop_
 _atom_site_type_symbol
 _atom_site_label
 _atom_site_symmetry_multiplicity
 _atom_site_fract_x
 _atom_site_fract_y
 _atom_site_fract_z
 _atom_site_occupancy
  Tm  Tm0  1  0.79644600  0.29644600  0.73016600  1
  Tm  Tm1  1  0.00000000  0.50000000  0.63542400  1
  Tm  Tm2  1  0.27498100  0.50000000  0.23171900  1
  Tm  Tm3  1  0.70355400  0.20355400  0.26983400  1
  Tm  Tm4  1  0.79644600  0.70355400  0.73016600  1
  Tm  Tm5  1  0.50000000  0.00000000  0.84348100  1
  Tm  Tm6  1  0.22501900  0.00000000  0.76828100  1
  Tm  Tm7  1  0.77498100  0.00000000  0.76828100  1
  Tm  Tm8  1  0.70355400  0.79644600  0.26983400  1
  Tm  Tm9  1  0.50000000  0.00000000  0.36457600  1
  Tm  Tm10  1  0.29644600  0.79644600  0.26983400  1
  Tm  Tm11  1  0.20355400  0.70355400  0.73016600  1
  Tm  Tm12  1  0.50000000  0.72501900  0.76828100  1
  Tm  Tm13  1  0.00000000  0.77498100  0.23171900  1
  Tm  Tm14  1  0.29644600  0.20355400  0.26983400  1
  Tm  Tm15  1  0.00000000  0.22501900  0.23171900  1
  Tm  Tm16  1  0.20355400  0.29644600  0.73016600  1
  Tm  Tm17  1  0.00000000  0.50000000  0.15651900  1
  Tm  Tm18  1  0.72501900  0.50000000  0.23171900  1
  Tm  Tm19  1  0.50000000  0.27498100  0.76828100  1
  In  In20  1  0.13146500  0.13146500  0.50000000  1
  In  In21  1  0.63146500  0.36853500  0.50000000  1
  In  In22  1  0.50000000  0.61278600  0.24086200  1
  In  In23  1  0.50000000  0.16759600  0.09994100  1
  In  In24  1  0.00000000  0.11278600  0.75913800  1
  In  In25  1  0.16759600  0.50000000  0.90005900  1
  In  In26  1  0.33240400  0.00000000  0.09994100  1
  In  In27  1  0.63146500  0.63146500  0.50000000  1
  In  In28  1  0.88721400  0.00000000  0.24086200  1
  In  In29  1  0.86961700  0.36961700  0.40675300  1
  In  In30  1  0.13146500  0.86853500  0.50000000  1
  In  In31  1  0.36961700  0.86961700  0.59324700  1
  In  In32  1  0.83240400  0.50000000  0.90005900  1
  In  In33  1  0.63038300  0.13038300  0.59324700  1
  In  In34  1  0.86853500  0.86853500  0.50000000  1
  In  In35  1  0.50000000  0.83240400  0.09994100  1
  In  In36  1  0.65019800  0.34980200  0.00000000  1
  In  In37  1  0.00000000  0.33240400  0.90005900  1
  In  In38  1  0.11278600  0.00000000  0.24086200  1
  In  In39  1  0.63038300  0.86961700  0.59324700  1
  In  In40  1  0.86853500  0.13146500  0.50000000  1
  In  In41  1  0.65019800  0.65019800  0.00000000  1
  In  In42  1  0.34980200  0.65019800  0.00000000  1
  In  In43  1  0.36853500  0.63146500  0.50000000  1
  In  In44  1  0.61278600  0.50000000  0.75913800  1
  In  In45  1  0.00000000  0.88721400  0.75913800  1
  In  In46  1  0.13038300  0.63038300  0.40675300  1
  In  In47  1  0.36853500  0.36853500  0.50000000  1
  In  In48  1  0.86961700  0.63038300  0.40675300  1
  In  In49  1  0.66759600  0.00000000  0.09994100  1
  In  In50  1  0.13038300  0.36961700  0.40675300  1
  In  In51  1  0.00000000  0.66759600  0.90005900  1
  In  In52  1  0.15019800  0.84980200  0.00000000  1
  In  In53  1  0.15019800  0.15019800  0.00000000  1
  In  In54  1  0.38721400  0.50000000  0.75913800  1
  In  In55  1  0.50000000  0.38721400  0.24086200  1
  In  In56  1  0.84980200  0.84980200  0.00000000  1
  In  In57  1  0.84980200  0.15019800  0.00000000  1
  In  In58  1  0.36961700  0.13038300  0.59324700  1
  In  In59  1  0.34980200  0.34980200  0.00000000  1
  Rh  Rh60  1  0.50000000  0.77892600  0.40289300  1
  Rh  Rh61  1  0.72107400  0.00000000  0.40289300  1
  Rh  Rh62  1  0.84295900  0.65704100  0.10386000  1
  Rh  Rh63  1  0.77892600  0.50000000  0.59710700  1
  Rh  Rh64  1  0.15704100  0.65704100  0.10386000  1
  Rh  Rh65  1  0.15704100  0.34295900  0.10386000  1
  Rh  Rh66  1  0.65704100  0.15704100  0.89614000  1
  Rh  Rh67  1  0.65704100  0.84295900  0.89614000  1
  Rh  Rh68  1  0.00000000  0.27892600  0.59710700  1
  Rh  Rh69  1  0.84295900  0.34295900  0.10386000  1
  Rh  Rh70  1  0.34295900  0.84295900  0.89614000  1
  Rh  Rh71  1  0.50000000  0.22107400  0.40289300  1
  Rh  Rh72  1  0.50000000  0.50000000  0.00000000  1
  Rh  Rh73  1  0.34295900  0.15704100  0.89614000  1
  Rh  Rh74  1  0.22107400  0.50000000  0.59710700  1
  Rh  Rh75  1  0.00000000  0.00000000  0.00000000  1
  Rh  Rh76  1  0.27892600  0.00000000  0.40289300  1
  Rh  Rh77  1  0.00000000  0.72107400  0.59710700  1
