# generated using pymatgen
data_K4Na2TeO6
_symmetry_space_group_name_H-M   'P 1'
_cell_length_a   10.06244600
_cell_length_b   6.76621700
_cell_length_c   7.33783947
_cell_angle_alpha   57.26147277
_cell_angle_beta   90.00000000
_cell_angle_gamma   90.00000000
_symmetry_Int_Tables_number   1
_chemical_formula_structural   K4Na2TeO6
_chemical_formula_sum   'K8 Na4 Te2 O12'
_cell_volume   420.23261563
_cell_formula_units_Z   2
loop_
 _symmetry_equiv_pos_site_id
 _symmetry_equiv_pos_as_xyz
  1  'x, y, z'
loop_
 _atom_site_type_symbol
 _atom_site_label
 _atom_site_symmetry_multiplicity
 _atom_site_fract_x
 _atom_site_fract_y
 _atom_site_fract_z
 _atom_site_occupancy
  K  K0  1  0.51219300  0.68724000  0.06668200  1
  K  K1  1  0.67720500  0.49843500  0.51419000  1
  K  K2  1  0.01219300  0.31276000  0.43331800  1
  K  K3  1  0.32279500  0.50156500  0.48581000  1
  K  K4  1  0.82279500  0.49843500  0.01419000  1
  K  K5  1  0.98780700  0.68724000  0.56668200  1
  K  K6  1  0.17720500  0.50156500  0.98581000  1
  K  K7  1  0.48780700  0.31276000  0.93331800  1
  Na  Na8  1  0.74201000  0.01207900  0.21429200  1
  Na  Na9  1  0.25799000  0.98792100  0.78570800  1
  Na  Na10  1  0.24201000  0.98792100  0.28570800  1
  Na  Na11  1  0.75799000  0.01207900  0.71429200  1
  Te  Te12  1  0.00000000  0.00000000  0.00000000  1
  Te  Te13  1  0.50000000  0.00000000  0.50000000  1
  O  O14  1  0.84960900  0.22218700  0.84353700  1
  O  O15  1  0.87081700  0.74895500  0.19749900  1
  O  O16  1  0.62918300  0.74895500  0.69749900  1
  O  O17  1  0.00825200  0.11171900  0.20146100  1
  O  O18  1  0.49174800  0.11171900  0.70146100  1
  O  O19  1  0.65039100  0.22218700  0.34353700  1
  O  O20  1  0.99174800  0.88828100  0.79853900  1
  O  O21  1  0.37081700  0.25104500  0.30250100  1
  O  O22  1  0.15039100  0.77781300  0.15646300  1
  O  O23  1  0.34960900  0.77781300  0.65646300  1
  O  O24  1  0.50825200  0.88828100  0.29853900  1
  O  O25  1  0.12918300  0.25104500  0.80250100  1
