# generated using pymatgen
data_Ca3Nb2CoO9
_symmetry_space_group_name_H-M   'P 1'
_cell_length_a   5.50045100
_cell_length_b   9.72595500
_cell_length_c   16.80534492
_cell_angle_alpha   55.70530158
_cell_angle_beta   90.00000000
_cell_angle_gamma   90.00000000
_symmetry_Int_Tables_number   1
_chemical_formula_structural   Ca3Nb2CoO9
_chemical_formula_sum   'Ca12 Nb8 Co4 O36'
_cell_volume   742.74052780
_cell_formula_units_Z   4
loop_
 _symmetry_equiv_pos_site_id
 _symmetry_equiv_pos_as_xyz
  1  'x, y, z'
loop_
 _atom_site_type_symbol
 _atom_site_label
 _atom_site_symmetry_multiplicity
 _atom_site_fract_x
 _atom_site_fract_y
 _atom_site_fract_z
 _atom_site_occupancy
  Ca  Ca0  1  0.48579000  0.45107300  0.39965800  1
  Ca  Ca1  1  0.99216100  0.21299400  0.77271700  1
  Ca  Ca2  1  0.01421000  0.45107300  0.89965800  1
  Ca  Ca3  1  0.50783900  0.21299400  0.27271700  1
  Ca  Ca4  1  0.98174600  0.87737300  0.43185700  1
  Ca  Ca5  1  0.51421000  0.54892700  0.60034200  1
  Ca  Ca6  1  0.49216100  0.78700600  0.72728300  1
  Ca  Ca7  1  0.98579000  0.54892700  0.10034200  1
  Ca  Ca8  1  0.48174600  0.12262700  0.06814300  1
  Ca  Ca9  1  0.51825400  0.87737300  0.93185700  1
  Ca  Ca10  1  0.01825400  0.12262700  0.56814300  1
  Ca  Ca11  1  0.00783900  0.78700600  0.22728300  1
  Nb  Nb12  1  0.01039800  0.82677600  0.84007900  1
  Nb  Nb13  1  0.00322600  0.67582600  0.66042200  1
  Nb  Nb14  1  0.98960200  0.17322400  0.15992100  1
  Nb  Nb15  1  0.48960200  0.82677600  0.34007900  1
  Nb  Nb16  1  0.99677400  0.32417400  0.33957800  1
  Nb  Nb17  1  0.50322600  0.32417400  0.83957800  1
  Nb  Nb18  1  0.51039800  0.17322400  0.65992100  1
  Nb  Nb19  1  0.49677400  0.67582600  0.16042200  1
  Co  Co20  1  0.50000000  0.00000000  0.50000000  1
  Co  Co21  1  0.00000000  0.00000000  0.00000000  1
  Co  Co22  1  0.50000000  0.50000000  0.00000000  1
  Co  Co23  1  0.00000000  0.50000000  0.50000000  1
  O  O24  1  0.80847600  0.12021100  0.40959500  1
  O  O25  1  0.70026200  0.31289700  0.11963500  1
  O  O26  1  0.29802000  0.22080900  0.41189100  1
  O  O27  1  0.79802000  0.77919100  0.08810900  1
  O  O28  1  0.80981200  0.65855800  0.94733600  1
  O  O29  1  0.59318600  0.72800400  0.26192900  1
  O  O30  1  0.70198000  0.77919100  0.58810900  1
  O  O31  1  0.90681400  0.72800400  0.76192900  1
  O  O32  1  0.89882300  0.06495800  0.09548900  1
  O  O33  1  0.59700400  0.39145900  0.92499000  1
  O  O34  1  0.20198000  0.22080900  0.91189100  1
  O  O35  1  0.20026200  0.68710300  0.38036500  1
  O  O36  1  0.29196800  0.01434200  0.21904300  1
  O  O37  1  0.10117700  0.93504200  0.90451100  1
  O  O38  1  0.19152400  0.87978900  0.59040500  1
  O  O39  1  0.20537900  0.54604900  0.25085100  1
  O  O40  1  0.29973800  0.68710300  0.88036500  1
  O  O41  1  0.09700400  0.60854100  0.57501000  1
  O  O42  1  0.79196800  0.98565800  0.28095700  1
  O  O43  1  0.30981200  0.34144200  0.55266400  1
  O  O44  1  0.69018800  0.65855800  0.44733600  1
  O  O45  1  0.79973800  0.31289700  0.61963500  1
  O  O46  1  0.09318600  0.27199600  0.23807100  1
  O  O47  1  0.70537900  0.45395100  0.24914900  1
  O  O48  1  0.79462100  0.45395100  0.74914900  1
  O  O49  1  0.30847600  0.87978900  0.09040500  1
  O  O50  1  0.39882300  0.93504200  0.40451100  1
  O  O51  1  0.19018800  0.34144200  0.05266400  1
  O  O52  1  0.70803200  0.98565800  0.78095700  1
  O  O53  1  0.60117700  0.06495800  0.59548900  1
  O  O54  1  0.90299600  0.39145900  0.42499000  1
  O  O55  1  0.20803200  0.01434200  0.71904300  1
  O  O56  1  0.29462100  0.54604900  0.75085100  1
  O  O57  1  0.40681400  0.27199600  0.73807100  1
  O  O58  1  0.40299600  0.60854100  0.07501000  1
  O  O59  1  0.69152400  0.12021100  0.90959500  1
