# generated using pymatgen
data_CsAsOF4
_symmetry_space_group_name_H-M   'P 1'
_cell_length_a   6.67879200
_cell_length_b   5.32989800
_cell_length_c   14.30704291
_cell_angle_alpha   84.01913176
_cell_angle_beta   90.00000000
_cell_angle_gamma   90.00000000
_symmetry_Int_Tables_number   1
_chemical_formula_structural   CsAsOF4
_chemical_formula_sum   'Cs4 As4 O4 F16'
_cell_volume   506.51960802
_cell_formula_units_Z   4
loop_
 _symmetry_equiv_pos_site_id
 _symmetry_equiv_pos_as_xyz
  1  'x, y, z'
loop_
 _atom_site_type_symbol
 _atom_site_label
 _atom_site_symmetry_multiplicity
 _atom_site_fract_x
 _atom_site_fract_y
 _atom_site_fract_z
 _atom_site_occupancy
  Cs  Cs0  1  0.12296500  0.40642300  0.65413500  1
  Cs  Cs1  1  0.37703500  0.40642300  0.15413500  1
  Cs  Cs2  1  0.62296500  0.59357700  0.84586500  1
  Cs  Cs3  1  0.87703500  0.59357700  0.34586500  1
  As  As4  1  0.10728300  0.97252400  0.92093700  1
  As  As5  1  0.60728300  0.02747600  0.57906300  1
  As  As6  1  0.89271700  0.02747600  0.07906300  1
  As  As7  1  0.39271700  0.97252400  0.42093700  1
  O  O8  1  0.08531400  0.20119100  0.00728300  1
  O  O9  1  0.58531400  0.79880900  0.49271700  1
  O  O10  1  0.41468600  0.20119100  0.50728300  1
  O  O11  1  0.91468600  0.79880900  0.99271700  1
  F  F12  1  0.68623600  0.19324200  0.01877100  1
  F  F13  1  0.70683300  0.84416800  0.14646900  1
  F  F14  1  0.29316700  0.15583200  0.85353100  1
  F  F15  1  0.57681400  0.13224000  0.34215100  1
  F  F16  1  0.07681400  0.86776000  0.15784900  1
  F  F17  1  0.11475500  0.73677100  0.83979700  1
  F  F18  1  0.38524500  0.73677100  0.33979700  1
  F  F19  1  0.20683300  0.15583200  0.35353100  1
  F  F20  1  0.18623600  0.80675800  0.48122900  1
  F  F21  1  0.31376400  0.80675800  0.98122900  1
  F  F22  1  0.88524500  0.26322900  0.16020300  1
  F  F23  1  0.42318600  0.86776000  0.65784900  1
  F  F24  1  0.92318600  0.13224000  0.84215100  1
  F  F25  1  0.81376400  0.19324200  0.51877100  1
  F  F26  1  0.61475500  0.26322900  0.66020300  1
  F  F27  1  0.79316700  0.84416800  0.64646900  1
