# generated using pymatgen
data_Cs4P2Se9
_symmetry_space_group_name_H-M   'P 1'
_cell_length_a   7.55844754
_cell_length_b   7.55844754
_cell_length_c   20.12257563
_cell_angle_alpha   87.34008583
_cell_angle_beta   87.34008583
_cell_angle_gamma   92.78555681
_symmetry_Int_Tables_number   1
_chemical_formula_structural   Cs4P2Se9
_chemical_formula_sum   'Cs8 P4 Se18'
_cell_volume   1145.64478894
_cell_formula_units_Z   2
loop_
 _symmetry_equiv_pos_site_id
 _symmetry_equiv_pos_as_xyz
  1  'x, y, z'
loop_
 _atom_site_type_symbol
 _atom_site_label
 _atom_site_symmetry_multiplicity
 _atom_site_fract_x
 _atom_site_fract_y
 _atom_site_fract_z
 _atom_site_occupancy
  Cs  Cs0  1  0.71692900  0.21587300  0.47469300  1
  Cs  Cs1  1  0.28307100  0.78412700  0.52530700  1
  Cs  Cs2  1  0.78412700  0.28307100  0.02530700  1
  Cs  Cs3  1  0.56309200  0.75673300  0.17442600  1
  Cs  Cs4  1  0.24326700  0.43690800  0.32557400  1
  Cs  Cs5  1  0.75673300  0.56309200  0.67442600  1
  Cs  Cs6  1  0.21587300  0.71692900  0.97469300  1
  Cs  Cs7  1  0.43690800  0.24326700  0.82557400  1
  P  P8  1  0.73209700  0.74695300  0.37677100  1
  P  P9  1  0.25304700  0.26790300  0.12322900  1
  P  P10  1  0.74695300  0.73209700  0.87677100  1
  P  P11  1  0.26790300  0.25304700  0.62322900  1
  Se  Se12  1  0.11191700  0.50587000  0.14458000  1
  Se  Se13  1  0.88808300  0.49413000  0.85542000  1
  Se  Se14  1  0.50830000  0.75171100  0.82036100  1
  Se  Se15  1  0.50587000  0.11191700  0.64458000  1
  Se  Se16  1  0.75171100  0.50830000  0.32036100  1
  Se  Se17  1  0.49413000  0.88808300  0.35542000  1
  Se  Se18  1  0.24828900  0.49170000  0.67963900  1
  Se  Se19  1  0.01533200  0.06013600  0.65057600  1
  Se  Se20  1  0.28159600  0.20876900  0.01680400  1
  Se  Se21  1  0.98466800  0.93986400  0.34942400  1
  Se  Se22  1  0.79123100  0.71840400  0.48319600  1
  Se  Se23  1  0.93986400  0.98466800  0.84942400  1
  Se  Se24  1  0.49170000  0.24828900  0.17963900  1
  Se  Se25  1  0.71840400  0.79123100  0.98319600  1
  Se  Se26  1  0.06013600  0.01533200  0.15057600  1
  Se  Se27  1  0.90602600  0.09397400  0.25000000  1
  Se  Se28  1  0.20876900  0.28159600  0.51680400  1
  Se  Se29  1  0.09397400  0.90602600  0.75000000  1
