# generated using pymatgen
data_U4Tc7Ge6
_symmetry_space_group_name_H-M   'P 1'
_cell_length_a   7.22591332
_cell_length_b   7.22591332
_cell_length_c   7.22591332
_cell_angle_alpha   109.47122063
_cell_angle_beta   109.47122063
_cell_angle_gamma   109.47122063
_symmetry_Int_Tables_number   1
_chemical_formula_structural   U4Tc7Ge6
_chemical_formula_sum   'U4 Tc7 Ge6'
_cell_volume   290.43994904
_cell_formula_units_Z   1
loop_
 _symmetry_equiv_pos_site_id
 _symmetry_equiv_pos_as_xyz
  1  'x, y, z'
loop_
 _atom_site_type_symbol
 _atom_site_label
 _atom_site_symmetry_multiplicity
 _atom_site_fract_x
 _atom_site_fract_y
 _atom_site_fract_z
 _atom_site_occupancy
  U  U0  1  0.50000000  0.50000000  0.50000000  1
  U  U1  1  0.00000000  0.00000000  0.50000000  1
  U  U2  1  0.50000000  0.00000000  0.00000000  1
  U  U3  1  0.00000000  0.50000000  0.00000000  1
  Tc  Tc4  1  0.75000000  0.25000000  0.50000000  1
  Tc  Tc5  1  0.50000000  0.25000000  0.75000000  1
  Tc  Tc6  1  0.50000000  0.75000000  0.25000000  1
  Tc  Tc7  1  0.25000000  0.50000000  0.75000000  1
  Tc  Tc8  1  0.75000000  0.50000000  0.25000000  1
  Tc  Tc9  1  0.25000000  0.75000000  0.50000000  1
  Tc  Tc10  1  0.00000000  0.00000000  0.00000000  1
  Ge  Ge11  1  0.30750900  0.30750900  0.00000000  1
  Ge  Ge12  1  0.00000000  0.30750900  0.30750900  1
  Ge  Ge13  1  0.00000000  0.69249100  0.69249100  1
  Ge  Ge14  1  0.69249100  0.00000000  0.69249100  1
  Ge  Ge15  1  0.30750900  0.00000000  0.30750900  1
  Ge  Ge16  1  0.69249100  0.69249100  0.00000000  1
