# generated using pymatgen
data_Er2Ti3Si4
_symmetry_space_group_name_H-M   'P 1'
_cell_length_a   7.02202700
_cell_length_b   7.02202700
_cell_length_c   12.89969700
_cell_angle_alpha   90.00000000
_cell_angle_beta   90.00000000
_cell_angle_gamma   90.00000000
_symmetry_Int_Tables_number   1
_chemical_formula_structural   Er2Ti3Si4
_chemical_formula_sum   'Er8 Ti12 Si16'
_cell_volume   636.06939455
_cell_formula_units_Z   4
loop_
 _symmetry_equiv_pos_site_id
 _symmetry_equiv_pos_as_xyz
  1  'x, y, z'
loop_
 _atom_site_type_symbol
 _atom_site_label
 _atom_site_symmetry_multiplicity
 _atom_site_fract_x
 _atom_site_fract_y
 _atom_site_fract_z
 _atom_site_occupancy
  Er  Er0  1  0.34129900  0.00222600  0.46652500  1
  Er  Er1  1  0.49777500  0.84129900  0.71652500  1
  Er  Er2  1  0.50222500  0.15870100  0.21652500  1
  Er  Er3  1  0.84129900  0.49777500  0.28347500  1
  Er  Er4  1  0.15870100  0.50222500  0.78347500  1
  Er  Er5  1  0.65870100  0.99777500  0.96652500  1
  Er  Er6  1  0.00222600  0.34129900  0.53347500  1
  Er  Er7  1  0.99777500  0.65870100  0.03347500  1
  Ti  Ti8  1  0.32714600  0.32714600  0.00000000  1
  Ti  Ti9  1  0.17285400  0.82714600  0.25000000  1
  Ti  Ti10  1  0.82714600  0.17285400  0.75000000  1
  Ti  Ti11  1  0.67285400  0.67285400  0.50000000  1
  Ti  Ti12  1  0.15136400  0.00757300  0.87567900  1
  Ti  Ti13  1  0.49242700  0.65136400  0.12567900  1
  Ti  Ti14  1  0.50757300  0.34863600  0.62567900  1
  Ti  Ti15  1  0.65136400  0.49242700  0.87432100  1
  Ti  Ti16  1  0.34863600  0.50757300  0.37432100  1
  Ti  Ti17  1  0.84863600  0.99242700  0.37567900  1
  Ti  Ti18  1  0.00757300  0.15136400  0.12432100  1
  Ti  Ti19  1  0.99242700  0.84863600  0.62432100  1
  Si  Si20  1  0.20316200  0.13185400  0.68360700  1
  Si  Si21  1  0.36814600  0.70316200  0.93360700  1
  Si  Si22  1  0.63185400  0.29683800  0.43360700  1
  Si  Si23  1  0.70316200  0.36814600  0.06639300  1
  Si  Si24  1  0.29683800  0.63185400  0.56639300  1
  Si  Si25  1  0.79683800  0.86814600  0.18360700  1
  Si  Si26  1  0.13185400  0.20316200  0.31639300  1
  Si  Si27  1  0.86814600  0.79683800  0.81639300  1
  Si  Si28  1  0.29088900  0.95308600  0.06459400  1
  Si  Si29  1  0.54691400  0.79088900  0.31459400  1
  Si  Si30  1  0.45308600  0.20911100  0.81459400  1
  Si  Si31  1  0.79088900  0.54691400  0.68540600  1
  Si  Si32  1  0.20911100  0.45308600  0.18540600  1
  Si  Si33  1  0.70911100  0.04691400  0.56459400  1
  Si  Si34  1  0.95308600  0.29088900  0.93540600  1
  Si  Si35  1  0.04691400  0.70911100  0.43540600  1
