# generated using pymatgen
data_Rb2LiTaS4
_symmetry_space_group_name_H-M   'P 1'
_cell_length_a   7.20433800
_cell_length_b   11.56634345
_cell_length_c   12.06142651
_cell_angle_alpha   71.52676123
_cell_angle_beta   87.61049372
_cell_angle_gamma   83.52163877
_symmetry_Int_Tables_number   1
_chemical_formula_structural   Rb2LiTaS4
_chemical_formula_sum   'Rb8 Li4 Ta4 S16'
_cell_volume   947.15825094
_cell_formula_units_Z   4
loop_
 _symmetry_equiv_pos_site_id
 _symmetry_equiv_pos_as_xyz
  1  'x, y, z'
loop_
 _atom_site_type_symbol
 _atom_site_label
 _atom_site_symmetry_multiplicity
 _atom_site_fract_x
 _atom_site_fract_y
 _atom_site_fract_z
 _atom_site_occupancy
  Rb  Rb0  1  0.68347500  0.09694100  0.24947200  1
  Rb  Rb1  1  0.73531200  0.62352000  0.72324900  1
  Rb  Rb2  1  0.24889800  0.84516000  0.14252900  1
  Rb  Rb3  1  0.75117200  0.65050700  0.34946400  1
  Rb  Rb4  1  0.31652500  0.90305900  0.75052800  1
  Rb  Rb5  1  0.24882800  0.34949300  0.65053600  1
  Rb  Rb6  1  0.26468800  0.37648000  0.27675100  1
  Rb  Rb7  1  0.75110200  0.15484000  0.85747100  1
  Li  Li8  1  0.78062000  0.47843700  0.07155600  1
  Li  Li9  1  0.82421300  0.98880600  0.58525300  1
  Li  Li10  1  0.17578700  0.01119400  0.41474700  1
  Li  Li11  1  0.21938000  0.52156300  0.92844400  1
  Ta  Ta12  1  0.21617700  0.23076500  0.01454100  1
  Ta  Ta13  1  0.77664500  0.27251200  0.48538600  1
  Ta  Ta14  1  0.22335500  0.72748800  0.51461400  1
  Ta  Ta15  1  0.78382300  0.76923500  0.98545900  1
  S  S16  1  0.53514800  0.66047500  0.99427600  1
  S  S17  1  0.96705000  0.37307000  0.94082700  1
  S  S18  1  0.23728100  0.62124600  0.70988300  1
  S  S19  1  0.05267800  0.14692700  0.53173000  1
  S  S20  1  0.26672400  0.10577200  0.90111500  1
  S  S21  1  0.16963200  0.11779200  0.20494100  1
  S  S22  1  0.46485200  0.33952500  0.00572400  1
  S  S23  1  0.83036800  0.88220800  0.79505900  1
  S  S24  1  0.25202100  0.60020300  0.40318800  1
  S  S25  1  0.03295000  0.62693000  0.05917300  1
  S  S26  1  0.76271900  0.37875400  0.29011700  1
  S  S27  1  0.73327600  0.89422800  0.09888500  1
  S  S28  1  0.54746800  0.14445500  0.53111800  1
  S  S29  1  0.45253200  0.85554500  0.46888200  1
  S  S30  1  0.74797900  0.39979700  0.59681200  1
  S  S31  1  0.94732200  0.85307300  0.46827000  1
