# generated using pymatgen
data_Gd3Sb5O12
_symmetry_space_group_name_H-M   'P 1'
_cell_length_a   9.52504103
_cell_length_b   9.52504103
_cell_length_c   9.52504103
_cell_angle_alpha   109.47122063
_cell_angle_beta   109.47122063
_cell_angle_gamma   109.47122063
_symmetry_Int_Tables_number   1
_chemical_formula_structural   Gd3Sb5O12
_chemical_formula_sum   'Gd6 Sb10 O24'
_cell_volume   665.24048874
_cell_formula_units_Z   2
loop_
 _symmetry_equiv_pos_site_id
 _symmetry_equiv_pos_as_xyz
  1  'x, y, z'
loop_
 _atom_site_type_symbol
 _atom_site_label
 _atom_site_symmetry_multiplicity
 _atom_site_fract_x
 _atom_site_fract_y
 _atom_site_fract_z
 _atom_site_occupancy
  Gd  Gd0  1  0.25000000  0.50000000  0.75000000  1
  Gd  Gd1  1  0.50000000  0.75000000  0.25000000  1
  Gd  Gd2  1  0.50000000  0.25000000  0.75000000  1
  Gd  Gd3  1  0.75000000  0.25000000  0.50000000  1
  Gd  Gd4  1  0.25000000  0.75000000  0.50000000  1
  Gd  Gd5  1  0.75000000  0.50000000  0.25000000  1
  Sb  Sb6  1  0.71749700  0.71749700  0.00000000  1
  Sb  Sb7  1  0.28250300  0.28250300  0.00000000  1
  Sb  Sb8  1  0.71749700  0.00000000  0.71749700  1
  Sb  Sb9  1  0.28250300  0.00000000  0.28250300  1
  Sb  Sb10  1  0.00000000  0.28250300  0.28250300  1
  Sb  Sb11  1  0.00000000  0.71749700  0.71749700  1
  Sb  Sb12  1  0.00000000  0.00000000  0.48950400  1
  Sb  Sb13  1  0.48950400  0.00000000  0.00000000  1
  Sb  Sb14  1  0.00000000  0.48950400  0.00000000  1
  Sb  Sb15  1  0.51049600  0.51049600  0.51049600  1
  O  O16  1  0.29459500  0.00000000  0.49511400  1
  O  O17  1  0.20051900  0.70540500  0.70540500  1
  O  O18  1  0.00000000  0.49511400  0.29459500  1
  O  O19  1  0.50488600  0.50488600  0.79948100  1
  O  O20  1  0.49511400  0.29459500  0.00000000  1
  O  O21  1  0.70540500  0.20051900  0.70540500  1
  O  O22  1  0.50488600  0.79948100  0.50488600  1
  O  O23  1  0.29459500  0.49511400  0.00000000  1
  O  O24  1  0.79948100  0.50488600  0.50488600  1
  O  O25  1  0.00000000  0.29459500  0.49511400  1
  O  O26  1  0.70540500  0.70540500  0.20051900  1
  O  O27  1  0.49511400  0.00000000  0.29459500  1
  O  O28  1  0.80025900  0.00000000  0.52416600  1
  O  O29  1  0.72390700  0.19974100  0.19974100  1
  O  O30  1  0.00000000  0.52416600  0.80025900  1
  O  O31  1  0.47583400  0.47583400  0.27609300  1
  O  O32  1  0.52416600  0.80025900  0.00000000  1
  O  O33  1  0.19974100  0.72390700  0.19974100  1
  O  O34  1  0.47583400  0.27609300  0.47583400  1
  O  O35  1  0.80025900  0.52416600  0.00000000  1
  O  O36  1  0.27609300  0.47583400  0.47583400  1
  O  O37  1  0.00000000  0.80025900  0.52416600  1
  O  O38  1  0.19974100  0.19974100  0.72390700  1
  O  O39  1  0.52416600  0.00000000  0.80025900  1
