# generated using pymatgen
data_Cs3BiSe3
_symmetry_space_group_name_H-M   'P 1'
_cell_length_a   10.84879500
_cell_length_b   10.84879500
_cell_length_c   10.84879500
_cell_angle_alpha   90.00000000
_cell_angle_beta   90.00000000
_cell_angle_gamma   90.00000000
_symmetry_Int_Tables_number   1
_chemical_formula_structural   Cs3BiSe3
_chemical_formula_sum   'Cs12 Bi4 Se12'
_cell_volume   1276.86360542
_cell_formula_units_Z   4
loop_
 _symmetry_equiv_pos_site_id
 _symmetry_equiv_pos_as_xyz
  1  'x, y, z'
loop_
 _atom_site_type_symbol
 _atom_site_label
 _atom_site_symmetry_multiplicity
 _atom_site_fract_x
 _atom_site_fract_y
 _atom_site_fract_z
 _atom_site_occupancy
  Cs  Cs0  1  0.18035100  0.68035100  0.81964900  1
  Cs  Cs1  1  0.31153700  0.68846300  0.18846300  1
  Cs  Cs2  1  0.93008200  0.43008200  0.06991800  1
  Cs  Cs3  1  0.81153700  0.81153700  0.81153700  1
  Cs  Cs4  1  0.43008200  0.06991800  0.93008200  1
  Cs  Cs5  1  0.68035100  0.81964900  0.18035100  1
  Cs  Cs6  1  0.56991800  0.56991800  0.56991800  1
  Cs  Cs7  1  0.81964900  0.18035100  0.68035100  1
  Cs  Cs8  1  0.68846300  0.18846300  0.31153700  1
  Cs  Cs9  1  0.06991800  0.93008200  0.43008200  1
  Cs  Cs10  1  0.18846300  0.31153700  0.68846300  1
  Cs  Cs11  1  0.31964900  0.31964900  0.31964900  1
  Bi  Bi12  1  0.52820800  0.47179200  0.97179200  1
  Bi  Bi13  1  0.02820800  0.02820800  0.02820800  1
  Bi  Bi14  1  0.97179200  0.52820800  0.47179200  1
  Bi  Bi15  1  0.47179200  0.97179200  0.52820800  1
  Se  Se16  1  0.29281000  0.39542600  0.99553700  1
  Se  Se17  1  0.79281000  0.10457400  0.00446300  1
  Se  Se18  1  0.70719000  0.89542600  0.50446300  1
  Se  Se19  1  0.99553700  0.29281000  0.39542600  1
  Se  Se20  1  0.89542600  0.50446300  0.70719000  1
  Se  Se21  1  0.10457400  0.00446300  0.79281000  1
  Se  Se22  1  0.20719000  0.60457400  0.49553700  1
  Se  Se23  1  0.39542600  0.99553700  0.29281000  1
  Se  Se24  1  0.60457400  0.49553700  0.20719000  1
  Se  Se25  1  0.50446300  0.70719000  0.89542600  1
  Se  Se26  1  0.00446300  0.79281000  0.10457400  1
  Se  Se27  1  0.49553700  0.20719000  0.60457400  1
