# generated using pymatgen
data_SbP2O7
_symmetry_space_group_name_H-M   'P 1'
_cell_length_a   8.16391500
_cell_length_b   8.18399700
_cell_length_c   16.47388200
_cell_angle_alpha   90.00000000
_cell_angle_beta   90.00000000
_cell_angle_gamma   90.00000000
_symmetry_Int_Tables_number   1
_chemical_formula_structural   SbP2O7
_chemical_formula_sum   'Sb8 P16 O56'
_cell_volume   1100.67698799
_cell_formula_units_Z   8
loop_
 _symmetry_equiv_pos_site_id
 _symmetry_equiv_pos_as_xyz
  1  'x, y, z'
loop_
 _atom_site_type_symbol
 _atom_site_label
 _atom_site_symmetry_multiplicity
 _atom_site_fract_x
 _atom_site_fract_y
 _atom_site_fract_z
 _atom_site_occupancy
  Sb  Sb0  1  0.48287500  0.74810000  0.37821100  1
  Sb  Sb1  1  0.48344600  0.22566600  0.13194500  1
  Sb  Sb2  1  0.01712500  0.24810000  0.87821100  1
  Sb  Sb3  1  0.51712500  0.24810000  0.62178900  1
  Sb  Sb4  1  0.51655400  0.72566600  0.86805500  1
  Sb  Sb5  1  0.98287500  0.74810000  0.12178900  1
  Sb  Sb6  1  0.01655400  0.72566600  0.63194500  1
  Sb  Sb7  1  0.98344600  0.22566600  0.36805500  1
  P  P8  1  0.57416900  0.36583600  0.42981000  1
  P  P9  1  0.12337100  0.34435800  0.59180900  1
  P  P10  1  0.60787000  0.62349600  0.18722500  1
  P  P11  1  0.88862200  0.12915500  0.17201400  1
  P  P12  1  0.07416900  0.36583600  0.07019000  1
  P  P13  1  0.39213000  0.12349600  0.81277500  1
  P  P14  1  0.10787000  0.62349600  0.31277500  1
  P  P15  1  0.89213000  0.12349600  0.68722500  1
  P  P16  1  0.87662900  0.84435800  0.40819100  1
  P  P17  1  0.11137800  0.62915500  0.82798600  1
  P  P18  1  0.61137800  0.62915500  0.67201400  1
  P  P19  1  0.42583100  0.86583600  0.57019000  1
  P  P20  1  0.92583100  0.86583600  0.92981000  1
  P  P21  1  0.62337100  0.34435800  0.90819100  1
  P  P22  1  0.37662900  0.84435800  0.09180900  1
  P  P23  1  0.38862200  0.12915500  0.32798600  1
  O  O24  1  0.22089300  0.36189900  0.12421900  1
  O  O25  1  0.00794700  0.46865300  0.82711200  1
  O  O26  1  0.94536600  0.22346500  0.09071400  1
  O  O27  1  0.44536600  0.22346500  0.40928600  1
  O  O28  1  0.55463400  0.72346500  0.59071400  1
  O  O29  1  0.29226100  0.59521700  0.83795900  1
  O  O30  1  0.96785500  0.52456100  0.07378800  1
  O  O31  1  0.07685400  0.64821800  0.22087200  1
  O  O32  1  0.72089300  0.36189900  0.37578100  1
  O  O33  1  0.70773900  0.09521700  0.16204100  1
  O  O34  1  0.74460100  0.23310100  0.66399200  1
  O  O35  1  0.20014300  0.77587400  0.07149000  1
  O  O36  1  0.27910700  0.86189900  0.62421900  1
  O  O37  1  0.96917000  0.87508100  0.48449700  1
  O  O38  1  0.88017400  0.83464600  0.02040700  1
  O  O39  1  0.11982600  0.33464600  0.97959300  1
  O  O40  1  0.53083000  0.37508100  0.98449700  1
  O  O41  1  0.03083000  0.37508100  0.51550300  1
  O  O42  1  0.77910700  0.86189900  0.87578100  1
  O  O43  1  0.25539900  0.73310100  0.33600800  1
  O  O44  1  0.99205300  0.96865300  0.17288800  1
  O  O45  1  0.75539900  0.73310100  0.16399200  1
  O  O46  1  0.04859400  0.18736700  0.64084100  1
  O  O47  1  0.05463400  0.72346500  0.90928600  1
  O  O48  1  0.13260500  0.44621500  0.33287900  1
  O  O49  1  0.93897900  0.23768200  0.24290100  1
  O  O50  1  0.92314600  0.14821800  0.77912800  1
  O  O51  1  0.42314600  0.14821800  0.72087200  1
  O  O52  1  0.53214500  0.02456100  0.57378800  1
  O  O53  1  0.95140600  0.68736700  0.35915900  1
  O  O54  1  0.61982600  0.33464600  0.52040700  1
  O  O55  1  0.86739500  0.94621500  0.66712100  1
  O  O56  1  0.46785500  0.52456100  0.42621200  1
  O  O57  1  0.79985700  0.27587400  0.92851000  1
  O  O58  1  0.45140600  0.68736700  0.14084100  1
  O  O59  1  0.49205300  0.96865300  0.32711200  1
  O  O60  1  0.70014300  0.77587400  0.42851000  1
  O  O61  1  0.29985700  0.27587400  0.57149000  1
  O  O62  1  0.43897900  0.23768200  0.25709900  1
  O  O63  1  0.38017400  0.83464600  0.47959300  1
  O  O64  1  0.56102100  0.73768200  0.74290100  1
  O  O65  1  0.20773900  0.09521700  0.33795900  1
  O  O66  1  0.13467000  0.48441000  0.65288100  1
  O  O67  1  0.63467000  0.48441000  0.84711900  1
  O  O68  1  0.36739500  0.94621500  0.83287900  1
  O  O69  1  0.06102100  0.73768200  0.75709900  1
  O  O70  1  0.24460100  0.23310100  0.83600800  1
  O  O71  1  0.50794700  0.46865300  0.67288800  1
  O  O72  1  0.03214500  0.02456100  0.92621200  1
  O  O73  1  0.36533000  0.98441000  0.15288100  1
  O  O74  1  0.79226100  0.59521700  0.66204100  1
  O  O75  1  0.54859400  0.18736700  0.85915900  1
  O  O76  1  0.46917000  0.87508100  0.01550300  1
  O  O77  1  0.63260500  0.44621500  0.16712100  1
  O  O78  1  0.57685400  0.64821800  0.27912800  1
  O  O79  1  0.86533000  0.98441000  0.34711900  1
