# generated using pymatgen
data_Tb(IO3)3
_symmetry_space_group_name_H-M   'P 1'
_cell_length_a   6.11634700
_cell_length_b   8.82671200
_cell_length_c   16.77722893
_cell_angle_alpha   65.24976406
_cell_angle_beta   90.00000000
_cell_angle_gamma   90.00000000
_symmetry_Int_Tables_number   1
_chemical_formula_structural   Tb(IO3)3
_chemical_formula_sum   'Tb4 I12 O36'
_cell_volume   822.55472577
_cell_formula_units_Z   4
loop_
 _symmetry_equiv_pos_site_id
 _symmetry_equiv_pos_as_xyz
  1  'x, y, z'
loop_
 _atom_site_type_symbol
 _atom_site_label
 _atom_site_symmetry_multiplicity
 _atom_site_fract_x
 _atom_site_fract_y
 _atom_site_fract_z
 _atom_site_occupancy
  Tb  Tb0  1  0.28582900  0.14658100  0.39628700  1
  Tb  Tb1  1  0.21417100  0.14658100  0.89628700  1
  Tb  Tb2  1  0.78582900  0.85341900  0.10371300  1
  Tb  Tb3  1  0.71417100  0.85341900  0.60371300  1
  I  I4  1  0.14346000  0.64459600  0.02021700  1
  I  I5  1  0.68718200  0.92782400  0.85720900  1
  I  I6  1  0.31281800  0.07217600  0.14279100  1
  I  I7  1  0.18718200  0.07217600  0.64279100  1
  I  I8  1  0.40628600  0.58164300  0.80219400  1
  I  I9  1  0.59371400  0.41835700  0.19780600  1
  I  I10  1  0.81281800  0.92782400  0.35720900  1
  I  I11  1  0.90628600  0.41835700  0.69780600  1
  I  I12  1  0.85654000  0.35540400  0.97978300  1
  I  I13  1  0.35654000  0.64459600  0.52021700  1
  I  I14  1  0.09371400  0.58164300  0.30219400  1
  I  I15  1  0.64346000  0.35540400  0.47978300  1
  O  O16  1  0.41695400  0.66081700  0.88749300  1
  O  O17  1  0.12343600  0.11255500  0.52947600  1
  O  O18  1  0.52824400  0.60734400  0.61707000  1
  O  O19  1  0.97175600  0.60734400  0.11707000  1
  O  O20  1  0.60624500  0.09599300  0.32981100  1
  O  O21  1  0.39375500  0.90400700  0.67018900  1
  O  O22  1  0.44499200  0.05983600  0.81140300  1
  O  O23  1  0.47175600  0.39265600  0.38293000  1
  O  O24  1  0.91695400  0.33918300  0.61250700  1
  O  O25  1  0.58304600  0.33918300  0.11250700  1
  O  O26  1  0.42634200  0.35461400  0.55814700  1
  O  O27  1  0.10624500  0.90400700  0.17018900  1
  O  O28  1  0.88034000  0.12694400  0.01370900  1
  O  O29  1  0.92634200  0.64538600  0.94185300  1
  O  O30  1  0.62343600  0.88744500  0.97052400  1
  O  O31  1  0.94499200  0.94016400  0.68859700  1
  O  O32  1  0.55500800  0.94016400  0.18859700  1
  O  O33  1  0.89375500  0.09599300  0.82981100  1
  O  O34  1  0.07365800  0.35461400  0.05814700  1
  O  O35  1  0.00970800  0.36308800  0.36632300  1
  O  O36  1  0.02824400  0.39265600  0.88293000  1
  O  O37  1  0.57365800  0.64538600  0.44185300  1
  O  O38  1  0.50970800  0.63691200  0.13367700  1
  O  O39  1  0.08304600  0.66081700  0.38749300  1
  O  O40  1  0.32206600  0.34469500  0.24475200  1
  O  O41  1  0.11966000  0.87305600  0.98629100  1
  O  O42  1  0.05500800  0.05983600  0.31140300  1
  O  O43  1  0.37656400  0.11255500  0.02947600  1
  O  O44  1  0.61966000  0.12694400  0.51370900  1
  O  O45  1  0.38034000  0.87305600  0.48629100  1
  O  O46  1  0.82206600  0.65530500  0.25524800  1
  O  O47  1  0.67793400  0.65530500  0.75524800  1
  O  O48  1  0.99029200  0.63691200  0.63367700  1
  O  O49  1  0.87656400  0.88744500  0.47052400  1
  O  O50  1  0.49029200  0.36308800  0.86632300  1
  O  O51  1  0.17793400  0.34469500  0.74475200  1
