# generated using pymatgen
data_Zn(GaS2)2
_symmetry_space_group_name_H-M   'P 1'
_cell_length_a   6.47834167
_cell_length_b   6.47834167
_cell_length_c   6.47834167
_cell_angle_alpha   131.02102227
_cell_angle_beta   131.02102227
_cell_angle_gamma   71.77968120
_symmetry_Int_Tables_number   1
_chemical_formula_structural   Zn(GaS2)2
_chemical_formula_sum   'Zn1 Ga2 S4'
_cell_volume   151.39753196
_cell_formula_units_Z   1
loop_
 _symmetry_equiv_pos_site_id
 _symmetry_equiv_pos_as_xyz
  1  'x, y, z'
loop_
 _atom_site_type_symbol
 _atom_site_label
 _atom_site_symmetry_multiplicity
 _atom_site_fract_x
 _atom_site_fract_y
 _atom_site_fract_z
 _atom_site_occupancy
  Zn  Zn0  1  0.00000000  0.00000000  0.00000000  1
  Ga  Ga1  1  0.25000000  0.75000000  0.50000000  1
  Ga  Ga2  1  0.50000000  0.50000000  0.00000000  1
  S  S3  1  0.11939300  0.12899200  0.50899500  1
  S  S4  1  0.87100800  0.38000200  0.99040000  1
  S  S5  1  0.38960200  0.88060700  0.00960000  1
  S  S6  1  0.61999800  0.61039800  0.49100500  1
