# generated using pymatgen
data_Pr3CCl5
_symmetry_space_group_name_H-M   'P 1'
_cell_length_a   8.32508924
_cell_length_b   8.32508924
_cell_length_c   16.00402965
_cell_angle_alpha   83.77837889
_cell_angle_beta   83.77837889
_cell_angle_gamma   63.85259858
_symmetry_Int_Tables_number   1
_chemical_formula_structural   Pr3CCl5
_chemical_formula_sum   'Pr12 C4 Cl20'
_cell_volume   987.53133332
_cell_formula_units_Z   4
loop_
 _symmetry_equiv_pos_site_id
 _symmetry_equiv_pos_as_xyz
  1  'x, y, z'
loop_
 _atom_site_type_symbol
 _atom_site_label
 _atom_site_symmetry_multiplicity
 _atom_site_fract_x
 _atom_site_fract_y
 _atom_site_fract_z
 _atom_site_occupancy
  Pr  Pr0  1  0.90955100  0.65639000  0.70224300  1
  Pr  Pr1  1  0.71421300  0.54291700  0.06248300  1
  Pr  Pr2  1  0.09044900  0.34361000  0.29775700  1
  Pr  Pr3  1  0.45708300  0.28578700  0.43751700  1
  Pr  Pr4  1  0.00372800  0.71025600  0.45429400  1
  Pr  Pr5  1  0.34361000  0.09044900  0.79775700  1
  Pr  Pr6  1  0.28974400  0.99627200  0.04570600  1
  Pr  Pr7  1  0.28578700  0.45708300  0.93751700  1
  Pr  Pr8  1  0.99627200  0.28974400  0.54570600  1
  Pr  Pr9  1  0.54291700  0.71421300  0.56248300  1
  Pr  Pr10  1  0.65639000  0.90955100  0.20224300  1
  Pr  Pr11  1  0.71025600  0.00372800  0.95429400  1
  C  C12  1  0.15039800  0.39074500  0.42967400  1
  C  C13  1  0.60925500  0.84960200  0.07032600  1
  C  C14  1  0.39074500  0.15039800  0.92967400  1
  C  C15  1  0.84960200  0.60925500  0.57032600  1
  Cl  Cl16  1  0.38215800  0.65240800  0.42094800  1
  Cl  Cl17  1  0.61784200  0.34759200  0.57905200  1
  Cl  Cl18  1  0.01105900  0.71732600  0.26532600  1
  Cl  Cl19  1  0.09472900  0.84717700  0.59895600  1
  Cl  Cl20  1  0.90527100  0.15282300  0.40104400  1
  Cl  Cl21  1  0.98894100  0.28267400  0.73467400  1
  Cl  Cl22  1  0.53691000  0.72102200  0.74172100  1
  Cl  Cl23  1  0.09826800  0.37664300  0.09251000  1
  Cl  Cl24  1  0.34759200  0.61784200  0.07905200  1
  Cl  Cl25  1  0.46309000  0.27897800  0.25827900  1
  Cl  Cl26  1  0.72102200  0.53691000  0.24172100  1
  Cl  Cl27  1  0.71732600  0.01105900  0.76532600  1
  Cl  Cl28  1  0.84717700  0.09472900  0.09895600  1
  Cl  Cl29  1  0.15282300  0.90527100  0.90104400  1
  Cl  Cl30  1  0.62335700  0.90173200  0.40749000  1
  Cl  Cl31  1  0.37664300  0.09826800  0.59251000  1
  Cl  Cl32  1  0.27897800  0.46309000  0.75827900  1
  Cl  Cl33  1  0.28267400  0.98894100  0.23467400  1
  Cl  Cl34  1  0.90173200  0.62335700  0.90749000  1
  Cl  Cl35  1  0.65240800  0.38215800  0.92094800  1
