# generated using pymatgen
data_ZrB2O5
_symmetry_space_group_name_H-M   'P 1'
_cell_length_a   7.01021600
_cell_length_b   4.45288000
_cell_length_c   9.07172768
_cell_angle_alpha   89.05048670
_cell_angle_beta   90.00000000
_cell_angle_gamma   90.00000000
_symmetry_Int_Tables_number   1
_chemical_formula_structural   ZrB2O5
_chemical_formula_sum   'Zr4 B8 O20'
_cell_volume   283.14099709
_cell_formula_units_Z   4
loop_
 _symmetry_equiv_pos_site_id
 _symmetry_equiv_pos_as_xyz
  1  'x, y, z'
loop_
 _atom_site_type_symbol
 _atom_site_label
 _atom_site_symmetry_multiplicity
 _atom_site_fract_x
 _atom_site_fract_y
 _atom_site_fract_z
 _atom_site_occupancy
  Zr  Zr0  1  0.11281900  0.00133000  0.32895400  1
  Zr  Zr1  1  0.61281900  0.99867000  0.17104600  1
  Zr  Zr2  1  0.88718100  0.99867000  0.67104600  1
  Zr  Zr3  1  0.38718100  0.00133000  0.82895400  1
  B  B4  1  0.41299600  0.46529900  0.33408800  1
  B  B5  1  0.73031400  0.47268400  0.92298500  1
  B  B6  1  0.58700400  0.53470100  0.66591200  1
  B  B7  1  0.26968600  0.52731600  0.07701500  1
  B  B8  1  0.08700400  0.46529900  0.83408800  1
  B  B9  1  0.23031400  0.52731600  0.57701500  1
  B  B10  1  0.91299600  0.53470100  0.16591200  1
  B  B11  1  0.76968600  0.47268400  0.42298500  1
  O  O12  1  0.59016600  0.21455500  0.67905500  1
  O  O13  1  0.34484900  0.30827300  0.19280200  1
  O  O14  1  0.89611500  0.33190800  0.85011100  1
  O  O15  1  0.27945100  0.34971200  0.44642600  1
  O  O16  1  0.72054900  0.65028800  0.55357400  1
  O  O17  1  0.59819000  0.23301500  0.96729900  1
  O  O18  1  0.22054900  0.34971200  0.94642600  1
  O  O19  1  0.09016600  0.78544500  0.82094500  1
  O  O20  1  0.90181000  0.23301500  0.46729900  1
  O  O21  1  0.15515100  0.30827300  0.69280200  1
  O  O22  1  0.90983400  0.21455500  0.17905500  1
  O  O23  1  0.84484900  0.69172700  0.30719800  1
  O  O24  1  0.77945100  0.65028800  0.05357400  1
  O  O25  1  0.40983400  0.78544500  0.32094500  1
  O  O26  1  0.60388500  0.33190800  0.35011100  1
  O  O27  1  0.10388500  0.66809200  0.14988900  1
  O  O28  1  0.09819000  0.76698500  0.53270100  1
  O  O29  1  0.65515100  0.69172700  0.80719800  1
  O  O30  1  0.39611500  0.66809200  0.64988900  1
  O  O31  1  0.40181000  0.76698500  0.03270100  1
