# generated using pymatgen
data_SiO2
_symmetry_space_group_name_H-M   'P 1'
_cell_length_a   5.13584237
_cell_length_b   5.13584237
_cell_length_c   5.13584237
_cell_angle_alpha   121.02203994
_cell_angle_beta   121.02203994
_cell_angle_gamma   88.23870671
_symmetry_Int_Tables_number   1
_chemical_formula_structural   SiO2
_chemical_formula_sum   'Si2 O4'
_cell_volume   94.26185406
_cell_formula_units_Z   2
loop_
 _symmetry_equiv_pos_site_id
 _symmetry_equiv_pos_as_xyz
  1  'x, y, z'
loop_
 _atom_site_type_symbol
 _atom_site_label
 _atom_site_symmetry_multiplicity
 _atom_site_fract_x
 _atom_site_fract_y
 _atom_site_fract_z
 _atom_site_occupancy
  Si  Si0  1  0.75000000  0.25000000  0.50000000  1
  Si  Si1  1  0.00000000  0.00000000  0.00000000  1
  O  O2  1  0.78703400  0.62500000  0.66203400  1
  O  O3  1  0.87500000  0.21296600  0.83796600  1
  O  O4  1  0.96296600  0.12500000  0.33796600  1
  O  O5  1  0.37500000  0.03703400  0.16203400  1
