# generated using pymatgen
data_LuMn2O5
_symmetry_space_group_name_H-M   'P 1'
_cell_length_a   5.76145200
_cell_length_b   7.22975900
_cell_length_c   8.47310900
_cell_angle_alpha   90.00000000
_cell_angle_beta   90.00000000
_cell_angle_gamma   90.00000000
_symmetry_Int_Tables_number   1
_chemical_formula_structural   LuMn2O5
_chemical_formula_sum   'Lu4 Mn8 O20'
_cell_volume   352.93811505
_cell_formula_units_Z   4
loop_
 _symmetry_equiv_pos_site_id
 _symmetry_equiv_pos_as_xyz
  1  'x, y, z'
loop_
 _atom_site_type_symbol
 _atom_site_label
 _atom_site_symmetry_multiplicity
 _atom_site_fract_x
 _atom_site_fract_y
 _atom_site_fract_z
 _atom_site_occupancy
  Lu  Lu0  1  0.00000000  0.13707300  0.16962300  1
  Lu  Lu1  1  0.00000000  0.86292700  0.83037700  1
  Lu  Lu2  1  0.00000000  0.63707300  0.33037700  1
  Lu  Lu3  1  0.00000000  0.36292700  0.66962300  1
  Mn  Mn4  1  0.25200800  0.00000000  0.50000000  1
  Mn  Mn5  1  0.74799200  0.50000000  0.00000000  1
  Mn  Mn6  1  0.74799200  0.00000000  0.50000000  1
  Mn  Mn7  1  0.25200800  0.50000000  0.00000000  1
  Mn  Mn8  1  0.50000000  0.41269500  0.34757900  1
  Mn  Mn9  1  0.50000000  0.58730500  0.65242100  1
  Mn  Mn10  1  0.50000000  0.91269500  0.15242100  1
  Mn  Mn11  1  0.50000000  0.08730500  0.84757900  1
  O  O12  1  0.26566700  0.00000000  0.00000000  1
  O  O13  1  0.73433300  0.50000000  0.50000000  1
  O  O14  1  0.73433300  0.00000000  0.00000000  1
  O  O15  1  0.26566700  0.50000000  0.50000000  1
  O  O16  1  0.00000000  0.16629800  0.43987900  1
  O  O17  1  0.00000000  0.83370200  0.56012100  1
  O  O18  1  0.00000000  0.66629800  0.06012100  1
  O  O19  1  0.00000000  0.33370200  0.93987900  1
  O  O20  1  0.50000000  0.15056100  0.42825600  1
  O  O21  1  0.50000000  0.84943900  0.57174400  1
  O  O22  1  0.50000000  0.65056100  0.07174400  1
  O  O23  1  0.50000000  0.34943900  0.92825600  1
  O  O24  1  0.23657300  0.38881000  0.20695300  1
  O  O25  1  0.23657300  0.61119000  0.79304700  1
  O  O26  1  0.76342700  0.88881000  0.29304700  1
  O  O27  1  0.76342700  0.11119000  0.70695300  1
  O  O28  1  0.76342700  0.61119000  0.79304700  1
  O  O29  1  0.76342700  0.38881000  0.20695300  1
  O  O30  1  0.23657300  0.11119000  0.70695300  1
  O  O31  1  0.23657300  0.88881000  0.29304700  1
