# generated using pymatgen
data_Rb2Cr2O7
_symmetry_space_group_name_H-M   'P 1'
_cell_length_a   7.82282500
_cell_length_b   7.88848700
_cell_length_c   15.61665185
_cell_angle_alpha   63.59255227
_cell_angle_beta   90.00000000
_cell_angle_gamma   90.00000000
_symmetry_Int_Tables_number   1
_chemical_formula_structural   Rb2Cr2O7
_chemical_formula_sum   'Rb8 Cr8 O28'
_cell_volume   863.14847152
_cell_formula_units_Z   4
loop_
 _symmetry_equiv_pos_site_id
 _symmetry_equiv_pos_as_xyz
  1  'x, y, z'
loop_
 _atom_site_type_symbol
 _atom_site_label
 _atom_site_symmetry_multiplicity
 _atom_site_fract_x
 _atom_site_fract_y
 _atom_site_fract_z
 _atom_site_occupancy
  Rb  Rb0  1  0.27555300  0.06114400  0.63315900  1
  Rb  Rb1  1  0.22444700  0.06114400  0.13315900  1
  Rb  Rb2  1  0.11770200  0.51634400  0.84170900  1
  Rb  Rb3  1  0.72444700  0.93885600  0.36684100  1
  Rb  Rb4  1  0.61770200  0.48365600  0.65829100  1
  Rb  Rb5  1  0.88229800  0.48365600  0.15829100  1
  Rb  Rb6  1  0.77555300  0.93885600  0.86684100  1
  Rb  Rb7  1  0.38229800  0.51634400  0.34170900  1
  Cr  Cr8  1  0.66537800  0.39696700  0.92066700  1
  Cr  Cr9  1  0.78394700  0.00701900  0.61217500  1
  Cr  Cr10  1  0.16537800  0.60303300  0.57933300  1
  Cr  Cr11  1  0.83462200  0.39696700  0.42066700  1
  Cr  Cr12  1  0.21605300  0.99298100  0.38782500  1
  Cr  Cr13  1  0.28394700  0.99298100  0.88782500  1
  Cr  Cr14  1  0.33462200  0.60303300  0.07933300  1
  Cr  Cr15  1  0.71605300  0.00701900  0.11217500  1
  O  O16  1  0.91330500  0.86273800  0.69441000  1
  O  O17  1  0.15155000  0.89888100  0.83961200  1
  O  O18  1  0.67588700  0.89444500  0.56388300  1
  O  O19  1  0.58973200  0.19045300  0.02304800  1
  O  O20  1  0.34845000  0.89888100  0.33961200  1
  O  O21  1  0.49720700  0.47631500  0.13815300  1
  O  O22  1  0.82411300  0.89444500  0.06388300  1
  O  O23  1  0.72489200  0.32963200  0.35156100  1
  O  O24  1  0.41026800  0.80954700  0.97695200  1
  O  O25  1  0.77510800  0.32963200  0.85156100  1
  O  O26  1  0.20830600  0.47841700  0.04533400  1
  O  O27  1  0.65155000  0.10111900  0.66038800  1
  O  O28  1  0.50279300  0.52368500  0.86184700  1
  O  O29  1  0.00279300  0.47631500  0.63815300  1
  O  O30  1  0.58669500  0.86273800  0.19441000  1
  O  O31  1  0.70830600  0.52158300  0.45466600  1
  O  O32  1  0.22489200  0.67036800  0.14843900  1
  O  O33  1  0.17588700  0.10555500  0.93611700  1
  O  O34  1  0.29169400  0.47841700  0.54533400  1
  O  O35  1  0.91026800  0.19045300  0.52304800  1
  O  O36  1  0.99720700  0.52368500  0.36184700  1
  O  O37  1  0.41330500  0.13726200  0.80559000  1
  O  O38  1  0.08669500  0.13726200  0.30559000  1
  O  O39  1  0.79169400  0.52158300  0.95466600  1
  O  O40  1  0.32411300  0.10555500  0.43611700  1
  O  O41  1  0.08973200  0.80954700  0.47695200  1
  O  O42  1  0.27510800  0.67036800  0.64843900  1
  O  O43  1  0.84845000  0.10111900  0.16038800  1
