# generated using pymatgen
data_TlW3Br7
_symmetry_space_group_name_H-M   'P 1'
_cell_length_a   14.12943700
_cell_length_b   14.41460500
_cell_length_c   14.45101200
_cell_angle_alpha   90.00000000
_cell_angle_beta   90.00000000
_cell_angle_gamma   90.00000000
_symmetry_Int_Tables_number   1
_chemical_formula_structural   TlW3Br7
_chemical_formula_sum   'Tl8 W24 Br56'
_cell_volume   2943.24127343
_cell_formula_units_Z   8
loop_
 _symmetry_equiv_pos_site_id
 _symmetry_equiv_pos_as_xyz
  1  'x, y, z'
loop_
 _atom_site_type_symbol
 _atom_site_label
 _atom_site_symmetry_multiplicity
 _atom_site_fract_x
 _atom_site_fract_y
 _atom_site_fract_z
 _atom_site_occupancy
  Tl  Tl0  1  0.75000000  0.25000000  0.25000000  1
  Tl  Tl1  1  0.25000000  0.75000000  0.25000000  1
  Tl  Tl2  1  0.50000000  0.50000000  0.50000000  1
  Tl  Tl3  1  0.00000000  0.00000000  0.50000000  1
  Tl  Tl4  1  0.75000000  0.25000000  0.75000000  1
  Tl  Tl5  1  0.25000000  0.75000000  0.75000000  1
  Tl  Tl6  1  0.50000000  0.00000000  0.00000000  1
  Tl  Tl7  1  0.00000000  0.50000000  0.00000000  1
  W  W8  1  0.62248300  0.54041000  0.02971300  1
  W  W9  1  0.87751700  0.95959000  0.02971300  1
  W  W10  1  0.53052400  0.37987100  0.04132700  1
  W  W11  1  0.96947600  0.12012900  0.04132700  1
  W  W12  1  0.45865700  0.53161900  0.11958600  1
  W  W13  1  0.04134300  0.96838100  0.11958600  1
  W  W14  1  0.45865700  0.96838100  0.38041400  1
  W  W15  1  0.04134300  0.53161900  0.38041400  1
  W  W16  1  0.96947600  0.37987100  0.45867300  1
  W  W17  1  0.53052400  0.12012900  0.45867300  1
  W  W18  1  0.87751700  0.54041000  0.47028700  1
  W  W19  1  0.62248300  0.95959000  0.47028700  1
  W  W20  1  0.37751700  0.04041000  0.52971300  1
  W  W21  1  0.12248300  0.45959000  0.52971300  1
  W  W22  1  0.46947600  0.87987100  0.54132700  1
  W  W23  1  0.03052400  0.62012900  0.54132700  1
  W  W24  1  0.95865700  0.46838100  0.61958600  1
  W  W25  1  0.54134300  0.03161900  0.61958600  1
  W  W26  1  0.95865700  0.03161900  0.88041400  1
  W  W27  1  0.54134300  0.46838100  0.88041400  1
  W  W28  1  0.46947600  0.62012900  0.95867300  1
  W  W29  1  0.03052400  0.87987100  0.95867300  1
  W  W30  1  0.12248300  0.04041000  0.97028700  1
  W  W31  1  0.37751700  0.45959000  0.97028700  1
  Br  Br32  1  0.30584000  0.61183100  0.04769400  1
  Br  Br33  1  0.19416000  0.88816900  0.04769400  1
  Br  Br34  1  0.79382800  0.59380100  0.07162300  1
  Br  Br35  1  0.70617200  0.90619900  0.07162300  1
  Br  Br36  1  0.57542700  0.21018600  0.09731400  1
  Br  Br37  1  0.92457300  0.28981400  0.09731400  1
  Br  Br38  1  0.55093000  0.69121000  0.10782600  1
  Br  Br39  1  0.94907000  0.80879000  0.10782600  1
  Br  Br40  1  0.36741400  0.37080300  0.13133000  1
  Br  Br41  1  0.13258600  0.12919700  0.13133000  1
  Br  Br42  1  0.88847400  0.04705500  0.19117200  1
  Br  Br43  1  0.61152600  0.45294500  0.19117200  1
  Br  Br44  1  0.09703400  0.57648700  0.21095500  1
  Br  Br45  1  0.40296600  0.92351300  0.21095500  1
  Br  Br46  1  0.40296600  0.57648700  0.28904500  1
  Br  Br47  1  0.09703400  0.92351300  0.28904500  1
  Br  Br48  1  0.61152600  0.04705500  0.30882800  1
  Br  Br49  1  0.88847400  0.45294500  0.30882800  1
  Br  Br50  1  0.36741400  0.12919700  0.36867000  1
  Br  Br51  1  0.13258600  0.37080300  0.36867000  1
  Br  Br52  1  0.94907000  0.69121000  0.39217400  1
  Br  Br53  1  0.55093000  0.80879000  0.39217400  1
  Br  Br54  1  0.92457300  0.21018600  0.40268600  1
  Br  Br55  1  0.57542700  0.28981400  0.40268600  1
  Br  Br56  1  0.70617200  0.59380100  0.42837700  1
  Br  Br57  1  0.79382800  0.90619900  0.42837700  1
  Br  Br58  1  0.19416000  0.61183100  0.45230600  1
  Br  Br59  1  0.30584000  0.88816900  0.45230600  1
  Br  Br60  1  0.69416000  0.11183100  0.54769400  1
  Br  Br61  1  0.80584000  0.38816900  0.54769400  1
  Br  Br62  1  0.20617200  0.09380100  0.57162300  1
  Br  Br63  1  0.29382800  0.40619900  0.57162300  1
  Br  Br64  1  0.42457300  0.71018600  0.59731400  1
  Br  Br65  1  0.07542700  0.78981400  0.59731400  1
  Br  Br66  1  0.44907000  0.19121000  0.60782600  1
  Br  Br67  1  0.05093000  0.30879000  0.60782600  1
  Br  Br68  1  0.86741400  0.62919700  0.63133000  1
  Br  Br69  1  0.63258600  0.87080300  0.63133000  1
  Br  Br70  1  0.11152600  0.54705500  0.69117200  1
  Br  Br71  1  0.38847400  0.95294500  0.69117200  1
  Br  Br72  1  0.90296600  0.07648700  0.71095500  1
  Br  Br73  1  0.59703400  0.42351300  0.71095500  1
  Br  Br74  1  0.59703400  0.07648700  0.78904500  1
  Br  Br75  1  0.90296600  0.42351300  0.78904500  1
  Br  Br76  1  0.38847400  0.54705500  0.80882800  1
  Br  Br77  1  0.11152600  0.95294500  0.80882800  1
  Br  Br78  1  0.86741400  0.87080300  0.86867000  1
  Br  Br79  1  0.63258600  0.62919700  0.86867000  1
  Br  Br80  1  0.05093000  0.19121000  0.89217400  1
  Br  Br81  1  0.44907000  0.30879000  0.89217400  1
  Br  Br82  1  0.07542700  0.71018600  0.90268600  1
  Br  Br83  1  0.42457300  0.78981400  0.90268600  1
  Br  Br84  1  0.29382800  0.09380100  0.92837700  1
  Br  Br85  1  0.20617200  0.40619900  0.92837700  1
  Br  Br86  1  0.80584000  0.11183100  0.95230600  1
  Br  Br87  1  0.69416000  0.38816900  0.95230600  1
