# generated using pymatgen
data_Pr30Ti24Se58I8O25
_symmetry_space_group_name_H-M   'P 1'
_cell_length_a   16.68215591
_cell_length_b   16.68215643
_cell_length_c   16.68215657
_cell_angle_alpha   60.00000180
_cell_angle_beta   60.00000078
_cell_angle_gamma   60.00000275
_symmetry_Int_Tables_number   1
_chemical_formula_structural   Pr30Ti24Se58I8O25
_chemical_formula_sum   'Pr30 Ti24 Se58 I8 O25'
_cell_volume   3282.77847924
_cell_formula_units_Z   1
loop_
 _symmetry_equiv_pos_site_id
 _symmetry_equiv_pos_as_xyz
  1  'x, y, z'
loop_
 _atom_site_type_symbol
 _atom_site_label
 _atom_site_symmetry_multiplicity
 _atom_site_fract_x
 _atom_site_fract_y
 _atom_site_fract_z
 _atom_site_occupancy
  Pr  Pr0  1  0.06671539  0.76295088  0.40738285  1
  Pr  Pr1  1  0.40738285  0.76295088  0.06671539  1
  Pr  Pr2  1  0.64510072  0.35489928  0.35489928  1
  Pr  Pr3  1  0.76295088  0.06671539  0.40738285  1
  Pr  Pr4  1  0.23704912  0.23704912  0.93328461  1
  Pr  Pr5  1  0.59261715  0.23704912  0.23704912  1
  Pr  Pr6  1  0.35489928  0.64510072  0.35489928  1
  Pr  Pr7  1  0.06671539  0.76295088  0.76295088  1
  Pr  Pr8  1  0.76295088  0.76295088  0.40738285  1
  Pr  Pr9  1  0.06671539  0.40738285  0.76295088  1
  Pr  Pr10  1  0.35489928  0.64510072  0.64510072  1
  Pr  Pr11  1  0.76295088  0.40738285  0.06671539  1
  Pr  Pr12  1  0.59261715  0.93328461  0.23704912  1
  Pr  Pr13  1  0.76295088  0.76295088  0.06671539  1
  Pr  Pr14  1  0.23704912  0.59261715  0.23704912  1
  Pr  Pr15  1  0.93328461  0.59261715  0.23704912  1
  Pr  Pr16  1  0.23704912  0.93328461  0.23704912  1
  Pr  Pr17  1  0.76295088  0.40738285  0.76295088  1
  Pr  Pr18  1  0.93328461  0.23704912  0.23704912  1
  Pr  Pr19  1  0.23704912  0.23704912  0.59261715  1
  Pr  Pr20  1  0.64510072  0.64510072  0.35489928  1
  Pr  Pr21  1  0.40738285  0.06671539  0.76295088  1
  Pr  Pr22  1  0.59261715  0.23704912  0.93328461  1
  Pr  Pr23  1  0.93328461  0.23704912  0.59261715  1
  Pr  Pr24  1  0.23704912  0.93328461  0.59261715  1
  Pr  Pr25  1  0.76295088  0.06671539  0.76295088  1
  Pr  Pr26  1  0.40738285  0.76295088  0.76295088  1
  Pr  Pr27  1  0.23704912  0.59261715  0.93328461  1
  Pr  Pr28  1  0.64510072  0.35489928  0.64510072  1
  Pr  Pr29  1  0.35489928  0.35489928  0.64510072  1
  Ti  Ti30  1  0.19535571  0.50000000  0.50000000  1
  Ti  Ti31  1  0.19535571  0.50000000  0.80464429  1
  Ti  Ti32  1  0.50000000  0.80464429  0.50000000  1
  Ti  Ti33  1  0.08950193  0.91049807  0.08950193  1
  Ti  Ti34  1  0.80464429  0.50000000  0.50000000  1
  Ti  Ti35  1  0.08950193  0.08950193  0.91049807  1
  Ti  Ti36  1  0.50000000  0.50000000  0.80464429  1
  Ti  Ti37  1  0.50000000  0.00000000  0.50000000  1
  Ti  Ti38  1  0.00000000  0.50000000  0.50000000  1
  Ti  Ti39  1  0.19535571  0.80464429  0.50000000  1
  Ti  Ti40  1  0.50000000  0.80464429  0.19535571  1
  Ti  Ti41  1  0.50000000  0.19535571  0.50000000  1
  Ti  Ti42  1  0.50000000  0.19535571  0.80464429  1
  Ti  Ti43  1  0.80464429  0.19535571  0.50000000  1
  Ti  Ti44  1  0.50000000  0.50000000  0.00000000  1
  Ti  Ti45  1  0.08950193  0.91049807  0.91049807  1
  Ti  Ti46  1  0.00000000  0.00000000  0.50000000  1
  Ti  Ti47  1  0.50000000  0.00000000  0.00000000  1
  Ti  Ti48  1  0.50000000  0.50000000  0.19535571  1
  Ti  Ti49  1  0.80464429  0.50000000  0.19535571  1
  Ti  Ti50  1  0.91049807  0.08950193  0.91049807  1
  Ti  Ti51  1  0.00000000  0.50000000  0.00000000  1
  Ti  Ti52  1  0.91049807  0.08950193  0.08950193  1
  Ti  Ti53  1  0.91049807  0.91049807  0.08950193  1
  Se  Se54  1  0.58264168  0.02224914  0.58264168  1
  Se  Se55  1  0.58254144  0.58254144  0.25237568  1
  Se  Se56  1  0.80590053  0.80590053  0.19409947  1
  Se  Se57  1  0.81246749  0.02224914  0.58264168  1
  Se  Se58  1  0.41745856  0.41745856  0.74762432  1
  Se  Se59  1  0.65555398  1.00000000  0.34444602  1
  Se  Se60  1  0.41735832  0.97775086  0.41735832  1
  Se  Se61  1  0.18753251  0.41735832  0.97775086  1
  Se  Se62  1  0.34444602  0.00000000  1.00000000  1
  Se  Se63  1  0.07782417  0.76652750  0.07782417  1
  Se  Se64  1  0.81246749  0.58264168  0.58264168  1
  Se  Se65  1  0.19409947  0.80590053  0.19409947  1
  Se  Se66  1  0.23347250  0.92217583  0.92217583  1
  Se  Se67  1  0.41735832  0.18753251  0.97775086  1
  Se  Se68  1  0.07782417  0.07782417  0.07782417  1
  Se  Se69  1  0.41735832  0.18753251  0.41735832  1
  Se  Se70  1  0.58264168  0.81246749  0.02224914  1
  Se  Se71  1  0.65555398  0.34444602  0.00000000  1
  Se  Se72  1  0.97775086  0.41735832  0.41735832  1
  Se  Se73  1  0.92217583  0.23347250  0.92217583  1
  Se  Se74  1  0.58264168  0.58264168  0.81246749  1
  Se  Se75  1  0.58264168  0.58264168  0.02224914  1
  Se  Se76  1  0.02224914  0.58264168  0.81246749  1
  Se  Se77  1  0.92217583  0.92217583  0.92217583  1
  Se  Se78  1  0.58254144  0.58254144  0.58254144  1
  Se  Se79  1  0.80590053  0.19409947  0.19409947  1
  Se  Se80  1  0.80590053  0.19409947  0.80590053  1
  Se  Se81  1  0.41735832  0.41735832  0.18753251  1
  Se  Se82  1  0.65555398  1.00000000  0.00000000  1
  Se  Se83  1  0.18753251  0.97775086  0.41735832  1
  Se  Se84  1  1.00000000  0.65555398  0.34444602  1
  Se  Se85  1  0.34444602  0.65555398  1.00000000  1
  Se  Se86  1  0.81246749  0.58264168  0.02224914  1
  Se  Se87  1  0.58264168  0.02224914  0.81246749  1
  Se  Se88  1  0.41735832  0.41735832  0.97775086  1
  Se  Se89  1  0.97775086  0.18753251  0.41735832  1
  Se  Se90  1  0.19409947  0.19409947  0.80590053  1
  Se  Se91  1  0.76652750  0.07782417  0.07782417  1
  Se  Se92  1  0.58264168  0.81246749  0.58264168  1
  Se  Se93  1  0.92217583  0.92217583  0.23347250  1
  Se  Se94  1  0.97775086  0.41735832  0.18753251  1
  Se  Se95  1  0.25237568  0.58254144  0.58254144  1
  Se  Se96  1  0.00000000  0.00000000  0.34444602  1
  Se  Se97  1  1.00000000  0.65555398  1.00000000  1
  Se  Se98  1  0.41745856  0.74762432  0.41745856  1
  Se  Se99  1  0.34444602  0.00000000  0.65555398  1
  Se  Se100  1  0.18753251  0.41735832  0.41735832  1
  Se  Se101  1  0.41745856  0.41745856  0.41745856  1
  Se  Se102  1  0.00000000  0.34444602  0.65555398  1
  Se  Se103  1  0.58254144  0.25237568  0.58254144  1
  Se  Se104  1  0.41735832  0.97775086  0.18753251  1
  Se  Se105  1  0.02224914  0.58264168  0.58264168  1
  Se  Se106  1  0.00000000  0.34444602  0.00000000  1
  Se  Se107  1  0.19409947  0.80590053  0.80590053  1
  Se  Se108  1  1.00000000  1.00000000  0.65555398  1
  Se  Se109  1  0.02224914  0.81246749  0.58264168  1
  Se  Se110  1  0.74762432  0.41745856  0.41745856  1
  Se  Se111  1  0.07782417  0.07782417  0.76652750  1
  I  I112  1  0.17333288  0.17333288  0.48000137  1
  I  I113  1  0.17333288  0.17333288  0.17333288  1
  I  I114  1  0.51999863  0.82666712  0.82666712  1
  I  I115  1  0.48000137  0.17333288  0.17333288  1
  I  I116  1  0.82666712  0.51999863  0.82666712  1
  I  I117  1  0.82666712  0.82666712  0.82666712  1
  I  I118  1  0.82666712  0.82666712  0.51999863  1
  I  I119  1  0.17333288  0.48000137  0.17333288  1
  O  O120  1  0.21107875  0.38618483  0.78892125  1
  O  O121  1  0.38618483  0.21107875  0.61381517  1
  O  O122  1  0.61381517  0.38618483  0.21107875  1
  O  O123  1  0.21107875  0.78892125  0.38618483  1
  O  O124  1  0.78892125  0.61381517  0.21107875  1
  O  O125  1  0.61381517  0.21107875  0.38618483  1
  O  O126  1  0.78892125  0.21107875  0.61381517  1
  O  O127  1  0.38618483  0.78892125  0.61381517  1
  O  O128  1  0.38618483  0.78892125  0.21107875  1
  O  O129  1  0.21107875  0.78892125  0.61381517  1
  O  O130  1  0.78892125  0.38618483  0.61381517  1
  O  O131  1  0.21107875  0.61381517  0.78892125  1
  O  O132  1  0.38618483  0.21107875  0.78892125  1
  O  O133  1  0.00000000  0.00000000  0.00000000  1
  O  O134  1  0.61381517  0.21107875  0.78892125  1
  O  O135  1  0.38618483  0.61381517  0.78892125  1
  O  O136  1  0.78892125  0.61381517  0.38618483  1
  O  O137  1  0.21107875  0.38618483  0.61381517  1
  O  O138  1  0.61381517  0.78892125  0.21107875  1
  O  O139  1  0.21107875  0.61381517  0.38618483  1
  O  O140  1  0.61381517  0.38618483  0.78892125  1
  O  O141  1  0.61381517  0.78892125  0.38618483  1
  O  O142  1  0.38618483  0.61381517  0.21107875  1
  O  O143  1  0.78892125  0.38618483  0.21107875  1
  O  O144  1  0.78892125  0.21107875  0.38618483  1
