# generated using pymatgen
data_Bi4RuI2
_symmetry_space_group_name_H-M   'P 1'
_cell_length_a   9.46095549
_cell_length_b   9.46095549
_cell_length_c   9.46095549
_cell_angle_alpha   97.60273115
_cell_angle_beta   97.60273115
_cell_angle_gamma   137.34041105
_symmetry_Int_Tables_number   1
_chemical_formula_structural   Bi4RuI2
_chemical_formula_sum   'Bi8 Ru2 I4'
_cell_volume   534.55040667
_cell_formula_units_Z   2
loop_
 _symmetry_equiv_pos_site_id
 _symmetry_equiv_pos_as_xyz
  1  'x, y, z'
loop_
 _atom_site_type_symbol
 _atom_site_label
 _atom_site_symmetry_multiplicity
 _atom_site_fract_x
 _atom_site_fract_y
 _atom_site_fract_z
 _atom_site_occupancy
  Bi  Bi0  1  0.16234100  0.94170900  0.10405100  1
  Bi  Bi1  1  0.05829100  0.16234100  0.22063200  1
  Bi  Bi2  1  0.94170900  0.83765900  0.77936800  1
  Bi  Bi3  1  0.83765900  0.05829100  0.89594900  1
  Bi  Bi4  1  0.58519700  0.32769500  0.91289200  1
  Bi  Bi5  1  0.67230500  0.58519700  0.25750200  1
  Bi  Bi6  1  0.32769500  0.41480300  0.74249800  1
  Bi  Bi7  1  0.41480300  0.67230500  0.08710800  1
  Ru  Ru8  1  0.29047800  0.29047800  0.00000000  1
  Ru  Ru9  1  0.70952200  0.70952200  0.00000000  1
  I  I10  1  0.83723400  0.38432700  0.22156100  1
  I  I11  1  0.61567300  0.83723400  0.45290700  1
  I  I12  1  0.38432700  0.16276600  0.54709300  1
  I  I13  1  0.16276600  0.61567300  0.77843900  1
