# generated using pymatgen
data_Na3Bi(PO4)2
_symmetry_space_group_name_H-M   'P 1'
_cell_length_a   5.42055200
_cell_length_b   14.14678000
_cell_length_c   20.03795753
_cell_angle_alpha   69.47961781
_cell_angle_beta   90.00000000
_cell_angle_gamma   90.00000000
_symmetry_Int_Tables_number   1
_chemical_formula_structural   Na3Bi(PO4)2
_chemical_formula_sum   'Na24 Bi8 P16 O64'
_cell_volume   1439.07821206
_cell_formula_units_Z   8
loop_
 _symmetry_equiv_pos_site_id
 _symmetry_equiv_pos_as_xyz
  1  'x, y, z'
loop_
 _atom_site_type_symbol
 _atom_site_label
 _atom_site_symmetry_multiplicity
 _atom_site_fract_x
 _atom_site_fract_y
 _atom_site_fract_z
 _atom_site_occupancy
  Na  Na0  1  0.29151500  0.05444700  0.19843000  1
  Na  Na1  1  0.24580600  0.33200700  0.36051800  1
  Na  Na2  1  0.75128200  0.19301200  0.13727800  1
  Na  Na3  1  0.25233500  0.31088200  0.03540100  1
  Na  Na4  1  0.79151500  0.44555300  0.80157000  1
  Na  Na5  1  0.75419400  0.66799300  0.63948200  1
  Na  Na6  1  0.74473300  0.74949400  0.30305200  1
  Na  Na7  1  0.74819600  0.84494900  0.46516600  1
  Na  Na8  1  0.74580600  0.16799300  0.63948200  1
  Na  Na9  1  0.70848500  0.94555300  0.80157000  1
  Na  Na10  1  0.25526700  0.25050600  0.69694800  1
  Na  Na11  1  0.75526700  0.24949400  0.30305200  1
  Na  Na12  1  0.24819600  0.65505100  0.53483400  1
  Na  Na13  1  0.75180400  0.34494900  0.46516600  1
  Na  Na14  1  0.24766500  0.81088200  0.03540100  1
  Na  Na15  1  0.25180400  0.15505100  0.53483400  1
  Na  Na16  1  0.25128200  0.30698800  0.86272200  1
  Na  Na17  1  0.74766500  0.68911800  0.96459900  1
  Na  Na18  1  0.24871800  0.80698800  0.86272200  1
  Na  Na19  1  0.24473300  0.75050600  0.69694800  1
  Na  Na20  1  0.74871800  0.69301200  0.13727800  1
  Na  Na21  1  0.20848500  0.55444700  0.19843000  1
  Na  Na22  1  0.25419400  0.83200700  0.36051800  1
  Na  Na23  1  0.75233500  0.18911800  0.96459900  1
  Bi  Bi24  1  0.19298400  0.04495000  0.88098000  1
  Bi  Bi25  1  0.20809600  0.57309900  0.38255700  1
  Bi  Bi26  1  0.79190400  0.42690100  0.61744300  1
  Bi  Bi27  1  0.29190400  0.07309900  0.38255700  1
  Bi  Bi28  1  0.80701600  0.95505000  0.11902000  1
  Bi  Bi29  1  0.69298400  0.45505000  0.11902000  1
  Bi  Bi30  1  0.30701600  0.54495000  0.88098000  1
  Bi  Bi31  1  0.70809600  0.92690100  0.61744300  1
  P  P32  1  0.26910700  0.08238400  0.03960500  1
  P  P33  1  0.23593200  0.87960600  0.53771200  1
  P  P34  1  0.76406800  0.12039400  0.46228800  1
  P  P35  1  0.72515000  0.21163200  0.79220700  1
  P  P36  1  0.72312000  0.49531500  0.29259300  1
  P  P37  1  0.22515000  0.28836800  0.20779300  1
  P  P38  1  0.22312000  0.00468500  0.70740700  1
  P  P39  1  0.73089300  0.91761600  0.96039500  1
  P  P40  1  0.77688000  0.99531500  0.29259300  1
  P  P41  1  0.77485000  0.71163200  0.79220700  1
  P  P42  1  0.27688000  0.50468500  0.70740700  1
  P  P43  1  0.23089300  0.58238400  0.03960500  1
  P  P44  1  0.27485000  0.78836800  0.20779300  1
  P  P45  1  0.76910700  0.41761600  0.96039500  1
  P  P46  1  0.26406800  0.37960600  0.53771200  1
  P  P47  1  0.73593200  0.62039400  0.46228800  1
  O  O48  1  0.45235900  0.59937800  0.08604500  1
  O  O49  1  0.73941300  0.00877500  0.46977700  1
  O  O50  1  0.86440300  0.58245500  0.30714900  1
  O  O51  1  0.51245500  0.08782800  0.08025000  1
  O  O52  1  0.50104500  0.33046500  0.58067500  1
  O  O53  1  0.44412300  0.19239300  0.80963200  1
  O  O54  1  0.54764100  0.40062200  0.91395500  1
  O  O55  1  0.99895500  0.83046500  0.58067500  1
  O  O56  1  0.17686100  0.60859300  0.66115900  1
  O  O57  1  0.23296200  0.67071400  0.96749600  1
  O  O58  1  0.23546500  0.97824400  0.03252100  1
  O  O59  1  0.65799800  0.76642500  0.83821100  1
  O  O60  1  0.76824900  0.13572100  0.53500300  1
  O  O61  1  0.13559700  0.41754500  0.69285100  1
  O  O62  1  0.73273500  0.01593400  0.21082900  1
  O  O63  1  0.53644700  0.18162900  0.41846300  1
  O  O64  1  0.75538200  0.77322600  0.70989100  1
  O  O65  1  0.05587700  0.69239300  0.80963200  1
  O  O66  1  0.25538200  0.72677400  0.29010900  1
  O  O67  1  0.00104500  0.16953500  0.41932500  1
  O  O68  1  0.73296200  0.82928600  0.03250400  1
  O  O69  1  0.23175100  0.86427900  0.46499700  1
  O  O70  1  0.73546500  0.52175600  0.96747900  1
  O  O71  1  0.13948100  0.89034400  0.19727500  1
  O  O72  1  0.74461800  0.27322600  0.70989100  1
  O  O73  1  0.34200200  0.23357500  0.16178900  1
  O  O74  1  0.49895500  0.66953500  0.41932500  1
  O  O75  1  0.76703800  0.32928600  0.03250400  1
  O  O76  1  0.01245500  0.41217200  0.91975000  1
  O  O77  1  0.73175100  0.63572100  0.53500300  1
  O  O78  1  0.24461800  0.22677400  0.29010900  1
  O  O79  1  0.26824900  0.36427900  0.46499700  1
  O  O80  1  0.82313900  0.39140700  0.33884100  1
  O  O81  1  0.67686100  0.89140700  0.33884100  1
  O  O82  1  0.76726500  0.51593400  0.21082900  1
  O  O83  1  0.26726500  0.98406600  0.78917100  1
  O  O84  1  0.15799800  0.73357500  0.16178900  1
  O  O85  1  0.23941300  0.49122500  0.53022300  1
  O  O86  1  0.32313900  0.10859300  0.66115900  1
  O  O87  1  0.04764100  0.09937800  0.08604500  1
  O  O88  1  0.63948100  0.60965600  0.80272500  1
  O  O89  1  0.26453500  0.47824400  0.03252100  1
  O  O90  1  0.23273500  0.48406600  0.78917100  1
  O  O91  1  0.55942400  0.49603800  0.69471500  1
  O  O92  1  0.95235900  0.90062200  0.91395500  1
  O  O93  1  0.44057600  0.50396200  0.30528500  1
  O  O94  1  0.48754500  0.91217200  0.91975000  1
  O  O95  1  0.63559700  0.08245500  0.30714900  1
  O  O96  1  0.86051900  0.10965600  0.80272500  1
  O  O97  1  0.03644700  0.31837100  0.58153700  1
  O  O98  1  0.46355300  0.81837100  0.58153700  1
  O  O99  1  0.98754500  0.58782800  0.08025000  1
  O  O100  1  0.26058700  0.99122500  0.53022300  1
  O  O101  1  0.05942400  0.00396200  0.30528500  1
  O  O102  1  0.96355300  0.68162900  0.41846300  1
  O  O103  1  0.36440300  0.91754500  0.69285100  1
  O  O104  1  0.36051900  0.39034400  0.19727500  1
  O  O105  1  0.55587700  0.80760700  0.19036800  1
  O  O106  1  0.26703800  0.17071400  0.96749600  1
  O  O107  1  0.94057600  0.99603800  0.69471500  1
  O  O108  1  0.94412300  0.30760700  0.19036800  1
  O  O109  1  0.76058700  0.50877500  0.46977700  1
  O  O110  1  0.84200200  0.26642500  0.83821100  1
  O  O111  1  0.76453500  0.02175600  0.96747900  1
