# generated using pymatgen
data_NaUBO5
_symmetry_space_group_name_H-M   'P 1'
_cell_length_a   5.92790800
_cell_length_b   6.90112300
_cell_length_c   10.82057500
_cell_angle_alpha   90.00000000
_cell_angle_beta   90.00000000
_cell_angle_gamma   90.00000000
_symmetry_Int_Tables_number   1
_chemical_formula_structural   NaUBO5
_chemical_formula_sum   'Na4 U4 B4 O20'
_cell_volume   442.66130745
_cell_formula_units_Z   4
loop_
 _symmetry_equiv_pos_site_id
 _symmetry_equiv_pos_as_xyz
  1  'x, y, z'
loop_
 _atom_site_type_symbol
 _atom_site_label
 _atom_site_symmetry_multiplicity
 _atom_site_fract_x
 _atom_site_fract_y
 _atom_site_fract_z
 _atom_site_occupancy
  Na  Na0  1  0.60237700  0.00000000  0.25000000  1
  Na  Na1  1  0.39762300  0.50000000  0.75000000  1
  Na  Na2  1  0.60237700  0.50000000  0.25000000  1
  Na  Na3  1  0.39762300  0.00000000  0.75000000  1
  U  U4  1  0.90250400  0.75000000  0.56760000  1
  U  U5  1  0.09749600  0.25000000  0.43240000  1
  U  U6  1  0.90250400  0.25000000  0.93240000  1
  U  U7  1  0.09749600  0.75000000  0.06760000  1
  B  B8  1  0.19623400  0.75000000  0.35136100  1
  B  B9  1  0.80376600  0.25000000  0.64863900  1
  B  B10  1  0.80376600  0.75000000  0.85136100  1
  B  B11  1  0.19623400  0.25000000  0.14863900  1
  O  O12  1  0.87187400  0.08236000  0.58859500  1
  O  O13  1  0.87187400  0.58236000  0.91140500  1
  O  O14  1  0.15268800  0.75000000  0.67122500  1
  O  O15  1  0.65910800  0.25000000  0.03804500  1
  O  O16  1  0.12812600  0.08236000  0.08859500  1
  O  O17  1  0.68656000  0.75000000  0.74164700  1
  O  O18  1  0.12812600  0.91764000  0.41140500  1
  O  O19  1  0.31344000  0.25000000  0.25835300  1
  O  O20  1  0.65910800  0.75000000  0.46195500  1
  O  O21  1  0.84731200  0.75000000  0.17122500  1
  O  O22  1  0.34089200  0.25000000  0.53804500  1
  O  O23  1  0.12812600  0.58236000  0.41140500  1
  O  O24  1  0.31344000  0.75000000  0.24164700  1
  O  O25  1  0.87187400  0.41764000  0.58859500  1
  O  O26  1  0.15268800  0.25000000  0.82877500  1
  O  O27  1  0.68656000  0.25000000  0.75835300  1
  O  O28  1  0.12812600  0.41764000  0.08859500  1
  O  O29  1  0.34089200  0.75000000  0.96195500  1
  O  O30  1  0.87187400  0.91764000  0.91140500  1
  O  O31  1  0.84731200  0.25000000  0.32877500  1
