# generated using pymatgen
data_Sr5Nb5O17
_symmetry_space_group_name_H-M   'P 1'
_cell_length_a   4.04878800
_cell_length_b   5.75167600
_cell_length_c   33.15188100
_cell_angle_alpha   90.00000000
_cell_angle_beta   90.00000000
_cell_angle_gamma   90.00000000
_symmetry_Int_Tables_number   1
_chemical_formula_structural   Sr5Nb5O17
_chemical_formula_sum   'Sr10 Nb10 O34'
_cell_volume   772.01835432
_cell_formula_units_Z   2
loop_
 _symmetry_equiv_pos_site_id
 _symmetry_equiv_pos_as_xyz
  1  'x, y, z'
loop_
 _atom_site_type_symbol
 _atom_site_label
 _atom_site_symmetry_multiplicity
 _atom_site_fract_x
 _atom_site_fract_y
 _atom_site_fract_z
 _atom_site_occupancy
  Sr  Sr0  1  0.00000000  0.43295200  0.78299600  1
  Sr  Sr1  1  0.00000000  0.56704800  0.21700400  1
  Sr  Sr2  1  0.50000000  0.06704800  0.28299600  1
  Sr  Sr3  1  0.50000000  0.93295200  0.71700400  1
  Sr  Sr4  1  0.50000000  0.00000000  0.50000000  1
  Sr  Sr5  1  0.00000000  0.50000000  0.00000000  1
  Sr  Sr6  1  0.50000000  0.50231200  0.59011700  1
  Sr  Sr7  1  0.50000000  0.49768800  0.40988300  1
  Sr  Sr8  1  0.00000000  0.99768800  0.09011700  1
  Sr  Sr9  1  0.00000000  0.00231200  0.90988300  1
  Nb  Nb10  1  0.00000000  0.50000000  0.50000000  1
  Nb  Nb11  1  0.50000000  0.00000000  0.00000000  1
  Nb  Nb12  1  0.00000000  0.46582000  0.67678000  1
  Nb  Nb13  1  0.00000000  0.53418000  0.32322000  1
  Nb  Nb14  1  0.50000000  0.03418000  0.17678000  1
  Nb  Nb15  1  0.50000000  0.96582000  0.82322000  1
  Nb  Nb16  1  0.00000000  0.99479000  0.59005000  1
  Nb  Nb17  1  0.00000000  0.00521000  0.40995000  1
  Nb  Nb18  1  0.50000000  0.50521000  0.09005000  1
  Nb  Nb19  1  0.50000000  0.49479000  0.90995000  1
  O  O20  1  0.00000000  0.78091700  0.46371300  1
  O  O21  1  0.00000000  0.21908300  0.53628700  1
  O  O22  1  0.50000000  0.71908300  0.96371300  1
  O  O23  1  0.50000000  0.28091700  0.03628700  1
  O  O24  1  0.00000000  0.72244000  0.54813800  1
  O  O25  1  0.00000000  0.27756000  0.45186200  1
  O  O26  1  0.50000000  0.77756000  0.04813800  1
  O  O27  1  0.50000000  0.22244000  0.95186200  1
  O  O28  1  0.50000000  0.50000000  0.50000000  1
  O  O29  1  0.00000000  0.00000000  0.00000000  1
  O  O30  1  0.50000000  0.70172600  0.79112600  1
  O  O31  1  0.50000000  0.29827400  0.20887400  1
  O  O32  1  0.00000000  0.79827400  0.29112600  1
  O  O33  1  0.00000000  0.20172600  0.70887400  1
  O  O34  1  0.50000000  0.79399200  0.87979800  1
  O  O35  1  0.50000000  0.20600800  0.12020200  1
  O  O36  1  0.00000000  0.70600800  0.37979800  1
  O  O37  1  0.00000000  0.29399200  0.62020200  1
  O  O38  1  0.50000000  0.27542400  0.86795700  1
  O  O39  1  0.50000000  0.72457600  0.13204300  1
  O  O40  1  0.00000000  0.22457600  0.36795700  1
  O  O41  1  0.00000000  0.77542400  0.63204300  1
  O  O42  1  0.00000000  0.68315600  0.72018300  1
  O  O43  1  0.00000000  0.31684400  0.27981700  1
  O  O44  1  0.50000000  0.81684400  0.22018300  1
  O  O45  1  0.50000000  0.18315600  0.77981700  1
  O  O46  1  0.50000000  0.49845000  0.66914900  1
  O  O47  1  0.50000000  0.50155000  0.33085100  1
  O  O48  1  0.00000000  0.00155000  0.16914900  1
  O  O49  1  0.00000000  0.99845000  0.83085100  1
  O  O50  1  0.50000000  0.00904900  0.58335600  1
  O  O51  1  0.50000000  0.99095100  0.41664400  1
  O  O52  1  0.00000000  0.49095100  0.08335600  1
  O  O53  1  0.00000000  0.50904900  0.91664400  1
