# generated using pymatgen
data_TmMoO4F
_symmetry_space_group_name_H-M   'P 1'
_cell_length_a   12.32380200
_cell_length_b   5.21483800
_cell_length_c   6.64847110
_cell_angle_alpha   66.65991719
_cell_angle_beta   90.00000000
_cell_angle_gamma   90.00000000
_symmetry_Int_Tables_number   1
_chemical_formula_structural   TmMoO4F
_chemical_formula_sum   'Tm4 Mo4 O16 F4'
_cell_volume   392.31070025
_cell_formula_units_Z   4
loop_
 _symmetry_equiv_pos_site_id
 _symmetry_equiv_pos_as_xyz
  1  'x, y, z'
loop_
 _atom_site_type_symbol
 _atom_site_label
 _atom_site_symmetry_multiplicity
 _atom_site_fract_x
 _atom_site_fract_y
 _atom_site_fract_z
 _atom_site_occupancy
  Tm  Tm0  1  0.05046700  0.36076500  0.80057600  1
  Tm  Tm1  1  0.94953300  0.63923500  0.19942400  1
  Tm  Tm2  1  0.55046700  0.63923500  0.69942400  1
  Tm  Tm3  1  0.44953300  0.36076500  0.30057700  1
  Mo  Mo4  1  0.85628100  0.92085600  0.63031400  1
  Mo  Mo5  1  0.64371900  0.92085600  0.13031400  1
  Mo  Mo6  1  0.35628100  0.07914400  0.86968600  1
  Mo  Mo7  1  0.14371900  0.07914400  0.36968600  1
  O  O8  1  0.06866800  0.00120800  0.16039700  1
  O  O9  1  0.56434500  0.68912700  0.03706400  1
  O  O10  1  0.34681700  0.75795200  0.09623700  1
  O  O11  1  0.27931600  0.19375600  0.29521500  1
  O  O12  1  0.65318300  0.24204800  0.90376300  1
  O  O13  1  0.77931600  0.80624400  0.20478500  1
  O  O14  1  0.56866800  0.99879200  0.33960300  1
  O  O15  1  0.43565500  0.31087300  0.96293600  1
  O  O16  1  0.93133200  0.99879200  0.83960300  1
  O  O17  1  0.72068400  0.80624400  0.70478500  1
  O  O18  1  0.06434500  0.31087300  0.46293600  1
  O  O19  1  0.22068400  0.19375600  0.79521500  1
  O  O20  1  0.15318300  0.75795200  0.59623700  1
  O  O21  1  0.93565500  0.68912700  0.53706400  1
  O  O22  1  0.43133200  0.00120800  0.66039700  1
  O  O23  1  0.84681700  0.24204800  0.40376300  1
  F  F24  1  0.09728200  0.54288700  0.03594900  1
  F  F25  1  0.40271800  0.54288700  0.53594900  1
  F  F26  1  0.59728200  0.45711300  0.46405100  1
  F  F27  1  0.90271800  0.45711300  0.96405100  1
