# generated using pymatgen
data_Na3Zn(BO2)5
_symmetry_space_group_name_H-M   'P 1'
_cell_length_a   18.36471000
_cell_length_b   6.75610900
_cell_length_c   8.03088164
_cell_angle_alpha   64.45955139
_cell_angle_beta   90.00000000
_cell_angle_gamma   90.00000000
_symmetry_Int_Tables_number   1
_chemical_formula_structural   Na3Zn(BO2)5
_chemical_formula_sum   'Na12 Zn4 B20 O40'
_cell_volume   899.05409765
_cell_formula_units_Z   4
loop_
 _symmetry_equiv_pos_site_id
 _symmetry_equiv_pos_as_xyz
  1  'x, y, z'
loop_
 _atom_site_type_symbol
 _atom_site_label
 _atom_site_symmetry_multiplicity
 _atom_site_fract_x
 _atom_site_fract_y
 _atom_site_fract_z
 _atom_site_occupancy
  Na  Na0  1  0.42008100  0.67082200  0.11389200  1
  Na  Na1  1  0.42953300  0.63844100  0.66070300  1
  Na  Na2  1  0.57046700  0.36155900  0.33929700  1
  Na  Na3  1  0.25714200  0.20553200  0.91941000  1
  Na  Na4  1  0.07046700  0.63844100  0.16070300  1
  Na  Na5  1  0.92953300  0.36155900  0.83929700  1
  Na  Na6  1  0.75714200  0.79446800  0.58059000  1
  Na  Na7  1  0.57991900  0.32917800  0.88610800  1
  Na  Na8  1  0.74285800  0.79446800  0.08059000  1
  Na  Na9  1  0.24285800  0.20553200  0.41941000  1
  Na  Na10  1  0.92008100  0.32917800  0.38610800  1
  Na  Na11  1  0.07991900  0.67082200  0.61389200  1
  Zn  Zn12  1  0.40372800  0.15154100  0.69352800  1
  Zn  Zn13  1  0.90372800  0.84845900  0.80647200  1
  Zn  Zn14  1  0.09627200  0.15154100  0.19352800  1
  Zn  Zn15  1  0.59627200  0.84845900  0.30647200  1
  B  B16  1  0.92272600  0.81898600  0.16242500  1
  B  B17  1  0.07727400  0.18101400  0.83757500  1
  B  B18  1  0.70324400  0.19626200  0.16854800  1
  B  B19  1  0.16560100  0.93825800  0.77251400  1
  B  B20  1  0.80347300  0.44600700  0.00266400  1
  B  B21  1  0.29675600  0.80373800  0.83145200  1
  B  B22  1  0.57219200  0.82766700  0.96542600  1
  B  B23  1  0.69652700  0.44600700  0.50266400  1
  B  B24  1  0.83439900  0.06174200  0.22748600  1
  B  B25  1  0.19652700  0.55399300  0.99733600  1
  B  B26  1  0.92780800  0.82766700  0.46542600  1
  B  B27  1  0.07219200  0.17233300  0.53457400  1
  B  B28  1  0.20324400  0.80373800  0.33145200  1
  B  B29  1  0.42272600  0.18101400  0.33757500  1
  B  B30  1  0.30347300  0.55399300  0.49733600  1
  B  B31  1  0.57727400  0.81898600  0.66242500  1
  B  B32  1  0.42780800  0.17233300  0.03457400  1
  B  B33  1  0.66560100  0.06174200  0.72748600  1
  B  B34  1  0.33439900  0.93825800  0.27251400  1
  B  B35  1  0.79675600  0.19626200  0.66854800  1
  O  O36  1  0.35839400  0.06267700  0.37567400  1
  O  O37  1  0.12982000  0.02383700  0.58944000  1
  O  O38  1  0.54161900  0.75714700  0.13418700  1
  O  O39  1  0.64160600  0.93732300  0.62432600  1
  O  O40  1  0.63077500  0.16009600  0.19384300  1
  O  O41  1  0.27193700  0.59484900  0.95898600  1
  O  O42  1  0.32353500  0.37227700  0.64447800  1
  O  O43  1  0.45838100  0.24285300  0.86581300  1
  O  O44  1  0.95503400  0.75593000  0.04292200  1
  O  O45  1  0.04496600  0.24407000  0.95707800  1
  O  O46  1  0.64603300  0.29607000  0.62008100  1
  O  O47  1  0.14603300  0.70393000  0.87991900  1
  O  O48  1  0.62982000  0.97616300  0.91056000  1
  O  O49  1  0.22806300  0.59484900  0.45898600  1
  O  O50  1  0.87018000  0.97616300  0.41056000  1
  O  O51  1  0.45416600  0.25219500  0.15946500  1
  O  O52  1  0.72806300  0.40515100  0.04101400  1
  O  O53  1  0.82353500  0.62772300  0.85552200  1
  O  O54  1  0.04161900  0.24285300  0.36581300  1
  O  O55  1  0.37018000  0.02383700  0.08944000  1
  O  O56  1  0.85396700  0.29607000  0.12008100  1
  O  O57  1  0.14160600  0.06267700  0.87567400  1
  O  O58  1  0.67646500  0.62772300  0.35552200  1
  O  O59  1  0.45503400  0.24407000  0.45707800  1
  O  O60  1  0.54496600  0.75593000  0.54292200  1
  O  O61  1  0.77193700  0.40515100  0.54101400  1
  O  O62  1  0.95416600  0.74780500  0.34053500  1
  O  O63  1  0.85839400  0.93732300  0.12432600  1
  O  O64  1  0.04583400  0.25219500  0.65946500  1
  O  O65  1  0.54583400  0.74780500  0.84053500  1
  O  O66  1  0.74499700  0.03541700  0.75677900  1
  O  O67  1  0.86922500  0.16009600  0.69384300  1
  O  O68  1  0.17646500  0.37227700  0.14447800  1
  O  O69  1  0.13077500  0.83990400  0.30615700  1
  O  O70  1  0.75500300  0.03541700  0.25677900  1
  O  O71  1  0.36922500  0.83990400  0.80615700  1
  O  O72  1  0.35396700  0.70393000  0.37991900  1
  O  O73  1  0.25500300  0.96458300  0.24322100  1
  O  O74  1  0.24499700  0.96458300  0.74322100  1
  O  O75  1  0.95838100  0.75714700  0.63418700  1
