# generated using pymatgen
data_CsB5O8
_symmetry_space_group_name_H-M   'P 1'
_cell_length_a   8.12663000
_cell_length_b   12.30490900
_cell_length_c   15.17116800
_cell_angle_alpha   90.00000000
_cell_angle_beta   90.00000000
_cell_angle_gamma   90.00000000
_symmetry_Int_Tables_number   1
_chemical_formula_structural   CsB5O8
_chemical_formula_sum   'Cs8 B40 O64'
_cell_volume   1517.07800166
_cell_formula_units_Z   8
loop_
 _symmetry_equiv_pos_site_id
 _symmetry_equiv_pos_as_xyz
  1  'x, y, z'
loop_
 _atom_site_type_symbol
 _atom_site_label
 _atom_site_symmetry_multiplicity
 _atom_site_fract_x
 _atom_site_fract_y
 _atom_site_fract_z
 _atom_site_occupancy
  Cs  Cs0  1  0.04553900  0.21255300  0.62310700  1
  Cs  Cs1  1  0.54553900  0.21255300  0.87689300  1
  Cs  Cs2  1  0.54553900  0.28744700  0.37689300  1
  Cs  Cs3  1  0.45446100  0.78744700  0.12310700  1
  Cs  Cs4  1  0.04553900  0.28744700  0.12310700  1
  Cs  Cs5  1  0.95446100  0.71255300  0.87689300  1
  Cs  Cs6  1  0.45446100  0.71255300  0.62310700  1
  Cs  Cs7  1  0.95446100  0.78744700  0.37689300  1
  B  B8  1  0.97006300  0.73095000  0.62507100  1
  B  B9  1  0.51288400  0.96472400  0.33743400  1
  B  B10  1  0.44999500  0.90556800  0.79334800  1
  B  B11  1  0.94999500  0.59443200  0.20665200  1
  B  B12  1  0.48711600  0.46472400  0.16256600  1
  B  B13  1  0.61949500  0.89983200  0.92206100  1
  B  B14  1  0.48711600  0.03527600  0.66256600  1
  B  B15  1  0.11949500  0.89983200  0.57793900  1
  B  B16  1  0.98711600  0.46472400  0.33743400  1
  B  B17  1  0.67707800  0.08008900  0.54718900  1
  B  B18  1  0.88050500  0.10016800  0.42206100  1
  B  B19  1  0.47006300  0.73095000  0.87492900  1
  B  B20  1  0.97006300  0.76905000  0.12507100  1
  B  B21  1  0.01288400  0.53527600  0.66256600  1
  B  B22  1  0.94999500  0.90556800  0.70665200  1
  B  B23  1  0.55000500  0.09443200  0.20665200  1
  B  B24  1  0.82292200  0.91991100  0.04718900  1
  B  B25  1  0.98711600  0.03527600  0.83743400  1
  B  B26  1  0.11949500  0.60016800  0.07793900  1
  B  B27  1  0.52993700  0.23095000  0.62507100  1
  B  B28  1  0.32292200  0.91991100  0.45281100  1
  B  B29  1  0.05000500  0.09443200  0.29334800  1
  B  B30  1  0.67707800  0.41991100  0.04718900  1
  B  B31  1  0.82292200  0.58008900  0.54718900  1
  B  B32  1  0.02993700  0.23095000  0.87492900  1
  B  B33  1  0.38050500  0.10016800  0.07793900  1
  B  B34  1  0.52993700  0.26905000  0.12507100  1
  B  B35  1  0.05000500  0.40556800  0.79334800  1
  B  B36  1  0.61949500  0.60016800  0.42206100  1
  B  B37  1  0.01288400  0.96472400  0.16256600  1
  B  B38  1  0.55000500  0.40556800  0.70665200  1
  B  B39  1  0.02993700  0.26905000  0.37492900  1
  B  B40  1  0.51288400  0.53527600  0.83743400  1
  B  B41  1  0.32292200  0.58008900  0.95281100  1
  B  B42  1  0.38050500  0.39983200  0.57793900  1
  B  B43  1  0.88050500  0.39983200  0.92206100  1
  B  B44  1  0.17707800  0.08008900  0.95281100  1
  B  B45  1  0.17707800  0.41991100  0.45281100  1
  B  B46  1  0.47006300  0.76905000  0.37492900  1
  B  B47  1  0.44999500  0.59443200  0.29334800  1
  O  O48  1  0.21832000  0.54316300  0.01911500  1
  O  O49  1  0.94659900  0.14121500  0.82637100  1
  O  O50  1  0.09785000  0.49904100  0.40245700  1
  O  O51  1  0.94659900  0.35878500  0.32637100  1
  O  O52  1  0.15543900  0.31248800  0.43605200  1
  O  O53  1  0.84456100  0.68751200  0.56394800  1
  O  O54  1  0.44659900  0.14121500  0.67362900  1
  O  O55  1  0.95287700  0.03896100  0.35495400  1
  O  O56  1  0.44659900  0.35878500  0.17362900  1
  O  O57  1  0.34456100  0.81248800  0.43605200  1
  O  O58  1  0.28168000  0.04316300  0.01911500  1
  O  O59  1  0.41678700  0.54604200  0.21363400  1
  O  O60  1  0.59357900  0.79118100  0.92814300  1
  O  O61  1  0.08321300  0.04604200  0.21363400  1
  O  O62  1  0.55340100  0.64121500  0.82637100  1
  O  O63  1  0.09357900  0.70881900  0.07185700  1
  O  O64  1  0.40215000  0.99904100  0.40245700  1
  O  O65  1  0.59357900  0.70881900  0.42814300  1
  O  O66  1  0.10663500  0.30341400  0.80900000  1
  O  O67  1  0.05340100  0.64121500  0.67362900  1
  O  O68  1  0.60663500  0.30341400  0.69100000  1
  O  O69  1  0.05340100  0.85878500  0.17362900  1
  O  O70  1  0.91678700  0.54604200  0.28636600  1
  O  O71  1  0.90215000  0.50095900  0.59754300  1
  O  O72  1  0.59785000  0.00095900  0.59754300  1
  O  O73  1  0.39336500  0.69658600  0.30900000  1
  O  O74  1  0.55340100  0.85878500  0.32637100  1
  O  O75  1  0.34456100  0.68751200  0.93605200  1
  O  O76  1  0.54712300  0.53896100  0.35495400  1
  O  O77  1  0.84456100  0.81248800  0.06394800  1
  O  O78  1  0.58321300  0.45395800  0.78636600  1
  O  O79  1  0.04712300  0.96103900  0.64504600  1
  O  O80  1  0.08321300  0.45395800  0.71363400  1
  O  O81  1  0.90642100  0.20881900  0.42814300  1
  O  O82  1  0.65543900  0.18751200  0.56394800  1
  O  O83  1  0.40642100  0.29118100  0.57185700  1
  O  O84  1  0.78168000  0.45683700  0.98088500  1
  O  O85  1  0.90642100  0.29118100  0.92814300  1
  O  O86  1  0.59785000  0.49904100  0.09754300  1
  O  O87  1  0.78168000  0.04316300  0.48088500  1
  O  O88  1  0.90215000  0.99904100  0.09754300  1
  O  O89  1  0.45287700  0.46103900  0.64504600  1
  O  O90  1  0.71832000  0.95683700  0.98088500  1
  O  O91  1  0.40642100  0.20881900  0.07185700  1
  O  O92  1  0.71832000  0.54316300  0.48088500  1
  O  O93  1  0.09357900  0.79118100  0.57185700  1
  O  O94  1  0.89336500  0.69658600  0.19100000  1
  O  O95  1  0.41678700  0.95395800  0.71363400  1
  O  O96  1  0.54712300  0.96103900  0.85495400  1
  O  O97  1  0.65543900  0.31248800  0.06394800  1
  O  O98  1  0.58321300  0.04604200  0.28636600  1
  O  O99  1  0.60663500  0.19658600  0.19100000  1
  O  O100  1  0.04712300  0.53896100  0.14504600  1
  O  O101  1  0.89336500  0.80341400  0.69100000  1
  O  O102  1  0.28168000  0.45683700  0.51911500  1
  O  O103  1  0.40215000  0.50095900  0.90245700  1
  O  O104  1  0.15543900  0.18751200  0.93605200  1
  O  O105  1  0.10663500  0.19658600  0.30900000  1
  O  O106  1  0.09785000  0.00095900  0.90245700  1
  O  O107  1  0.39336500  0.80341400  0.80900000  1
  O  O108  1  0.91678700  0.95395800  0.78636600  1
  O  O109  1  0.95287700  0.46103900  0.85495400  1
  O  O110  1  0.45287700  0.03896100  0.14504600  1
  O  O111  1  0.21832000  0.95683700  0.51911500  1
