# generated using pymatgen
data_K9Bi(PS4)4
_symmetry_space_group_name_H-M   'P 1'
_cell_length_a   9.09294000
_cell_length_b   9.79623500
_cell_length_c   18.60766700
_cell_angle_alpha   90.00000000
_cell_angle_beta   90.00000000
_cell_angle_gamma   90.00000000
_symmetry_Int_Tables_number   1
_chemical_formula_structural   K9Bi(PS4)4
_chemical_formula_sum   'K18 Bi2 P8 S32'
_cell_volume   1657.50728382
_cell_formula_units_Z   2
loop_
 _symmetry_equiv_pos_site_id
 _symmetry_equiv_pos_as_xyz
  1  'x, y, z'
loop_
 _atom_site_type_symbol
 _atom_site_label
 _atom_site_symmetry_multiplicity
 _atom_site_fract_x
 _atom_site_fract_y
 _atom_site_fract_z
 _atom_site_occupancy
  K  K0  1  0.14291900  0.99753700  0.57622400  1
  K  K1  1  0.12885100  0.48303300  0.41458500  1
  K  K2  1  0.47973500  0.23808000  0.73237000  1
  K  K3  1  0.50297300  0.75358100  0.25074700  1
  K  K4  1  0.50000000  0.23180000  0.50000000  1
  K  K5  1  0.62885100  0.51696700  0.08541500  1
  K  K6  1  0.35708100  0.00246300  0.07622400  1
  K  K7  1  0.85708100  0.99753700  0.42377600  1
  K  K8  1  0.00297300  0.24641900  0.24925300  1
  K  K9  1  0.99702700  0.24641900  0.75074700  1
  K  K10  1  0.49702700  0.75358100  0.74925300  1
  K  K11  1  0.37114900  0.51696700  0.91458500  1
  K  K12  1  0.00000000  0.76820000  0.00000000  1
  K  K13  1  0.64291900  0.00246300  0.92377600  1
  K  K14  1  0.02026500  0.76192000  0.23237000  1
  K  K15  1  0.97973500  0.76192000  0.76763000  1
  K  K16  1  0.52026500  0.23808000  0.26763000  1
  K  K17  1  0.87114900  0.48303300  0.58541500  1
  Bi  Bi18  1  0.50000000  0.72263200  0.50000000  1
  Bi  Bi19  1  0.00000000  0.27736800  0.00000000  1
  P  P20  1  0.79128400  0.49063700  0.87784100  1
  P  P21  1  0.72901900  0.97801600  0.63539500  1
  P  P22  1  0.70871600  0.50936300  0.37784100  1
  P  P23  1  0.29128400  0.50936300  0.62215900  1
  P  P24  1  0.22901900  0.02198400  0.86460500  1
  P  P25  1  0.27098100  0.97801600  0.36460500  1
  P  P26  1  0.77098100  0.02198400  0.13539500  1
  P  P27  1  0.20871600  0.49063700  0.12215900  1
  S  S28  1  0.76770600  0.99832300  0.24478400  1
  S  S29  1  0.30659000  0.84943300  0.91379500  1
  S  S30  1  0.78609600  0.66755400  0.44242200  1
  S  S31  1  0.64727700  0.18398600  0.10313800  1
  S  S32  1  0.85272300  0.81601400  0.60313800  1
  S  S33  1  0.51931400  0.51716600  0.60908200  1
  S  S34  1  0.71390400  0.33244600  0.94242200  1
  S  S35  1  0.98068600  0.48283400  0.10908200  1
  S  S36  1  0.70387600  0.66617700  0.91788100  1
  S  S37  1  0.69341000  0.84943300  0.08620500  1
  S  S38  1  0.76228700  0.52729400  0.27231500  1
  S  S39  1  0.14727700  0.81601400  0.39686200  1
  S  S40  1  0.01931400  0.48283400  0.89091800  1
  S  S41  1  0.26228700  0.47270600  0.22768500  1
  S  S42  1  0.48068600  0.51716600  0.39091800  1
  S  S43  1  0.00952800  0.05569600  0.89600000  1
  S  S44  1  0.26770600  0.00167700  0.25521600  1
  S  S45  1  0.73229400  0.00167700  0.74478400  1
  S  S46  1  0.99047200  0.05569600  0.10400000  1
  S  S47  1  0.79612400  0.33382300  0.41788100  1
  S  S48  1  0.23771300  0.52729400  0.72768500  1
  S  S49  1  0.21390400  0.66755400  0.55757800  1
  S  S50  1  0.35272300  0.18398600  0.89686200  1
  S  S51  1  0.28609600  0.33244600  0.05757800  1
  S  S52  1  0.19341000  0.15056700  0.41379500  1
  S  S53  1  0.29612400  0.66617700  0.08211900  1
  S  S54  1  0.20387600  0.33382300  0.58211900  1
  S  S55  1  0.23229400  0.99832300  0.75521600  1
  S  S56  1  0.73771300  0.47270600  0.77231500  1
  S  S57  1  0.50952800  0.94430400  0.60400000  1
  S  S58  1  0.80659000  0.15056700  0.58620500  1
  S  S59  1  0.49047200  0.94430400  0.39600000  1
