# generated using pymatgen
data_GdVO3
_symmetry_space_group_name_H-M   'P 1'
_cell_length_a   5.41084900
_cell_length_b   5.69855300
_cell_length_c   7.72752200
_cell_angle_alpha   90.00000000
_cell_angle_beta   90.00000000
_cell_angle_gamma   90.00000000
_symmetry_Int_Tables_number   1
_chemical_formula_structural   GdVO3
_chemical_formula_sum   'Gd4 V4 O12'
_cell_volume   238.27048909
_cell_formula_units_Z   4
loop_
 _symmetry_equiv_pos_site_id
 _symmetry_equiv_pos_as_xyz
  1  'x, y, z'
loop_
 _atom_site_type_symbol
 _atom_site_label
 _atom_site_symmetry_multiplicity
 _atom_site_fract_x
 _atom_site_fract_y
 _atom_site_fract_z
 _atom_site_occupancy
  Gd  Gd0  1  0.97881500  0.93279300  0.25000000  1
  Gd  Gd1  1  0.47881500  0.56720700  0.75000000  1
  Gd  Gd2  1  0.52118500  0.43279300  0.25000000  1
  Gd  Gd3  1  0.02118500  0.06720700  0.75000000  1
  V  V4  1  0.50000000  0.00000000  0.00000000  1
  V  V5  1  0.00000000  0.50000000  0.00000000  1
  V  V6  1  0.00000000  0.50000000  0.50000000  1
  V  V7  1  0.50000000  0.00000000  0.50000000  1
  O  O8  1  0.11097900  0.53587700  0.25000000  1
  O  O9  1  0.61097900  0.96412300  0.75000000  1
  O  O10  1  0.38902100  0.03587700  0.25000000  1
  O  O11  1  0.88902100  0.46412300  0.75000000  1
  O  O12  1  0.68972900  0.70171200  0.05647500  1
  O  O13  1  0.18972900  0.79828800  0.94352500  1
  O  O14  1  0.81027100  0.20171200  0.44352500  1
  O  O15  1  0.31027100  0.29828800  0.55647500  1
  O  O16  1  0.31027100  0.29828800  0.94352500  1
  O  O17  1  0.81027100  0.20171200  0.05647500  1
  O  O18  1  0.18972900  0.79828800  0.55647500  1
  O  O19  1  0.68972900  0.70171200  0.44352500  1
