# generated using pymatgen
data_H7ClO7
_symmetry_space_group_name_H-M   'P 1'
_cell_length_a   8.42969100
_cell_length_b   10.22557100
_cell_length_c   13.60510500
_cell_angle_alpha   90.00000000
_cell_angle_beta   90.00000000
_cell_angle_gamma   90.00000000
_symmetry_Int_Tables_number   1
_chemical_formula_structural   H7ClO7
_chemical_formula_sum   'H56 Cl8 O56'
_cell_volume   1172.73833492
_cell_formula_units_Z   8
loop_
 _symmetry_equiv_pos_site_id
 _symmetry_equiv_pos_as_xyz
  1  'x, y, z'
loop_
 _atom_site_type_symbol
 _atom_site_label
 _atom_site_symmetry_multiplicity
 _atom_site_fract_x
 _atom_site_fract_y
 _atom_site_fract_z
 _atom_site_occupancy
  H  H0  1  0.90577900  0.17534000  0.57165800  1
  H  H1  1  0.56622700  0.56445000  0.76282500  1
  H  H2  1  0.56622700  0.06445000  0.73717500  1
  H  H3  1  0.69086900  0.55966700  0.61144700  1
  H  H4  1  0.44757700  0.61068800  0.35799700  1
  H  H5  1  0.48650200  0.22623300  0.65656500  1
  H  H6  1  0.06622700  0.93555000  0.76282500  1
  H  H7  1  0.93377300  0.06445000  0.23717500  1
  H  H8  1  0.44757700  0.11068800  0.14200300  1
  H  H9  1  0.95738700  0.03479200  0.12363600  1
  H  H10  1  0.54261300  0.53479200  0.87636400  1
  H  H11  1  0.78448300  0.46164600  0.68016800  1
  H  H12  1  0.69086900  0.05966700  0.88855300  1
  H  H13  1  0.09422100  0.32466000  0.07165800  1
  H  H14  1  0.04261300  0.96520800  0.87636400  1
  H  H15  1  0.09422100  0.82466000  0.42834200  1
  H  H16  1  0.28448300  0.03835400  0.68016800  1
  H  H17  1  0.55242300  0.88931200  0.85799700  1
  H  H18  1  0.21551700  0.53835400  0.31983200  1
  H  H19  1  0.95738700  0.53479200  0.37636400  1
  H  H20  1  0.93377300  0.56445000  0.26282500  1
  H  H21  1  0.48650200  0.72623300  0.84343500  1
  H  H22  1  0.01349800  0.22623300  0.15656500  1
  H  H23  1  0.30913100  0.94033300  0.11144700  1
  H  H24  1  0.06622700  0.43555000  0.73717500  1
  H  H25  1  0.45738700  0.46520800  0.12363600  1
  H  H26  1  0.80913100  0.55966700  0.11144700  1
  H  H27  1  0.51349800  0.77376700  0.34343500  1
  H  H28  1  0.59422100  0.67534000  0.42834200  1
  H  H29  1  0.04261300  0.46520800  0.62363600  1
  H  H30  1  0.19086900  0.44033300  0.88855300  1
  H  H31  1  0.01349800  0.72623300  0.34343500  1
  H  H32  1  0.43377300  0.43555000  0.23717500  1
  H  H33  1  0.98650200  0.27376700  0.65656500  1
  H  H34  1  0.94757700  0.38931200  0.14200300  1
  H  H35  1  0.80913100  0.05966700  0.38855300  1
  H  H36  1  0.19086900  0.94033300  0.61144700  1
  H  H37  1  0.51349800  0.27376700  0.15656500  1
  H  H38  1  0.71551700  0.96164600  0.31983200  1
  H  H39  1  0.21551700  0.03835400  0.18016800  1
  H  H40  1  0.71551700  0.46164600  0.18016800  1
  H  H41  1  0.40577900  0.32466000  0.57165800  1
  H  H42  1  0.78448300  0.96164600  0.81983200  1
  H  H43  1  0.30913100  0.44033300  0.38855300  1
  H  H44  1  0.94757700  0.88931200  0.35799700  1
  H  H45  1  0.05242300  0.11068800  0.64200300  1
  H  H46  1  0.98650200  0.77376700  0.84343500  1
  H  H47  1  0.40577900  0.82466000  0.92834200  1
  H  H48  1  0.05242300  0.61068800  0.85799700  1
  H  H49  1  0.28448300  0.53835400  0.81983200  1
  H  H50  1  0.90577900  0.67534000  0.92834200  1
  H  H51  1  0.54261300  0.03479200  0.62363600  1
  H  H52  1  0.43377300  0.93555000  0.26282500  1
  H  H53  1  0.55242300  0.38931200  0.64200300  1
  H  H54  1  0.59422100  0.17534000  0.07165800  1
  H  H55  1  0.45738700  0.96520800  0.37636400  1
  Cl  Cl56  1  0.73842800  0.82171000  0.57955600  1
  Cl  Cl57  1  0.76157200  0.82171000  0.07955600  1
  Cl  Cl58  1  0.23842800  0.17829000  0.92044400  1
  Cl  Cl59  1  0.26157200  0.67829000  0.07955600  1
  Cl  Cl60  1  0.73842800  0.32171000  0.92044400  1
  Cl  Cl61  1  0.26157200  0.17829000  0.42044400  1
  Cl  Cl62  1  0.76157200  0.32171000  0.42044400  1
  Cl  Cl63  1  0.23842800  0.67829000  0.57955600  1
  O  O64  1  0.00003600  0.08740600  0.17885700  1
  O  O65  1  0.50003500  0.91259400  0.32114300  1
  O  O66  1  0.23157300  0.30429200  0.97589800  1
  O  O67  1  0.73157300  0.69570800  0.52410200  1
  O  O68  1  0.70967100  0.79527300  0.68261300  1
  O  O69  1  0.88474600  0.40822800  0.46022000  1
  O  O70  1  0.95786700  0.67596400  0.86235600  1
  O  O71  1  0.20967100  0.20472700  0.81738700  1
  O  O72  1  0.23157300  0.80429200  0.52410200  1
  O  O73  1  0.10677800  0.61982300  0.06539700  1
  O  O74  1  0.11525400  0.59177200  0.53978000  1
  O  O75  1  0.17647200  0.00652400  0.66378800  1
  O  O76  1  0.04213300  0.32403600  0.13764400  1
  O  O77  1  0.89322200  0.88017700  0.56539700  1
  O  O78  1  0.39322200  0.11982300  0.93460300  1
  O  O79  1  0.82352800  0.49347600  0.16378800  1
  O  O80  1  0.32352800  0.50652400  0.33621200  1
  O  O81  1  0.49996400  0.58740600  0.82114300  1
  O  O82  1  0.26842700  0.30429200  0.47589800  1
  O  O83  1  0.89322200  0.38017700  0.93460300  1
  O  O84  1  0.67647200  0.49347600  0.66378800  1
  O  O85  1  0.10677800  0.11982300  0.43460300  1
  O  O86  1  0.88474600  0.90822800  0.03978000  1
  O  O87  1  0.26842700  0.80429200  0.02410200  1
  O  O88  1  0.79032900  0.29527300  0.31738700  1
  O  O89  1  0.70967100  0.29527300  0.81738700  1
  O  O90  1  0.54213300  0.67596400  0.36235600  1
  O  O91  1  0.32352800  0.00652400  0.16378800  1
  O  O92  1  0.61525400  0.40822800  0.96022000  1
  O  O93  1  0.11525400  0.09177200  0.96022000  1
  O  O94  1  0.60677800  0.38017700  0.43460300  1
  O  O95  1  0.99996500  0.41259400  0.67885700  1
  O  O96  1  0.82352800  0.99347600  0.33621200  1
  O  O97  1  0.45786700  0.32403600  0.63764400  1
  O  O98  1  0.67647200  0.99347600  0.83621200  1
  O  O99  1  0.38474600  0.09177200  0.46022000  1
  O  O100  1  0.29032900  0.70472700  0.18261300  1
  O  O101  1  0.00003600  0.58740600  0.32114300  1
  O  O102  1  0.95786700  0.17596400  0.63764400  1
  O  O103  1  0.99996500  0.91259400  0.82114300  1
  O  O104  1  0.29032900  0.20472700  0.31738700  1
  O  O105  1  0.73157300  0.19570800  0.97589800  1
  O  O106  1  0.76842700  0.69570800  0.02410200  1
  O  O107  1  0.39322200  0.61982300  0.56539700  1
  O  O108  1  0.38474600  0.59177200  0.03978000  1
  O  O109  1  0.20967100  0.70472700  0.68261300  1
  O  O110  1  0.50003500  0.41259400  0.17885700  1
  O  O111  1  0.79032900  0.79527300  0.18261300  1
  O  O112  1  0.17647200  0.50652400  0.83621200  1
  O  O113  1  0.04213300  0.82403600  0.36235600  1
  O  O114  1  0.45786700  0.82403600  0.86235600  1
  O  O115  1  0.49996400  0.08740600  0.67885700  1
  O  O116  1  0.61525400  0.90822800  0.53978000  1
  O  O117  1  0.60677800  0.88017700  0.06539700  1
  O  O118  1  0.76842700  0.19570800  0.47589800  1
  O  O119  1  0.54213300  0.17596400  0.13764400  1
