# generated using pymatgen
data_K3ZnNCl4O3
_symmetry_space_group_name_H-M   'P 1'
_cell_length_a   9.47903100
_cell_length_b   9.86352400
_cell_length_c   12.28748700
_cell_angle_alpha   90.00000000
_cell_angle_beta   90.00000000
_cell_angle_gamma   90.00000000
_symmetry_Int_Tables_number   1
_chemical_formula_structural   K3ZnNCl4O3
_chemical_formula_sum   'K12 Zn4 N4 Cl16 O12'
_cell_volume   1148.83886853
_cell_formula_units_Z   4
loop_
 _symmetry_equiv_pos_site_id
 _symmetry_equiv_pos_as_xyz
  1  'x, y, z'
loop_
 _atom_site_type_symbol
 _atom_site_label
 _atom_site_symmetry_multiplicity
 _atom_site_fract_x
 _atom_site_fract_y
 _atom_site_fract_z
 _atom_site_occupancy
  K  K0  1  0.87627400  0.99531400  0.68311900  1
  K  K1  1  0.87627400  0.50468600  0.68311900  1
  K  K2  1  0.12372600  0.49531400  0.31688100  1
  K  K3  1  0.12372600  0.00468600  0.31688100  1
  K  K4  1  0.58092100  0.75000000  0.46149800  1
  K  K5  1  0.62372600  0.49531400  0.18311900  1
  K  K6  1  0.37627400  0.50468600  0.81688100  1
  K  K7  1  0.91907900  0.25000000  0.96149800  1
  K  K8  1  0.41907900  0.25000000  0.53850200  1
  K  K9  1  0.62372600  0.00468600  0.18311900  1
  K  K10  1  0.08092100  0.75000000  0.03850200  1
  K  K11  1  0.37627400  0.99531400  0.81688100  1
  Zn  Zn12  1  0.17945500  0.75000000  0.59224100  1
  Zn  Zn13  1  0.32054500  0.25000000  0.09224100  1
  Zn  Zn14  1  0.67945500  0.75000000  0.90775900  1
  Zn  Zn15  1  0.82054500  0.25000000  0.40775900  1
  N  N16  1  0.34295700  0.75000000  0.27110300  1
  N  N17  1  0.84295700  0.75000000  0.22889700  1
  N  N18  1  0.65704300  0.25000000  0.72889700  1
  N  N19  1  0.15704300  0.25000000  0.77110300  1
  Cl  Cl20  1  0.12777700  0.75000000  0.77565200  1
  Cl  Cl21  1  0.30709900  0.56112600  0.55056600  1
  Cl  Cl22  1  0.53173600  0.25000000  0.00209600  1
  Cl  Cl23  1  0.19290100  0.43887400  0.05056600  1
  Cl  Cl24  1  0.62777700  0.75000000  0.72434800  1
  Cl  Cl25  1  0.80709900  0.93887400  0.94943400  1
  Cl  Cl26  1  0.87222300  0.25000000  0.22434800  1
  Cl  Cl27  1  0.19290100  0.06112600  0.05056600  1
  Cl  Cl28  1  0.80709900  0.56112600  0.94943400  1
  Cl  Cl29  1  0.69290100  0.43887400  0.44943400  1
  Cl  Cl30  1  0.03173600  0.25000000  0.49790400  1
  Cl  Cl31  1  0.46826400  0.75000000  0.99790400  1
  Cl  Cl32  1  0.37222300  0.25000000  0.27565200  1
  Cl  Cl33  1  0.96826400  0.75000000  0.50209600  1
  Cl  Cl34  1  0.69290100  0.06112600  0.44943400  1
  Cl  Cl35  1  0.30709900  0.93887400  0.55056600  1
  O  O36  1  0.40533100  0.63834100  0.28757400  1
  O  O37  1  0.59466900  0.13834100  0.71242600  1
  O  O38  1  0.40533100  0.86165900  0.28757400  1
  O  O39  1  0.71423700  0.75000000  0.25856400  1
  O  O40  1  0.28576300  0.25000000  0.74143600  1
  O  O41  1  0.78576300  0.25000000  0.75856400  1
  O  O42  1  0.09466900  0.36165900  0.78757400  1
  O  O43  1  0.09466900  0.13834100  0.78757400  1
  O  O44  1  0.90533100  0.63834100  0.21242600  1
  O  O45  1  0.59466900  0.36165900  0.71242600  1
  O  O46  1  0.21423700  0.75000000  0.24143600  1
  O  O47  1  0.90533100  0.86165900  0.21242600  1
