# generated using pymatgen
data_Ti4Tl2O9
_symmetry_space_group_name_H-M   'P 1'
_cell_length_a   9.89647931
_cell_length_b   9.89647931
_cell_length_c   12.21476199
_cell_angle_alpha   73.55567206
_cell_angle_beta   73.55567206
_cell_angle_gamma   22.13480218
_symmetry_Int_Tables_number   1
_chemical_formula_structural   Ti4Tl2O9
_chemical_formula_sum   'Ti8 Tl4 O18'
_cell_volume   431.59766998
_cell_formula_units_Z   2
loop_
 _symmetry_equiv_pos_site_id
 _symmetry_equiv_pos_as_xyz
  1  'x, y, z'
loop_
 _atom_site_type_symbol
 _atom_site_label
 _atom_site_symmetry_multiplicity
 _atom_site_fract_x
 _atom_site_fract_y
 _atom_site_fract_z
 _atom_site_occupancy
  Ti  Ti0  1  0.75412900  0.75412900  0.16729200  1
  Ti  Ti1  1  0.24587100  0.24587100  0.83270800  1
  Ti  Ti2  1  0.16477100  0.16477100  0.37633000  1
  Ti  Ti3  1  0.83522900  0.83522900  0.62367000  1
  Ti  Ti4  1  0.12817000  0.12817000  0.13705300  1
  Ti  Ti5  1  0.87183000  0.87183000  0.86294700  1
  Ti  Ti6  1  0.79582800  0.79582800  0.39738500  1
  Ti  Ti7  1  0.20417200  0.20417200  0.60261500  1
  Tl  Tl8  1  0.41684100  0.41684100  0.08864400  1
  Tl  Tl9  1  0.58315900  0.58315900  0.91135600  1
  Tl  Tl10  1  0.48744100  0.48744100  0.32607400  1
  Tl  Tl11  1  0.51255900  0.51255900  0.67392600  1
  O  O12  1  0.23247400  0.23247400  0.20095700  1
  O  O13  1  0.76752600  0.76752600  0.79904300  1
  O  O14  1  0.69397600  0.69397600  0.35865900  1
  O  O15  1  0.30602400  0.30602400  0.64134100  1
  O  O16  1  0.65539500  0.65539500  0.14352100  1
  O  O17  1  0.34460500  0.34460500  0.85647900  1
  O  O18  1  0.26880600  0.26880600  0.42215500  1
  O  O19  1  0.73119400  0.73119400  0.57784500  1
  O  O20  1  0.08976900  0.08976900  0.31823500  1
  O  O21  1  0.91023100  0.91023100  0.68176500  1
  O  O22  1  0.04188100  0.04188100  0.12304600  1
  O  O23  1  0.95811900  0.95811900  0.87695400  1
  O  O24  1  0.87230900  0.87230900  0.46260200  1
  O  O25  1  0.12769100  0.12769100  0.53739800  1
  O  O26  1  0.83391500  0.83391500  0.24330000  1
  O  O27  1  0.16608500  0.16608500  0.75670000  1
  O  O28  1  0.81530300  0.81530300  0.02788400  1
  O  O29  1  0.18469700  0.18469700  0.97211600  1
