# generated using pymatgen
data_Na2MnF5
_symmetry_space_group_name_H-M   'P 1'
_cell_length_a   5.33229300
_cell_length_b   7.85296200
_cell_length_c   11.01800425
_cell_angle_alpha   71.28416218
_cell_angle_beta   90.00000000
_cell_angle_gamma   90.00000000
_symmetry_Int_Tables_number   1
_chemical_formula_structural   Na2MnF5
_chemical_formula_sum   'Na8 Mn4 F20'
_cell_volume   436.97459201
_cell_formula_units_Z   4
loop_
 _symmetry_equiv_pos_site_id
 _symmetry_equiv_pos_as_xyz
  1  'x, y, z'
loop_
 _atom_site_type_symbol
 _atom_site_label
 _atom_site_symmetry_multiplicity
 _atom_site_fract_x
 _atom_site_fract_y
 _atom_site_fract_z
 _atom_site_occupancy
  Na  Na0  1  0.94324800  0.34533000  0.31975000  1
  Na  Na1  1  0.44324800  0.65467000  0.18025000  1
  Na  Na2  1  0.05675200  0.65467000  0.68024900  1
  Na  Na3  1  0.55675200  0.34533000  0.81975100  1
  Na  Na4  1  0.48722800  0.14884900  0.13159800  1
  Na  Na5  1  0.98722800  0.85115100  0.36840200  1
  Na  Na6  1  0.51277200  0.85115100  0.86840200  1
  Na  Na7  1  0.01277200  0.14884900  0.63159800  1
  Mn  Mn8  1  0.50000000  0.50000000  0.50000000  1
  Mn  Mn9  1  0.00000000  0.50000000  0.00000000  1
  Mn  Mn10  1  0.50000000  0.00000000  0.50000000  1
  Mn  Mn11  1  0.00000000  0.00000000  0.00000000  1
  F  F12  1  0.74313200  0.49433500  0.62643400  1
  F  F13  1  0.24313200  0.50566500  0.87356600  1
  F  F14  1  0.25686800  0.50566500  0.37356600  1
  F  F15  1  0.75686800  0.49433500  0.12643400  1
  F  F16  1  0.71878800  0.62145800  0.36463000  1
  F  F17  1  0.21878800  0.37854200  0.13537000  1
  F  F18  1  0.28121200  0.37854200  0.63537000  1
  F  F19  1  0.78121200  0.62145800  0.86463000  1
  F  F20  1  0.67155800  0.25093700  0.49676000  1
  F  F21  1  0.17155800  0.74906300  0.00324000  1
  F  F22  1  0.32844200  0.74906300  0.50324000  1
  F  F23  1  0.82844200  0.25093700  0.99676000  1
  F  F24  1  0.85128700  0.04674900  0.83400500  1
  F  F25  1  0.35128700  0.95325100  0.66599500  1
  F  F26  1  0.14871300  0.95325100  0.16599500  1
  F  F27  1  0.64871300  0.04674900  0.33400500  1
  F  F28  1  0.69880500  0.89094200  0.07409300  1
  F  F29  1  0.19880500  0.10905800  0.42590700  1
  F  F30  1  0.30119500  0.10905800  0.92590700  1
  F  F31  1  0.80119500  0.89094200  0.57409300  1
