# generated using pymatgen
data_Cr4Si2Br2O7
_symmetry_space_group_name_H-M   'P 1'
_cell_length_a   13.07069100
_cell_length_b   6.55092900
_cell_length_c   10.70892326
_cell_angle_alpha   88.40498673
_cell_angle_beta   90.00000000
_cell_angle_gamma   90.00000000
_symmetry_Int_Tables_number   1
_chemical_formula_structural   Cr4Si2Br2O7
_chemical_formula_sum   'Cr16 Si8 Br8 O28'
_cell_volume   916.59807988
_cell_formula_units_Z   4
loop_
 _symmetry_equiv_pos_site_id
 _symmetry_equiv_pos_as_xyz
  1  'x, y, z'
loop_
 _atom_site_type_symbol
 _atom_site_label
 _atom_site_symmetry_multiplicity
 _atom_site_fract_x
 _atom_site_fract_y
 _atom_site_fract_z
 _atom_site_occupancy
  Cr  Cr0  1  0.88734000  0.15599700  0.09254500  1
  Cr  Cr1  1  0.11266000  0.15599700  0.59254500  1
  Cr  Cr2  1  0.63837800  0.18947900  0.11700600  1
  Cr  Cr3  1  0.72279400  0.82149400  0.91873400  1
  Cr  Cr4  1  0.27720600  0.82149400  0.41873400  1
  Cr  Cr5  1  0.62790900  0.21623300  0.61463900  1
  Cr  Cr6  1  0.36162200  0.18947900  0.61700600  1
  Cr  Cr7  1  0.37209100  0.21623300  0.11463900  1
  Cr  Cr8  1  0.76783400  0.54878800  0.41762600  1
  Cr  Cr9  1  0.23216600  0.54878800  0.91762600  1
  Cr  Cr10  1  0.12852600  0.19153500  0.09961000  1
  Cr  Cr11  1  0.96329600  0.81682400  0.41082600  1
  Cr  Cr12  1  0.45547600  0.55686600  0.31735600  1
  Cr  Cr13  1  0.87147400  0.19153500  0.59961000  1
  Cr  Cr14  1  0.03670400  0.81682400  0.91082600  1
  Cr  Cr15  1  0.54452400  0.55686600  0.81735600  1
  Si  Si16  1  0.23913700  0.32458300  0.36268500  1
  Si  Si17  1  0.99872600  0.32267700  0.85509100  1
  Si  Si18  1  0.00127400  0.32267700  0.35509100  1
  Si  Si19  1  0.50504000  0.06592500  0.87329700  1
  Si  Si20  1  0.49496000  0.06592500  0.37329700  1
  Si  Si21  1  0.76086300  0.32458300  0.86268500  1
  Si  Si22  1  0.73901800  0.05925500  0.35333600  1
  Si  Si23  1  0.26098200  0.05925500  0.85333600  1
  Br  Br24  1  0.12198500  0.80247800  0.22255000  1
  Br  Br25  1  0.12163800  0.74420600  0.56893000  1
  Br  Br26  1  0.36847800  0.57829700  0.70597400  1
  Br  Br27  1  0.63152200  0.57829700  0.20597400  1
  Br  Br28  1  0.38698700  0.64485400  0.05339300  1
  Br  Br29  1  0.87801500  0.80247800  0.72255000  1
  Br  Br30  1  0.87836200  0.74420600  0.06893000  1
  Br  Br31  1  0.61301300  0.64485400  0.55339300  1
  O  O32  1  0.22658900  0.16729400  0.72000300  1
  O  O33  1  0.26340000  0.13138100  0.46438500  1
  O  O34  1  0.02162400  0.12753400  0.95808900  1
  O  O35  1  0.00014600  0.25323800  0.71039200  1
  O  O36  1  0.80413100  0.85405200  0.38902700  1
  O  O37  1  0.19586900  0.85405200  0.88902700  1
  O  O38  1  0.50478400  0.14909700  0.01687300  1
  O  O39  1  0.11915500  0.37902700  0.39630600  1
  O  O40  1  0.38491800  0.02402300  0.82757400  1
  O  O41  1  0.25282100  0.22674800  0.96832500  1
  O  O42  1  0.97837600  0.12753400  0.45808900  1
  O  O43  1  0.88084500  0.37902700  0.89630600  1
  O  O44  1  0.24365200  0.25573300  0.21837600  1
  O  O45  1  0.61508200  0.02402300  0.32757400  1
  O  O46  1  0.68889000  0.51996000  0.89272600  1
  O  O47  1  0.45523900  0.24855900  0.27605300  1
  O  O48  1  0.31111000  0.51996000  0.39272600  1
  O  O49  1  0.99985400  0.25323800  0.21039200  1
  O  O50  1  0.92528800  0.51138800  0.38919400  1
  O  O51  1  0.77341100  0.16729400  0.22000300  1
  O  O52  1  0.74717900  0.22674800  0.46832500  1
  O  O53  1  0.75634800  0.25573300  0.71837600  1
  O  O54  1  0.42685600  0.85997300  0.35648200  1
  O  O55  1  0.07471200  0.51138800  0.88919400  1
  O  O56  1  0.49521600  0.14909700  0.51687300  1
  O  O57  1  0.54476100  0.24855900  0.77605300  1
  O  O58  1  0.73660000  0.13138100  0.96438500  1
  O  O59  1  0.57314400  0.85997300  0.85648200  1
