# generated using pymatgen
data_AsPbClO2
_symmetry_space_group_name_H-M   'P 1'
_cell_length_a   7.14967700
_cell_length_b   10.08999400
_cell_length_c   11.67317500
_cell_angle_alpha   90.00000000
_cell_angle_beta   90.00000000
_cell_angle_gamma   90.00000000
_symmetry_Int_Tables_number   1
_chemical_formula_structural   AsPbClO2
_chemical_formula_sum   'As8 Pb8 Cl8 O16'
_cell_volume   842.10515616
_cell_formula_units_Z   8
loop_
 _symmetry_equiv_pos_site_id
 _symmetry_equiv_pos_as_xyz
  1  'x, y, z'
loop_
 _atom_site_type_symbol
 _atom_site_label
 _atom_site_symmetry_multiplicity
 _atom_site_fract_x
 _atom_site_fract_y
 _atom_site_fract_z
 _atom_site_occupancy
  As  As0  1  0.91886000  0.88170400  0.46544000  1
  As  As1  1  0.58114000  0.11829600  0.96544000  1
  As  As2  1  0.69950100  0.80783200  0.69756800  1
  As  As3  1  0.08114000  0.38170400  0.03456000  1
  As  As4  1  0.30049900  0.30783200  0.80243200  1
  As  As5  1  0.19950100  0.69216800  0.30243200  1
  As  As6  1  0.80049900  0.19216800  0.19756800  1
  As  As7  1  0.41886000  0.61829600  0.53456000  1
  Pb  Pb8  1  0.93064300  0.49656900  0.49341300  1
  Pb  Pb9  1  0.06935700  0.99656900  0.00658700  1
  Pb  Pb10  1  0.43064300  0.00343100  0.50658700  1
  Pb  Pb11  1  0.16543400  0.66488600  0.78467100  1
  Pb  Pb12  1  0.83456600  0.16488600  0.71532900  1
  Pb  Pb13  1  0.56935700  0.50343100  0.99341300  1
  Pb  Pb14  1  0.33456600  0.33511400  0.28467100  1
  Pb  Pb15  1  0.66543400  0.83511400  0.21532900  1
  Cl  Cl16  1  0.06186300  0.23369000  0.46768600  1
  Cl  Cl17  1  0.56186300  0.26631000  0.53231400  1
  Cl  Cl18  1  0.34976700  0.01635100  0.23948900  1
  Cl  Cl19  1  0.43813700  0.76631000  0.96768600  1
  Cl  Cl20  1  0.65023300  0.51635100  0.26051100  1
  Cl  Cl21  1  0.93813700  0.73369000  0.03231400  1
  Cl  Cl22  1  0.15023300  0.98364900  0.73948900  1
  Cl  Cl23  1  0.84976700  0.48364900  0.76051100  1
  O  O24  1  0.03298200  0.25470800  0.14744600  1
  O  O25  1  0.53298200  0.24529200  0.85255400  1
  O  O26  1  0.16492500  0.25405400  0.93019800  1
  O  O27  1  0.33507500  0.74594600  0.43019800  1
  O  O28  1  0.16115100  0.52464100  0.34476900  1
  O  O29  1  0.96701800  0.75470800  0.35255400  1
  O  O30  1  0.79674900  0.07181300  0.90306500  1
  O  O31  1  0.83884900  0.02464100  0.15523100  1
  O  O32  1  0.33884900  0.47535900  0.84476900  1
  O  O33  1  0.66492500  0.24594600  0.06980200  1
  O  O34  1  0.66115100  0.97535900  0.65523100  1
  O  O35  1  0.70325100  0.92818700  0.40306500  1
  O  O36  1  0.83507500  0.75405400  0.56980200  1
  O  O37  1  0.29674900  0.42818700  0.09693500  1
  O  O38  1  0.46701800  0.74529200  0.64744600  1
  O  O39  1  0.20325100  0.57181300  0.59693500  1
