# generated using pymatgen
data_Ba3Zr6BeCl18
_symmetry_space_group_name_H-M   'P 1'
_cell_length_a   18.72374909
_cell_length_b   18.72374909
_cell_length_c   18.72374910
_cell_angle_alpha   30.52020602
_cell_angle_beta   30.52020602
_cell_angle_gamma   30.52020791
_symmetry_Int_Tables_number   1
_chemical_formula_structural   Ba3Zr6BeCl18
_chemical_formula_sum   'Ba6 Zr12 Be2 Cl36'
_cell_volume   1500.72280165
_cell_formula_units_Z   2
loop_
 _symmetry_equiv_pos_site_id
 _symmetry_equiv_pos_as_xyz
  1  'x, y, z'
loop_
 _atom_site_type_symbol
 _atom_site_label
 _atom_site_symmetry_multiplicity
 _atom_site_fract_x
 _atom_site_fract_y
 _atom_site_fract_z
 _atom_site_occupancy
  Ba  Ba0  1  0.11139300  0.11139300  0.11139300  1
  Ba  Ba1  1  0.61139300  0.61139300  0.61139300  1
  Ba  Ba2  1  0.88860700  0.88860700  0.88860700  1
  Ba  Ba3  1  0.25000000  0.25000000  0.25000000  1
  Ba  Ba4  1  0.38860700  0.38860700  0.38860700  1
  Ba  Ba5  1  0.75000000  0.75000000  0.75000000  1
  Zr  Zr6  1  0.16177800  0.77143000  0.99156800  1
  Zr  Zr7  1  0.77143000  0.99156800  0.16177800  1
  Zr  Zr8  1  0.66177800  0.49156800  0.27143000  1
  Zr  Zr9  1  0.83822200  0.22857000  0.00843200  1
  Zr  Zr10  1  0.49156800  0.27143000  0.66177800  1
  Zr  Zr11  1  0.99156800  0.16177800  0.77143000  1
  Zr  Zr12  1  0.22857000  0.00843200  0.83822200  1
  Zr  Zr13  1  0.72857000  0.33822200  0.50843200  1
  Zr  Zr14  1  0.00843200  0.83822200  0.22857000  1
  Zr  Zr15  1  0.27143000  0.66177800  0.49156800  1
  Zr  Zr16  1  0.50843200  0.72857000  0.33822200  1
  Zr  Zr17  1  0.33822200  0.50843200  0.72857000  1
  Be  Be18  1  0.50000000  0.50000000  0.50000000  1
  Be  Be19  1  0.00000000  0.00000000  0.00000000  1
  Cl  Cl20  1  0.24559500  0.42537500  0.65850400  1
  Cl  Cl21  1  0.86423900  0.47213900  0.00594700  1
  Cl  Cl22  1  0.42537500  0.65850400  0.24559500  1
  Cl  Cl23  1  0.97213900  0.36423900  0.50594700  1
  Cl  Cl24  1  0.69260200  0.73570400  0.07480200  1
  Cl  Cl25  1  0.47213900  0.00594700  0.86423900  1
  Cl  Cl26  1  0.23570400  0.19260200  0.57480200  1
  Cl  Cl27  1  0.92537500  0.74559500  0.15850400  1
  Cl  Cl28  1  0.92519800  0.30739800  0.26429600  1
  Cl  Cl29  1  0.52786100  0.99405300  0.13576100  1
  Cl  Cl30  1  0.00594700  0.86423900  0.47213900  1
  Cl  Cl31  1  0.63576100  0.49405300  0.02786100  1
  Cl  Cl32  1  0.19260200  0.57480200  0.23570400  1
  Cl  Cl33  1  0.73570400  0.07480200  0.69260200  1
  Cl  Cl34  1  0.25440500  0.84149600  0.07462500  1
  Cl  Cl35  1  0.74559500  0.15850400  0.92537500  1
  Cl  Cl36  1  0.30739800  0.26429600  0.92519800  1
  Cl  Cl37  1  0.57462500  0.34149600  0.75440500  1
  Cl  Cl38  1  0.07462500  0.25440500  0.84149600  1
  Cl  Cl39  1  0.75440500  0.57462500  0.34149600  1
  Cl  Cl40  1  0.84149600  0.07462500  0.25440500  1
  Cl  Cl41  1  0.76429600  0.80739800  0.42519800  1
  Cl  Cl42  1  0.15850400  0.92537500  0.74559500  1
  Cl  Cl43  1  0.42519800  0.76429600  0.80739800  1
  Cl  Cl44  1  0.49405300  0.02786100  0.63576100  1
  Cl  Cl45  1  0.80739800  0.42519800  0.76429600  1
  Cl  Cl46  1  0.13576100  0.52786100  0.99405300  1
  Cl  Cl47  1  0.50594700  0.97213900  0.36423900  1
  Cl  Cl48  1  0.34149600  0.75440500  0.57462500  1
  Cl  Cl49  1  0.26429600  0.92519800  0.30739800  1
  Cl  Cl50  1  0.07480200  0.69260200  0.73570400  1
  Cl  Cl51  1  0.57480200  0.23570400  0.19260200  1
  Cl  Cl52  1  0.02786100  0.63576100  0.49405300  1
  Cl  Cl53  1  0.65850400  0.24559500  0.42537500  1
  Cl  Cl54  1  0.99405300  0.13576100  0.52786100  1
  Cl  Cl55  1  0.36423900  0.50594700  0.97213900  1
