# generated using pymatgen
data_K2CoSiO4
_symmetry_space_group_name_H-M   'P 1'
_cell_length_a   5.50223200
_cell_length_b   11.03760400
_cell_length_c   15.86507500
_cell_angle_alpha   90.00000000
_cell_angle_beta   90.00000000
_cell_angle_gamma   90.00000000
_symmetry_Int_Tables_number   1
_chemical_formula_structural   K2CoSiO4
_chemical_formula_sum   'K16 Co8 Si8 O32'
_cell_volume   963.50913495
_cell_formula_units_Z   8
loop_
 _symmetry_equiv_pos_site_id
 _symmetry_equiv_pos_as_xyz
  1  'x, y, z'
loop_
 _atom_site_type_symbol
 _atom_site_label
 _atom_site_symmetry_multiplicity
 _atom_site_fract_x
 _atom_site_fract_y
 _atom_site_fract_z
 _atom_site_occupancy
  K  K0  1  0.05741000  0.73432300  0.68639300  1
  K  K1  1  0.49661000  0.48647900  0.93816200  1
  K  K2  1  0.50339000  0.51352100  0.43816200  1
  K  K3  1  0.50339000  0.98647900  0.93816200  1
  K  K4  1  0.49661000  0.01352100  0.43816200  1
  K  K5  1  0.44853200  0.23822400  0.81754200  1
  K  K6  1  0.55146800  0.76177600  0.31754200  1
  K  K7  1  0.55146800  0.73822400  0.81754200  1
  K  K8  1  0.44853200  0.26177600  0.31754200  1
  K  K9  1  0.94259000  0.26567700  0.18639300  1
  K  K10  1  0.94259000  0.23432300  0.68639300  1
  K  K11  1  0.05741000  0.76567700  0.18639300  1
  K  K12  1  0.00659100  0.51256600  0.06141700  1
  K  K13  1  0.99340900  0.01256600  0.06141700  1
  K  K14  1  0.99340900  0.48743400  0.56141700  1
  K  K15  1  0.00659100  0.98743400  0.56141700  1
  Co  Co16  1  0.53809700  0.74068700  0.56422900  1
  Co  Co17  1  0.99198200  0.49008100  0.81112100  1
  Co  Co18  1  0.00801800  0.50991900  0.31112100  1
  Co  Co19  1  0.00801800  0.99008100  0.81112100  1
  Co  Co20  1  0.99198200  0.00991900  0.31112100  1
  Co  Co21  1  0.53809700  0.75931300  0.06422900  1
  Co  Co22  1  0.46190300  0.24068700  0.56422900  1
  Co  Co23  1  0.46190300  0.25931300  0.06422900  1
  Si  Si24  1  0.96729600  0.26481900  0.43515200  1
  Si  Si25  1  0.03270400  0.73518100  0.93515200  1
  Si  Si26  1  0.03270400  0.76481900  0.43515200  1
  Si  Si27  1  0.96729600  0.23518100  0.93515200  1
  Si  Si28  1  0.50909000  0.99189400  0.68896600  1
  Si  Si29  1  0.49091000  0.00810600  0.18896600  1
  Si  Si30  1  0.49091000  0.49189400  0.68896600  1
  Si  Si31  1  0.50909000  0.50810600  0.18896600  1
  O  O32  1  0.21747200  0.01182100  0.71083800  1
  O  O33  1  0.78252800  0.98817900  0.21083800  1
  O  O34  1  0.78252800  0.51182100  0.71083800  1
  O  O35  1  0.21747200  0.48817900  0.21083800  1
  O  O36  1  0.56887300  0.84938800  0.66235900  1
  O  O37  1  0.43112700  0.15061200  0.16235900  1
  O  O38  1  0.43112700  0.34938800  0.66235900  1
  O  O39  1  0.56887300  0.65061200  0.16235900  1
  O  O40  1  0.41815600  0.58167200  0.60910700  1
  O  O41  1  0.58184400  0.41832800  0.10910700  1
  O  O42  1  0.58184400  0.08167200  0.60910700  1
  O  O43  1  0.41815600  0.91832800  0.10910700  1
  O  O44  1  0.84488500  0.70229800  0.50424000  1
  O  O45  1  0.15511500  0.29770200  0.00424000  1
  O  O46  1  0.15511500  0.20229800  0.50424000  1
  O  O47  1  0.70256400  0.20463400  0.97966700  1
  O  O48  1  0.32995000  0.97482400  0.27430000  1
  O  O49  1  0.67005000  0.02517600  0.77430000  1
  O  O50  1  0.67005000  0.47482400  0.27430000  1
  O  O51  1  0.32995000  0.52517600  0.77430000  1
  O  O52  1  0.92600500  0.17554200  0.35268100  1
  O  O53  1  0.07399500  0.82445800  0.85268100  1
  O  O54  1  0.07399500  0.67554200  0.35268100  1
  O  O55  1  0.92600500  0.32445800  0.85268100  1
  O  O56  1  0.08844000  0.39446400  0.40302500  1
  O  O57  1  0.91156000  0.60553600  0.90302500  1
  O  O58  1  0.91156000  0.89446400  0.40302500  1
  O  O59  1  0.08844000  0.10553600  0.90302500  1
  O  O60  1  0.70256400  0.29536600  0.47966700  1
  O  O61  1  0.29743600  0.70463400  0.97966700  1
  O  O62  1  0.29743600  0.79536600  0.47966700  1
  O  O63  1  0.84488500  0.79770200  0.00424000  1
