# generated using pymatgen
data_P4PtF12
_symmetry_space_group_name_H-M   'P 1'
_cell_length_a   7.30533997
_cell_length_b   7.30533997
_cell_length_c   7.30533997
_cell_angle_alpha   109.47122063
_cell_angle_beta   109.47122063
_cell_angle_gamma   109.47122063
_symmetry_Int_Tables_number   1
_chemical_formula_structural   P4PtF12
_chemical_formula_sum   'P4 Pt1 F12'
_cell_volume   300.12308679
_cell_formula_units_Z   1
loop_
 _symmetry_equiv_pos_site_id
 _symmetry_equiv_pos_as_xyz
  1  'x, y, z'
loop_
 _atom_site_type_symbol
 _atom_site_label
 _atom_site_symmetry_multiplicity
 _atom_site_fract_x
 _atom_site_fract_y
 _atom_site_fract_z
 _atom_site_occupancy
  P  P0  1  0.69108700  0.69108700  0.69108700  1
  P  P1  1  0.00000000  0.30891300  0.00000000  1
  P  P2  1  0.30891300  0.00000000  0.00000000  1
  P  P3  1  0.00000000  0.00000000  0.30891300  1
  Pt  Pt4  1  0.00000000  0.00000000  0.00000000  1
  F  F5  1  0.79992800  0.79992800  0.28190900  1
  F  F6  1  0.51801800  0.71809100  0.51801800  1
  F  F7  1  0.00000000  0.48198200  0.20007200  1
  F  F8  1  0.20007200  0.00000000  0.48198200  1
  F  F9  1  0.48198200  0.00000000  0.20007200  1
  F  F10  1  0.51801800  0.51801800  0.71809100  1
  F  F11  1  0.79992800  0.28190900  0.79992800  1
  F  F12  1  0.48198200  0.20007200  0.00000000  1
  F  F13  1  0.20007200  0.48198200  0.00000000  1
  F  F14  1  0.00000000  0.20007200  0.48198200  1
  F  F15  1  0.71809100  0.51801800  0.51801800  1
  F  F16  1  0.28190900  0.79992800  0.79992800  1
