# generated using pymatgen
data_CsPr(MoO4)2
_symmetry_space_group_name_H-M   'P 1'
_cell_length_a   5.18621500
_cell_length_b   8.49194200
_cell_length_c   9.79531200
_cell_angle_alpha   90.00000000
_cell_angle_beta   90.00000000
_cell_angle_gamma   90.00000000
_symmetry_Int_Tables_number   1
_chemical_formula_structural   CsPr(MoO4)2
_chemical_formula_sum   'Cs2 Pr2 Mo4 O16'
_cell_volume   431.39569802
_cell_formula_units_Z   2
loop_
 _symmetry_equiv_pos_site_id
 _symmetry_equiv_pos_as_xyz
  1  'x, y, z'
loop_
 _atom_site_type_symbol
 _atom_site_label
 _atom_site_symmetry_multiplicity
 _atom_site_fract_x
 _atom_site_fract_y
 _atom_site_fract_z
 _atom_site_occupancy
  Cs  Cs0  1  0.00000000  0.75000000  0.50000000  1
  Cs  Cs1  1  0.00000000  0.25000000  0.50000000  1
  Pr  Pr2  1  0.00000000  0.25000000  0.00000000  1
  Pr  Pr3  1  0.00000000  0.75000000  0.00000000  1
  Mo  Mo4  1  0.51926000  0.00000000  0.19993900  1
  Mo  Mo5  1  0.51926000  0.50000000  0.80006100  1
  Mo  Mo6  1  0.48074000  0.00000000  0.80006100  1
  Mo  Mo7  1  0.48074000  0.50000000  0.19993900  1
  O  O8  1  0.25416000  0.50000000  0.92829900  1
  O  O9  1  0.26804500  0.83163300  0.81007900  1
  O  O10  1  0.73195500  0.66836700  0.81007900  1
  O  O11  1  0.73195500  0.83163300  0.18992100  1
  O  O12  1  0.37829500  0.50000000  0.63753000  1
  O  O13  1  0.62170500  0.50000000  0.36247000  1
  O  O14  1  0.62170500  0.00000000  0.63753000  1
  O  O15  1  0.73195500  0.16836700  0.18992100  1
  O  O16  1  0.37829500  0.00000000  0.36247000  1
  O  O17  1  0.26804500  0.16836700  0.81007900  1
  O  O18  1  0.26804500  0.33163300  0.18992100  1
  O  O19  1  0.73195500  0.33163300  0.81007900  1
  O  O20  1  0.74584000  0.50000000  0.07170100  1
  O  O21  1  0.26804500  0.66836700  0.18992100  1
  O  O22  1  0.25416000  0.00000000  0.07170100  1
  O  O23  1  0.74584000  0.00000000  0.92829900  1
