# generated using pymatgen
data_Na2Sr(PO3)4
_symmetry_space_group_name_H-M   'P 1'
_cell_length_a   9.97358800
_cell_length_b   9.97358800
_cell_length_c   5.05621200
_cell_angle_alpha   90.00000000
_cell_angle_beta   90.00000000
_cell_angle_gamma   90.00000000
_symmetry_Int_Tables_number   1
_chemical_formula_structural   Na2Sr(PO3)4
_chemical_formula_sum   'Na4 Sr2 P8 O24'
_cell_volume   502.95383375
_cell_formula_units_Z   2
loop_
 _symmetry_equiv_pos_site_id
 _symmetry_equiv_pos_as_xyz
  1  'x, y, z'
loop_
 _atom_site_type_symbol
 _atom_site_label
 _atom_site_symmetry_multiplicity
 _atom_site_fract_x
 _atom_site_fract_y
 _atom_site_fract_z
 _atom_site_occupancy
  Na  Na0  1  0.75000000  0.75000000  0.50000000  1
  Na  Na1  1  0.75000000  0.25000000  0.50000000  1
  Na  Na2  1  0.25000000  0.75000000  0.50000000  1
  Na  Na3  1  0.25000000  0.25000000  0.50000000  1
  Sr  Sr4  1  0.00000000  0.00000000  0.50000000  1
  Sr  Sr5  1  0.50000000  0.50000000  0.50000000  1
  P  P6  1  0.00000000  0.28788800  0.00000000  1
  P  P7  1  0.28788800  0.00000000  0.00000000  1
  P  P8  1  0.71211200  0.00000000  0.00000000  1
  P  P9  1  0.00000000  0.71211200  0.00000000  1
  P  P10  1  0.50000000  0.21211200  0.00000000  1
  P  P11  1  0.21211200  0.50000000  0.00000000  1
  P  P12  1  0.78788800  0.50000000  0.00000000  1
  P  P13  1  0.50000000  0.78788800  0.00000000  1
  O  O14  1  0.10988400  0.39011600  0.13042300  1
  O  O15  1  0.39011600  0.89011600  0.13042300  1
  O  O16  1  0.60988400  0.10988400  0.13042300  1
  O  O17  1  0.89011600  0.60988400  0.13042300  1
  O  O18  1  0.89011600  0.39011600  0.86957700  1
  O  O19  1  0.10988400  0.60988400  0.86957700  1
  O  O20  1  0.39011600  0.10988400  0.86957700  1
  O  O21  1  0.60988400  0.89011600  0.86957700  1
  O  O22  1  0.78627600  0.93941800  0.22817900  1
  O  O23  1  0.93941800  0.21372400  0.22817900  1
  O  O24  1  0.06058200  0.78627600  0.22817900  1
  O  O25  1  0.21372400  0.06058200  0.22817900  1
  O  O26  1  0.21372400  0.93941800  0.77182100  1
  O  O27  1  0.78627600  0.06058200  0.77182100  1
  O  O28  1  0.93941800  0.78627600  0.77182100  1
  O  O29  1  0.06058200  0.21372400  0.77182100  1
  O  O30  1  0.71372400  0.56058200  0.77182100  1
  O  O31  1  0.56058200  0.28627600  0.77182100  1
  O  O32  1  0.43941800  0.71372400  0.77182100  1
  O  O33  1  0.28627600  0.43941800  0.77182100  1
  O  O34  1  0.28627600  0.56058200  0.22817900  1
  O  O35  1  0.71372400  0.43941800  0.22817900  1
  O  O36  1  0.56058200  0.71372400  0.22817900  1
  O  O37  1  0.43941800  0.28627600  0.22817900  1
