# generated using pymatgen
data_CsUCrO6
_symmetry_space_group_name_H-M   'P 1'
_cell_length_a   8.44207900
_cell_length_b   7.59126200
_cell_length_c   10.63929756
_cell_angle_alpha   74.46079037
_cell_angle_beta   90.00000000
_cell_angle_gamma   90.00000000
_symmetry_Int_Tables_number   1
_chemical_formula_structural   CsUCrO6
_chemical_formula_sum   'Cs4 U4 Cr4 O24'
_cell_volume   656.90767019
_cell_formula_units_Z   4
loop_
 _symmetry_equiv_pos_site_id
 _symmetry_equiv_pos_as_xyz
  1  'x, y, z'
loop_
 _atom_site_type_symbol
 _atom_site_label
 _atom_site_symmetry_multiplicity
 _atom_site_fract_x
 _atom_site_fract_y
 _atom_site_fract_z
 _atom_site_occupancy
  Cs  Cs0  1  0.26161900  0.03773800  0.13292600  1
  Cs  Cs1  1  0.23838100  0.03773800  0.63292600  1
  Cs  Cs2  1  0.73838100  0.96226200  0.86707400  1
  Cs  Cs3  1  0.76161900  0.96226200  0.36707400  1
  U  U4  1  0.48242400  0.48935500  0.32284100  1
  U  U5  1  0.51757600  0.51064500  0.67715900  1
  U  U6  1  0.98242400  0.51064500  0.17715900  1
  U  U7  1  0.01757600  0.48935500  0.82284100  1
  Cr  Cr8  1  0.35664900  0.60319600  0.94333100  1
  Cr  Cr9  1  0.85664900  0.39680400  0.55666900  1
  Cr  Cr10  1  0.64335100  0.39680400  0.05666900  1
  Cr  Cr11  1  0.14335100  0.60319600  0.44333100  1
  O  O12  1  0.94558000  0.75882100  0.12240300  1
  O  O13  1  0.44042500  0.46717200  0.10536000  1
  O  O14  1  0.28880200  0.56482800  0.78781000  1
  O  O15  1  0.84314000  0.47421900  0.99338000  1
  O  O16  1  0.48037900  0.26340000  0.73705300  1
  O  O17  1  0.05957500  0.46717200  0.60536000  1
  O  O18  1  0.71119800  0.43517200  0.21219000  1
  O  O19  1  0.78880200  0.43517200  0.71219000  1
  O  O20  1  0.55442000  0.75882100  0.62240300  1
  O  O21  1  0.63303300  0.17948800  0.07193300  1
  O  O22  1  0.15686000  0.52578100  0.00662000  1
  O  O23  1  0.13303300  0.82051200  0.42806700  1
  O  O24  1  0.21119800  0.56482800  0.28781000  1
  O  O25  1  0.05442000  0.24117900  0.87759700  1
  O  O26  1  0.36696700  0.82051200  0.92806700  1
  O  O27  1  0.65686000  0.47421900  0.49338000  1
  O  O28  1  0.34314000  0.52578100  0.50662000  1
  O  O29  1  0.44558000  0.24117900  0.37759700  1
  O  O30  1  0.94042500  0.53282800  0.39464000  1
  O  O31  1  0.55957500  0.53282800  0.89464000  1
  O  O32  1  0.98037900  0.73660000  0.76294700  1
  O  O33  1  0.86696700  0.17948800  0.57193300  1
  O  O34  1  0.01962100  0.26340000  0.23705300  1
  O  O35  1  0.51962100  0.73660000  0.26294700  1
