# generated using pymatgen
data_Cd(AuF6)2
_symmetry_space_group_name_H-M   'P 1'
_cell_length_a   7.28140496
_cell_length_b   7.28140496
_cell_length_c   10.36865254
_cell_angle_alpha   68.39504525
_cell_angle_beta   68.39504525
_cell_angle_gamma   76.54377835
_symmetry_Int_Tables_number   1
_chemical_formula_structural   Cd(AuF6)2
_chemical_formula_sum   'Cd2 Au4 F24'
_cell_volume   472.19473921
_cell_formula_units_Z   2
loop_
 _symmetry_equiv_pos_site_id
 _symmetry_equiv_pos_as_xyz
  1  'x, y, z'
loop_
 _atom_site_type_symbol
 _atom_site_label
 _atom_site_symmetry_multiplicity
 _atom_site_fract_x
 _atom_site_fract_y
 _atom_site_fract_z
 _atom_site_occupancy
  Cd  Cd0  1  0.17423500  0.82576500  0.75000000  1
  Cd  Cd1  1  0.82576500  0.17423500  0.25000000  1
  Au  Au2  1  0.24774800  0.25255600  0.37150900  1
  Au  Au3  1  0.25255600  0.24774800  0.87150900  1
  Au  Au4  1  0.75225200  0.74744400  0.62849100  1
  Au  Au5  1  0.74744400  0.75225200  0.12849100  1
  F  F6  1  0.86128700  0.86946800  0.22402000  1
  F  F7  1  0.13871300  0.13053200  0.77598000  1
  F  F8  1  0.29552100  0.98094900  0.50517200  1
  F  F9  1  0.98677900  0.28252400  0.50752700  1
  F  F10  1  0.28252400  0.98677900  0.00752700  1
  F  F11  1  0.36721800  0.35814700  0.46300100  1
  F  F12  1  0.35814700  0.36721800  0.96300100  1
  F  F13  1  0.86946800  0.86128700  0.72402000  1
  F  F14  1  0.78246700  0.48377200  0.26875000  1
  F  F15  1  0.01905100  0.70447900  0.99482800  1
  F  F16  1  0.70447900  0.01905100  0.49482800  1
  F  F17  1  0.98094900  0.29552100  0.00517200  1
  F  F18  1  0.51355800  0.20372600  0.74057800  1
  F  F19  1  0.63278200  0.64185300  0.53699900  1
  F  F20  1  0.21753300  0.51622800  0.73125000  1
  F  F21  1  0.64185300  0.63278200  0.03699900  1
  F  F22  1  0.48377200  0.78246700  0.76875000  1
  F  F23  1  0.79627400  0.48644200  0.75942200  1
  F  F24  1  0.51622800  0.21753300  0.23125000  1
  F  F25  1  0.48644200  0.79627400  0.25942200  1
  F  F26  1  0.20372600  0.51355800  0.24057800  1
  F  F27  1  0.71747600  0.01322100  0.99247300  1
  F  F28  1  0.13053200  0.13871300  0.27598000  1
  F  F29  1  0.01322100  0.71747600  0.49247300  1
