# generated using pymatgen
data_K3Sm(AsS4)2
_symmetry_space_group_name_H-M   'P 1'
_cell_length_a   10.97742003
_cell_length_b   10.97742003
_cell_length_c   9.06354011
_cell_angle_alpha   77.10080390
_cell_angle_beta   77.10080390
_cell_angle_gamma   122.38441136
_symmetry_Int_Tables_number   1
_chemical_formula_structural   K3Sm(AsS4)2
_chemical_formula_sum   'K6 Sm2 As4 S16'
_cell_volume   817.38213721
_cell_formula_units_Z   2
loop_
 _symmetry_equiv_pos_site_id
 _symmetry_equiv_pos_as_xyz
  1  'x, y, z'
loop_
 _atom_site_type_symbol
 _atom_site_label
 _atom_site_symmetry_multiplicity
 _atom_site_fract_x
 _atom_site_fract_y
 _atom_site_fract_z
 _atom_site_occupancy
  K  K0  1  0.00467500  0.99532500  0.75000000  1
  K  K1  1  0.73931000  0.26069000  0.25000000  1
  K  K2  1  0.50000000  0.50000000  0.00000000  1
  K  K3  1  0.26069000  0.73931000  0.75000000  1
  K  K4  1  0.99532500  0.00467500  0.25000000  1
  K  K5  1  0.50000000  0.50000000  0.50000000  1
  Sm  Sm6  1  0.24284100  0.75715900  0.25000000  1
  Sm  Sm7  1  0.75715900  0.24284100  0.75000000  1
  As  As8  1  0.65716600  0.90581500  0.10281100  1
  As  As9  1  0.90581500  0.65716600  0.60281100  1
  As  As10  1  0.09418500  0.34283400  0.39718900  1
  As  As11  1  0.34283400  0.09418500  0.89718900  1
  S  S12  1  0.23949800  0.26643100  0.37201800  1
  S  S13  1  0.13292700  0.84279300  0.02083100  1
  S  S14  1  0.14058100  0.49668100  0.15556700  1
  S  S15  1  0.26643100  0.23949800  0.87201800  1
  S  S16  1  0.84279300  0.13292700  0.52083100  1
  S  S17  1  0.49668100  0.14058100  0.65556700  1
  S  S18  1  0.12543400  0.47098600  0.55801900  1
  S  S19  1  0.47098600  0.12543400  0.05801900  1
  S  S20  1  0.85941900  0.50331900  0.84443300  1
  S  S21  1  0.87456600  0.52901400  0.44198100  1
  S  S22  1  0.52901400  0.87456600  0.94198100  1
  S  S23  1  0.50331900  0.85941900  0.34443300  1
  S  S24  1  0.76050200  0.73356900  0.62798200  1
  S  S25  1  0.73356900  0.76050200  0.12798200  1
  S  S26  1  0.15720700  0.86707300  0.47916900  1
  S  S27  1  0.86707300  0.15720700  0.97916900  1
