# generated using pymatgen
data_Cs2SO4
_symmetry_space_group_name_H-M   'P 1'
_cell_length_a   6.35420000
_cell_length_b   8.42495500
_cell_length_c   11.13418600
_cell_angle_alpha   90.00000000
_cell_angle_beta   90.00000000
_cell_angle_gamma   90.00000000
_symmetry_Int_Tables_number   1
_chemical_formula_structural   Cs2SO4
_chemical_formula_sum   'Cs8 S4 O16'
_cell_volume   596.05583274
_cell_formula_units_Z   4
loop_
 _symmetry_equiv_pos_site_id
 _symmetry_equiv_pos_as_xyz
  1  'x, y, z'
loop_
 _atom_site_type_symbol
 _atom_site_label
 _atom_site_symmetry_multiplicity
 _atom_site_fract_x
 _atom_site_fract_y
 _atom_site_fract_z
 _atom_site_occupancy
  Cs  Cs0  1  0.75000000  0.82262400  0.08877300  1
  Cs  Cs1  1  0.25000000  0.17737600  0.91122700  1
  Cs  Cs2  1  0.75000000  0.32262400  0.41122700  1
  Cs  Cs3  1  0.25000000  0.67737600  0.58877300  1
  Cs  Cs4  1  0.25000000  0.49168800  0.19704600  1
  Cs  Cs5  1  0.75000000  0.50831200  0.80295400  1
  Cs  Cs6  1  0.25000000  0.99168800  0.30295400  1
  Cs  Cs7  1  0.75000000  0.00831200  0.69704600  1
  S  S8  1  0.75000000  0.25443100  0.08349800  1
  S  S9  1  0.25000000  0.74556900  0.91650200  1
  S  S10  1  0.75000000  0.75443100  0.41650200  1
  S  S11  1  0.25000000  0.24556900  0.58349800  1
  O  O12  1  0.75000000  0.43196800  0.08492300  1
  O  O13  1  0.25000000  0.56803200  0.91507700  1
  O  O14  1  0.75000000  0.93196800  0.41507700  1
  O  O15  1  0.25000000  0.06803200  0.58492300  1
  O  O16  1  0.75000000  0.19500200  0.95637000  1
  O  O17  1  0.25000000  0.80499800  0.04363000  1
  O  O18  1  0.75000000  0.69500200  0.54363000  1
  O  O19  1  0.25000000  0.30499800  0.45637000  1
  O  O20  1  0.55714300  0.19445100  0.14657300  1
  O  O21  1  0.05714300  0.80554900  0.85342700  1
  O  O22  1  0.94285700  0.69445100  0.35342700  1
  O  O23  1  0.44285700  0.30554900  0.64657300  1
  O  O24  1  0.44285700  0.80554900  0.85342700  1
  O  O25  1  0.94285700  0.19445100  0.14657300  1
  O  O26  1  0.05714300  0.30554900  0.64657300  1
  O  O27  1  0.55714300  0.69445100  0.35342700  1
