# generated using pymatgen
data_LuRu2
_symmetry_space_group_name_H-M   'P 1'
_cell_length_a   5.23259731
_cell_length_b   5.23259731
_cell_length_c   8.81308500
_cell_angle_alpha   90.00000000
_cell_angle_beta   90.00000000
_cell_angle_gamma   119.99999129
_symmetry_Int_Tables_number   1
_chemical_formula_structural   LuRu2
_chemical_formula_sum   'Lu4 Ru8'
_cell_volume   208.97448133
_cell_formula_units_Z   4
loop_
 _symmetry_equiv_pos_site_id
 _symmetry_equiv_pos_as_xyz
  1  'x, y, z'
loop_
 _atom_site_type_symbol
 _atom_site_label
 _atom_site_symmetry_multiplicity
 _atom_site_fract_x
 _atom_site_fract_y
 _atom_site_fract_z
 _atom_site_occupancy
  Lu  Lu0  1  0.33333300  0.66666700  0.43322100  1
  Lu  Lu1  1  0.66666700  0.33333300  0.56677900  1
  Lu  Lu2  1  0.66666700  0.33333300  0.93322100  1
  Lu  Lu3  1  0.33333300  0.66666700  0.06677900  1
  Ru  Ru4  1  0.17160000  0.34320100  0.75000000  1
  Ru  Ru5  1  0.17160000  0.82840000  0.75000000  1
  Ru  Ru6  1  0.34320100  0.17160000  0.25000000  1
  Ru  Ru7  1  0.82840000  0.65679900  0.25000000  1
  Ru  Ru8  1  0.65679900  0.82840000  0.75000000  1
  Ru  Ru9  1  0.00000000  0.00000000  0.00000000  1
  Ru  Ru10  1  0.82840000  0.17160000  0.25000000  1
  Ru  Ru11  1  0.00000000  0.00000000  0.50000000  1
