# generated using pymatgen
data_Si2Pd9
_symmetry_space_group_name_H-M   'P 1'
_cell_length_a   7.53468400
_cell_length_b   9.17728400
_cell_length_c   9.55579400
_cell_angle_alpha   90.00000000
_cell_angle_beta   90.00000000
_cell_angle_gamma   90.00000000
_symmetry_Int_Tables_number   1
_chemical_formula_structural   Si2Pd9
_chemical_formula_sum   'Si8 Pd36'
_cell_volume   660.76342160
_cell_formula_units_Z   4
loop_
 _symmetry_equiv_pos_site_id
 _symmetry_equiv_pos_as_xyz
  1  'x, y, z'
loop_
 _atom_site_type_symbol
 _atom_site_label
 _atom_site_symmetry_multiplicity
 _atom_site_fract_x
 _atom_site_fract_y
 _atom_site_fract_z
 _atom_site_occupancy
  Si  Si0  1  0.75000000  0.63212700  0.21168700  1
  Si  Si1  1  0.25000000  0.36787300  0.78831300  1
  Si  Si2  1  0.75000000  0.13212700  0.28831300  1
  Si  Si3  1  0.25000000  0.86787300  0.71168700  1
  Si  Si4  1  0.75000000  0.77264100  0.82194400  1
  Si  Si5  1  0.25000000  0.22735900  0.17805600  1
  Si  Si6  1  0.75000000  0.27264100  0.67805600  1
  Si  Si7  1  0.25000000  0.72735900  0.32194400  1
  Pd  Pd8  1  0.93396900  0.89801000  0.31893400  1
  Pd  Pd9  1  0.43396900  0.10199000  0.68106600  1
  Pd  Pd10  1  0.56603100  0.39801000  0.18106600  1
  Pd  Pd11  1  0.06603100  0.60199000  0.81893400  1
  Pd  Pd12  1  0.06603100  0.10199000  0.68106600  1
  Pd  Pd13  1  0.56603100  0.89801000  0.31893400  1
  Pd  Pd14  1  0.43396900  0.60199000  0.81893400  1
  Pd  Pd15  1  0.93396900  0.39801000  0.18106600  1
  Pd  Pd16  1  0.94242600  0.61211600  0.40637100  1
  Pd  Pd17  1  0.44242600  0.38788400  0.59362900  1
  Pd  Pd18  1  0.55757400  0.11211600  0.09362900  1
  Pd  Pd19  1  0.05757400  0.88788400  0.90637100  1
  Pd  Pd20  1  0.05757400  0.38788400  0.59362900  1
  Pd  Pd21  1  0.55757400  0.61211600  0.40637100  1
  Pd  Pd22  1  0.44242600  0.88788400  0.90637100  1
  Pd  Pd23  1  0.94242600  0.11211600  0.09362900  1
  Pd  Pd24  1  0.94102800  0.81780700  0.62261700  1
  Pd  Pd25  1  0.44102800  0.18219300  0.37738300  1
  Pd  Pd26  1  0.55897200  0.31780700  0.87738300  1
  Pd  Pd27  1  0.05897200  0.68219300  0.12261700  1
  Pd  Pd28  1  0.05897200  0.18219300  0.37738300  1
  Pd  Pd29  1  0.55897200  0.81780700  0.62261700  1
  Pd  Pd30  1  0.44102800  0.68219300  0.12261700  1
  Pd  Pd31  1  0.94102800  0.31780700  0.87738300  1
  Pd  Pd32  1  0.75000000  0.85111700  0.06732300  1
  Pd  Pd33  1  0.25000000  0.14888300  0.93267700  1
  Pd  Pd34  1  0.75000000  0.35111700  0.43267700  1
  Pd  Pd35  1  0.25000000  0.64888300  0.56732300  1
  Pd  Pd36  1  0.75000000  0.55020500  0.66512800  1
  Pd  Pd37  1  0.25000000  0.44979500  0.33487200  1
  Pd  Pd38  1  0.75000000  0.05020500  0.83487200  1
  Pd  Pd39  1  0.25000000  0.94979500  0.16512800  1
  Pd  Pd40  1  0.75000000  0.55935000  0.97037700  1
  Pd  Pd41  1  0.25000000  0.44065000  0.02962300  1
  Pd  Pd42  1  0.75000000  0.05935000  0.52962300  1
  Pd  Pd43  1  0.25000000  0.94065000  0.47037700  1
