# generated using pymatgen
data_RbAu(SeO4)2
_symmetry_space_group_name_H-M   'P 1'
_cell_length_a   6.26364265
_cell_length_b   6.26364265
_cell_length_c   7.74295498
_cell_angle_alpha   64.86889947
_cell_angle_beta   64.86889947
_cell_angle_gamma   50.75483333
_symmetry_Int_Tables_number   1
_chemical_formula_structural   RbAu(SeO4)2
_chemical_formula_sum   'Rb1 Au1 Se2 O8'
_cell_volume   207.65180089
_cell_formula_units_Z   1
loop_
 _symmetry_equiv_pos_site_id
 _symmetry_equiv_pos_as_xyz
  1  'x, y, z'
loop_
 _atom_site_type_symbol
 _atom_site_label
 _atom_site_symmetry_multiplicity
 _atom_site_fract_x
 _atom_site_fract_y
 _atom_site_fract_z
 _atom_site_occupancy
  Rb  Rb0  1  0.50000000  0.50000000  0.50000000  1
  Au  Au1  1  0.00000000  0.00000000  0.00000000  1
  Se  Se2  1  0.30352800  0.30352800  0.15424900  1
  Se  Se3  1  0.69647200  0.69647200  0.84575100  1
  O  O4  1  0.85031300  0.85031300  0.66717200  1
  O  O5  1  0.67105800  0.67105800  0.07186500  1
  O  O6  1  0.14968700  0.14968700  0.33282800  1
  O  O7  1  0.32894200  0.32894200  0.92813500  1
  O  O8  1  0.63171100  0.13234600  0.20536300  1
  O  O9  1  0.36828900  0.86765400  0.79463700  1
  O  O10  1  0.13234600  0.63171100  0.20536300  1
  O  O11  1  0.86765400  0.36828900  0.79463700  1
