# generated using pymatgen
data_CoP4O11
_symmetry_space_group_name_H-M   'P 1'
_cell_length_a   22.56233200
_cell_length_b   5.43092100
_cell_length_c   7.52265699
_cell_angle_alpha   69.93986567
_cell_angle_beta   90.00000000
_cell_angle_gamma   90.00000000
_symmetry_Int_Tables_number   1
_chemical_formula_structural   CoP4O11
_chemical_formula_sum   'Co4 P16 O44'
_cell_volume   865.86139081
_cell_formula_units_Z   4
loop_
 _symmetry_equiv_pos_site_id
 _symmetry_equiv_pos_as_xyz
  1  'x, y, z'
loop_
 _atom_site_type_symbol
 _atom_site_label
 _atom_site_symmetry_multiplicity
 _atom_site_fract_x
 _atom_site_fract_y
 _atom_site_fract_z
 _atom_site_occupancy
  Co  Co0  1  0.38589400  0.99609600  0.37027000  1
  Co  Co1  1  0.88589400  0.00390400  0.12973000  1
  Co  Co2  1  0.61410600  0.00390400  0.62973000  1
  Co  Co3  1  0.11410600  0.99609600  0.87027000  1
  P  P4  1  0.46456500  0.59423300  0.20824900  1
  P  P5  1  0.96456500  0.40576700  0.29175100  1
  P  P6  1  0.53543500  0.40576700  0.79175100  1
  P  P7  1  0.03543500  0.59423300  0.70824900  1
  P  P8  1  0.57206900  0.30859100  0.18641500  1
  P  P9  1  0.07206900  0.69140900  0.31358500  1
  P  P10  1  0.42793100  0.69140900  0.81358500  1
  P  P11  1  0.92793100  0.30859100  0.68641500  1
  P  P12  1  0.67821100  0.67676300  0.05459700  1
  P  P13  1  0.17821100  0.32323700  0.44540300  1
  P  P14  1  0.32178900  0.32323700  0.94540300  1
  P  P15  1  0.82178900  0.67676300  0.55459700  1
  P  P16  1  0.80444300  0.60133100  0.96933200  1
  P  P17  1  0.30444300  0.39866900  0.53066800  1
  P  P18  1  0.19555700  0.39866900  0.03066800  1
  P  P19  1  0.69555700  0.60133100  0.46933200  1
  O  O20  1  0.45482000  0.77817300  0.31194600  1
  O  O21  1  0.95482000  0.22182700  0.18805400  1
  O  O22  1  0.54518000  0.22182700  0.68805400  1
  O  O23  1  0.04518000  0.77817300  0.81194600  1
  O  O24  1  0.43501200  0.33576800  0.25116300  1
  O  O25  1  0.93501200  0.66423200  0.24883700  1
  O  O26  1  0.56498800  0.66423200  0.74883700  1
  O  O27  1  0.06498800  0.33576800  0.75116300  1
  O  O28  1  0.54554400  0.23495800  0.01792300  1
  O  O29  1  0.04554400  0.76504200  0.48207700  1
  O  O30  1  0.45445600  0.76504200  0.98207700  1
  O  O31  1  0.95445600  0.23495800  0.51792300  1
  O  O32  1  0.53687500  0.55330800  0.20134400  1
  O  O33  1  0.03687500  0.44669200  0.29865600  1
  O  O34  1  0.46312500  0.44669200  0.79865600  1
  O  O35  1  0.96312500  0.55330800  0.70134400  1
  O  O36  1  0.57624200  0.07532200  0.35814000  1
  O  O37  1  0.07624200  0.92467800  0.14186000  1
  O  O38  1  0.42375800  0.92467800  0.64186000  1
  O  O39  1  0.92375800  0.07532200  0.85814000  1
  O  O40  1  0.63561100  0.42879000  0.11567100  1
  O  O41  1  0.13561100  0.57121000  0.38432900  1
  O  O42  1  0.36438900  0.57121000  0.88432900  1
  O  O43  1  0.86438900  0.42879000  0.61567100  1
  O  O44  1  0.65518500  0.91163900  0.90565600  1
  O  O45  1  0.15518500  0.08836100  0.59434400  1
  O  O46  1  0.34481500  0.08836100  0.09434400  1
  O  O47  1  0.84481500  0.91163900  0.40565600  1
  O  O48  1  0.73338300  0.53831400  0.99990300  1
  O  O49  1  0.23338300  0.46168600  0.50009700  1
  O  O50  1  0.26661700  0.46168600  0.00009700  1
  O  O51  1  0.76661700  0.53831400  0.49990300  1
  O  O52  1  0.69344500  0.74107700  0.23785900  1
  O  O53  1  0.19344500  0.25892300  0.26214100  1
  O  O54  1  0.30655500  0.25892300  0.76214100  1
  O  O55  1  0.80655500  0.74107700  0.73785900  1
  O  O56  1  0.81776500  0.80759000  0.05150800  1
  O  O57  1  0.31776500  0.19241000  0.44849200  1
  O  O58  1  0.18223500  0.19241000  0.94849200  1
  O  O59  1  0.68223500  0.80759000  0.55150800  1
  O  O60  1  0.83552200  0.34620900  0.02039400  1
  O  O61  1  0.33552200  0.65379100  0.47960600  1
  O  O62  1  0.16447800  0.65379100  0.97960600  1
  O  O63  1  0.66447800  0.34620900  0.52039400  1
