# generated using pymatgen
data_Cr(PO3)3
_symmetry_space_group_name_H-M   'P 1'
_cell_length_a   15.48992000
_cell_length_b   6.32518100
_cell_length_c   8.44846638
_cell_angle_alpha   74.03001673
_cell_angle_beta   90.00000000
_cell_angle_gamma   90.00000000
_symmetry_Int_Tables_number   1
_chemical_formula_structural   Cr(PO3)3
_chemical_formula_sum   'Cr4 P12 O36'
_cell_volume   795.80529870
_cell_formula_units_Z   4
loop_
 _symmetry_equiv_pos_site_id
 _symmetry_equiv_pos_as_xyz
  1  'x, y, z'
loop_
 _atom_site_type_symbol
 _atom_site_label
 _atom_site_symmetry_multiplicity
 _atom_site_fract_x
 _atom_site_fract_y
 _atom_site_fract_z
 _atom_site_occupancy
  Cr  Cr0  1  0.63681400  0.11848200  0.12464100  1
  Cr  Cr1  1  0.86318600  0.11848200  0.62464100  1
  Cr  Cr2  1  0.13681400  0.88151800  0.37535900  1
  Cr  Cr3  1  0.36318600  0.88151800  0.87535900  1
  P  P4  1  0.95587500  0.15077100  0.27817500  1
  P  P5  1  0.38742100  0.41241900  0.79066100  1
  P  P6  1  0.61257900  0.58758100  0.20933900  1
  P  P7  1  0.16085700  0.79225200  0.01584800  1
  P  P8  1  0.66085700  0.20774800  0.48415200  1
  P  P9  1  0.11257900  0.41241900  0.29066100  1
  P  P10  1  0.33914300  0.79225200  0.51584800  1
  P  P11  1  0.88742100  0.58758100  0.70933900  1
  P  P12  1  0.45587500  0.84922900  0.22182500  1
  P  P13  1  0.54412500  0.15077100  0.77817500  1
  P  P14  1  0.04412500  0.84922900  0.72182500  1
  P  P15  1  0.83914300  0.20774800  0.98415200  1
  O  O16  1  0.38781600  0.56424600  0.89915300  1
  O  O17  1  0.07472100  0.83633100  0.90499400  1
  O  O18  1  0.92527900  0.16366900  0.09500600  1
  O  O19  1  0.37903700  0.82609000  0.11966300  1
  O  O20  1  0.65168900  0.46542500  0.38770500  1
  O  O21  1  0.57472100  0.16366900  0.59500600  1
  O  O22  1  0.84045200  0.80120100  0.64579100  1
  O  O23  1  0.34045200  0.19879900  0.85420900  1
  O  O24  1  0.84831100  0.46542500  0.88770500  1
  O  O25  1  0.34680100  0.93246000  0.63246700  1
  O  O26  1  0.01088700  0.94795000  0.33708300  1
  O  O27  1  0.87903700  0.17391000  0.38033700  1
  O  O28  1  0.26266200  0.81572000  0.40533400  1
  O  O29  1  0.01408800  0.37009400  0.24481700  1
  O  O30  1  0.98911300  0.05205000  0.66291700  1
  O  O31  1  0.65954800  0.80120100  0.14579100  1
  O  O32  1  0.61218400  0.43575400  0.10084700  1
  O  O33  1  0.15954800  0.19879900  0.35420900  1
  O  O34  1  0.51408800  0.62990600  0.25518300  1
  O  O35  1  0.84680100  0.06754000  0.86753300  1
  O  O36  1  0.76266200  0.18428000  0.09466600  1
  O  O37  1  0.73733800  0.18428000  0.59466600  1
  O  O38  1  0.11218400  0.56424600  0.39915300  1
  O  O39  1  0.48911300  0.94795000  0.83708300  1
  O  O40  1  0.51088700  0.05205000  0.16291700  1
  O  O41  1  0.23733800  0.81572000  0.90533400  1
  O  O42  1  0.15168900  0.53457500  0.11229500  1
  O  O43  1  0.12096300  0.82609000  0.61966300  1
  O  O44  1  0.42527900  0.83633100  0.40499400  1
  O  O45  1  0.98591200  0.62990600  0.75518300  1
  O  O46  1  0.34831100  0.53457500  0.61229500  1
  O  O47  1  0.15319900  0.93246000  0.13246700  1
  O  O48  1  0.62096300  0.17391000  0.88033700  1
  O  O49  1  0.48591200  0.37009400  0.74481700  1
  O  O50  1  0.88781600  0.43575400  0.60084700  1
  O  O51  1  0.65319900  0.06754000  0.36753300  1
