# generated using pymatgen
data_Tl(CuSe)2
_symmetry_space_group_name_H-M   'P 1'
_cell_length_a   7.70840608
_cell_length_b   7.70840608
_cell_length_c   7.70840608
_cell_angle_alpha   150.93061732
_cell_angle_beta   150.93061732
_cell_angle_gamma   41.57705023
_symmetry_Int_Tables_number   1
_chemical_formula_structural   Tl(CuSe)2
_chemical_formula_sum   'Tl1 Cu2 Se2'
_cell_volume   107.88168175
_cell_formula_units_Z   1
loop_
 _symmetry_equiv_pos_site_id
 _symmetry_equiv_pos_as_xyz
  1  'x, y, z'
loop_
 _atom_site_type_symbol
 _atom_site_label
 _atom_site_symmetry_multiplicity
 _atom_site_fract_x
 _atom_site_fract_y
 _atom_site_fract_z
 _atom_site_occupancy
  Tl  Tl0  1  0.00000000  0.00000000  0.00000000  1
  Cu  Cu1  1  0.75000000  0.25000000  0.50000000  1
  Cu  Cu2  1  0.25000000  0.75000000  0.50000000  1
  Se  Se3  1  0.64300100  0.64300100  0.00000000  1
  Se  Se4  1  0.35699900  0.35699900  0.00000000  1
