# generated using pymatgen
data_Rb2HfS4
_symmetry_space_group_name_H-M   'P 1'
_cell_length_a   6.78008400
_cell_length_b   9.88729700
_cell_length_c   24.32735400
_cell_angle_alpha   90.00000000
_cell_angle_beta   90.00000000
_cell_angle_gamma   90.00000000
_symmetry_Int_Tables_number   1
_chemical_formula_structural   Rb2HfS4
_chemical_formula_sum   'Rb16 Hf8 S32'
_cell_volume   1630.82563390
_cell_formula_units_Z   8
loop_
 _symmetry_equiv_pos_site_id
 _symmetry_equiv_pos_as_xyz
  1  'x, y, z'
loop_
 _atom_site_type_symbol
 _atom_site_label
 _atom_site_symmetry_multiplicity
 _atom_site_fract_x
 _atom_site_fract_y
 _atom_site_fract_z
 _atom_site_occupancy
  Rb  Rb0  1  0.30716700  0.85827400  0.46637000  1
  Rb  Rb1  1  0.54580000  0.92778100  0.30085300  1
  Rb  Rb2  1  0.04580000  0.07221900  0.19914700  1
  Rb  Rb3  1  0.80716700  0.64172600  0.46637000  1
  Rb  Rb4  1  0.04580000  0.57221900  0.30085300  1
  Rb  Rb5  1  0.19283300  0.35827400  0.53363000  1
  Rb  Rb6  1  0.45420000  0.57221900  0.80085300  1
  Rb  Rb7  1  0.30716700  0.35827400  0.03363000  1
  Rb  Rb8  1  0.95420000  0.92778100  0.80085300  1
  Rb  Rb9  1  0.19283300  0.85827400  0.96637000  1
  Rb  Rb10  1  0.69283300  0.64172600  0.96637000  1
  Rb  Rb11  1  0.45420000  0.07221900  0.69914700  1
  Rb  Rb12  1  0.80716700  0.14172600  0.03363000  1
  Rb  Rb13  1  0.54580000  0.42778100  0.19914700  1
  Rb  Rb14  1  0.95420000  0.42778100  0.69914700  1
  Rb  Rb15  1  0.69283300  0.14172600  0.53363000  1
  Hf  Hf16  1  0.03338100  0.67459800  0.13077600  1
  Hf  Hf17  1  0.53338100  0.82540200  0.13077600  1
  Hf  Hf18  1  0.46661900  0.67459800  0.63077600  1
  Hf  Hf19  1  0.46661900  0.17459800  0.86922400  1
  Hf  Hf20  1  0.53338100  0.32540200  0.36922400  1
  Hf  Hf21  1  0.96661900  0.82540200  0.63077600  1
  Hf  Hf22  1  0.96661900  0.32540200  0.86922400  1
  Hf  Hf23  1  0.03338100  0.17459800  0.36922400  1
  S  S24  1  0.05177900  0.42246300  0.15875600  1
  S  S25  1  0.44822100  0.42246300  0.65875600  1
  S  S26  1  0.94822100  0.57753700  0.84124400  1
  S  S27  1  0.87611200  0.46023900  0.08873600  1
  S  S28  1  0.76773600  0.72879100  0.19991900  1
  S  S29  1  0.12388800  0.53976100  0.91126400  1
  S  S30  1  0.65580300  0.32834000  0.93106900  1
  S  S31  1  0.55177900  0.57753700  0.34124400  1
  S  S32  1  0.12388800  0.03976100  0.58873600  1
  S  S33  1  0.65580300  0.82834000  0.56893100  1
  S  S34  1  0.34419700  0.17166000  0.43106900  1
  S  S35  1  0.23226400  0.27120900  0.80008100  1
  S  S36  1  0.05177900  0.92246300  0.34124400  1
  S  S37  1  0.15580300  0.17166000  0.93106900  1
  S  S38  1  0.37611200  0.53976100  0.41126400  1
  S  S39  1  0.26773600  0.27120900  0.30008100  1
  S  S40  1  0.73226400  0.72879100  0.69991900  1
  S  S41  1  0.62388800  0.96023900  0.91126400  1
  S  S42  1  0.87611200  0.96023900  0.41126400  1
  S  S43  1  0.23226400  0.77120900  0.69991900  1
  S  S44  1  0.76773600  0.22879100  0.30008100  1
  S  S45  1  0.62388800  0.46023900  0.58873600  1
  S  S46  1  0.73226400  0.22879100  0.80008100  1
  S  S47  1  0.94822100  0.07753700  0.65875600  1
  S  S48  1  0.84419700  0.32834000  0.43106900  1
  S  S49  1  0.55177900  0.07753700  0.15875600  1
  S  S50  1  0.15580300  0.67166000  0.56893100  1
  S  S51  1  0.84419700  0.82834000  0.06893100  1
  S  S52  1  0.34419700  0.67166000  0.06893100  1
  S  S53  1  0.44822100  0.92246300  0.84124400  1
  S  S54  1  0.26773600  0.77120900  0.19991900  1
  S  S55  1  0.37611200  0.03976100  0.08873600  1
