# generated using pymatgen
data_KNi3As3O11
_symmetry_space_group_name_H-M   'P 1'
_cell_length_a   9.84319100
_cell_length_b   10.25604000
_cell_length_c   10.41556577
_cell_angle_alpha   60.21672773
_cell_angle_beta   90.00000000
_cell_angle_gamma   90.00000000
_symmetry_Int_Tables_number   1
_chemical_formula_structural   KNi3As3O11
_chemical_formula_sum   'K4 Ni12 As12 O44'
_cell_volume   912.58522161
_cell_formula_units_Z   4
loop_
 _symmetry_equiv_pos_site_id
 _symmetry_equiv_pos_as_xyz
  1  'x, y, z'
loop_
 _atom_site_type_symbol
 _atom_site_label
 _atom_site_symmetry_multiplicity
 _atom_site_fract_x
 _atom_site_fract_y
 _atom_site_fract_z
 _atom_site_occupancy
  K  K0  1  0.76738100  0.40913900  0.08995800  1
  K  K1  1  0.73261900  0.40913900  0.58995800  1
  K  K2  1  0.23261900  0.59086100  0.91004200  1
  K  K3  1  0.26738100  0.59086100  0.41004200  1
  Ni  Ni4  1  0.36784200  0.08771200  0.23651300  1
  Ni  Ni5  1  0.63698500  0.73816300  0.11851100  1
  Ni  Ni6  1  0.87105900  0.09110600  0.90059500  1
  Ni  Ni7  1  0.37105900  0.90889400  0.59940500  1
  Ni  Ni8  1  0.36301500  0.26183700  0.88148900  1
  Ni  Ni9  1  0.62894100  0.09110600  0.40059500  1
  Ni  Ni10  1  0.86784200  0.91228800  0.26348700  1
  Ni  Ni11  1  0.63215800  0.91228800  0.76348700  1
  Ni  Ni12  1  0.13215800  0.08771200  0.73651300  1
  Ni  Ni13  1  0.86301500  0.73816300  0.61851100  1
  Ni  Ni14  1  0.13698500  0.26183700  0.38148900  1
  Ni  Ni15  1  0.12894100  0.90889400  0.09940500  1
  As  As16  1  0.34290200  0.90146500  0.93153800  1
  As  As17  1  0.42618500  0.22840600  0.58561500  1
  As  As18  1  0.44323100  0.40714000  0.24070000  1
  As  As19  1  0.94323100  0.59286000  0.25930000  1
  As  As20  1  0.07381500  0.22840600  0.08561500  1
  As  As21  1  0.55676900  0.59286000  0.75930000  1
  As  As22  1  0.84290200  0.09853500  0.56846200  1
  As  As23  1  0.92618500  0.77159400  0.91438500  1
  As  As24  1  0.15709800  0.90146500  0.43153800  1
  As  As25  1  0.57381500  0.77159400  0.41438500  1
  As  As26  1  0.05676900  0.40714000  0.74070000  1
  As  As27  1  0.65709800  0.09853500  0.06846200  1
  O  O28  1  0.24103200  0.06386800  0.41422600  1
  O  O29  1  0.01638400  0.25400900  0.22325700  1
  O  O30  1  0.01240100  0.38679700  0.92114400  1
  O  O31  1  0.27291400  0.91474400  0.77112200  1
  O  O32  1  0.25281300  0.23740300  0.56451400  1
  O  O33  1  0.49766000  0.24228200  0.24932100  1
  O  O34  1  0.48325900  0.10405800  0.06468800  1
  O  O35  1  0.23613000  0.76499900  0.58462900  1
  O  O36  1  0.50301700  0.07326500  0.58592700  1
  O  O37  1  0.99766000  0.75771800  0.25067900  1
  O  O38  1  0.46655800  0.44303200  0.88209600  1
  O  O39  1  0.75281300  0.76259700  0.93548600  1
  O  O40  1  0.49698300  0.92673500  0.41407300  1
  O  O41  1  0.25896800  0.06386800  0.91422600  1
  O  O42  1  0.72825500  0.58111900  0.77048200  1
  O  O43  1  0.48759900  0.38679700  0.42114400  1
  O  O44  1  0.98361600  0.74599100  0.77674300  1
  O  O45  1  0.00234000  0.24228200  0.74932100  1
  O  O46  1  0.50234000  0.75771800  0.75067900  1
  O  O47  1  0.74718700  0.76259700  0.43548600  1
  O  O48  1  0.96655800  0.55696800  0.61790400  1
  O  O49  1  0.51638400  0.74599100  0.27674300  1
  O  O50  1  0.72708600  0.08525600  0.22887800  1
  O  O51  1  0.01674100  0.10405800  0.56468800  1
  O  O52  1  0.03344200  0.44303200  0.38209600  1
  O  O53  1  0.24718700  0.23740300  0.06451300  1
  O  O54  1  0.27174500  0.41888100  0.22951800  1
  O  O55  1  0.75896800  0.93613200  0.58577400  1
  O  O56  1  0.77174500  0.58111900  0.27048200  1
  O  O57  1  0.99698300  0.07326500  0.08592700  1
  O  O58  1  0.00301700  0.92673500  0.91407300  1
  O  O59  1  0.22708600  0.91474400  0.27112200  1
  O  O60  1  0.51674100  0.89594200  0.93531200  1
  O  O61  1  0.76387000  0.23500100  0.41537100  1
  O  O62  1  0.51240100  0.61320300  0.57885600  1
  O  O63  1  0.98759900  0.61320300  0.07885600  1
  O  O64  1  0.53344200  0.55696800  0.11790400  1
  O  O65  1  0.73613000  0.23500100  0.91537100  1
  O  O66  1  0.48361600  0.25400900  0.72325700  1
  O  O67  1  0.77291400  0.08525600  0.72887800  1
  O  O68  1  0.74103200  0.93613200  0.08577400  1
  O  O69  1  0.26387000  0.76499900  0.08462900  1
  O  O70  1  0.98325900  0.89594200  0.43531200  1
  O  O71  1  0.22825500  0.41888100  0.72951800  1
