# generated using pymatgen
data_CaNb2(P2O7)3
_symmetry_space_group_name_H-M   'P 1'
_cell_length_a   8.63247016
_cell_length_b   8.63247016
_cell_length_c   12.61150233
_cell_angle_alpha   85.22598660
_cell_angle_beta   85.22598660
_cell_angle_gamma   77.24131455
_symmetry_Int_Tables_number   1
_chemical_formula_structural   CaNb2(P2O7)3
_chemical_formula_sum   'Ca2 Nb4 P12 O42'
_cell_volume   911.38332420
_cell_formula_units_Z   2
loop_
 _symmetry_equiv_pos_site_id
 _symmetry_equiv_pos_as_xyz
  1  'x, y, z'
loop_
 _atom_site_type_symbol
 _atom_site_label
 _atom_site_symmetry_multiplicity
 _atom_site_fract_x
 _atom_site_fract_y
 _atom_site_fract_z
 _atom_site_occupancy
  Ca  Ca0  1  0.22470400  0.22470400  0.86258000  1
  Ca  Ca1  1  0.77529600  0.77529600  0.13742000  1
  Nb  Nb2  1  0.28554000  0.28554000  0.17905600  1
  Nb  Nb3  1  0.24496100  0.75503900  0.50000000  1
  Nb  Nb4  1  0.75503900  0.24496100  0.50000000  1
  Nb  Nb5  1  0.71446000  0.71446000  0.82094400  1
  P  P6  1  0.67787000  0.20266500  0.10269200  1
  P  P7  1  0.14049700  0.14049700  0.59004400  1
  P  P8  1  0.34326000  0.34326000  0.45697500  1
  P  P9  1  0.20266500  0.67787000  0.10269200  1
  P  P10  1  0.35035200  0.86991500  0.23360200  1
  P  P11  1  0.64964800  0.13008500  0.76639800  1
  P  P12  1  0.32213000  0.79733500  0.89730800  1
  P  P13  1  0.65674000  0.65674000  0.54302500  1
  P  P14  1  0.13008500  0.64964800  0.76639800  1
  P  P15  1  0.86991500  0.35035200  0.23360200  1
  P  P16  1  0.85950300  0.85950300  0.40995600  1
  P  P17  1  0.79733500  0.32213000  0.89730800  1
  O  O18  1  0.29658800  0.81643500  0.34980200  1
  O  O19  1  0.18356500  0.70341200  0.65019800  1
  O  O20  1  0.82856300  0.22004100  0.16229300  1
  O  O21  1  0.17143700  0.77995900  0.83770700  1
  O  O22  1  0.01677300  0.78549300  0.46490100  1
  O  O23  1  0.72595000  0.72595000  0.95849600  1
  O  O24  1  0.26696600  0.52896300  0.17354400  1
  O  O25  1  0.29650400  0.96255100  0.92961500  1
  O  O26  1  0.98322700  0.21450700  0.53509900  1
  O  O27  1  0.21450700  0.98322700  0.53509900  1
  O  O28  1  0.81643500  0.29658800  0.34980200  1
  O  O29  1  0.52896300  0.26696600  0.17354400  1
  O  O30  1  0.47716000  0.71302600  0.52669100  1
  O  O31  1  0.70341200  0.18356500  0.65019800  1
  O  O32  1  0.22004100  0.82856300  0.16229300  1
  O  O33  1  0.96255100  0.29650400  0.92961500  1
  O  O34  1  0.78848800  0.51490300  0.20072100  1
  O  O35  1  0.29890600  0.29890600  0.35386800  1
  O  O36  1  0.73303400  0.47103700  0.82645600  1
  O  O37  1  0.48509700  0.21151200  0.79927900  1
  O  O38  1  0.12788700  0.12788700  0.70850300  1
  O  O39  1  0.94811200  0.68496900  0.77592900  1
  O  O40  1  0.70349600  0.03744900  0.07038500  1
  O  O41  1  0.47103700  0.73303400  0.82645600  1
  O  O42  1  0.21151200  0.48509700  0.79927900  1
  O  O43  1  0.52284000  0.28697400  0.47330900  1
  O  O44  1  0.71302600  0.47716000  0.52669100  1
  O  O45  1  0.68496900  0.94811200  0.77592900  1
  O  O46  1  0.78549300  0.01677300  0.46490100  1
  O  O47  1  0.67137400  0.32862600  0.00000000  1
  O  O48  1  0.77995900  0.17143700  0.83770700  1
  O  O49  1  0.25908500  0.25908500  0.55610100  1
  O  O50  1  0.51490300  0.78848800  0.20072100  1
  O  O51  1  0.31503100  0.05188800  0.22407100  1
  O  O52  1  0.27405000  0.27405000  0.04150400  1
  O  O53  1  0.28697400  0.52284000  0.47330900  1
  O  O54  1  0.03744900  0.70349600  0.07038500  1
  O  O55  1  0.87211300  0.87211300  0.29149700  1
  O  O56  1  0.74091500  0.74091500  0.44389900  1
  O  O57  1  0.70109400  0.70109400  0.64613200  1
  O  O58  1  0.05188800  0.31503100  0.22407100  1
  O  O59  1  0.32862600  0.67137400  0.00000000  1
