# generated using pymatgen
data_Ba3YbRu2O9
_symmetry_space_group_name_H-M   'P 1'
_cell_length_a   5.96669883
_cell_length_b   5.96669883
_cell_length_c   14.44656800
_cell_angle_alpha   90.00000000
_cell_angle_beta   90.00000000
_cell_angle_gamma   120.00000917
_symmetry_Int_Tables_number   1
_chemical_formula_structural   Ba3YbRu2O9
_chemical_formula_sum   'Ba6 Yb2 Ru4 O18'
_cell_volume   445.41363953
_cell_formula_units_Z   2
loop_
 _symmetry_equiv_pos_site_id
 _symmetry_equiv_pos_as_xyz
  1  'x, y, z'
loop_
 _atom_site_type_symbol
 _atom_site_label
 _atom_site_symmetry_multiplicity
 _atom_site_fract_x
 _atom_site_fract_y
 _atom_site_fract_z
 _atom_site_occupancy
  Ba  Ba0  1  0.00000000  0.00000000  0.25000000  1
  Ba  Ba1  1  0.00000000  0.00000000  0.75000000  1
  Ba  Ba2  1  0.33333300  0.66666700  0.90775300  1
  Ba  Ba3  1  0.66666700  0.33333300  0.40775300  1
  Ba  Ba4  1  0.66666700  0.33333300  0.09224700  1
  Ba  Ba5  1  0.33333300  0.66666700  0.59224700  1
  Yb  Yb6  1  0.00000000  0.00000000  0.00000000  1
  Yb  Yb7  1  0.00000000  0.00000000  0.50000000  1
  Ru  Ru8  1  0.33333300  0.66666700  0.16383700  1
  Ru  Ru9  1  0.66666700  0.33333300  0.66383700  1
  Ru  Ru10  1  0.66666700  0.33333300  0.83616300  1
  Ru  Ru11  1  0.33333300  0.66666700  0.33616300  1
  O  O12  1  0.49205300  0.98410600  0.25000000  1
  O  O13  1  0.50794700  0.49205300  0.75000000  1
  O  O14  1  0.98410600  0.49205300  0.75000000  1
  O  O15  1  0.01589400  0.50794700  0.25000000  1
  O  O16  1  0.49205300  0.50794700  0.25000000  1
  O  O17  1  0.50794700  0.01589400  0.75000000  1
  O  O18  1  0.17846500  0.35692900  0.41025700  1
  O  O19  1  0.82153500  0.17846500  0.91025700  1
  O  O20  1  0.35692900  0.17846500  0.91025700  1
  O  O21  1  0.64307100  0.82153500  0.41025700  1
  O  O22  1  0.17846500  0.82153500  0.41025700  1
  O  O23  1  0.82153500  0.64307100  0.58974300  1
  O  O24  1  0.82153500  0.17846500  0.58974300  1
  O  O25  1  0.82153500  0.64307100  0.91025700  1
  O  O26  1  0.35692900  0.17846500  0.58974300  1
  O  O27  1  0.64307100  0.82153500  0.08974300  1
  O  O28  1  0.17846500  0.35692900  0.08974300  1
  O  O29  1  0.17846500  0.82153500  0.08974300  1
