# generated using pymatgen
data_Gd(PO3)3
_symmetry_space_group_name_H-M   'P 1'
_cell_length_a   13.47153699
_cell_length_b   13.47153699
_cell_length_c   10.24414505
_cell_angle_alpha   84.18550350
_cell_angle_beta   84.18550350
_cell_angle_gamma   61.17137023
_symmetry_Int_Tables_number   1
_chemical_formula_structural   Gd(PO3)3
_chemical_formula_sum   'Gd8 P24 O72'
_cell_volume   1617.40398983
_cell_formula_units_Z   8
loop_
 _symmetry_equiv_pos_site_id
 _symmetry_equiv_pos_as_xyz
  1  'x, y, z'
loop_
 _atom_site_type_symbol
 _atom_site_label
 _atom_site_symmetry_multiplicity
 _atom_site_fract_x
 _atom_site_fract_y
 _atom_site_fract_z
 _atom_site_occupancy
  Gd  Gd0  1  0.01890700  0.74809000  0.76927600  1
  Gd  Gd1  1  0.51252100  0.75463600  0.26582000  1
  Gd  Gd2  1  0.75463600  0.51252100  0.76582000  1
  Gd  Gd3  1  0.24536400  0.48747900  0.23418000  1
  Gd  Gd4  1  0.98109300  0.25191000  0.23072400  1
  Gd  Gd5  1  0.48747900  0.24536400  0.73418000  1
  Gd  Gd6  1  0.74809000  0.01890700  0.26927600  1
  Gd  Gd7  1  0.25191000  0.98109300  0.73072400  1
  P  P8  1  0.84373100  0.77056900  0.06400500  1
  P  P9  1  0.15876600  0.73822200  0.42663600  1
  P  P10  1  0.35767400  0.72139300  0.55178500  1
  P  P11  1  0.73822200  0.15876600  0.92663600  1
  P  P12  1  0.64585500  0.78378100  0.93341200  1
  P  P13  1  0.46946400  0.53053600  0.75000000  1
  P  P14  1  0.46027900  0.04972300  0.28984700  1
  P  P15  1  0.95137300  0.04862700  0.75000000  1
  P  P16  1  0.15626900  0.22943100  0.93599500  1
  P  P17  1  0.78378100  0.64585500  0.43341200  1
  P  P18  1  0.26177800  0.84123400  0.07336400  1
  P  P19  1  0.64232600  0.27860700  0.44821500  1
  P  P20  1  0.77056900  0.84373100  0.56400500  1
  P  P21  1  0.04972300  0.46027900  0.78984700  1
  P  P22  1  0.04862700  0.95137300  0.25000000  1
  P  P23  1  0.72139300  0.35767400  0.05178500  1
  P  P24  1  0.22943100  0.15626900  0.43599500  1
  P  P25  1  0.53972100  0.95027700  0.71015300  1
  P  P26  1  0.27860700  0.64232600  0.94821500  1
  P  P27  1  0.53053600  0.46946400  0.25000000  1
  P  P28  1  0.21621900  0.35414500  0.56658800  1
  P  P29  1  0.84123400  0.26177800  0.57336400  1
  P  P30  1  0.35414500  0.21621900  0.06658800  1
  P  P31  1  0.95027700  0.53972100  0.21015300  1
  O  O32  1  0.57524600  0.90597500  0.85873500  1
  O  O33  1  0.28984900  0.71255300  0.05813300  1
  O  O34  1  0.14787300  0.21173100  0.32896800  1
  O  O35  1  0.20534200  0.24385100  0.54470700  1
  O  O36  1  0.95342700  0.93806700  0.73561000  1
  O  O37  1  0.79465800  0.75614900  0.45529300  1
  O  O38  1  0.86548800  0.64509200  0.11923400  1
  O  O39  1  0.12987800  0.89323500  0.12383100  1
  O  O40  1  0.54076900  0.27677000  0.52066400  1
  O  O41  1  0.78158600  0.58344400  0.56220800  1
  O  O42  1  0.10294500  0.73035600  0.55876400  1
  O  O43  1  0.33255400  0.83769500  0.17945800  1
  O  O44  1  0.59940800  0.39284800  0.12845300  1
  O  O45  1  0.21173100  0.14787300  0.82896800  1
  O  O46  1  0.46829700  0.41945100  0.76850500  1
  O  O47  1  0.89323500  0.12987800  0.62383100  1
  O  O48  1  0.30907300  0.32263000  0.65696300  1
  O  O49  1  0.93254900  0.47328600  0.81015200  1
  O  O50  1  0.28744700  0.71015100  0.44186700  1
  O  O51  1  0.93806700  0.95342700  0.23561000  1
  O  O52  1  0.23377000  0.05350000  0.51312300  1
  O  O53  1  0.87012200  0.10676500  0.87616900  1
  O  O54  1  0.45923100  0.72323000  0.47933600  1
  O  O55  1  0.60715200  0.40059200  0.37154700  1
  O  O56  1  0.47328600  0.93254900  0.31015200  1
  O  O57  1  0.78826900  0.85212700  0.17103200  1
  O  O58  1  0.27677000  0.54076900  0.02066400  1
  O  O59  1  0.85212700  0.78826900  0.67103200  1
  O  O60  1  0.43988000  0.93426800  0.68894000  1
  O  O61  1  0.69092700  0.67737000  0.34303700  1
  O  O62  1  0.75614900  0.79465800  0.95529300  1
  O  O63  1  0.06573200  0.56012000  0.81106000  1
  O  O64  1  0.71255300  0.28984900  0.55813300  1
  O  O65  1  0.18458400  0.71480500  0.85890800  1
  O  O66  1  0.04657300  0.06193300  0.26439000  1
  O  O67  1  0.13451200  0.35490800  0.88076600  1
  O  O68  1  0.58344400  0.78158600  0.06220800  1
  O  O69  1  0.66744600  0.16230500  0.82054200  1
  O  O70  1  0.81541600  0.28519500  0.14109200  1
  O  O71  1  0.94650000  0.76623000  0.98687700  1
  O  O72  1  0.89705500  0.26964400  0.44123600  1
  O  O73  1  0.09402500  0.42475400  0.64126500  1
  O  O74  1  0.16230500  0.66744600  0.32054200  1
  O  O75  1  0.28519500  0.81541600  0.64109200  1
  O  O76  1  0.26964400  0.89705500  0.94123600  1
  O  O77  1  0.41945100  0.46829700  0.26850500  1
  O  O78  1  0.58054900  0.53170300  0.73149500  1
  O  O79  1  0.73035600  0.10294500  0.05876400  1
  O  O80  1  0.21841400  0.41655600  0.43779200  1
  O  O81  1  0.56012000  0.06573200  0.31106000  1
  O  O82  1  0.71015100  0.28744700  0.94186700  1
  O  O83  1  0.53170300  0.58054900  0.23149500  1
  O  O84  1  0.83769500  0.33255400  0.67945800  1
  O  O85  1  0.10676500  0.87012200  0.37616900  1
  O  O86  1  0.93426800  0.43988000  0.18894000  1
  O  O87  1  0.06193300  0.04657300  0.76439000  1
  O  O88  1  0.32263000  0.30907300  0.15696300  1
  O  O89  1  0.24385100  0.20534200  0.04470700  1
  O  O90  1  0.67737000  0.69092700  0.84303700  1
  O  O91  1  0.39284800  0.59940800  0.62845300  1
  O  O92  1  0.35490800  0.13451200  0.38076600  1
  O  O93  1  0.90597500  0.57524600  0.35873500  1
  O  O94  1  0.41655600  0.21841400  0.93779200  1
  O  O95  1  0.42475400  0.09402500  0.14126500  1
  O  O96  1  0.64509200  0.86548800  0.61923400  1
  O  O97  1  0.76623000  0.94650000  0.48687700  1
  O  O98  1  0.40059200  0.60715200  0.87154700  1
  O  O99  1  0.52671400  0.06745100  0.68984800  1
  O  O100  1  0.71480500  0.18458400  0.35890800  1
  O  O101  1  0.06745100  0.52671400  0.18984800  1
  O  O102  1  0.72323000  0.45923100  0.97933600  1
  O  O103  1  0.05350000  0.23377000  0.01312300  1
