# generated using pymatgen
data_KNiAsO4
_symmetry_space_group_name_H-M   'P 1'
_cell_length_a   5.06114958
_cell_length_b   10.08576889
_cell_length_c   8.76624213
_cell_angle_alpha   106.84186898
_cell_angle_beta   89.99986664
_cell_angle_gamma   90.00086485
_symmetry_Int_Tables_number   1
_chemical_formula_structural   KNiAsO4
_chemical_formula_sum   'K4 Ni4 As4 O16'
_cell_volume   428.28474704
_cell_formula_units_Z   4
loop_
 _symmetry_equiv_pos_site_id
 _symmetry_equiv_pos_as_xyz
  1  'x, y, z'
loop_
 _atom_site_type_symbol
 _atom_site_label
 _atom_site_symmetry_multiplicity
 _atom_site_fract_x
 _atom_site_fract_y
 _atom_site_fract_z
 _atom_site_occupancy
  K  K0  1  0.50000000  0.13294700  0.21098100  1
  K  K1  1  0.00000000  0.13294700  0.71098200  1
  K  K2  1  0.50000000  0.86705300  0.78901800  1
  K  K3  1  0.00000000  0.86705300  0.28901900  1
  Ni  Ni4  1  0.49999900  0.49555800  0.66518500  1
  Ni  Ni5  1  0.00000100  0.50444200  0.83481500  1
  Ni  Ni6  1  0.99999900  0.49556100  0.16518600  1
  Ni  Ni7  1  0.50000100  0.50443900  0.33481400  1
  As  As8  1  0.50001000  0.68115700  0.06039200  1
  As  As9  1  0.00000900  0.68115700  0.56039500  1
  As  As10  1  0.49999100  0.31884300  0.93960500  1
  As  As11  1  0.99999000  0.31884300  0.43960800  1
  O  O12  1  0.50000200  0.14269000  0.88089800  1
  O  O13  1  0.00000200  0.14268900  0.38089600  1
  O  O14  1  0.49999800  0.85731100  0.11910400  1
  O  O15  1  0.99999800  0.85731000  0.61910200  1
  O  O16  1  0.34039900  0.62516400  0.87651000  1
  O  O17  1  0.84040100  0.62516300  0.37650800  1
  O  O18  1  0.33198800  0.62516400  0.20412600  1
  O  O19  1  0.83198700  0.62516400  0.70412400  1
  O  O20  1  0.17238400  0.37483000  0.95547200  1
  O  O21  1  0.67238600  0.37483100  0.45547200  1
  O  O22  1  0.65959900  0.37483700  0.12349200  1
  O  O23  1  0.15960100  0.37483600  0.62349000  1
  O  O24  1  0.82761400  0.62516900  0.04452800  1
  O  O25  1  0.32761600  0.62517000  0.54452800  1
  O  O26  1  0.66801300  0.37483600  0.79587600  1
  O  O27  1  0.16801200  0.37483600  0.29587400  1
