# generated using pymatgen
data_SbTeClO3
_symmetry_space_group_name_H-M   'P 1'
_cell_length_a   5.51181400
_cell_length_b   7.27706700
_cell_length_c   11.67437300
_cell_angle_alpha   90.00000000
_cell_angle_beta   90.00000000
_cell_angle_gamma   90.00000000
_symmetry_Int_Tables_number   1
_chemical_formula_structural   SbTeClO3
_chemical_formula_sum   'Sb4 Te4 Cl4 O12'
_cell_volume   468.25723044
_cell_formula_units_Z   4
loop_
 _symmetry_equiv_pos_site_id
 _symmetry_equiv_pos_as_xyz
  1  'x, y, z'
loop_
 _atom_site_type_symbol
 _atom_site_label
 _atom_site_symmetry_multiplicity
 _atom_site_fract_x
 _atom_site_fract_y
 _atom_site_fract_z
 _atom_site_occupancy
  Sb  Sb0  1  0.25000000  0.91753200  0.75746600  1
  Sb  Sb1  1  0.75000000  0.08246800  0.24253400  1
  Sb  Sb2  1  0.75000000  0.41753200  0.74253400  1
  Sb  Sb3  1  0.25000000  0.58246800  0.25746600  1
  Te  Te4  1  0.75000000  0.81968000  0.92423400  1
  Te  Te5  1  0.75000000  0.68032000  0.42423400  1
  Te  Te6  1  0.25000000  0.18032000  0.07576600  1
  Te  Te7  1  0.25000000  0.31968000  0.57576600  1
  Cl  Cl8  1  0.75000000  0.10411200  0.57730100  1
  Cl  Cl9  1  0.25000000  0.89588800  0.42269900  1
  Cl  Cl10  1  0.25000000  0.60411200  0.92269900  1
  Cl  Cl11  1  0.75000000  0.39588800  0.07730100  1
  O  O12  1  0.99527800  0.99184400  0.87423200  1
  O  O13  1  0.00472200  0.00815600  0.12576800  1
  O  O14  1  0.75000000  0.80455200  0.27943800  1
  O  O15  1  0.49527800  0.49184400  0.62576800  1
  O  O16  1  0.99527800  0.50815600  0.37423200  1
  O  O17  1  0.50472200  0.50815600  0.37423200  1
  O  O18  1  0.75000000  0.69544800  0.77943800  1
  O  O19  1  0.49527800  0.00815600  0.12576800  1
  O  O20  1  0.50472200  0.99184400  0.87423200  1
  O  O21  1  0.25000000  0.19544800  0.72056200  1
  O  O22  1  0.00472200  0.49184400  0.62576800  1
  O  O23  1  0.25000000  0.30455200  0.22056200  1
