# generated using pymatgen
data_KGdCO3F2
_symmetry_space_group_name_H-M   'P 1'
_cell_length_a   12.40850418
_cell_length_b   11.59199053
_cell_length_c   6.67499573
_cell_angle_alpha   80.71869641
_cell_angle_beta   67.21537629
_cell_angle_gamma   32.06592730
_symmetry_Int_Tables_number   1
_chemical_formula_structural   KGdCO3F2
_chemical_formula_sum   'K4 Gd4 C4 O12 F8'
_cell_volume   441.78495047
_cell_formula_units_Z   4
loop_
 _symmetry_equiv_pos_site_id
 _symmetry_equiv_pos_as_xyz
  1  'x, y, z'
loop_
 _atom_site_type_symbol
 _atom_site_label
 _atom_site_symmetry_multiplicity
 _atom_site_fract_x
 _atom_site_fract_y
 _atom_site_fract_z
 _atom_site_occupancy
  K  K0  1  0.83233100  0.83233100  0.66766900  1
  K  K1  1  0.66766900  0.66766900  0.83233100  1
  K  K2  1  0.58233100  0.58233100  0.41766900  1
  K  K3  1  0.41766900  0.41766900  0.58233100  1
  Gd  Gd4  1  0.06731600  0.43268400  0.06731600  1
  Gd  Gd5  1  0.81731600  0.18268400  0.81731600  1
  Gd  Gd6  1  0.43268400  0.06731600  0.43268400  1
  Gd  Gd7  1  0.18268400  0.81731600  0.18268400  1
  C  C8  1  0.12218600  0.12218600  0.87781400  1
  C  C9  1  0.87781400  0.87781400  0.12218600  1
  C  C10  1  0.12781400  0.12781400  0.37218600  1
  C  C11  1  0.37218600  0.37218600  0.12781400  1
  O  O12  1  0.18734500  0.18734500  0.31265500  1
  O  O13  1  0.06265500  0.06265500  0.93734500  1
  O  O14  1  0.93993900  0.25853200  0.56157700  1
  O  O15  1  0.56157700  0.23995200  0.93993900  1
  O  O16  1  0.01004800  0.68842300  0.99146800  1
  O  O17  1  0.31265500  0.31265500  0.18734500  1
  O  O18  1  0.25853200  0.93993900  0.23995200  1
  O  O19  1  0.23995200  0.56157700  0.25853200  1
  O  O20  1  0.31006100  0.99146800  0.68842300  1
  O  O21  1  0.68842300  0.01004800  0.31006100  1
  O  O22  1  0.93734500  0.93734500  0.06265500  1
  O  O23  1  0.99146800  0.31006100  0.01004800  1
  F  F24  1  0.77428100  0.69328900  0.43439000  1
  F  F25  1  0.69328900  0.77428100  0.09804100  1
  F  F26  1  0.43439000  0.09804100  0.77428100  1
  F  F27  1  0.47571900  0.55671100  0.81561000  1
  F  F28  1  0.09804100  0.43439000  0.69328900  1
  F  F29  1  0.15195900  0.81561000  0.55671100  1
  F  F30  1  0.55671100  0.47571900  0.15195900  1
  F  F31  1  0.81561000  0.15195900  0.47571900  1
