# generated using pymatgen
data_Ta3Si
_symmetry_space_group_name_H-M   'P 1'
_cell_length_a   10.23355900
_cell_length_b   10.23355900
_cell_length_c   5.21538700
_cell_angle_alpha   90.00000000
_cell_angle_beta   90.00000000
_cell_angle_gamma   90.00000000
_symmetry_Int_Tables_number   1
_chemical_formula_structural   Ta3Si
_chemical_formula_sum   'Ta24 Si8'
_cell_volume   546.18520980
_cell_formula_units_Z   8
loop_
 _symmetry_equiv_pos_site_id
 _symmetry_equiv_pos_as_xyz
  1  'x, y, z'
loop_
 _atom_site_type_symbol
 _atom_site_label
 _atom_site_symmetry_multiplicity
 _atom_site_fract_x
 _atom_site_fract_y
 _atom_site_fract_z
 _atom_site_occupancy
  Ta  Ta0  1  0.51749500  0.64640800  0.27309800  1
  Ta  Ta1  1  0.40044400  0.08584200  0.02946800  1
  Ta  Ta2  1  0.71333800  0.81214300  0.51306300  1
  Ta  Ta3  1  0.90044400  0.58584200  0.47053200  1
  Ta  Ta4  1  0.85359200  0.01749500  0.77309800  1
  Ta  Ta5  1  0.01749500  0.14640800  0.22690200  1
  Ta  Ta6  1  0.78666200  0.68785700  0.98693700  1
  Ta  Ta7  1  0.28666200  0.18785700  0.51306300  1
  Ta  Ta8  1  0.68785700  0.21333800  0.01306300  1
  Ta  Ta9  1  0.41415800  0.90044400  0.52946800  1
  Ta  Ta10  1  0.81214300  0.28666200  0.48693700  1
  Ta  Ta11  1  0.35359200  0.51749500  0.72690200  1
  Ta  Ta12  1  0.64640800  0.48250500  0.72690200  1
  Ta  Ta13  1  0.14640800  0.98250500  0.77309800  1
  Ta  Ta14  1  0.21333800  0.31214300  0.98693700  1
  Ta  Ta15  1  0.91415800  0.40044400  0.97053200  1
  Ta  Ta16  1  0.31214300  0.78666200  0.01306300  1
  Ta  Ta17  1  0.59955600  0.91415800  0.02946800  1
  Ta  Ta18  1  0.08584200  0.59955600  0.97053200  1
  Ta  Ta19  1  0.09955600  0.41415800  0.47053200  1
  Ta  Ta20  1  0.98250500  0.85359200  0.22690200  1
  Ta  Ta21  1  0.18785700  0.71333800  0.48693700  1
  Ta  Ta22  1  0.48250500  0.35359200  0.27309800  1
  Ta  Ta23  1  0.58584200  0.09955600  0.52946800  1
  Si  Si24  1  0.97088500  0.79481800  0.72064600  1
  Si  Si25  1  0.20518200  0.97088500  0.27935400  1
  Si  Si26  1  0.79481800  0.02911500  0.27935400  1
  Si  Si27  1  0.47088500  0.29481800  0.77935400  1
  Si  Si28  1  0.29481800  0.52911500  0.22064600  1
  Si  Si29  1  0.02911500  0.20518200  0.72064600  1
  Si  Si30  1  0.70518200  0.47088500  0.22064600  1
  Si  Si31  1  0.52911500  0.70518200  0.77935400  1
