# generated using pymatgen
data_Hg2SeO3
_symmetry_space_group_name_H-M   'P 1'
_cell_length_a   9.11570992
_cell_length_b   9.11570992
_cell_length_c   9.11570992
_cell_angle_alpha   126.68579904
_cell_angle_beta   106.48530665
_cell_angle_gamma   96.82309147
_symmetry_Int_Tables_number   1
_chemical_formula_structural   Hg2SeO3
_chemical_formula_sum   'Hg8 Se4 O12'
_cell_volume   539.97266438
_cell_formula_units_Z   4
loop_
 _symmetry_equiv_pos_site_id
 _symmetry_equiv_pos_as_xyz
  1  'x, y, z'
loop_
 _atom_site_type_symbol
 _atom_site_label
 _atom_site_symmetry_multiplicity
 _atom_site_fract_x
 _atom_site_fract_y
 _atom_site_fract_z
 _atom_site_occupancy
  Hg  Hg0  1  0.43875500  0.85168800  0.07535200  1
  Hg  Hg1  1  0.22366400  0.13659700  0.57535200  1
  Hg  Hg2  1  0.43875500  0.36340300  0.58706700  1
  Hg  Hg3  1  0.56124500  0.63659700  0.41293300  1
  Hg  Hg4  1  0.77633600  0.35168800  0.91293300  1
  Hg  Hg5  1  0.56124500  0.14831200  0.92464800  1
  Hg  Hg6  1  0.77633600  0.86340300  0.42464800  1
  Hg  Hg7  1  0.22366400  0.64831200  0.08706700  1
  Se  Se8  1  0.83670500  0.29877100  0.53793400  1
  Se  Se9  1  0.76083700  0.79877100  0.96206600  1
  Se  Se10  1  0.16329500  0.70122900  0.46206600  1
  Se  Se11  1  0.23916300  0.20122900  0.03793400  1
  O  O12  1  0.35391200  0.38425000  0.30423800  1
  O  O13  1  0.63838100  0.17506900  0.46331200  1
  O  O14  1  0.08001200  0.88425000  0.53033800  1
  O  O15  1  0.71175600  0.67506900  0.03668800  1
  O  O16  1  0.36161900  0.82493100  0.53668800  1
  O  O17  1  0.64608800  0.61575000  0.69576200  1
  O  O18  1  0.64608800  0.95032600  0.03033800  1
  O  O19  1  0.91998800  0.45032600  0.80423800  1
  O  O20  1  0.08001200  0.54967400  0.19576200  1
  O  O21  1  0.28824400  0.32493100  0.96331200  1
  O  O22  1  0.35391200  0.04967400  0.96966200  1
  O  O23  1  0.91998800  0.11575000  0.46966200  1
