# generated using pymatgen
data_Nd2B5
_symmetry_space_group_name_H-M   'P 1'
_cell_length_a   8.42068242
_cell_length_b   8.42068242
_cell_length_c   7.31947839
_cell_angle_alpha   72.81287085
_cell_angle_beta   72.81287085
_cell_angle_gamma   51.30494344
_symmetry_Int_Tables_number   1
_chemical_formula_structural   Nd2B5
_chemical_formula_sum   'Nd8 B20'
_cell_volume   382.69610123
_cell_formula_units_Z   4
loop_
 _symmetry_equiv_pos_site_id
 _symmetry_equiv_pos_as_xyz
  1  'x, y, z'
loop_
 _atom_site_type_symbol
 _atom_site_label
 _atom_site_symmetry_multiplicity
 _atom_site_fract_x
 _atom_site_fract_y
 _atom_site_fract_z
 _atom_site_occupancy
  Nd  Nd0  1  0.31058900  0.45110800  0.59872700  1
  Nd  Nd1  1  0.68941100  0.54889200  0.40127300  1
  Nd  Nd2  1  0.81953500  0.94317100  0.72307200  1
  Nd  Nd3  1  0.05682900  0.18046500  0.77692800  1
  Nd  Nd4  1  0.94317100  0.81953500  0.22307200  1
  Nd  Nd5  1  0.54889200  0.68941100  0.90127300  1
  Nd  Nd6  1  0.18046500  0.05682900  0.27692800  1
  Nd  Nd7  1  0.45110800  0.31058900  0.09872700  1
  B  B8  1  0.67161100  0.82802400  0.53981300  1
  B  B9  1  0.17197600  0.32838900  0.96018700  1
  B  B10  1  0.59082600  0.08943200  0.43944800  1
  B  B11  1  0.40917400  0.91056800  0.56055200  1
  B  B12  1  0.59103700  0.90783700  0.09187900  1
  B  B13  1  0.90783700  0.59103700  0.59187900  1
  B  B14  1  0.32838900  0.17197600  0.46018700  1
  B  B15  1  0.82802400  0.67161100  0.03981300  1
  B  B16  1  0.28716300  0.79793000  0.64814500  1
  B  B17  1  0.09216300  0.40896300  0.40812100  1
  B  B18  1  0.91056800  0.40917400  0.06055200  1
  B  B19  1  0.20207000  0.71283700  0.85185500  1
  B  B20  1  0.53839900  0.95935900  0.32916500  1
  B  B21  1  0.46160100  0.04064100  0.67083500  1
  B  B22  1  0.08943200  0.59082600  0.93944800  1
  B  B23  1  0.95935900  0.53839900  0.82916500  1
  B  B24  1  0.79793000  0.28716300  0.14814500  1
  B  B25  1  0.04064100  0.46160100  0.17083500  1
  B  B26  1  0.40896300  0.09216300  0.90812100  1
  B  B27  1  0.71283700  0.20207000  0.35185500  1
