# generated using pymatgen
data_NaHf2CuSe5
_symmetry_space_group_name_H-M   'P 1'
_cell_length_a   7.22723206
_cell_length_b   7.22723206
_cell_length_c   16.29189000
_cell_angle_alpha   90.00000000
_cell_angle_beta   90.00000000
_cell_angle_gamma   149.56735233
_symmetry_Int_Tables_number   1
_chemical_formula_structural   NaHf2CuSe5
_chemical_formula_sum   'Na2 Hf4 Cu2 Se10'
_cell_volume   431.03891715
_cell_formula_units_Z   2
loop_
 _symmetry_equiv_pos_site_id
 _symmetry_equiv_pos_as_xyz
  1  'x, y, z'
loop_
 _atom_site_type_symbol
 _atom_site_label
 _atom_site_symmetry_multiplicity
 _atom_site_fract_x
 _atom_site_fract_y
 _atom_site_fract_z
 _atom_site_occupancy
  Na  Na0  1  0.03385000  0.96615000  0.25000000  1
  Na  Na1  1  0.96615000  0.03385000  0.75000000  1
  Hf  Hf2  1  0.20937700  0.79062300  0.90156100  1
  Hf  Hf3  1  0.79062300  0.20937700  0.40156100  1
  Hf  Hf4  1  0.20937700  0.79062300  0.59843900  1
  Hf  Hf5  1  0.79062300  0.20937700  0.09843900  1
  Cu  Cu6  1  0.32254600  0.67745400  0.25000000  1
  Cu  Cu7  1  0.67745400  0.32254600  0.75000000  1
  Se  Se8  1  0.15981700  0.84018300  0.43930400  1
  Se  Se9  1  0.84018300  0.15981700  0.93930400  1
  Se  Se10  1  0.29103600  0.70896400  0.75000000  1
  Se  Se11  1  0.42236200  0.57763800  0.37184800  1
  Se  Se12  1  0.15981700  0.84018300  0.06069600  1
  Se  Se13  1  0.57763800  0.42236200  0.87184800  1
  Se  Se14  1  0.57763800  0.42236200  0.62815200  1
  Se  Se15  1  0.42236200  0.57763800  0.12815200  1
  Se  Se16  1  0.84018300  0.15981700  0.56069600  1
  Se  Se17  1  0.70896400  0.29103600  0.25000000  1
