# generated using pymatgen
data_ZrCl4
_symmetry_space_group_name_H-M   'P 1'
_cell_length_a   7.76045200
_cell_length_b   6.37969400
_cell_length_c   6.72112022
_cell_angle_alpha   71.18066010
_cell_angle_beta   90.00000000
_cell_angle_gamma   90.00000000
_symmetry_Int_Tables_number   1
_chemical_formula_structural   ZrCl4
_chemical_formula_sum   'Zr2 Cl8'
_cell_volume   314.96891650
_cell_formula_units_Z   2
loop_
 _symmetry_equiv_pos_site_id
 _symmetry_equiv_pos_as_xyz
  1  'x, y, z'
loop_
 _atom_site_type_symbol
 _atom_site_label
 _atom_site_symmetry_multiplicity
 _atom_site_fract_x
 _atom_site_fract_y
 _atom_site_fract_z
 _atom_site_occupancy
  Zr  Zr0  1  0.16090200  0.25000000  0.00000000  1
  Zr  Zr1  1  0.83909800  0.75000000  0.00000000  1
  Cl  Cl2  1  0.64564200  0.97090500  0.75352200  1
  Cl  Cl3  1  0.10286900  0.50064100  0.21562800  1
  Cl  Cl4  1  0.89713100  0.49935900  0.78437200  1
  Cl  Cl5  1  0.35435800  0.02909500  0.24647800  1
  Cl  Cl6  1  0.10286900  0.99935900  0.78437200  1
  Cl  Cl7  1  0.35435800  0.47090500  0.75352200  1
  Cl  Cl8  1  0.64564200  0.52909500  0.24647800  1
  Cl  Cl9  1  0.89713100  0.00064100  0.21562800  1
