# generated using pymatgen
data_SmP4HO12
_symmetry_space_group_name_H-M   'P 1'
_cell_length_a   7.28343300
_cell_length_b   8.74468760
_cell_length_c   8.99975908
_cell_angle_alpha   99.46927301
_cell_angle_beta   112.32899943
_cell_angle_gamma   105.93686844
_symmetry_Int_Tables_number   1
_chemical_formula_structural   SmP4HO12
_chemical_formula_sum   'Sm2 P8 H2 O24'
_cell_volume   486.00132340
_cell_formula_units_Z   2
loop_
 _symmetry_equiv_pos_site_id
 _symmetry_equiv_pos_as_xyz
  1  'x, y, z'
loop_
 _atom_site_type_symbol
 _atom_site_label
 _atom_site_symmetry_multiplicity
 _atom_site_fract_x
 _atom_site_fract_y
 _atom_site_fract_z
 _atom_site_occupancy
  Sm  Sm0  1  0.09363500  0.26720200  0.25841600  1
  Sm  Sm1  1  0.90636500  0.73279800  0.74158400  1
  P  P2  1  0.61330600  0.28943400  0.58015500  1
  P  P3  1  0.38669400  0.71056600  0.41984500  1
  P  P4  1  0.06707600  0.37771600  0.65592400  1
  P  P5  1  0.93292400  0.62228400  0.34407600  1
  P  P6  1  0.20997300  0.18576400  0.89446000  1
  P  P7  1  0.79002700  0.81423600  0.10554000  1
  P  P8  1  0.57958800  0.13433400  0.85010600  1
  P  P9  1  0.42041200  0.86566600  0.14989400  1
  H  H10  1  0.49997900  0.86884200  0.74216900  1
  H  H11  1  0.50002100  0.13115800  0.25783100  1
  O  O12  1  0.67514000  0.46181000  0.68837000  1
  O  O13  1  0.32486000  0.53819000  0.31163000  1
  O  O14  1  0.43940100  0.22781500  0.40139800  1
  O  O15  1  0.56059900  0.77218500  0.59860200  1
  O  O16  1  0.54342200  0.15312200  0.66940000  1
  O  O17  1  0.45657800  0.84687800  0.33060000  1
  O  O18  1  0.81661200  0.25805400  0.57037900  1
  O  O19  1  0.18338800  0.74194600  0.42962100  1
  O  O20  1  0.09397700  0.55793400  0.70125700  1
  O  O21  1  0.90602300  0.44206600  0.29874300  1
  O  O22  1  0.15762400  0.31501600  0.54518000  1
  O  O23  1  0.84237600  0.68498400  0.45482000  1
  O  O24  1  0.15977700  0.33753600  0.83235900  1
  O  O25  1  0.84022300  0.66246400  0.16764100  1
  O  O26  1  0.06042400  0.01855900  0.76863200  1
  O  O27  1  0.93957600  0.98144100  0.23136800  1
  O  O28  1  0.23570900  0.21741700  0.07055900  1
  O  O29  1  0.76429100  0.78258300  0.92944100  1
  O  O30  1  0.44832600  0.22619700  0.90680700  1
  O  O31  1  0.55167400  0.77380300  0.09319300  1
  O  O32  1  0.80768400  0.20500700  0.97711800  1
  O  O33  1  0.19231600  0.79499300  0.02288200  1
  O  O34  1  0.45751900  0.94447400  0.81030900  1
  O  O35  1  0.54248100  0.05552600  0.18969100  1
