# generated using pymatgen
data_Tb2Au5F21
_symmetry_space_group_name_H-M   'P 1'
_cell_length_a   8.10804200
_cell_length_b   9.19516219
_cell_length_c   12.14294945
_cell_angle_alpha   89.00942171
_cell_angle_beta   89.22965842
_cell_angle_gamma   89.21856735
_symmetry_Int_Tables_number   1
_chemical_formula_structural   Tb2Au5F21
_chemical_formula_sum   'Tb4 Au10 F42'
_cell_volume   905.01621471
_cell_formula_units_Z   2
loop_
 _symmetry_equiv_pos_site_id
 _symmetry_equiv_pos_as_xyz
  1  'x, y, z'
loop_
 _atom_site_type_symbol
 _atom_site_label
 _atom_site_symmetry_multiplicity
 _atom_site_fract_x
 _atom_site_fract_y
 _atom_site_fract_z
 _atom_site_occupancy
  Tb  Tb0  1  0.67145900  0.31652100  0.49680700  1
  Tb  Tb1  1  0.32854100  0.68347900  0.50319300  1
  Tb  Tb2  1  0.66659100  0.18321300  0.00115100  1
  Tb  Tb3  1  0.33340900  0.81678700  0.99884900  1
  Au  Au4  1  0.17332400  0.27611600  0.59592400  1
  Au  Au5  1  0.82667600  0.72388400  0.40407600  1
  Au  Au6  1  0.55848200  0.51036800  0.79100600  1
  Au  Au7  1  0.44151800  0.48963200  0.20899400  1
  Au  Au8  1  0.83410600  0.77572200  0.09430300  1
  Au  Au9  1  0.16589400  0.22427800  0.90569700  1
  Au  Au10  1  0.44016800  0.01466200  0.29469200  1
  Au  Au11  1  0.55983200  0.98533800  0.70530800  1
  Au  Au12  1  0.02269900  0.25033400  0.24650100  1
  Au  Au13  1  0.97730100  0.74966600  0.75349900  1
  F  F14  1  0.68444000  0.40889000  0.67519100  1
  F  F15  1  0.31556000  0.59111000  0.32480900  1
  F  F16  1  0.86012200  0.25783500  0.12524600  1
  F  F17  1  0.13987800  0.74216500  0.87475400  1
  F  F18  1  0.69987400  0.40279100  0.89601300  1
  F  F19  1  0.30012600  0.59720900  0.10398700  1
  F  F20  1  0.14800200  0.41381600  0.83416800  1
  F  F21  1  0.85199800  0.58618400  0.16583200  1
  F  F22  1  0.66677100  0.09974100  0.81861500  1
  F  F23  1  0.33322900  0.90025900  0.18138500  1
  F  F24  1  0.50000000  0.00000000  0.00000000  1
  F  F25  1  0.52970400  0.12752000  0.41616300  1
  F  F26  1  0.47029600  0.87248000  0.58383700  1
  F  F27  1  0.93152400  0.28113700  0.58291600  1
  F  F28  1  0.06847600  0.71886300  0.41708400  1
  F  F29  1  0.50000000  0.50000000  0.50000000  1
  F  F30  1  0.18996900  0.24434800  0.35944100  1
  F  F31  1  0.81003100  0.75565200  0.64055900  1
  F  F32  1  0.85063900  0.23015700  0.36344600  1
  F  F33  1  0.14936100  0.76984300  0.63655400  1
  F  F34  1  0.82688100  0.51826100  0.45971000  1
  F  F35  1  0.17311900  0.48173900  0.54029000  1
  F  F36  1  0.70012200  0.09131300  0.59822600  1
  F  F37  1  0.29987800  0.90868700  0.40177400  1
  F  F38  1  0.16564200  0.08181100  0.65982500  1
  F  F39  1  0.83435800  0.91818900  0.34017500  1
  F  F40  1  0.58411700  0.73903200  0.39012700  1
  F  F41  1  0.41588300  0.26096800  0.60987300  1
  F  F42  1  0.58770800  0.38450400  0.31147700  1
  F  F43  1  0.41229200  0.61549600  0.68852300  1
  F  F44  1  0.44798500  0.61255100  0.91302100  1
  F  F45  1  0.55201500  0.38744900  0.08697900  1
  F  F46  1  0.17629900  0.02365100  0.97043300  1
  F  F47  1  0.82370100  0.97634900  0.02956700  1
  F  F48  1  0.41733200  0.88054700  0.81160000  1
  F  F49  1  0.58266800  0.11945300  0.18840000  1
  F  F50  1  0.92508300  0.20346800  0.90266000  1
  F  F51  1  0.07491700  0.79653200  0.09734000  1
  F  F52  1  0.40752000  0.25278300  0.90650600  1
  F  F53  1  0.59248000  0.74721700  0.09349400  1
  F  F54  1  0.80095200  0.73316900  0.86270300  1
  F  F55  1  0.19904800  0.26683100  0.13729700  1
