# generated using pymatgen
data_YbGeIr
_symmetry_space_group_name_H-M   'P 1'
_cell_length_a   4.32832100
_cell_length_b   7.18061500
_cell_length_c   7.25167200
_cell_angle_alpha   90.00000000
_cell_angle_beta   90.00000000
_cell_angle_gamma   90.00000000
_symmetry_Int_Tables_number   1
_chemical_formula_structural   YbGeIr
_chemical_formula_sum   'Yb4 Ge4 Ir4'
_cell_volume   225.38201433
_cell_formula_units_Z   4
loop_
 _symmetry_equiv_pos_site_id
 _symmetry_equiv_pos_as_xyz
  1  'x, y, z'
loop_
 _atom_site_type_symbol
 _atom_site_label
 _atom_site_symmetry_multiplicity
 _atom_site_fract_x
 _atom_site_fract_y
 _atom_site_fract_z
 _atom_site_occupancy
  Yb  Yb0  1  0.25000000  0.00298000  0.31803100  1
  Yb  Yb1  1  0.75000000  0.49702000  0.81803100  1
  Yb  Yb2  1  0.75000000  0.99702000  0.68196900  1
  Yb  Yb3  1  0.25000000  0.50298000  0.18196900  1
  Ge  Ge4  1  0.75000000  0.30131400  0.38874400  1
  Ge  Ge5  1  0.25000000  0.19868600  0.88874400  1
  Ge  Ge6  1  0.75000000  0.80131400  0.11125600  1
  Ge  Ge7  1  0.25000000  0.69868600  0.61125600  1
  Ir  Ir8  1  0.25000000  0.34785900  0.56892000  1
  Ir  Ir9  1  0.25000000  0.84785900  0.93108000  1
  Ir  Ir10  1  0.75000000  0.15214100  0.06892000  1
  Ir  Ir11  1  0.75000000  0.65214100  0.43108000  1
