# generated using pymatgen
data_Cs2MnBi2S5
_symmetry_space_group_name_H-M   'P 1'
_cell_length_a   4.19042800
_cell_length_b   16.04103300
_cell_length_c   18.47209300
_cell_angle_alpha   90.00000000
_cell_angle_beta   90.00000000
_cell_angle_gamma   90.00000000
_symmetry_Int_Tables_number   1
_chemical_formula_structural   Cs2MnBi2S5
_chemical_formula_sum   'Cs8 Mn4 Bi8 S20'
_cell_volume   1241.67181101
_cell_formula_units_Z   4
loop_
 _symmetry_equiv_pos_site_id
 _symmetry_equiv_pos_as_xyz
  1  'x, y, z'
loop_
 _atom_site_type_symbol
 _atom_site_label
 _atom_site_symmetry_multiplicity
 _atom_site_fract_x
 _atom_site_fract_y
 _atom_site_fract_z
 _atom_site_occupancy
  Cs  Cs0  1  0.25000000  0.50734700  0.12358800  1
  Cs  Cs1  1  0.75000000  0.53719400  0.38319100  1
  Cs  Cs2  1  0.25000000  0.96280600  0.88319100  1
  Cs  Cs3  1  0.75000000  0.99265300  0.62358800  1
  Cs  Cs4  1  0.75000000  0.49265300  0.87641200  1
  Cs  Cs5  1  0.75000000  0.03719400  0.11680900  1
  Cs  Cs6  1  0.25000000  0.46280600  0.61680900  1
  Cs  Cs7  1  0.25000000  0.00734700  0.37641200  1
  Mn  Mn8  1  0.75000000  0.79169600  0.35444400  1
  Mn  Mn9  1  0.75000000  0.29169600  0.14555600  1
  Mn  Mn10  1  0.25000000  0.20830400  0.64555600  1
  Mn  Mn11  1  0.25000000  0.70830400  0.85444400  1
  Bi  Bi12  1  0.25000000  0.25193900  0.98355300  1
  Bi  Bi13  1  0.75000000  0.24806100  0.48355300  1
  Bi  Bi14  1  0.75000000  0.70854900  0.69784600  1
  Bi  Bi15  1  0.75000000  0.74806100  0.01644700  1
  Bi  Bi16  1  0.25000000  0.79145100  0.19784600  1
  Bi  Bi17  1  0.75000000  0.20854900  0.80215400  1
  Bi  Bi18  1  0.25000000  0.75193900  0.51644700  1
  Bi  Bi19  1  0.25000000  0.29145100  0.30215400  1
  S  S20  1  0.25000000  0.10858100  0.74361900  1
  S  S21  1  0.25000000  0.36401200  0.43881100  1
  S  S22  1  0.25000000  0.86401200  0.06118900  1
  S  S23  1  0.75000000  0.89141900  0.25638100  1
  S  S24  1  0.75000000  0.39141900  0.24361900  1
  S  S25  1  0.75000000  0.78760500  0.84379600  1
  S  S26  1  0.25000000  0.31718200  0.85141100  1
  S  S27  1  0.25000000  0.71239500  0.34379600  1
  S  S28  1  0.75000000  0.68281800  0.14858900  1
  S  S29  1  0.25000000  0.81718200  0.64858900  1
  S  S30  1  0.25000000  0.14135500  0.52928900  1
  S  S31  1  0.25000000  0.21239500  0.15620400  1
  S  S32  1  0.75000000  0.28760500  0.65620400  1
  S  S33  1  0.75000000  0.85864500  0.47071100  1
  S  S34  1  0.75000000  0.63598800  0.56118900  1
  S  S35  1  0.25000000  0.64135500  0.97071100  1
  S  S36  1  0.25000000  0.60858100  0.75638100  1
  S  S37  1  0.75000000  0.13598800  0.93881100  1
  S  S38  1  0.75000000  0.18281800  0.35141100  1
  S  S39  1  0.75000000  0.35864500  0.02928900  1
