# generated using pymatgen
data_CsMo4(PO4)7
_symmetry_space_group_name_H-M   'P 1'
_cell_length_a   9.66643900
_cell_length_b   10.97551261
_cell_length_c   12.75508206
_cell_angle_alpha   94.28753861
_cell_angle_beta   102.54585346
_cell_angle_gamma   104.10624575
_symmetry_Int_Tables_number   1
_chemical_formula_structural   CsMo4(PO4)7
_chemical_formula_sum   'Cs2 Mo8 P14 O56'
_cell_volume   1269.38601838
_cell_formula_units_Z   2
loop_
 _symmetry_equiv_pos_site_id
 _symmetry_equiv_pos_as_xyz
  1  'x, y, z'
loop_
 _atom_site_type_symbol
 _atom_site_label
 _atom_site_symmetry_multiplicity
 _atom_site_fract_x
 _atom_site_fract_y
 _atom_site_fract_z
 _atom_site_occupancy
  Cs  Cs0  1  0.98088800  0.78427800  0.23556700  1
  Cs  Cs1  1  0.01911200  0.21572200  0.76443300  1
  Mo  Mo2  1  0.73053700  0.51853600  0.39700500  1
  Mo  Mo3  1  0.72602200  0.97877400  0.90755500  1
  Mo  Mo4  1  0.26946300  0.48146400  0.60299500  1
  Mo  Mo5  1  0.72381900  0.99186400  0.40385600  1
  Mo  Mo6  1  0.74758600  0.51605000  0.87791800  1
  Mo  Mo7  1  0.27397800  0.02122600  0.09244500  1
  Mo  Mo8  1  0.27618100  0.00813600  0.59614400  1
  Mo  Mo9  1  0.25241400  0.48395000  0.12208200  1
  P  P10  1  0.37254300  0.05587800  0.35808500  1
  P  P11  1  0.09177000  0.69973100  0.97598200  1
  P  P12  1  0.04544400  0.58645300  0.75475200  1
  P  P13  1  0.58141100  0.71520500  0.74240800  1
  P  P14  1  0.41858900  0.28479500  0.25759200  1
  P  P15  1  0.39030000  0.07234000  0.86169600  1
  P  P16  1  0.06062000  0.68879500  0.54680300  1
  P  P17  1  0.95455600  0.41354700  0.24524800  1
  P  P18  1  0.93938000  0.31120500  0.45319700  1
  P  P19  1  0.90823000  0.30026900  0.02401800  1
  P  P20  1  0.62745700  0.94412200  0.64191500  1
  P  P21  1  0.54568000  0.71560600  0.26581600  1
  P  P22  1  0.60970000  0.92766000  0.13830400  1
  P  P23  1  0.45432000  0.28439400  0.73418400  1
  O  O24  1  0.99361500  0.33315500  0.34226600  1
  O  O25  1  0.15386400  0.51596100  0.73253200  1
  O  O26  1  0.90701400  0.50487200  0.77633500  1
  O  O27  1  0.07507800  0.33637700  0.03593400  1
  O  O28  1  0.69313500  0.01626000  0.24417600  1
  O  O29  1  0.30686500  0.98374000  0.75582400  1
  O  O30  1  0.14989900  0.59565800  0.52833000  1
  O  O31  1  0.87822600  0.30222600  0.14479500  1
  O  O32  1  0.34735700  0.36699000  0.70930000  1
  O  O33  1  0.61512800  0.36029100  0.77161500  1
  O  O34  1  0.72428300  0.99028300  0.56512500  1
  O  O35  1  0.45920700  0.94469700  0.09277000  1
  O  O36  1  0.12177400  0.69777400  0.85520500  1
  O  O37  1  0.13446000  0.07648700  0.59384600  1
  O  O38  1  0.15029100  0.82449200  0.55797400  1
  O  O39  1  0.34938100  0.45333200  0.50139100  1
  O  O40  1  0.84970900  0.17550800  0.44202600  1
  O  O41  1  0.16306500  0.60439400  0.03081000  1
  O  O42  1  0.31093600  0.36575700  0.23262000  1
  O  O43  1  0.09298600  0.49512800  0.22366500  1
  O  O44  1  0.40693400  0.21749200  0.83441800  1
  O  O45  1  0.41893700  0.19427200  0.15919500  1
  O  O46  1  0.70087100  0.02800900  0.75256200  1
  O  O47  1  0.54079300  0.05530300  0.90723000  1
  O  O48  1  0.63264200  0.54191400  0.95504900  1
  O  O49  1  0.00638500  0.66684500  0.65773400  1
  O  O50  1  0.29912900  0.97199100  0.24743800  1
  O  O51  1  0.68906400  0.63424300  0.76738000  1
  O  O52  1  0.46585200  0.93552100  0.60177300  1
  O  O53  1  0.83693500  0.39560600  0.96919000  1
  O  O54  1  0.57573800  0.36050000  0.31152200  1
  O  O55  1  0.58106300  0.80572800  0.84080500  1
  O  O56  1  0.11824400  0.06741700  0.09374900  1
  O  O57  1  0.27571700  0.00971700  0.43487500  1
  O  O58  1  0.64285900  0.80192900  0.65676900  1
  O  O59  1  0.86554000  0.92351300  0.40615400  1
  O  O60  1  0.84112500  0.16654600  0.96742700  1
  O  O61  1  0.36735800  0.45808600  0.04495100  1
  O  O62  1  0.65061900  0.54666800  0.49860900  1
  O  O63  1  0.15887500  0.83345400  0.03257300  1
  O  O64  1  0.35714100  0.19807100  0.34323100  1
  O  O65  1  0.92079300  0.66660600  0.45586000  1
  O  O66  1  0.59306600  0.78250800  0.16558200  1
  O  O67  1  0.70883900  0.93728100  0.05943300  1
  O  O68  1  0.56379000  0.81937000  0.35894700  1
  O  O69  1  0.88175600  0.93258300  0.90625100  1
  O  O70  1  0.29116100  0.06271900  0.94056700  1
  O  O71  1  0.84613600  0.48403900  0.26746800  1
  O  O72  1  0.92492200  0.66362300  0.96406600  1
  O  O73  1  0.42426200  0.63950000  0.68847800  1
  O  O74  1  0.85010100  0.40434200  0.47167000  1
  O  O75  1  0.07920700  0.33339400  0.54414000  1
  O  O76  1  0.65264300  0.63301000  0.29070000  1
  O  O77  1  0.53414800  0.06447900  0.39822700  1
  O  O78  1  0.43621000  0.18063000  0.64105300  1
  O  O79  1  0.38487200  0.63970900  0.22838500  1
