# generated using pymatgen
data_NaAuCl4
_symmetry_space_group_name_H-M   'P 1'
_cell_length_a   11.58488100
_cell_length_b   11.60806700
_cell_length_c   21.40548055
_cell_angle_alpha   73.01099086
_cell_angle_beta   90.00000000
_cell_angle_gamma   90.00000000
_symmetry_Int_Tables_number   1
_chemical_formula_structural   NaAuCl4
_chemical_formula_sum   'Na16 Au16 Cl64'
_cell_volume   2752.94948549
_cell_formula_units_Z   16
loop_
 _symmetry_equiv_pos_site_id
 _symmetry_equiv_pos_as_xyz
  1  'x, y, z'
loop_
 _atom_site_type_symbol
 _atom_site_label
 _atom_site_symmetry_multiplicity
 _atom_site_fract_x
 _atom_site_fract_y
 _atom_site_fract_z
 _atom_site_occupancy
  Na  Na0  1  0.38194600  0.61433400  0.30506900  1
  Na  Na1  1  0.38476700  0.30001900  0.94432800  1
  Na  Na2  1  0.11523300  0.30001900  0.44432800  1
  Na  Na3  1  0.87139700  0.26230500  0.94591200  1
  Na  Na4  1  0.11805400  0.61433400  0.80506900  1
  Na  Na5  1  0.88194600  0.38566600  0.19493100  1
  Na  Na6  1  0.37139700  0.73769500  0.55408800  1
  Na  Na7  1  0.88476700  0.69998100  0.55567200  1
  Na  Na8  1  0.12860300  0.73769500  0.05408800  1
  Na  Na9  1  0.61805400  0.38566600  0.69493100  1
  Na  Na10  1  0.16886600  0.10060700  0.80361500  1
  Na  Na11  1  0.33113400  0.10060700  0.30361500  1
  Na  Na12  1  0.61523300  0.69998100  0.05567200  1
  Na  Na13  1  0.66886600  0.89939300  0.69638500  1
  Na  Na14  1  0.62860300  0.26230500  0.44591200  1
  Na  Na15  1  0.83113400  0.89939300  0.19638500  1
  Au  Au16  1  0.71068700  0.09155200  0.31150000  1
  Au  Au17  1  0.37373000  0.37459000  0.55281300  1
  Au  Au18  1  0.61086100  0.07058900  0.05761300  1
  Au  Au19  1  0.98617200  0.39253800  0.70163100  1
  Au  Au20  1  0.12627000  0.37459000  0.05281300  1
  Au  Au21  1  0.51382800  0.39253800  0.20163100  1
  Au  Au22  1  0.01382800  0.60746200  0.29836900  1
  Au  Au23  1  0.78931300  0.09155200  0.81150000  1
  Au  Au24  1  0.28931300  0.90844800  0.68850000  1
  Au  Au25  1  0.38913900  0.92941100  0.94238700  1
  Au  Au26  1  0.48617200  0.60746200  0.79836900  1
  Au  Au27  1  0.11086100  0.92941100  0.44238700  1
  Au  Au28  1  0.62627000  0.62541000  0.44718700  1
  Au  Au29  1  0.87373000  0.62541000  0.94718700  1
  Au  Au30  1  0.88913900  0.07058900  0.55761300  1
  Au  Au31  1  0.21068700  0.90844800  0.18850000  1
  Cl  Cl32  1  0.42754400  0.65679700  0.43788600  1
  Cl  Cl33  1  0.50287900  0.80679100  0.79730500  1
  Cl  Cl34  1  0.87635900  0.26216900  0.48369800  1
  Cl  Cl35  1  0.60395600  0.87954900  0.13268000  1
  Cl  Cl36  1  0.62364100  0.26216900  0.98369800  1
  Cl  Cl37  1  0.15892000  0.57642200  0.37640600  1
  Cl  Cl38  1  0.82383100  0.59481800  0.45357800  1
  Cl  Cl39  1  0.62975600  0.63515500  0.71894100  1
  Cl  Cl40  1  0.76176300  0.28753400  0.81649200  1
  Cl  Cl41  1  0.58906500  0.91651200  0.94481300  1
  Cl  Cl42  1  0.47102800  0.40508600  0.80382100  1
  Cl  Cl43  1  0.88502500  0.52778000  0.86685200  1
  Cl  Cl44  1  0.06759900  0.93380000  0.10933400  1
  Cl  Cl45  1  0.38502500  0.47222000  0.63314800  1
  Cl  Cl46  1  0.41093500  0.08348800  0.05518700  1
  Cl  Cl47  1  0.56759900  0.06620000  0.39066600  1
  Cl  Cl48  1  0.32383100  0.40518200  0.04642200  1
  Cl  Cl49  1  0.57245600  0.34320300  0.56211400  1
  Cl  Cl50  1  0.52897200  0.59491400  0.19617900  1
  Cl  Cl51  1  0.43240100  0.93380000  0.60933400  1
  Cl  Cl52  1  0.39604400  0.12045100  0.86732000  1
  Cl  Cl53  1  0.31887600  0.10283900  0.69389800  1
  Cl  Cl54  1  0.08906500  0.08348800  0.55518700  1
  Cl  Cl55  1  0.81887600  0.89716100  0.80610200  1
  Cl  Cl56  1  0.61497500  0.52778000  0.36685200  1
  Cl  Cl57  1  0.67616900  0.59481800  0.95357800  1
  Cl  Cl58  1  0.11497500  0.47222000  0.13314800  1
  Cl  Cl59  1  0.23823700  0.71246600  0.18350800  1
  Cl  Cl60  1  0.37635900  0.73783100  0.01630200  1
  Cl  Cl61  1  0.63349900  0.71850700  0.53004600  1
  Cl  Cl62  1  0.81095000  0.05608100  0.06074100  1
  Cl  Cl63  1  0.14634400  0.87849000  0.76815000  1
  Cl  Cl64  1  0.92754400  0.34320300  0.06211400  1
  Cl  Cl65  1  0.12364100  0.73783100  0.51630200  1
  Cl  Cl66  1  0.18905000  0.94391900  0.93925900  1
  Cl  Cl67  1  0.86650100  0.71850700  0.03004600  1
  Cl  Cl68  1  0.87024400  0.63515500  0.21894100  1
  Cl  Cl69  1  0.12975600  0.36484500  0.78105900  1
  Cl  Cl70  1  0.85365600  0.12151000  0.23185000  1
  Cl  Cl71  1  0.49712100  0.19320900  0.20269500  1
  Cl  Cl72  1  0.97102800  0.59491400  0.69617900  1
  Cl  Cl73  1  0.37024400  0.36484500  0.28105900  1
  Cl  Cl74  1  0.18112400  0.10283900  0.19389800  1
  Cl  Cl75  1  0.89604400  0.87954900  0.63268000  1
  Cl  Cl76  1  0.65892000  0.42357800  0.12359400  1
  Cl  Cl77  1  0.64634400  0.12151000  0.73185000  1
  Cl  Cl78  1  0.26176300  0.71246600  0.68350800  1
  Cl  Cl79  1  0.02897200  0.40508600  0.30382100  1
  Cl  Cl80  1  0.93240100  0.06620000  0.89066600  1
  Cl  Cl81  1  0.31095000  0.94391900  0.43925900  1
  Cl  Cl82  1  0.73823700  0.28753400  0.31649200  1
  Cl  Cl83  1  0.17616900  0.40518200  0.54642200  1
  Cl  Cl84  1  0.91093500  0.91651200  0.44481300  1
  Cl  Cl85  1  0.35365600  0.87849000  0.26815000  1
  Cl  Cl86  1  0.36650100  0.28149300  0.46995400  1
  Cl  Cl87  1  0.07245600  0.65679700  0.93788600  1
  Cl  Cl88  1  0.34108000  0.57642200  0.87640600  1
  Cl  Cl89  1  0.84108000  0.42357800  0.62359400  1
  Cl  Cl90  1  0.68905000  0.05608100  0.56074100  1
  Cl  Cl91  1  0.10395600  0.12045100  0.36732000  1
  Cl  Cl92  1  0.99712100  0.80679100  0.29730500  1
  Cl  Cl93  1  0.13349900  0.28149300  0.96995400  1
  Cl  Cl94  1  0.00287900  0.19320900  0.70269500  1
  Cl  Cl95  1  0.68112400  0.89716100  0.30610200  1
