# generated using pymatgen
data_Li2Ge7O15
_symmetry_space_group_name_H-M   'P 1'
_cell_length_a   7.46664700
_cell_length_b   9.88425900
_cell_length_c   17.04281700
_cell_angle_alpha   90.00000000
_cell_angle_beta   90.00000000
_cell_angle_gamma   90.00000000
_symmetry_Int_Tables_number   1
_chemical_formula_structural   Li2Ge7O15
_chemical_formula_sum   'Li8 Ge28 O60'
_cell_volume   1257.79862968
_cell_formula_units_Z   4
loop_
 _symmetry_equiv_pos_site_id
 _symmetry_equiv_pos_as_xyz
  1  'x, y, z'
loop_
 _atom_site_type_symbol
 _atom_site_label
 _atom_site_symmetry_multiplicity
 _atom_site_fract_x
 _atom_site_fract_y
 _atom_site_fract_z
 _atom_site_occupancy
  Li  Li0  1  0.50000000  0.75000000  0.74000300  1
  Li  Li1  1  0.00000000  0.25000000  0.75999700  1
  Li  Li2  1  0.50000000  0.25000000  0.25999700  1
  Li  Li3  1  0.00000000  0.75000000  0.24000300  1
  Li  Li4  1  0.00000000  0.50000000  0.50000000  1
  Li  Li5  1  0.50000000  0.50000000  0.00000000  1
  Li  Li6  1  0.50000000  0.00000000  0.00000000  1
  Li  Li7  1  0.00000000  0.00000000  0.50000000  1
  Ge  Ge8  1  0.71404700  0.02784600  0.65561000  1
  Ge  Ge9  1  0.21404700  0.97215400  0.84439000  1
  Ge  Ge10  1  0.78595300  0.52784600  0.84439000  1
  Ge  Ge11  1  0.28595300  0.47215400  0.65561000  1
  Ge  Ge12  1  0.28595300  0.97215400  0.34439000  1
  Ge  Ge13  1  0.78595300  0.02784600  0.15561000  1
  Ge  Ge14  1  0.21404700  0.47215400  0.15561000  1
  Ge  Ge15  1  0.71404700  0.52784600  0.34439000  1
  Ge  Ge16  1  0.71685200  0.46799400  0.65997700  1
  Ge  Ge17  1  0.21685200  0.53200600  0.84002300  1
  Ge  Ge18  1  0.78314800  0.96799400  0.84002300  1
  Ge  Ge19  1  0.28314800  0.03200600  0.65997700  1
  Ge  Ge20  1  0.28314800  0.53200600  0.34002300  1
  Ge  Ge21  1  0.78314800  0.46799400  0.15997700  1
  Ge  Ge22  1  0.21685200  0.03200600  0.15997700  1
  Ge  Ge23  1  0.71685200  0.96799400  0.34002300  1
  Ge  Ge24  1  0.78590900  0.25105600  0.94079400  1
  Ge  Ge25  1  0.28590900  0.74894400  0.55920600  1
  Ge  Ge26  1  0.71409100  0.75105600  0.55920600  1
  Ge  Ge27  1  0.21409100  0.24894400  0.94079400  1
  Ge  Ge28  1  0.21409100  0.74894400  0.05920600  1
  Ge  Ge29  1  0.71409100  0.25105600  0.44079400  1
  Ge  Ge30  1  0.28590900  0.24894400  0.44079400  1
  Ge  Ge31  1  0.78590900  0.75105600  0.05920600  1
  Ge  Ge32  1  0.50000000  0.75000000  0.91315500  1
  Ge  Ge33  1  0.00000000  0.25000000  0.58684500  1
  Ge  Ge34  1  0.50000000  0.25000000  0.08684500  1
  Ge  Ge35  1  0.00000000  0.75000000  0.41315500  1
  O  O36  1  0.85754300  0.33167900  0.50658100  1
  O  O37  1  0.35754300  0.66832100  0.99341900  1
  O  O38  1  0.64245700  0.83167900  0.99341900  1
  O  O39  1  0.14245700  0.16832100  0.50658100  1
  O  O40  1  0.14245700  0.66832100  0.49341900  1
  O  O41  1  0.64245700  0.33167900  0.00658100  1
  O  O42  1  0.35754300  0.16832100  0.00658100  1
  O  O43  1  0.85754300  0.83167900  0.49341900  1
  O  O44  1  0.85500300  0.09130200  0.58290400  1
  O  O45  1  0.35500300  0.90869800  0.91709600  1
  O  O46  1  0.64499700  0.59130200  0.91709600  1
  O  O47  1  0.14499700  0.40869800  0.58290400  1
  O  O48  1  0.14499700  0.90869800  0.41709600  1
  O  O49  1  0.64499700  0.09130200  0.08290400  1
  O  O50  1  0.35500300  0.40869800  0.08290400  1
  O  O51  1  0.85500300  0.59130200  0.41709600  1
  O  O52  1  0.50125400  0.40442800  0.64100200  1
  O  O53  1  0.00125400  0.59557200  0.85899800  1
  O  O54  1  0.99874600  0.90442800  0.85899800  1
  O  O55  1  0.49874600  0.09557200  0.64100200  1
  O  O56  1  0.49874600  0.59557200  0.35899800  1
  O  O57  1  0.99874600  0.40442800  0.14100200  1
  O  O58  1  0.00125400  0.09557200  0.14100200  1
  O  O59  1  0.50125400  0.90442800  0.35899800  1
  O  O60  1  0.86140000  0.33001100  0.66926600  1
  O  O61  1  0.36140000  0.66998900  0.83073400  1
  O  O62  1  0.63860000  0.83001100  0.83073400  1
  O  O63  1  0.13860000  0.16998900  0.66926600  1
  O  O64  1  0.13860000  0.66998900  0.33073400  1
  O  O65  1  0.63860000  0.33001100  0.16926600  1
  O  O66  1  0.36140000  0.16998900  0.16926600  1
  O  O67  1  0.86140000  0.83001100  0.33073400  1
  O  O68  1  0.79984500  0.06367500  0.75093200  1
  O  O69  1  0.29984500  0.93632500  0.74906800  1
  O  O70  1  0.70015500  0.56367500  0.74906800  1
  O  O71  1  0.20015500  0.43632500  0.75093200  1
  O  O72  1  0.20015500  0.93632500  0.24906800  1
  O  O73  1  0.70015500  0.06367500  0.25093200  1
  O  O74  1  0.29984500  0.43632500  0.25093200  1
  O  O75  1  0.79984500  0.56367500  0.24906800  1
  O  O76  1  0.80969100  0.34651200  0.85090500  1
  O  O77  1  0.30969100  0.65348800  0.64909500  1
  O  O78  1  0.69030900  0.84651200  0.64909500  1
  O  O79  1  0.19030900  0.15348800  0.85090500  1
  O  O80  1  0.19030900  0.65348800  0.14909500  1
  O  O81  1  0.69030900  0.34651200  0.35090500  1
  O  O82  1  0.30969100  0.15348800  0.35090500  1
  O  O83  1  0.80969100  0.84651200  0.14909500  1
  O  O84  1  0.70797000  0.08825000  0.91128200  1
  O  O85  1  0.20797000  0.91175000  0.58871800  1
  O  O86  1  0.79203000  0.58825000  0.58871800  1
  O  O87  1  0.29203000  0.41175000  0.91128200  1
  O  O88  1  0.29203000  0.91175000  0.08871800  1
  O  O89  1  0.79203000  0.08825000  0.41128200  1
  O  O90  1  0.20797000  0.41175000  0.41128200  1
  O  O91  1  0.70797000  0.58825000  0.08871800  1
  O  O92  1  0.50000000  0.75000000  0.51584700  1
  O  O93  1  0.00000000  0.25000000  0.98415300  1
  O  O94  1  0.50000000  0.25000000  0.48415300  1
  O  O95  1  0.00000000  0.75000000  0.01584700  1
