# generated using pymatgen
data_Ca51W12N56O3
_symmetry_space_group_name_H-M   'P 1'
_cell_length_a   10.61206300
_cell_length_b   12.49080486
_cell_length_c   16.09527539
_cell_angle_alpha   102.82375582
_cell_angle_beta   95.08103629
_cell_angle_gamma   109.86654530
_symmetry_Int_Tables_number   1
_chemical_formula_structural   Ca51W12N56O3
_chemical_formula_sum   'Ca51 W12 N56 O3'
_cell_volume   1924.92470162
_cell_formula_units_Z   1
loop_
 _symmetry_equiv_pos_site_id
 _symmetry_equiv_pos_as_xyz
  1  'x, y, z'
loop_
 _atom_site_type_symbol
 _atom_site_label
 _atom_site_symmetry_multiplicity
 _atom_site_fract_x
 _atom_site_fract_y
 _atom_site_fract_z
 _atom_site_occupancy
  Ca  Ca0  1  0.47179800  0.52296400  0.40134700  1
  Ca  Ca1  1  0.93087600  0.17398200  0.16216200  1
  Ca  Ca2  1  0.40621700  0.76489300  0.37210700  1
  Ca  Ca3  1  0.54122700  0.39365900  0.02157700  1
  Ca  Ca4  1  0.43742300  0.67829300  0.78479300  1
  Ca  Ca5  1  0.45877300  0.60634100  0.97842300  1
  Ca  Ca6  1  0.28760600  0.13577300  0.71699700  1
  Ca  Ca7  1  0.69317500  0.95759500  0.87805800  1
  Ca  Ca8  1  0.36152000  0.90449400  0.74793900  1
  Ca  Ca9  1  0.76686000  0.72119700  0.90381100  1
  Ca  Ca10  1  0.63848000  0.09550600  0.25206100  1
  Ca  Ca11  1  0.30682500  0.04240500  0.12194200  1
  Ca  Ca12  1  0.35560400  0.85627200  0.94588700  1
  Ca  Ca13  1  0.52820200  0.47703600  0.59865300  1
  Ca  Ca14  1  0.08844200  0.69432600  0.25406700  1
  Ca  Ca15  1  0.75395400  0.77338600  0.70712800  1
  Ca  Ca16  1  0.01334900  0.94929700  0.20056100  1
  Ca  Ca17  1  0.23314000  0.27880300  0.09618900  1
  Ca  Ca18  1  0.03050800  0.88016000  0.41475700  1
  Ca  Ca19  1  0.89964700  0.36849100  0.33116300  1
  Ca  Ca20  1  0.64430000  0.03582900  0.45570800  1
  Ca  Ca21  1  0.64439600  0.14372800  0.05411300  1
  Ca  Ca22  1  0.21995800  0.32962600  0.90291300  1
  Ca  Ca23  1  0.67773800  0.02106900  0.67167500  1
  Ca  Ca24  1  0.39861500  0.80579300  0.16899300  1
  Ca  Ca25  1  0.51970400  0.43040700  0.82015800  1
  Ca  Ca26  1  0.26312400  0.19326500  0.50588500  1
  Ca  Ca27  1  0.60138500  0.19420700  0.83100700  1
  Ca  Ca28  1  0.85620800  0.41891100  0.14269000  1
  Ca  Ca29  1  0.48029600  0.56959300  0.17984200  1
  Ca  Ca30  1  0.24604600  0.22661400  0.29287200  1
  Ca  Ca31  1  0.88139100  0.34020300  0.54256300  1
  Ca  Ca32  1  0.15845500  0.51216800  0.06533200  1
  Ca  Ca33  1  0.35570000  0.96417100  0.54429200  1
  Ca  Ca34  1  0.91155800  0.30567400  0.74593300  1
  Ca  Ca35  1  0.84154500  0.48783200  0.93466800  1
  Ca  Ca36  1  0.14379200  0.58108900  0.85731000  1
  Ca  Ca37  1  0.11860900  0.65979700  0.45743700  1
  Ca  Ca38  1  0.73687600  0.80673500  0.49411500  1
  Ca  Ca39  1  0.59378300  0.23510700  0.62789300  1
  Ca  Ca40  1  0.18670100  0.45665600  0.51532700  1
  Ca  Ca41  1  0.96949200  0.11984000  0.58524300  1
  Ca  Ca42  1  0.98665100  0.05070300  0.79943900  1
  Ca  Ca43  1  0.06912400  0.82601800  0.83783800  1
  Ca  Ca44  1  0.71239400  0.86422700  0.28300300  1
  Ca  Ca45  1  0.56257700  0.32170700  0.21520700  1
  Ca  Ca46  1  0.32226200  0.97893100  0.32832500  1
  Ca  Ca47  1  0.00000000  0.00000000  0.00000000  1
  Ca  Ca48  1  0.81329900  0.54334400  0.48467300  1
  Ca  Ca49  1  0.78004200  0.67037400  0.09708700  1
  Ca  Ca50  1  0.10035300  0.63150900  0.66883700  1
  W  W51  1  0.90904200  0.25670400  0.92814600  1
  W  W52  1  0.96820700  0.09742900  0.38435500  1
  W  W53  1  0.22759500  0.48672300  0.26482900  1
  W  W54  1  0.37254700  0.11750100  0.94364300  1
  W  W55  1  0.47785600  0.75624600  0.59078400  1
  W  W56  1  0.77240500  0.51327700  0.73517100  1
  W  W57  1  0.22053100  0.37583000  0.71446300  1
  W  W58  1  0.09095800  0.74329600  0.07185400  1
  W  W59  1  0.77946900  0.62417000  0.28553700  1
  W  W60  1  0.03179300  0.90257100  0.61564500  1
  W  W61  1  0.62745300  0.88249900  0.05635700  1
  W  W62  1  0.52214400  0.24375400  0.40921600  1
  N  N63  1  0.55573000  0.79251200  0.93761800  1
  N  N64  1  0.14541100  0.01871200  0.56580300  1
  N  N65  1  0.49380000  0.04276800  0.90513700  1
  N  N66  1  0.05765100  0.38664400  0.19592500  1
  N  N67  1  0.98640800  0.60293500  0.09943800  1
  N  N68  1  0.76106300  0.46696700  0.61287100  1
  N  N69  1  0.23893700  0.53303300  0.38712900  1
  N  N70  1  0.09504900  0.43341800  0.66576600  1
  N  N71  1  0.80880600  0.14445900  0.81911800  1
  N  N72  1  0.64242700  0.58755700  0.75212700  1
  N  N73  1  0.78084800  0.30158200  0.99078600  1
  N  N74  1  0.70785300  0.37168200  0.77342400  1
  N  N75  1  0.53501800  0.87317000  0.52618200  1
  N  N76  1  0.34795900  0.33811300  0.64661600  1
  N  N77  1  0.65188800  0.54373000  0.95751300  1
  N  N78  1  0.44427000  0.20748800  0.06238200  1
  N  N79  1  0.86740500  0.88620400  0.84568000  1
  N  N80  1  0.55891200  0.83469200  0.71008600  1
  N  N81  1  0.43317100  0.35076400  0.44851600  1
  N  N82  1  0.04018100  0.20226900  0.97302300  1
  N  N83  1  0.61397500  0.76941100  0.12485900  1
  N  N84  1  0.67981900  0.51437700  0.17609000  1
  N  N85  1  0.12142100  0.05490800  0.36029000  1
  N  N86  1  0.56682900  0.64923600  0.55148400  1
  N  N87  1  0.29214700  0.62831800  0.22657600  1
  N  N88  1  0.52195500  0.91846100  0.31506800  1
  N  N89  1  0.21442500  0.99409900  0.95152800  1
  N  N90  1  0.44108800  0.16530800  0.28991400  1
  N  N91  1  0.50620000  0.95723200  0.09486300  1
  N  N92  1  0.78557500  0.00590100  0.04847200  1
  N  N93  1  0.65204100  0.66188700  0.35338400  1
  N  N94  1  0.95867400  0.75395000  0.52947000  1
  N  N95  1  0.21915200  0.69841800  0.00921400  1
  N  N96  1  0.35757300  0.41244300  0.24787300  1
  N  N97  1  0.88733900  0.76571600  0.26064700  1
  N  N98  1  0.01359200  0.39706500  0.90056200  1
  N  N99  1  0.74232600  0.25879000  0.19729900  1
  N  N100  1  0.87857900  0.94509200  0.63971000  1
  N  N101  1  0.32018100  0.48562300  0.82391000  1
  N  N102  1  0.38602500  0.23058900  0.87514100  1
  N  N103  1  0.47804500  0.08153900  0.68493200  1
  N  N104  1  0.46498200  0.12683000  0.47381800  1
  N  N105  1  0.90495100  0.56658200  0.33423400  1
  N  N106  1  0.25767400  0.74121000  0.80270100  1
  N  N107  1  0.19119400  0.85554100  0.18088200  1
  N  N108  1  0.34811200  0.45627000  0.04248700  1
  N  N109  1  0.94234900  0.61335600  0.80407500  1
  N  N110  1  0.11266100  0.23428400  0.73935300  1
  N  N111  1  0.71244100  0.30689900  0.41406400  1
  N  N112  1  0.13259500  0.11379600  0.15432000  1
  N  N113  1  0.95981900  0.79773100  0.02697700  1
  N  N114  1  0.28755900  0.69310100  0.58593600  1
  N  N115  1  0.13533700  0.92072500  0.72292800  1
  N  N116  1  0.86466300  0.07927500  0.27707200  1
  N  N117  1  0.85458900  0.98128800  0.43419700  1
  N  N118  1  0.04132600  0.24605000  0.47053000  1
  O  O119  1  0.78209300  0.17729700  0.60507000  1
  O  O120  1  0.00000000  0.50000000  0.50000000  1
  O  O121  1  0.21790700  0.82270300  0.39493000  1
