# generated using pymatgen
data_CsZr6CI14
_symmetry_space_group_name_H-M   'P 1'
_cell_length_a   11.03992870
_cell_length_b   11.03992870
_cell_length_c   13.22130100
_cell_angle_alpha   90.00000000
_cell_angle_beta   90.00000000
_cell_angle_gamma   93.90787412
_symmetry_Int_Tables_number   1
_chemical_formula_structural   CsZr6CI14
_chemical_formula_sum   'Cs2 Zr12 C2 I28'
_cell_volume   1607.66584564
_cell_formula_units_Z   2
loop_
 _symmetry_equiv_pos_site_id
 _symmetry_equiv_pos_as_xyz
  1  'x, y, z'
loop_
 _atom_site_type_symbol
 _atom_site_label
 _atom_site_symmetry_multiplicity
 _atom_site_fract_x
 _atom_site_fract_y
 _atom_site_fract_z
 _atom_site_occupancy
  Cs  Cs0  1  0.00000000  0.00000000  0.00000000  1
  Cs  Cs1  1  0.50000000  0.50000000  0.50000000  1
  Zr  Zr2  1  0.45712000  0.66379000  0.89424500  1
  Zr  Zr3  1  0.04288000  0.83621000  0.39424500  1
  Zr  Zr4  1  0.66379000  0.45712000  0.89424500  1
  Zr  Zr5  1  0.62553300  0.62553300  0.09331100  1
  Zr  Zr6  1  0.83621000  0.04288000  0.39424500  1
  Zr  Zr7  1  0.87446700  0.87446700  0.59331100  1
  Zr  Zr8  1  0.54288000  0.33621000  0.10575500  1
  Zr  Zr9  1  0.12553300  0.12553300  0.40668900  1
  Zr  Zr10  1  0.33621000  0.54288000  0.10575500  1
  Zr  Zr11  1  0.16379000  0.95712000  0.60575500  1
  Zr  Zr12  1  0.95712000  0.16379000  0.60575500  1
  Zr  Zr13  1  0.37446700  0.37446700  0.90668900  1
  C  C14  1  0.50000000  0.50000000  0.00000000  1
  C  C15  1  0.00000000  0.00000000  0.50000000  1
  I  I16  1  0.71122100  0.46456800  0.24559700  1
  I  I17  1  0.10888200  0.35682600  0.50682400  1
  I  I18  1  0.96456800  0.21122100  0.25440300  1
  I  I19  1  0.39111800  0.14317400  0.00682400  1
  I  I20  1  0.64317400  0.89111800  0.49317600  1
  I  I21  1  0.28877900  0.53543200  0.75440300  1
  I  I22  1  0.46456800  0.71122100  0.24559700  1
  I  I23  1  0.78877900  0.03543200  0.74559700  1
  I  I24  1  0.34866300  0.34866200  0.25654400  1
  I  I25  1  0.15133700  0.15133700  0.75654400  1
  I  I26  1  0.53543200  0.28877900  0.75440300  1
  I  I27  1  0.03543200  0.78877900  0.74559700  1
  I  I28  1  0.60624700  0.10624700  0.25000000  1
  I  I29  1  0.10624700  0.60624700  0.25000000  1
  I  I30  1  0.74917000  0.25083000  0.00000000  1
  I  I31  1  0.75083000  0.24917000  0.50000000  1
  I  I32  1  0.65133700  0.65133700  0.74345600  1
  I  I33  1  0.84866300  0.84866200  0.24345600  1
  I  I34  1  0.39375300  0.89375300  0.75000000  1
  I  I35  1  0.89111800  0.64317400  0.49317600  1
  I  I36  1  0.60888200  0.85682600  0.99317600  1
  I  I37  1  0.14317400  0.39111800  0.00682400  1
  I  I38  1  0.21122100  0.96456800  0.25440300  1
  I  I39  1  0.89375300  0.39375300  0.75000000  1
  I  I40  1  0.25083000  0.74917000  0.00000000  1
  I  I41  1  0.85682600  0.60888200  0.99317600  1
  I  I42  1  0.24917000  0.75083000  0.50000000  1
  I  I43  1  0.35682600  0.10888200  0.50682400  1
