# generated using pymatgen
data_Eu6Mo10O39
_symmetry_space_group_name_H-M   'P 1'
_cell_length_a   11.98834786
_cell_length_b   11.98834660
_cell_length_c   14.26968387
_cell_angle_alpha   96.27483973
_cell_angle_beta   96.27483912
_cell_angle_gamma   116.25622830
_symmetry_Int_Tables_number   1
_chemical_formula_structural   Eu6Mo10O39
_chemical_formula_sum   'Eu12 Mo20 O78'
_cell_volume   1799.41453068
_cell_formula_units_Z   2
loop_
 _symmetry_equiv_pos_site_id
 _symmetry_equiv_pos_as_xyz
  1  'x, y, z'
loop_
 _atom_site_type_symbol
 _atom_site_label
 _atom_site_symmetry_multiplicity
 _atom_site_fract_x
 _atom_site_fract_y
 _atom_site_fract_z
 _atom_site_occupancy
  Eu  Eu0  1  0.71106682  0.03044139  0.35748466  1
  Eu  Eu1  1  0.05949538  0.75896445  0.41263827  1
  Eu  Eu2  1  0.94050462  0.24103555  0.58736173  1
  Eu  Eu3  1  0.47897873  0.36134771  0.41531220  1
  Eu  Eu4  1  0.63865229  0.52102127  0.08468780  1
  Eu  Eu5  1  0.52102127  0.63865229  0.58468780  1
  Eu  Eu6  1  0.03044139  0.71106682  0.85748466  1
  Eu  Eu7  1  0.24103555  0.94050462  0.08736173  1
  Eu  Eu8  1  0.75896445  0.05949538  0.91263827  1
  Eu  Eu9  1  0.96955861  0.28893318  0.14251534  1
  Eu  Eu10  1  0.36134771  0.47897873  0.91531220  1
  Eu  Eu11  1  0.28893318  0.96955861  0.64251534  1
  Mo  Mo12  1  0.74123246  0.43286071  0.66176455  1
  Mo  Mo13  1  0.89327270  0.93743749  0.13619881  1
  Mo  Mo14  1  0.10672730  0.06256251  0.86380119  1
  Mo  Mo15  1  0.99696682  0.61932377  0.11802816  1
  Mo  Mo16  1  0.68740250  0.68415258  0.36086646  1
  Mo  Mo17  1  0.43286071  0.74123246  0.16176455  1
  Mo  Mo18  1  0.38328272  0.81949400  0.86159451  1
  Mo  Mo19  1  0.61671728  0.18050600  0.13840549  1
  Mo  Mo20  1  0.00303318  0.38067623  0.88197184  1
  Mo  Mo21  1  0.68415258  0.68740250  0.86086646  1
  Mo  Mo22  1  0.31259750  0.31584742  0.63913354  1
  Mo  Mo23  1  0.31584742  0.31259750  0.13913354  1
  Mo  Mo24  1  0.25876754  0.56713929  0.33823545  1
  Mo  Mo25  1  0.93743749  0.89327270  0.63619881  1
  Mo  Mo26  1  0.61932377  0.99696682  0.61802816  1
  Mo  Mo27  1  0.81949400  0.38328272  0.36159451  1
  Mo  Mo28  1  0.38067623  0.00303318  0.38197184  1
  Mo  Mo29  1  0.06256251  0.10672730  0.36380119  1
  Mo  Mo30  1  0.56713929  0.25876754  0.83823545  1
  Mo  Mo31  1  0.18050600  0.61671728  0.63840549  1
  O  O32  1  0.02386622  0.70407907  0.23540975  1
  O  O33  1  0.87199369  0.58217441  0.70631526  1
  O  O34  1  0.63068434  0.61676447  0.23618864  1
  O  O35  1  0.70698773  0.84419670  0.88826306  1
  O  O36  1  0.29592093  0.97613378  0.26459025  1
  O  O37  1  0.41602701  0.41668916  0.06425055  1
  O  O38  1  0.05891411  0.46513076  0.58205353  1
  O  O39  1  0.15580330  0.29301227  0.61173694  1
  O  O40  1  0.26555806  0.82700146  0.92888566  1
  O  O41  1  0.32712048  0.60818374  0.64287581  1
  O  O42  1  0.96149675  0.12772057  0.44195005  1
  O  O43  1  0.02337079  0.14528091  0.24105072  1
  O  O44  1  0.72676995  0.06719564  0.53537950  1
  O  O45  1  0.64323242  0.14530746  0.25747933  1
  O  O46  1  0.68830323  0.83306677  0.38483493  1
  O  O47  1  0.73444194  0.17299854  0.07111434  1
  O  O48  1  0.55905553  0.34448730  0.94365616  1
  O  O49  1  0.49423150  0.94390335  0.37891875  1
  O  O50  1  0.22083117  0.22193023  0.90527550  1
  O  O51  1  0.22193023  0.22083117  0.40527550  1
  O  O52  1  0.44094447  0.65551270  0.05634384  1
  O  O53  1  0.17299854  0.73444194  0.57111434  1
  O  O54  1  0.29301227  0.15580330  0.11173694  1
  O  O55  1  0.61676447  0.63068434  0.73618864  1
  O  O56  1  0.50576850  0.05609665  0.62108125  1
  O  O57  1  0.93280436  0.27323005  0.96462050  1
  O  O58  1  0.94390335  0.49423150  0.87891875  1
  O  O59  1  0.41782559  0.12800631  0.79368474  1
  O  O60  1  0.39181626  0.67287952  0.85712419  1
  O  O61  1  0.36931566  0.38323553  0.76381136  1
  O  O62  1  0.12772057  0.96149675  0.94195005  1
  O  O63  1  0.83306677  0.68830323  0.88483493  1
  O  O64  1  0.37214854  0.62785146  0.25000000  1
  O  O65  1  0.83074472  0.53302071  0.07569152  1
  O  O66  1  0.93893572  0.04140085  0.63561652  1
  O  O67  1  0.53302071  0.83074472  0.57569152  1
  O  O68  1  0.85469254  0.35676758  0.24252067  1
  O  O69  1  0.16693323  0.31169677  0.11516507  1
  O  O70  1  0.58217441  0.87199369  0.20631526  1
  O  O71  1  0.31169677  0.16693323  0.61516507  1
  O  O72  1  0.82700146  0.26555806  0.42888566  1
  O  O73  1  0.77806977  0.77916883  0.59472450  1
  O  O74  1  0.87227943  0.03850325  0.05804995  1
  O  O75  1  0.97662921  0.85471909  0.75894928  1
  O  O76  1  0.38323553  0.36931566  0.26381136  1
  O  O77  1  0.77916883  0.77806977  0.09472450  1
  O  O78  1  0.14530746  0.64323242  0.75747933  1
  O  O79  1  0.60818374  0.32712048  0.14287581  1
  O  O80  1  0.05609665  0.50576850  0.12108125  1
  O  O81  1  0.65551270  0.44094447  0.55634384  1
  O  O82  1  0.20339368  0.67819336  0.36706782  1
  O  O83  1  0.58331084  0.58397299  0.43574945  1
  O  O84  1  0.67287952  0.39181626  0.35712419  1
  O  O85  1  0.97613378  0.29592093  0.76459025  1
  O  O86  1  0.03850325  0.87227943  0.55804995  1
  O  O87  1  0.06106428  0.95859915  0.36438348  1
  O  O88  1  0.70407907  0.02386622  0.73540975  1
  O  O89  1  0.34448730  0.55905553  0.44365616  1
  O  O90  1  0.62785146  0.37214854  0.75000000  1
  O  O91  1  0.06719564  0.72676995  0.03537950  1
  O  O92  1  0.79660632  0.32180664  0.63293218  1
  O  O93  1  0.53486924  0.94108589  0.91794647  1
  O  O94  1  0.46513076  0.05891411  0.08205353  1
  O  O95  1  0.58397299  0.58331084  0.93574945  1
  O  O96  1  0.95859915  0.06106428  0.86438348  1
  O  O97  1  0.67819336  0.20339368  0.86706782  1
  O  O98  1  0.35676758  0.85469254  0.74252067  1
  O  O99  1  0.12800631  0.41782559  0.29368474  1
  O  O100  1  0.46697929  0.16925528  0.42430848  1
  O  O101  1  0.41668916  0.41602701  0.56425055  1
  O  O102  1  0.85471909  0.97662921  0.25894928  1
  O  O103  1  0.84419670  0.70698773  0.38826306  1
  O  O104  1  0.14528091  0.02337079  0.74105072  1
  O  O105  1  0.94108589  0.53486924  0.41794647  1
  O  O106  1  0.27323005  0.93280436  0.46462050  1
  O  O107  1  0.16925528  0.46697929  0.92430848  1
  O  O108  1  0.04140085  0.93893572  0.13561652  1
  O  O109  1  0.32180664  0.79660632  0.13293218  1
