# generated using pymatgen
data_Sc7CoI12
_symmetry_space_group_name_H-M   'P 1'
_cell_length_a   9.43376476
_cell_length_b   9.43376476
_cell_length_c   9.43376521
_cell_angle_alpha   107.28977280
_cell_angle_beta   107.28977280
_cell_angle_gamma   107.28977056
_symmetry_Int_Tables_number   1
_chemical_formula_structural   Sc7CoI12
_chemical_formula_sum   'Sc7 Co1 I12'
_cell_volume   693.59794622
_cell_formula_units_Z   1
loop_
 _symmetry_equiv_pos_site_id
 _symmetry_equiv_pos_as_xyz
  1  'x, y, z'
loop_
 _atom_site_type_symbol
 _atom_site_label
 _atom_site_symmetry_multiplicity
 _atom_site_fract_x
 _atom_site_fract_y
 _atom_site_fract_z
 _atom_site_occupancy
  Sc  Sc0  1  0.50000000  0.50000000  0.50000000  1
  Sc  Sc1  1  0.97739700  0.91194100  0.72104700  1
  Sc  Sc2  1  0.72104700  0.97739700  0.91194100  1
  Sc  Sc3  1  0.91194100  0.72104700  0.97739700  1
  Sc  Sc4  1  0.02260300  0.08805900  0.27895300  1
  Sc  Sc5  1  0.27895300  0.02260300  0.08805900  1
  Sc  Sc6  1  0.08805900  0.27895300  0.02260300  1
  Co  Co7  1  0.00000000  0.00000000  0.00000000  1
  I  I8  1  0.07159400  0.22142300  0.68720300  1
  I  I9  1  0.68720300  0.07159400  0.22142300  1
  I  I10  1  0.22142300  0.68720300  0.07159400  1
  I  I11  1  0.92840600  0.77857700  0.31279700  1
  I  I12  1  0.31279700  0.92840600  0.77857700  1
  I  I13  1  0.77857700  0.31279700  0.92840600  1
  I  I14  1  0.61735000  0.83956500  0.54500600  1
  I  I15  1  0.54500600  0.61735000  0.83956500  1
  I  I16  1  0.83956500  0.54500600  0.61735000  1
  I  I17  1  0.38265000  0.16043500  0.45499400  1
  I  I18  1  0.45499400  0.38265000  0.16043500  1
  I  I19  1  0.16043500  0.45499400  0.38265000  1
