# generated using pymatgen
data_AgHg2AsO4
_symmetry_space_group_name_H-M   'P 1'
_cell_length_a   6.37460900
_cell_length_b   8.97024300
_cell_length_c   9.85701000
_cell_angle_alpha   90.00000000
_cell_angle_beta   90.00000000
_cell_angle_gamma   90.00000000
_symmetry_Int_Tables_number   1
_chemical_formula_structural   AgHg2AsO4
_chemical_formula_sum   'Ag4 Hg8 As4 O16'
_cell_volume   563.64149320
_cell_formula_units_Z   4
loop_
 _symmetry_equiv_pos_site_id
 _symmetry_equiv_pos_as_xyz
  1  'x, y, z'
loop_
 _atom_site_type_symbol
 _atom_site_label
 _atom_site_symmetry_multiplicity
 _atom_site_fract_x
 _atom_site_fract_y
 _atom_site_fract_z
 _atom_site_occupancy
  Ag  Ag0  1  0.50000000  0.02961300  0.85629400  1
  Ag  Ag1  1  0.50000000  0.47038700  0.35629400  1
  Ag  Ag2  1  0.50000000  0.52961300  0.64370600  1
  Ag  Ag3  1  0.50000000  0.97038700  0.14370600  1
  Hg  Hg4  1  0.28853300  0.74191100  0.46800000  1
  Hg  Hg5  1  0.71146700  0.25808900  0.53200000  1
  Hg  Hg6  1  0.28853300  0.24191100  0.03200000  1
  Hg  Hg7  1  0.28853300  0.25808900  0.53200000  1
  Hg  Hg8  1  0.71146700  0.24191100  0.03200000  1
  Hg  Hg9  1  0.71146700  0.75808900  0.96800000  1
  Hg  Hg10  1  0.28853300  0.75808900  0.96800000  1
  Hg  Hg11  1  0.71146700  0.74191100  0.46800000  1
  As  As12  1  0.00000000  0.96236300  0.71239900  1
  As  As13  1  0.00000000  0.46236300  0.78760100  1
  As  As14  1  0.00000000  0.03763700  0.28760100  1
  As  As15  1  0.00000000  0.53763700  0.21240000  1
  O  O16  1  0.00000000  0.67558300  0.08730100  1
  O  O17  1  0.23208900  0.44044400  0.19599800  1
  O  O18  1  0.00000000  0.88316100  0.87252600  1
  O  O19  1  0.00000000  0.38316100  0.62747400  1
  O  O20  1  0.00000000  0.32441700  0.91269900  1
  O  O21  1  0.23208900  0.55955600  0.80400200  1
  O  O22  1  0.00000000  0.11683900  0.12747400  1
  O  O23  1  0.23208900  0.94044400  0.30400200  1
  O  O24  1  0.00000000  0.61683900  0.37252600  1
  O  O25  1  0.23208900  0.05955600  0.69599800  1
  O  O26  1  0.76791100  0.05955600  0.69599800  1
  O  O27  1  0.00000000  0.17558300  0.41269900  1
  O  O28  1  0.76791100  0.44044400  0.19599800  1
  O  O29  1  0.00000000  0.82441700  0.58730100  1
  O  O30  1  0.76791100  0.55955600  0.80400200  1
  O  O31  1  0.76791100  0.94044400  0.30400200  1
