# generated using pymatgen
data_SiMoP3O11
_symmetry_space_group_name_H-M   'P 1'
_cell_length_a   14.46379345
_cell_length_b   14.46379345
_cell_length_c   14.46379319
_cell_angle_alpha   34.73670491
_cell_angle_beta   34.73670491
_cell_angle_gamma   34.73670456
_symmetry_Int_Tables_number   1
_chemical_formula_structural   SiMoP3O11
_chemical_formula_sum   'Si4 Mo4 P12 O44'
_cell_volume   876.79792427
_cell_formula_units_Z   4
loop_
 _symmetry_equiv_pos_site_id
 _symmetry_equiv_pos_as_xyz
  1  'x, y, z'
loop_
 _atom_site_type_symbol
 _atom_site_label
 _atom_site_symmetry_multiplicity
 _atom_site_fract_x
 _atom_site_fract_y
 _atom_site_fract_z
 _atom_site_occupancy
  Si  Si0  1  0.96075400  0.96075400  0.96075400  1
  Si  Si1  1  0.46075400  0.46075400  0.46075400  1
  Si  Si2  1  0.53924600  0.53924600  0.53924600  1
  Si  Si3  1  0.03924600  0.03924600  0.03924600  1
  Mo  Mo4  1  0.84050800  0.84050800  0.84050800  1
  Mo  Mo5  1  0.65949200  0.65949200  0.65949200  1
  Mo  Mo6  1  0.15949200  0.15949200  0.15949200  1
  Mo  Mo7  1  0.34050800  0.34050800  0.34050800  1
  P  P8  1  0.21946400  0.51138700  0.91121300  1
  P  P9  1  0.01138700  0.71946400  0.41121300  1
  P  P10  1  0.51138700  0.91121300  0.21946400  1
  P  P11  1  0.28053600  0.58878700  0.98861300  1
  P  P12  1  0.98861300  0.28053600  0.58878700  1
  P  P13  1  0.58878700  0.98861300  0.28053600  1
  P  P14  1  0.91121300  0.21946400  0.51138700  1
  P  P15  1  0.71946400  0.41121300  0.01138700  1
  P  P16  1  0.08878700  0.78053600  0.48861300  1
  P  P17  1  0.78053600  0.48861300  0.08878700  1
  P  P18  1  0.48861300  0.08878700  0.78053600  1
  P  P19  1  0.41121300  0.01138700  0.71946400  1
  O  O20  1  0.52703800  0.43892700  0.15247100  1
  O  O21  1  0.96039900  0.28102700  0.33110700  1
  O  O22  1  0.65247100  0.93892700  0.02703800  1
  O  O23  1  0.03960100  0.71897300  0.66889300  1
  O  O24  1  0.35797900  0.59202100  0.70811900  1
  O  O25  1  0.34752900  0.06107300  0.97296200  1
  O  O26  1  0.97296200  0.34752900  0.06107300  1
  O  O27  1  0.47296200  0.56107300  0.84752900  1
  O  O28  1  0.28102700  0.33110700  0.96039900  1
  O  O29  1  0.52788800  0.97211200  0.75000000  1
  O  O30  1  0.79188100  0.90797900  0.14202100  1
  O  O31  1  0.47211200  0.02788800  0.25000000  1
  O  O32  1  0.43892700  0.15247100  0.52703800  1
  O  O33  1  0.15247100  0.52703800  0.43892700  1
  O  O34  1  0.64202100  0.40797900  0.29188100  1
  O  O35  1  0.02703800  0.65247100  0.93892700  1
  O  O36  1  0.09202100  0.85797900  0.20811900  1
  O  O37  1  0.40797900  0.29188100  0.64202100  1
  O  O38  1  0.46039900  0.83110700  0.78102700  1
  O  O39  1  0.53960100  0.16889300  0.21897300  1
  O  O40  1  0.33110700  0.96039900  0.28102700  1
  O  O41  1  0.25000000  0.47211200  0.02788800  1
  O  O42  1  0.85797900  0.20811900  0.09202100  1
  O  O43  1  0.71897300  0.66889300  0.03960100  1
  O  O44  1  0.56107300  0.84752900  0.47296200  1
  O  O45  1  0.78102700  0.46039900  0.83110700  1
  O  O46  1  0.93892700  0.02703800  0.65247100  1
  O  O47  1  0.97211200  0.75000000  0.52788800  1
  O  O48  1  0.29188100  0.64202100  0.40797900  1
  O  O49  1  0.66889300  0.03960100  0.71897300  1
  O  O50  1  0.21897300  0.53960100  0.16889300  1
  O  O51  1  0.75000000  0.52788800  0.97211200  1
  O  O52  1  0.16889300  0.21897300  0.53960100  1
  O  O53  1  0.02788800  0.25000000  0.47211200  1
  O  O54  1  0.00000000  0.00000000  0.00000000  1
  O  O55  1  0.83110700  0.78102700  0.46039900  1
  O  O56  1  0.70811900  0.35797900  0.59202100  1
  O  O57  1  0.20811900  0.09202100  0.85797900  1
  O  O58  1  0.59202100  0.70811900  0.35797900  1
  O  O59  1  0.14202100  0.79188100  0.90797900  1
  O  O60  1  0.90797900  0.14202100  0.79188100  1
  O  O61  1  0.50000000  0.50000000  0.50000000  1
  O  O62  1  0.06107300  0.97296200  0.34752900  1
  O  O63  1  0.84752900  0.47296200  0.56107300  1
