# generated using pymatgen
data_CsEr(NbBr3)6
_symmetry_space_group_name_H-M   'P 1'
_cell_length_a   9.94917003
_cell_length_b   9.94917003
_cell_length_c   18.54517600
_cell_angle_alpha   90.00000000
_cell_angle_beta   90.00000000
_cell_angle_gamma   120.00000019
_symmetry_Int_Tables_number   1
_chemical_formula_structural   CsEr(NbBr3)6
_chemical_formula_sum   'Cs2 Er2 Nb12 Br36'
_cell_volume   1589.77365572
_cell_formula_units_Z   2
loop_
 _symmetry_equiv_pos_site_id
 _symmetry_equiv_pos_as_xyz
  1  'x, y, z'
loop_
 _atom_site_type_symbol
 _atom_site_label
 _atom_site_symmetry_multiplicity
 _atom_site_fract_x
 _atom_site_fract_y
 _atom_site_fract_z
 _atom_site_occupancy
  Cs  Cs0  1  0.66666700  0.33333300  0.75000000  1
  Cs  Cs1  1  0.33333300  0.66666700  0.25000000  1
  Er  Er2  1  0.33333300  0.66666700  0.75000000  1
  Er  Er3  1  0.66666700  0.33333300  0.25000000  1
  Nb  Nb4  1  0.03787700  0.18763200  0.93499500  1
  Nb  Nb5  1  0.18763200  0.03787700  0.43499500  1
  Nb  Nb6  1  0.14975400  0.18763200  0.56500500  1
  Nb  Nb7  1  0.85024600  0.81236800  0.43499500  1
  Nb  Nb8  1  0.81236800  0.96212300  0.56500500  1
  Nb  Nb9  1  0.96212300  0.14975400  0.43499500  1
  Nb  Nb10  1  0.81236800  0.85024600  0.93499500  1
  Nb  Nb11  1  0.14975400  0.96212300  0.93499500  1
  Nb  Nb12  1  0.85024600  0.03787700  0.06500500  1
  Nb  Nb13  1  0.96212300  0.81236800  0.06500500  1
  Nb  Nb14  1  0.03787700  0.85024600  0.56500500  1
  Nb  Nb15  1  0.18763200  0.14975400  0.06500500  1
  Br  Br16  1  0.14035900  0.72538800  0.00092500  1
  Br  Br17  1  0.04539100  0.23033900  0.15939700  1
  Br  Br18  1  0.63686800  0.54996900  0.33741000  1
  Br  Br19  1  0.85964100  0.27461200  0.99907500  1
  Br  Br20  1  0.72538800  0.14035900  0.50092500  1
  Br  Br21  1  0.72538800  0.58502900  0.99907500  1
  Br  Br22  1  0.23033900  0.04539100  0.65939700  1
  Br  Br23  1  0.41497100  0.14035900  0.99907500  1
  Br  Br24  1  0.81505200  0.76966100  0.65939700  1
  Br  Br25  1  0.95460900  0.76966100  0.84060300  1
  Br  Br26  1  0.76966100  0.81505200  0.15939700  1
  Br  Br27  1  0.85964100  0.58502900  0.50092500  1
  Br  Br28  1  0.36313200  0.45003100  0.66259000  1
  Br  Br29  1  0.91310100  0.54996900  0.16259000  1
  Br  Br30  1  0.81505200  0.04539100  0.84060300  1
  Br  Br31  1  0.58502900  0.72538800  0.49907500  1
  Br  Br32  1  0.08689900  0.63686800  0.66259000  1
  Br  Br33  1  0.08689900  0.45003100  0.83741000  1
  Br  Br34  1  0.54996900  0.63686800  0.83741000  1
  Br  Br35  1  0.14035900  0.41497100  0.49907500  1
  Br  Br36  1  0.23033900  0.18494800  0.84060300  1
  Br  Br37  1  0.95460900  0.18494800  0.65939700  1
  Br  Br38  1  0.27461200  0.85964100  0.49907500  1
  Br  Br39  1  0.36313200  0.91310100  0.83741000  1
  Br  Br40  1  0.27461200  0.41497100  0.00092500  1
  Br  Br41  1  0.04539100  0.81505200  0.34060300  1
  Br  Br42  1  0.45003100  0.36313200  0.16259000  1
  Br  Br43  1  0.18494800  0.95460900  0.15939700  1
  Br  Br44  1  0.76966100  0.95460900  0.34060300  1
  Br  Br45  1  0.41497100  0.27461200  0.50092500  1
  Br  Br46  1  0.58502900  0.85964100  0.00092500  1
  Br  Br47  1  0.18494800  0.23033900  0.34060300  1
  Br  Br48  1  0.91310100  0.36313200  0.33741000  1
  Br  Br49  1  0.54996900  0.91310100  0.66259000  1
  Br  Br50  1  0.63686800  0.08689900  0.16259000  1
  Br  Br51  1  0.45003100  0.08689900  0.33741000  1
