# generated using pymatgen
data_K3NaUC3O11
_symmetry_space_group_name_H-M   'P 1'
_cell_length_a   9.41848724
_cell_length_b   9.41848724
_cell_length_c   8.33884200
_cell_angle_alpha   90.00000000
_cell_angle_beta   90.00000000
_cell_angle_gamma   119.99999469
_symmetry_Int_Tables_number   1
_chemical_formula_structural   K3NaUC3O11
_chemical_formula_sum   'K6 Na2 U2 C6 O22'
_cell_volume   640.61736668
_cell_formula_units_Z   2
loop_
 _symmetry_equiv_pos_site_id
 _symmetry_equiv_pos_as_xyz
  1  'x, y, z'
loop_
 _atom_site_type_symbol
 _atom_site_label
 _atom_site_symmetry_multiplicity
 _atom_site_fract_x
 _atom_site_fract_y
 _atom_site_fract_z
 _atom_site_occupancy
  K  K0  1  0.70303600  0.70303600  0.00000000  1
  K  K1  1  0.70303600  0.70303600  0.50000000  1
  K  K2  1  0.00000000  0.29696400  0.00000000  1
  K  K3  1  0.29696400  0.00000000  0.50000000  1
  K  K4  1  0.00000000  0.29696400  0.50000000  1
  K  K5  1  0.29696400  0.00000000  0.00000000  1
  Na  Na6  1  0.66666700  0.33333300  0.75000000  1
  Na  Na7  1  0.33333300  0.66666700  0.25000000  1
  U  U8  1  0.66666700  0.33333300  0.25000000  1
  U  U9  1  0.33333300  0.66666700  0.75000000  1
  C  C10  1  0.37073300  0.35824200  0.25000000  1
  C  C11  1  0.62926700  0.98750900  0.75000000  1
  C  C12  1  0.64175800  0.01249100  0.25000000  1
  C  C13  1  0.35824200  0.37073300  0.75000000  1
  C  C14  1  0.01249100  0.64175800  0.75000000  1
  C  C15  1  0.98750900  0.62926700  0.25000000  1
  O  O16  1  0.52022600  0.48677800  0.25000000  1
  O  O17  1  0.75689200  0.12710800  0.75000000  1
  O  O18  1  0.33333300  0.66666700  0.52880300  1
  O  O19  1  0.15115700  0.78311400  0.75000000  1
  O  O20  1  0.66666700  0.33333300  0.02880300  1
  O  O21  1  0.03344900  0.51322200  0.75000000  1
  O  O22  1  0.84884300  0.63195700  0.25000000  1
  O  O23  1  0.12710800  0.75689200  0.25000000  1
  O  O24  1  0.21688600  0.36804300  0.75000000  1
  O  O25  1  0.51322200  0.03344900  0.25000000  1
  O  O26  1  0.48677800  0.52022600  0.75000000  1
  O  O27  1  0.78311400  0.15115700  0.25000000  1
  O  O28  1  0.47977400  0.96655100  0.75000000  1
  O  O29  1  0.36804300  0.21688600  0.25000000  1
  O  O30  1  0.33333300  0.66666700  0.97119700  1
  O  O31  1  0.66666700  0.33333300  0.47119700  1
  O  O32  1  0.96655100  0.47977400  0.25000000  1
  O  O33  1  0.63195700  0.84884300  0.75000000  1
  O  O34  1  0.37021600  0.24310800  0.75000000  1
  O  O35  1  0.24310800  0.37021600  0.25000000  1
  O  O36  1  0.87289200  0.62978400  0.75000000  1
  O  O37  1  0.62978400  0.87289200  0.25000000  1
