# generated using pymatgen
data_Yb5Au4
_symmetry_space_group_name_H-M   'P 1'
_cell_length_a   7.75697200
_cell_length_b   7.90628500
_cell_length_c   15.03795900
_cell_angle_alpha   90.00000000
_cell_angle_beta   90.00000000
_cell_angle_gamma   90.00000000
_symmetry_Int_Tables_number   1
_chemical_formula_structural   Yb5Au4
_chemical_formula_sum   'Yb20 Au16'
_cell_volume   922.26045165
_cell_formula_units_Z   4
loop_
 _symmetry_equiv_pos_site_id
 _symmetry_equiv_pos_as_xyz
  1  'x, y, z'
loop_
 _atom_site_type_symbol
 _atom_site_label
 _atom_site_symmetry_multiplicity
 _atom_site_fract_x
 _atom_site_fract_y
 _atom_site_fract_z
 _atom_site_occupancy
  Yb  Yb0  1  0.02985200  0.17436600  0.39932100  1
  Yb  Yb1  1  0.86959500  0.66269700  0.37936500  1
  Yb  Yb2  1  0.52985200  0.32563400  0.10067900  1
  Yb  Yb3  1  0.13040500  0.33730300  0.62063500  1
  Yb  Yb4  1  0.36959500  0.83730300  0.37936500  1
  Yb  Yb5  1  0.13040500  0.33730300  0.87936500  1
  Yb  Yb6  1  0.36959500  0.83730300  0.12063500  1
  Yb  Yb7  1  0.20700200  0.49485600  0.25000000  1
  Yb  Yb8  1  0.52985200  0.32563400  0.39932100  1
  Yb  Yb9  1  0.79299800  0.50514400  0.75000000  1
  Yb  Yb10  1  0.97014800  0.82563400  0.89932100  1
  Yb  Yb11  1  0.97014800  0.82563400  0.60067900  1
  Yb  Yb12  1  0.47014800  0.67436600  0.60067900  1
  Yb  Yb13  1  0.63040500  0.16269700  0.62063500  1
  Yb  Yb14  1  0.29299800  0.99485600  0.75000000  1
  Yb  Yb15  1  0.63040500  0.16269700  0.87936500  1
  Yb  Yb16  1  0.70700200  0.00514400  0.25000000  1
  Yb  Yb17  1  0.86959500  0.66269700  0.12063500  1
  Yb  Yb18  1  0.47014800  0.67436600  0.89932100  1
  Yb  Yb19  1  0.02985200  0.17436600  0.10067900  1
  Au  Au20  1  0.83596900  0.36173300  0.25000000  1
  Au  Au21  1  0.42860900  0.37585500  0.75000000  1
  Au  Au22  1  0.66403100  0.86173300  0.75000000  1
  Au  Au23  1  0.79485200  0.47477800  0.54533100  1
  Au  Au24  1  0.70514800  0.97477800  0.04533100  1
  Au  Au25  1  0.79485200  0.47477800  0.95466900  1
  Au  Au26  1  0.20514800  0.52522200  0.45466900  1
  Au  Au27  1  0.20514800  0.52522200  0.04533100  1
  Au  Au28  1  0.16403100  0.63826700  0.75000000  1
  Au  Au29  1  0.33596900  0.13826700  0.25000000  1
  Au  Au30  1  0.57139100  0.62414500  0.25000000  1
  Au  Au31  1  0.07139100  0.87585500  0.25000000  1
  Au  Au32  1  0.29485200  0.02522200  0.95466900  1
  Au  Au33  1  0.92860900  0.12414500  0.75000000  1
  Au  Au34  1  0.70514800  0.97477800  0.45466900  1
  Au  Au35  1  0.29485200  0.02522200  0.54533100  1
