# generated using pymatgen
data_CsYP2O7
_symmetry_space_group_name_H-M   'P 1'
_cell_length_a   11.05068600
_cell_length_b   8.02774100
_cell_length_c   8.89866127
_cell_angle_alpha   75.68400958
_cell_angle_beta   90.00000000
_cell_angle_gamma   90.00000000
_symmetry_Int_Tables_number   1
_chemical_formula_structural   CsYP2O7
_chemical_formula_sum   'Cs4 Y4 P8 O28'
_cell_volume   764.90443895
_cell_formula_units_Z   4
loop_
 _symmetry_equiv_pos_site_id
 _symmetry_equiv_pos_as_xyz
  1  'x, y, z'
loop_
 _atom_site_type_symbol
 _atom_site_label
 _atom_site_symmetry_multiplicity
 _atom_site_fract_x
 _atom_site_fract_y
 _atom_site_fract_z
 _atom_site_occupancy
  Cs  Cs0  1  0.69084500  0.19992000  0.94777200  1
  Cs  Cs1  1  0.19084500  0.80008000  0.55222800  1
  Cs  Cs2  1  0.30915500  0.80008000  0.05222800  1
  Cs  Cs3  1  0.80915500  0.19992000  0.44777200  1
  Y  Y4  1  0.40053000  0.23666900  0.24740000  1
  Y  Y5  1  0.90053000  0.76333100  0.25260000  1
  Y  Y6  1  0.59947000  0.76333100  0.75260000  1
  Y  Y7  1  0.09947000  0.23666900  0.74740000  1
  P  P8  1  0.37033600  0.42734100  0.81729900  1
  P  P9  1  0.87033600  0.57265900  0.68270100  1
  P  P10  1  0.62966400  0.57265900  0.18270100  1
  P  P11  1  0.12966400  0.42734100  0.31729900  1
  P  P12  1  0.09638700  0.13121000  0.17841100  1
  P  P13  1  0.59638700  0.86879000  0.32158900  1
  P  P14  1  0.90361300  0.86879000  0.82158900  1
  P  P15  1  0.40361300  0.13121000  0.67841100  1
  O  O16  1  0.06134100  0.31724100  0.21000100  1
  O  O17  1  0.56134100  0.68275900  0.28999900  1
  O  O18  1  0.93865900  0.68275900  0.78999900  1
  O  O19  1  0.43865900  0.31724100  0.71000100  1
  O  O20  1  0.27434900  0.08491300  0.73862500  1
  O  O21  1  0.77434900  0.91508700  0.76137500  1
  O  O22  1  0.72565100  0.91508700  0.26137500  1
  O  O23  1  0.22565100  0.08491300  0.23862500  1
  O  O24  1  0.42850700  0.60562100  0.76867400  1
  O  O25  1  0.92850700  0.39437900  0.73132600  1
  O  O26  1  0.57149300  0.39437900  0.23132600  1
  O  O27  1  0.07149300  0.60562100  0.26867400  1
  O  O28  1  0.41473900  0.15361600  0.50450200  1
  O  O29  1  0.91473900  0.84638400  0.99549800  1
  O  O30  1  0.58526100  0.84638400  0.49549800  1
  O  O31  1  0.08526100  0.15361600  0.00450200  1
  O  O32  1  0.39630500  0.33411100  0.98553000  1
  O  O33  1  0.89630500  0.66588900  0.51447000  1
  O  O34  1  0.60369500  0.66588900  0.01447000  1
  O  O35  1  0.10369500  0.33411100  0.48553000  1
  O  O36  1  0.49621500  0.00349500  0.77121300  1
  O  O37  1  0.99621500  0.99650500  0.72878700  1
  O  O38  1  0.50378500  0.99650500  0.22878700  1
  O  O39  1  0.00378500  0.00349500  0.27121300  1
  O  O40  1  0.23575200  0.43752100  0.77484500  1
  O  O41  1  0.73575200  0.56247900  0.72515500  1
  O  O42  1  0.76424800  0.56247900  0.22515500  1
  O  O43  1  0.26424800  0.43752100  0.27484500  1
