# generated using pymatgen
data_TiMnH12(OF)6
_symmetry_space_group_name_H-M   'P 1'
_cell_length_a   9.87749135
_cell_length_b   14.66670941
_cell_length_c   9.86648968
_cell_angle_alpha   70.31510394
_cell_angle_beta   60.02361223
_cell_angle_gamma   89.86304838
_symmetry_Int_Tables_number   1
_chemical_formula_structural   TiMnH12(OF)6
_chemical_formula_sum   'Ti4 Mn4 H48 O24 F24'
_cell_volume   1141.42327370
_cell_formula_units_Z   4
loop_
 _symmetry_equiv_pos_site_id
 _symmetry_equiv_pos_as_xyz
  1  'x, y, z'
loop_
 _atom_site_type_symbol
 _atom_site_label
 _atom_site_symmetry_multiplicity
 _atom_site_fract_x
 _atom_site_fract_y
 _atom_site_fract_z
 _atom_site_occupancy
  Ti  Ti0  1  0.12494900  0.37493500  0.74999400  1
  Ti  Ti1  1  0.87499900  0.62503000  0.24999600  1
  Ti  Ti2  1  0.62504000  0.87510000  0.74999400  1
  Ti  Ti3  1  0.37498300  0.12497800  0.25002500  1
  Mn  Mn4  1  0.49998600  0.49998800  0.00000200  1
  Mn  Mn5  1  0.24998600  0.74997700  0.49999600  1
  Mn  Mn6  1  0.00002200  0.00000300  0.00000500  1
  Mn  Mn7  1  0.75008600  0.24999100  0.49997800  1
  H  H8  1  0.85702800  0.32825800  0.14925000  1
  H  H9  1  0.60698600  0.57824200  0.64929200  1
  H  H10  1  0.35701000  0.82826300  0.14924000  1
  H  H11  1  0.10700500  0.07824600  0.64929100  1
  H  H12  1  0.47754600  0.32851700  0.66562500  1
  H  H13  1  0.22782000  0.57854500  0.16567600  1
  H  H14  1  0.97781500  0.82850800  0.66565000  1
  H  H15  1  0.72768100  0.07852900  0.16569000  1
  H  H16  1  0.99361900  0.32833100  0.52813300  1
  H  H17  1  0.74356800  0.57833400  0.02811100  1
  H  H18  1  0.49356400  0.82835100  0.52809400  1
  H  H19  1  0.24357200  0.07833800  0.02810100  1
  H  H20  1  0.39300900  0.42174700  0.35074300  1
  H  H21  1  0.14299400  0.67175800  0.85073300  1
  H  H22  1  0.89297400  0.92174000  0.35076600  1
  H  H23  1  0.64298300  0.17176800  0.85072600  1
  H  H24  1  0.77219800  0.42148300  0.83430900  1
  H  H25  1  0.52235600  0.67147300  0.33427200  1
  H  H26  1  0.27247900  0.92147400  0.83434800  1
  H  H27  1  0.02233400  0.17143100  0.33428400  1
  H  H28  1  0.25635100  0.42164400  0.97190500  1
  H  H29  1  0.00641000  0.67167600  0.47188600  1
  H  H30  1  0.75638600  0.92168100  0.97187700  1
  H  H31  1  0.50643400  0.17165800  0.47190300  1
  H  H32  1  0.04553000  0.16409200  0.71480900  1
  H  H33  1  0.79554200  0.41410000  0.21476700  1
  H  H34  1  0.54551100  0.66410500  0.71478400  1
  H  H35  1  0.29553200  0.91411100  0.21475200  1
  H  H36  1  0.87877900  0.16426000  0.07583700  1
  H  H37  1  0.62863500  0.41428400  0.57582700  1
  H  H38  1  0.37885500  0.66431100  0.07579800  1
  H  H39  1  0.12882300  0.91425300  0.57580400  1
  H  H40  1  0.23967600  0.16432300  0.88091100  1
  H  H41  1  0.98970400  0.41433600  0.38091200  1
  H  H42  1  0.73967300  0.66431700  0.88091500  1
  H  H43  1  0.48967200  0.91431700  0.38089400  1
  H  H44  1  0.20445600  0.58588900  0.78527600  1
  H  H45  1  0.95444900  0.83587200  0.28527200  1
  H  H46  1  0.70443400  0.08590200  0.78524400  1
  H  H47  1  0.45447100  0.33588800  0.28524100  1
  H  H48  1  0.37123400  0.58570900  0.42415700  1
  H  H49  1  0.12138100  0.83571300  0.92416600  1
  H  H50  1  0.87126600  0.08568400  0.42415400  1
  H  H51  1  0.62117700  0.33569900  0.92421400  1
  H  H52  1  0.01028700  0.58567100  0.61907900  1
  H  H53  1  0.76029600  0.83567400  0.11906600  1
  H  H54  1  0.51031000  0.08568700  0.61908500  1
  H  H55  1  0.26026800  0.33566800  0.11909400  1
  O  O56  1  0.79012500  0.34237500  0.25119900  1
  O  O57  1  0.54012400  0.59239000  0.75121900  1
  O  O58  1  0.29012400  0.84239300  0.25119300  1
  O  O59  1  0.04012800  0.09237100  0.75123600  1
  O  O60  1  0.59354200  0.34270100  0.61557400  1
  O  O61  1  0.34379500  0.59270600  0.11559700  1
  O  O62  1  0.09376100  0.84266700  0.61563900  1
  O  O63  1  0.84366500  0.09269100  0.11560200  1
  O  O64  1  0.95800700  0.34267700  0.44754100  1
  O  O65  1  0.70795400  0.59266900  0.94755400  1
  O  O66  1  0.45788300  0.84267200  0.44757900  1
  O  O67  1  0.20795300  0.09268000  0.94753800  1
  O  O68  1  0.45987500  0.40760800  0.24879800  1
  O  O69  1  0.20987500  0.65761300  0.74880800  1
  O  O70  1  0.95992300  0.90760300  0.24885700  1
  O  O71  1  0.70986700  0.15762700  0.74878400  1
  O  O72  1  0.65623200  0.40728900  0.88440700  1
  O  O73  1  0.40636100  0.65729200  0.38442500  1
  O  O74  1  0.15649100  0.90729600  0.88441900  1
  O  O75  1  0.90635900  0.15726800  0.38441400  1
  O  O76  1  0.29190800  0.40732700  0.05251700  1
  O  O77  1  0.04203500  0.65732300  0.55244400  1
  O  O78  1  0.79209300  0.90731800  0.05237300  1
  O  O79  1  0.54205700  0.15732800  0.55245600  1
  F  F80  1  0.96017000  0.29408700  0.97456200  1
  F  F81  1  0.71015100  0.54405200  0.47462300  1
  F  F82  1  0.46011900  0.79401300  0.97468600  1
  F  F83  1  0.21015700  0.04403000  0.47463000  1
  F  F84  1  0.26887200  0.29393900  0.77190100  1
  F  F85  1  0.01894600  0.54392900  0.27191000  1
  F  F86  1  0.76894600  0.79390900  0.77192900  1
  F  F87  1  0.51895400  0.04391200  0.27189400  1
  F  F88  1  0.06593000  0.29355400  0.66609800  1
  F  F89  1  0.81605700  0.54375000  0.16608800  1
  F  F90  1  0.56586300  0.79388600  0.66605900  1
  F  F91  1  0.31573900  0.04385600  0.16612500  1
  F  F92  1  0.28985300  0.45596000  0.52534400  1
  F  F93  1  0.03978500  0.70599300  0.02538600  1
  F  F94  1  0.78983900  0.95595500  0.52541300  1
  F  F95  1  0.53986100  0.20597900  0.02534100  1
  F  F96  1  0.98101500  0.45609000  0.72807900  1
  F  F97  1  0.73100000  0.70605700  0.22811700  1
  F  F98  1  0.48106700  0.95609400  0.72810600  1
  F  F99  1  0.23104600  0.20609000  0.22809500  1
  F  F100  1  0.18399500  0.45615600  0.83392000  1
  F  F101  1  0.93403100  0.70638600  0.33391300  1
  F  F102  1  0.68406400  0.95643800  0.83384500  1
  F  F103  1  0.43427100  0.20614400  0.33380800  1
