# generated using pymatgen
data_Cs2Na3TlO4
_symmetry_space_group_name_H-M   'P 1'
_cell_length_a   10.33736900
_cell_length_b   6.50598600
_cell_length_c   12.79587424
_cell_angle_alpha   69.34073710
_cell_angle_beta   90.00000000
_cell_angle_gamma   90.00000000
_symmetry_Int_Tables_number   1
_chemical_formula_structural   Cs2Na3TlO4
_chemical_formula_sum   'Cs8 Na12 Tl4 O16'
_cell_volume   805.24394531
_cell_formula_units_Z   4
loop_
 _symmetry_equiv_pos_site_id
 _symmetry_equiv_pos_as_xyz
  1  'x, y, z'
loop_
 _atom_site_type_symbol
 _atom_site_label
 _atom_site_symmetry_multiplicity
 _atom_site_fract_x
 _atom_site_fract_y
 _atom_site_fract_z
 _atom_site_occupancy
  Cs  Cs0  1  0.72889900  0.28501500  0.60843000  1
  Cs  Cs1  1  0.22889900  0.71498500  0.89157000  1
  Cs  Cs2  1  0.27110100  0.71498500  0.39157000  1
  Cs  Cs3  1  0.00166100  0.72151800  0.13462100  1
  Cs  Cs4  1  0.77110100  0.28501500  0.10843000  1
  Cs  Cs5  1  0.99833900  0.27848200  0.86537900  1
  Cs  Cs6  1  0.49833900  0.72151800  0.63462100  1
  Cs  Cs7  1  0.50166100  0.27848200  0.36537900  1
  Na  Na8  1  0.74409000  0.61205000  0.80121100  1
  Na  Na9  1  0.97402100  0.91288800  0.70603000  1
  Na  Na10  1  0.52597900  0.91288800  0.20603000  1
  Na  Na11  1  0.25591000  0.38795000  0.19878900  1
  Na  Na12  1  0.99158000  0.36016900  0.43155900  1
  Na  Na13  1  0.24409000  0.38795000  0.69878900  1
  Na  Na14  1  0.50842000  0.36016900  0.93155900  1
  Na  Na15  1  0.47402100  0.08711200  0.79397000  1
  Na  Na16  1  0.49158000  0.63983100  0.06844100  1
  Na  Na17  1  0.02597900  0.08711200  0.29397000  1
  Na  Na18  1  0.00842000  0.63983100  0.56844100  1
  Na  Na19  1  0.75591000  0.61205000  0.30121100  1
  Tl  Tl20  1  0.28074100  0.09932600  0.06337500  1
  Tl  Tl21  1  0.21925900  0.09932600  0.56337500  1
  Tl  Tl22  1  0.71925900  0.90067400  0.93662500  1
  Tl  Tl23  1  0.78074100  0.90067400  0.43662500  1
  O  O24  1  0.30943600  0.22272700  0.88105100  1
  O  O25  1  0.19056400  0.22272700  0.38105100  1
  O  O26  1  0.80943600  0.77727300  0.61894900  1
  O  O27  1  0.09778400  0.22267000  0.10816700  1
  O  O28  1  0.32236900  0.75088000  0.15607000  1
  O  O29  1  0.90221600  0.77733000  0.89183300  1
  O  O30  1  0.59778400  0.77733000  0.39183300  1
  O  O31  1  0.17763100  0.75088000  0.65607000  1
  O  O32  1  0.67763100  0.24912000  0.84393000  1
  O  O33  1  0.05881400  0.26690400  0.62323200  1
  O  O34  1  0.44118600  0.26690400  0.12323200  1
  O  O35  1  0.82236900  0.24912000  0.34393000  1
  O  O36  1  0.69056400  0.77727300  0.11894900  1
  O  O37  1  0.94118600  0.73309600  0.37676800  1
  O  O38  1  0.40221600  0.22267000  0.60816700  1
  O  O39  1  0.55881400  0.73309600  0.87676800  1
