# generated using pymatgen
data_RbBi(MoO4)2
_symmetry_space_group_name_H-M   'P 1'
_cell_length_a   12.31274800
_cell_length_b   5.37833600
_cell_length_c   11.81863268
_cell_angle_alpha   87.78698539
_cell_angle_beta   90.00000000
_cell_angle_gamma   90.00000000
_symmetry_Int_Tables_number   1
_chemical_formula_structural   RbBi(MoO4)2
_chemical_formula_sum   'Rb4 Bi4 Mo8 O32'
_cell_volume   782.07089930
_cell_formula_units_Z   4
loop_
 _symmetry_equiv_pos_site_id
 _symmetry_equiv_pos_as_xyz
  1  'x, y, z'
loop_
 _atom_site_type_symbol
 _atom_site_label
 _atom_site_symmetry_multiplicity
 _atom_site_fract_x
 _atom_site_fract_y
 _atom_site_fract_z
 _atom_site_occupancy
  Rb  Rb0  1  0.37553100  0.01665200  0.62160800  1
  Rb  Rb1  1  0.12446900  0.51665200  0.62160800  1
  Rb  Rb2  1  0.87553100  0.48334800  0.37839200  1
  Rb  Rb3  1  0.62446900  0.98334800  0.37839200  1
  Bi  Bi4  1  0.87570900  0.50903000  0.87927300  1
  Bi  Bi5  1  0.37570900  0.99097000  0.12072700  1
  Bi  Bi6  1  0.12429100  0.49097000  0.12072700  1
  Bi  Bi7  1  0.62429100  0.00903000  0.87927300  1
  Mo  Mo8  1  0.14577000  0.99584800  0.34188600  1
  Mo  Mo9  1  0.11311300  0.02339500  0.88743700  1
  Mo  Mo10  1  0.88688700  0.97660500  0.11256300  1
  Mo  Mo11  1  0.38688700  0.52339500  0.88743700  1
  Mo  Mo12  1  0.85423000  0.00415200  0.65811400  1
  Mo  Mo13  1  0.35423000  0.49584800  0.34188600  1
  Mo  Mo14  1  0.61311300  0.47660500  0.11256300  1
  Mo  Mo15  1  0.64577000  0.50415200  0.65811400  1
  O  O16  1  0.80399600  0.84458300  0.00113500  1
  O  O17  1  0.54026800  0.74838800  0.05075700  1
  O  O18  1  0.93562400  0.75766200  0.73051300  1
  O  O19  1  0.70992900  0.68431700  0.77783100  1
  O  O20  1  0.05152200  0.81552300  0.41860900  1
  O  O21  1  0.43562400  0.74233800  0.26948700  1
  O  O22  1  0.69568500  0.57762000  0.22202700  1
  O  O23  1  0.19568500  0.92238000  0.77797300  1
  O  O24  1  0.55152200  0.68447700  0.58139100  1
  O  O25  1  0.69600400  0.34458300  0.00113500  1
  O  O26  1  0.02488700  0.25900800  0.82381000  1
  O  O27  1  0.56437600  0.25766200  0.73051300  1
  O  O28  1  0.45973200  0.25161200  0.94924300  1
  O  O29  1  0.97511300  0.74099200  0.17619000  1
  O  O30  1  0.44847800  0.31552300  0.41860900  1
  O  O31  1  0.52488700  0.24099200  0.17619000  1
  O  O32  1  0.30399600  0.65541700  0.99886500  1
  O  O33  1  0.77361400  0.84239900  0.56033700  1
  O  O34  1  0.29007100  0.31568300  0.22216900  1
  O  O35  1  0.79007100  0.18431700  0.77783100  1
  O  O36  1  0.72638600  0.34239900  0.56033700  1
  O  O37  1  0.27361400  0.65760100  0.43966300  1
  O  O38  1  0.95973200  0.24838800  0.05075700  1
  O  O39  1  0.80431500  0.07762000  0.22202700  1
  O  O40  1  0.19600400  0.15541700  0.99886500  1
  O  O41  1  0.22638600  0.15760100  0.43966300  1
  O  O42  1  0.30431500  0.42238000  0.77797300  1
  O  O43  1  0.94847800  0.18447700  0.58139100  1
  O  O44  1  0.47511300  0.75900800  0.82381000  1
  O  O45  1  0.06437600  0.24233800  0.26948700  1
  O  O46  1  0.20992900  0.81568300  0.22216900  1
  O  O47  1  0.04026800  0.75161200  0.94924300  1
