# generated using pymatgen
data_Na9V14O35
_symmetry_space_group_name_H-M   'P 1'
_cell_length_a   5.22175400
_cell_length_b   15.36364700
_cell_length_c   21.05163460
_cell_angle_alpha   70.92784854
_cell_angle_beta   90.00000000
_cell_angle_gamma   90.00000000
_symmetry_Int_Tables_number   1
_chemical_formula_structural   Na9V14O35
_chemical_formula_sum   'Na18 V28 O70'
_cell_volume   1596.16549892
_cell_formula_units_Z   2
loop_
 _symmetry_equiv_pos_site_id
 _symmetry_equiv_pos_as_xyz
  1  'x, y, z'
loop_
 _atom_site_type_symbol
 _atom_site_label
 _atom_site_symmetry_multiplicity
 _atom_site_fract_x
 _atom_site_fract_y
 _atom_site_fract_z
 _atom_site_occupancy
  Na  Na0  1  0.40964000  0.00000000  0.75000000  1
  Na  Na1  1  0.37191700  0.43097100  0.84847100  1
  Na  Na2  1  0.62808300  0.43097100  0.34847100  1
  Na  Na3  1  0.62170600  0.65072900  0.38377400  1
  Na  Na4  1  0.36736900  0.13338700  0.57754400  1
  Na  Na5  1  0.61273700  0.21742800  0.30216800  1
  Na  Na6  1  0.63263100  0.86661300  0.42245600  1
  Na  Na7  1  0.62170600  0.34927100  0.11622600  1
  Na  Na8  1  0.59036000  0.00000000  0.25000000  1
  Na  Na9  1  0.37829400  0.34927100  0.61622600  1
  Na  Na10  1  0.38726300  0.21742800  0.80216800  1
  Na  Na11  1  0.38726300  0.78257200  0.69783200  1
  Na  Na12  1  0.63263100  0.13338700  0.07754400  1
  Na  Na13  1  0.37191700  0.56902900  0.65152900  1
  Na  Na14  1  0.37829400  0.65072900  0.88377400  1
  Na  Na15  1  0.36736900  0.86661300  0.92245600  1
  Na  Na16  1  0.61273700  0.78257200  0.19783200  1
  Na  Na17  1  0.62808300  0.56902900  0.15152900  1
  V  V18  1  0.10004400  0.30032400  0.02387100  1
  V  V19  1  0.85400400  0.59715000  0.76861000  1
  V  V20  1  0.89957200  0.51180100  0.56509300  1
  V  V21  1  0.89911000  0.72386000  0.60687600  1
  V  V22  1  0.08204300  0.93570700  0.15143000  1
  V  V23  1  0.10042800  0.48819900  0.43490700  1
  V  V24  1  0.88864700  0.09109900  0.47961800  1
  V  V25  1  0.08204300  0.06429300  0.34857000  1
  V  V26  1  0.14599600  0.40285000  0.23139000  1
  V  V27  1  0.11135300  0.90890100  0.52038200  1
  V  V28  1  0.11135300  0.09109900  0.97961800  1
  V  V29  1  0.07386200  0.85604900  0.31792500  1
  V  V30  1  0.07386200  0.14395100  0.18207500  1
  V  V31  1  0.89995600  0.69967600  0.97612900  1
  V  V32  1  0.88864700  0.90890100  0.02038200  1
  V  V33  1  0.89957200  0.48819900  0.93490700  1
  V  V34  1  0.89995600  0.30032400  0.52387100  1
  V  V35  1  0.91795700  0.06429300  0.84857000  1
  V  V36  1  0.92613800  0.85604900  0.81792500  1
  V  V37  1  0.10089000  0.27614000  0.39312400  1
  V  V38  1  0.10004400  0.69967600  0.47612900  1
  V  V39  1  0.85400400  0.40285000  0.73139000  1
  V  V40  1  0.10042800  0.51180100  0.06509300  1
  V  V41  1  0.10089000  0.72386000  0.10687600  1
  V  V42  1  0.91795700  0.93570700  0.65143000  1
  V  V43  1  0.92613800  0.14395100  0.68207500  1
  V  V44  1  0.14599600  0.59715000  0.26861000  1
  V  V45  1  0.89911000  0.27614000  0.89312400  1
  O  O46  1  0.41326600  0.49969900  0.08126900  1
  O  O47  1  0.03336800  0.79784900  0.01015200  1
  O  O48  1  0.41316500  0.28882500  0.37683100  1
  O  O49  1  0.03532900  0.83859600  0.61485000  1
  O  O50  1  0.03412700  0.37201800  0.92725000  1
  O  O51  1  0.03995100  0.58351100  0.96853500  1
  O  O52  1  0.95517400  0.55304000  0.34065700  1
  O  O53  1  0.96467100  0.16140400  0.38515000  1
  O  O54  1  0.60570300  0.13823800  0.67941000  1
  O  O55  1  0.04482600  0.55304000  0.84065700  1
  O  O56  1  0.03943200  0.99186600  0.94164900  1
  O  O57  1  0.60570300  0.86176200  0.82059000  1
  O  O58  1  0.95186100  0.76372000  0.38567400  1
  O  O59  1  0.58673400  0.49969900  0.58126900  1
  O  O60  1  0.41316500  0.71117500  0.12316900  1
  O  O61  1  0.96587300  0.37201800  0.42725000  1
  O  O62  1  0.39958100  0.06451700  0.34235700  1
  O  O63  1  0.41352800  0.29055200  0.03722700  1
  O  O64  1  0.95306500  0.65292800  0.19889500  1
  O  O65  1  0.95517400  0.44696000  0.15934300  1
  O  O66  1  0.96467100  0.83859600  0.11485000  1
  O  O67  1  0.58078900  0.90182500  0.00860200  1
  O  O68  1  0.05162300  0.04162200  0.67335300  1
  O  O69  1  0.41921100  0.90182500  0.50860200  1
  O  O70  1  0.04813900  0.23628000  0.61432600  1
  O  O71  1  0.41921100  0.09817500  0.99139800  1
  O  O72  1  0.60041900  0.06451700  0.84235700  1
  O  O73  1  0.62299700  0.33476400  0.71907600  1
  O  O74  1  0.03718500  0.85306000  0.73893800  1
  O  O75  1  0.62299700  0.66523600  0.78092400  1
  O  O76  1  0.96587300  0.62798200  0.07275000  1
  O  O77  1  0.96281500  0.85306000  0.23893800  1
  O  O78  1  0.04693500  0.65292800  0.69889500  1
  O  O79  1  0.03943200  0.00813400  0.55835100  1
  O  O80  1  0.58647200  0.29055200  0.53722700  1
  O  O81  1  0.03412700  0.62798200  0.57275000  1
  O  O82  1  0.96056800  0.00813400  0.05835100  1
  O  O83  1  0.60041900  0.93548300  0.65764300  1
  O  O84  1  0.39429700  0.13823800  0.17941000  1
  O  O85  1  0.58078900  0.09817500  0.49139800  1
  O  O86  1  0.96281500  0.14694000  0.26106200  1
  O  O87  1  0.96056800  0.99186600  0.44164900  1
  O  O88  1  0.04693500  0.34707200  0.80110500  1
  O  O89  1  0.03532900  0.16140400  0.88515000  1
  O  O90  1  0.04813900  0.76372000  0.88567400  1
  O  O91  1  0.58673400  0.50030100  0.91873100  1
  O  O92  1  0.05162300  0.95837800  0.82664700  1
  O  O93  1  0.03718500  0.14694000  0.76106200  1
  O  O94  1  0.58683500  0.28882500  0.87683100  1
  O  O95  1  0.41326600  0.50030100  0.41873100  1
  O  O96  1  0.41352800  0.70944800  0.46277300  1
  O  O97  1  0.03995100  0.41648900  0.53146500  1
  O  O98  1  0.94837700  0.04162200  0.17335300  1
  O  O99  1  0.39958100  0.93548300  0.15764300  1
  O  O100  1  0.96004900  0.58351100  0.46853500  1
  O  O101  1  0.69330700  0.50000000  0.75000000  1
  O  O102  1  0.04482600  0.44696000  0.65934300  1
  O  O103  1  0.37700300  0.66523600  0.28092400  1
  O  O104  1  0.94837700  0.95837800  0.32664700  1
  O  O105  1  0.03336800  0.20215100  0.48984800  1
  O  O106  1  0.96663200  0.79784900  0.51015200  1
  O  O107  1  0.39429700  0.86176200  0.32059000  1
  O  O108  1  0.96663200  0.20215100  0.98984800  1
  O  O109  1  0.58683500  0.71117500  0.62316900  1
  O  O110  1  0.95306500  0.34707200  0.30110500  1
  O  O111  1  0.95186100  0.23628000  0.11432600  1
  O  O112  1  0.58647200  0.70944800  0.96277300  1
  O  O113  1  0.96004900  0.41648900  0.03146500  1
  O  O114  1  0.30669300  0.50000000  0.25000000  1
  O  O115  1  0.37700300  0.33476400  0.21907600  1
