# generated using pymatgen
data_Ba13Dy8Zn4Pt4O37
_symmetry_space_group_name_H-M   'P 1'
_cell_length_a   13.68853112
_cell_length_b   13.68853112
_cell_length_c   13.68853112
_cell_angle_alpha   92.55331973
_cell_angle_beta   92.55331973
_cell_angle_gamma   155.63027609
_symmetry_Int_Tables_number   1
_chemical_formula_structural   Ba13Dy8Zn4Pt4O37
_chemical_formula_sum   'Ba13 Dy8 Zn4 Pt4 O37'
_cell_volume   1034.49482787
_cell_formula_units_Z   1
loop_
 _symmetry_equiv_pos_site_id
 _symmetry_equiv_pos_as_xyz
  1  'x, y, z'
loop_
 _atom_site_type_symbol
 _atom_site_label
 _atom_site_symmetry_multiplicity
 _atom_site_fract_x
 _atom_site_fract_y
 _atom_site_fract_z
 _atom_site_occupancy
  Ba  Ba0  1  0.20398900  0.07170600  0.27569500  1
  Ba  Ba1  1  0.98333000  0.60842000  0.59175000  1
  Ba  Ba2  1  0.63714400  0.43602800  0.07317300  1
  Ba  Ba3  1  0.60842000  0.01667000  0.62509000  1
  Ba  Ba4  1  0.01667000  0.39158000  0.40825000  1
  Ba  Ba5  1  0.36285600  0.56397200  0.92682700  1
  Ba  Ba6  1  0.43602800  0.36285600  0.79888400  1
  Ba  Ba7  1  0.56397200  0.63714400  0.20111600  1
  Ba  Ba8  1  0.92829400  0.20398900  0.13228400  1
  Ba  Ba9  1  0.39158000  0.98333000  0.37491000  1
  Ba  Ba10  1  0.00000000  0.00000000  0.00000000  1
  Ba  Ba11  1  0.07170600  0.79601100  0.86771600  1
  Ba  Ba12  1  0.79601100  0.92829400  0.72430500  1
  Dy  Dy13  1  0.69288200  0.23799100  0.93087300  1
  Dy  Dy14  1  0.81598800  0.37847900  0.19446700  1
  Dy  Dy15  1  0.37847900  0.18401200  0.56249100  1
  Dy  Dy16  1  0.30711800  0.76200900  0.06912700  1
  Dy  Dy17  1  0.23799100  0.30711800  0.54510800  1
  Dy  Dy18  1  0.62152100  0.81598800  0.43750900  1
  Dy  Dy19  1  0.18401200  0.62152100  0.80553300  1
  Dy  Dy20  1  0.76200900  0.69288200  0.45489200  1
  Zn  Zn21  1  0.21836000  0.89750500  0.11586500  1
  Zn  Zn22  1  0.10249500  0.21836000  0.32085500  1
  Zn  Zn23  1  0.78164000  0.10249500  0.88413500  1
  Zn  Zn24  1  0.89750500  0.78164000  0.67914500  1
  Pt  Pt25  1  0.46231600  0.79974200  0.26205700  1
  Pt  Pt26  1  0.79974200  0.53768400  0.33742600  1
  Pt  Pt27  1  0.20025800  0.46231600  0.66257400  1
  Pt  Pt28  1  0.53768400  0.20025800  0.73794300  1
  O  O29  1  0.58262400  0.30135400  0.88397700  1
  O  O30  1  0.52700200  0.22154800  0.23400300  1
  O  O31  1  0.10255200  0.51610400  0.61865600  1
  O  O32  1  0.48389600  0.10255200  0.58644700  1
  O  O33  1  0.06897600  0.85378700  0.43920300  1
  O  O34  1  0.01805200  0.42908500  0.94321600  1
  O  O35  1  0.77845200  0.01245500  0.30545400  1
  O  O36  1  0.98194800  0.57091500  0.05678400  1
  O  O37  1  0.89744800  0.48389600  0.38134400  1
  O  O38  1  0.93778600  0.87596800  0.81375400  1
  O  O39  1  0.07483500  0.01805200  0.58896600  1
  O  O40  1  0.47299800  0.77845200  0.76599700  1
  O  O41  1  0.41458400  0.62977300  0.56079700  1
  O  O42  1  0.58541600  0.37022700  0.43920300  1
  O  O43  1  0.51610400  0.89744800  0.41355300  1
  O  O44  1  0.87596800  0.06221400  0.93818300  1
  O  O45  1  0.14621300  0.58541600  0.21519000  1
  O  O46  1  0.70700100  0.47299800  0.69454600  1
  O  O47  1  0.57091500  0.51413100  0.58896600  1
  O  O48  1  0.85378700  0.41458400  0.78481000  1
  O  O49  1  0.22154800  0.98754500  0.69454600  1
  O  O50  1  0.06221400  0.12403200  0.18624600  1
  O  O51  1  0.62977300  0.06897600  0.21519000  1
  O  O52  1  0.41737600  0.69864600  0.11602300  1
  O  O53  1  0.51413100  0.92516500  0.94321600  1
  O  O54  1  0.69864600  0.58262400  0.28127000  1
  O  O55  1  0.37022700  0.93102400  0.78481000  1
  O  O56  1  0.98754500  0.29299900  0.76599700  1
  O  O57  1  0.01245500  0.70700100  0.23400300  1
  O  O58  1  0.42908500  0.48586900  0.41103400  1
  O  O59  1  0.48586900  0.07483500  0.05678400  1
  O  O60  1  0.50000000  0.50000000  0.00000000  1
  O  O61  1  0.93102400  0.14621300  0.56079700  1
  O  O62  1  0.29299900  0.52700200  0.30545400  1
  O  O63  1  0.12403200  0.93778600  0.06181700  1
  O  O64  1  0.92516500  0.98194800  0.41103400  1
  O  O65  1  0.30135400  0.41737600  0.71873000  1
