# generated using pymatgen
data_CsGa3S5
_symmetry_space_group_name_H-M   'P 1'
_cell_length_a   12.95881000
_cell_length_b   7.06610500
_cell_length_c   10.95900432
_cell_angle_alpha   88.70194323
_cell_angle_beta   90.00000000
_cell_angle_gamma   90.00000000
_symmetry_Int_Tables_number   1
_chemical_formula_structural   CsGa3S5
_chemical_formula_sum   'Cs4 Ga12 S20'
_cell_volume   1003.24000887
_cell_formula_units_Z   4
loop_
 _symmetry_equiv_pos_site_id
 _symmetry_equiv_pos_as_xyz
  1  'x, y, z'
loop_
 _atom_site_type_symbol
 _atom_site_label
 _atom_site_symmetry_multiplicity
 _atom_site_fract_x
 _atom_site_fract_y
 _atom_site_fract_z
 _atom_site_occupancy
  Cs  Cs0  1  0.41682600  0.86504200  0.35883600  1
  Cs  Cs1  1  0.08317400  0.36504200  0.35883600  1
  Cs  Cs2  1  0.91682600  0.63495800  0.64116400  1
  Cs  Cs3  1  0.58317400  0.13495800  0.64116400  1
  Ga  Ga4  1  0.80007900  0.98308300  0.32806500  1
  Ga  Ga5  1  0.19992100  0.01691700  0.67193500  1
  Ga  Ga6  1  0.30007900  0.51691700  0.67193500  1
  Ga  Ga7  1  0.46265200  0.39655400  0.12849100  1
  Ga  Ga8  1  0.69992100  0.48308300  0.32806500  1
  Ga  Ga9  1  0.72540300  0.26429800  0.01525800  1
  Ga  Ga10  1  0.96265200  0.10344600  0.87150900  1
  Ga  Ga11  1  0.03734800  0.89655400  0.12849100  1
  Ga  Ga12  1  0.77459700  0.76429800  0.01525800  1
  Ga  Ga13  1  0.27459700  0.73570200  0.98474200  1
  Ga  Ga14  1  0.53734800  0.60344600  0.87150900  1
  Ga  Ga15  1  0.22540300  0.23570200  0.98474200  1
  S  S16  1  0.29011100  0.00410300  0.86089100  1
  S  S17  1  0.55305400  0.29248800  0.95584700  1
  S  S18  1  0.70988900  0.99589700  0.13910900  1
  S  S19  1  0.20189100  0.73815500  0.56852800  1
  S  S20  1  0.70189100  0.76184500  0.43147200  1
  S  S21  1  0.29810900  0.23815500  0.56852800  1
  S  S22  1  0.79011100  0.49589700  0.13910900  1
  S  S23  1  0.20988900  0.50410300  0.86089100  1
  S  S24  1  0.96607300  0.87492800  0.31506800  1
  S  S25  1  0.53392700  0.37492800  0.31506800  1
  S  S26  1  0.03392700  0.12507200  0.68493200  1
  S  S27  1  0.44694600  0.70751200  0.04415300  1
  S  S28  1  0.94694600  0.79248800  0.95584700  1
  S  S29  1  0.05305400  0.20751200  0.04415300  1
  S  S30  1  0.79810900  0.26184500  0.43147200  1
  S  S31  1  0.81121600  0.25312800  0.83829100  1
  S  S32  1  0.68878400  0.75312800  0.83829100  1
  S  S33  1  0.31121600  0.24687200  0.16170900  1
  S  S34  1  0.18878400  0.74687200  0.16170900  1
  S  S35  1  0.46607300  0.62507200  0.68493200  1
