# generated using pymatgen
data_W2NCl9
_symmetry_space_group_name_H-M   'P 1'
_cell_length_a   17.30403900
_cell_length_b   9.12837500
_cell_length_c   12.93616039
_cell_angle_alpha   45.16993180
_cell_angle_beta   90.00000000
_cell_angle_gamma   90.00000000
_symmetry_Int_Tables_number   1
_chemical_formula_structural   W2NCl9
_chemical_formula_sum   'W8 N4 Cl36'
_cell_volume   1449.15753659
_cell_formula_units_Z   4
loop_
 _symmetry_equiv_pos_site_id
 _symmetry_equiv_pos_as_xyz
  1  'x, y, z'
loop_
 _atom_site_type_symbol
 _atom_site_label
 _atom_site_symmetry_multiplicity
 _atom_site_fract_x
 _atom_site_fract_y
 _atom_site_fract_z
 _atom_site_occupancy
  W  W0  1  0.19129000  0.18809300  0.46086200  1
  W  W1  1  0.30871000  0.18809300  0.96086200  1
  W  W2  1  0.69129000  0.81190700  0.03913800  1
  W  W3  1  0.90712400  0.81812600  0.04136600  1
  W  W4  1  0.09287600  0.18187400  0.95863400  1
  W  W5  1  0.59287600  0.81812600  0.54136600  1
  W  W6  1  0.80871000  0.81190700  0.53913800  1
  W  W7  1  0.40712400  0.18187400  0.45863400  1
  N  N8  1  0.69435400  0.81744900  0.54142900  1
  N  N9  1  0.19435400  0.18255100  0.95857100  1
  N  N10  1  0.30564600  0.18255100  0.45857100  1
  N  N11  1  0.80564600  0.81744900  0.04142900  1
  Cl  Cl12  1  0.80871200  0.11920400  0.47675500  1
  Cl  Cl13  1  0.44188400  0.19872400  0.96432200  1
  Cl  Cl14  1  0.56915800  0.51302100  0.60948100  1
  Cl  Cl15  1  0.43084200  0.48697900  0.39051900  1
  Cl  Cl16  1  0.05811600  0.19872400  0.46432200  1
  Cl  Cl17  1  0.19203300  0.36689200  0.21739800  1
  Cl  Cl18  1  0.19836500  0.00636100  0.70459600  1
  Cl  Cl19  1  0.19128800  0.88079600  0.52324500  1
  Cl  Cl20  1  0.79729800  0.50476400  0.60261000  1
  Cl  Cl21  1  0.07553300  0.85916400  0.03083000  1
  Cl  Cl22  1  0.29729800  0.49523600  0.89739000  1
  Cl  Cl23  1  0.20270200  0.49523600  0.39739000  1
  Cl  Cl24  1  0.57493600  0.99677600  0.30026600  1
  Cl  Cl25  1  0.69203300  0.63310800  0.28260200  1
  Cl  Cl26  1  0.30796700  0.36689200  0.71739800  1
  Cl  Cl27  1  0.57431500  0.65819900  0.77809600  1
  Cl  Cl28  1  0.69836500  0.99363900  0.79540400  1
  Cl  Cl29  1  0.92506400  0.99677600  0.80026600  1
  Cl  Cl30  1  0.57553300  0.14083600  0.46917000  1
  Cl  Cl31  1  0.92568500  0.65819900  0.27809600  1
  Cl  Cl32  1  0.42568500  0.34180100  0.22190400  1
  Cl  Cl33  1  0.06915800  0.48697900  0.89051900  1
  Cl  Cl34  1  0.70270200  0.50476400  0.10261000  1
  Cl  Cl35  1  0.42446700  0.85916400  0.53083000  1
  Cl  Cl36  1  0.55811600  0.80127600  0.03567800  1
  Cl  Cl37  1  0.94188400  0.80127600  0.53567800  1
  Cl  Cl38  1  0.80163500  0.99363900  0.29540400  1
  Cl  Cl39  1  0.69128800  0.11920400  0.97675500  1
  Cl  Cl40  1  0.80796700  0.63310800  0.78260200  1
  Cl  Cl41  1  0.42506400  0.00322400  0.69973400  1
  Cl  Cl42  1  0.07431500  0.34180100  0.72190400  1
  Cl  Cl43  1  0.07493600  0.00322400  0.19973400  1
  Cl  Cl44  1  0.92446700  0.14083600  0.96917000  1
  Cl  Cl45  1  0.30871200  0.88079600  0.02324500  1
  Cl  Cl46  1  0.30163500  0.00636100  0.20459600  1
  Cl  Cl47  1  0.93084200  0.51302100  0.10948100  1
