# generated using pymatgen
data_La3Si2S8Cl
_symmetry_space_group_name_H-M   'P 1'
_cell_length_a   8.82741794
_cell_length_b   8.82741794
_cell_length_c   11.09180241
_cell_angle_alpha   83.73882290
_cell_angle_beta   83.73882290
_cell_angle_gamma   52.64815786
_symmetry_Int_Tables_number   1
_chemical_formula_structural   La3Si2S8Cl
_chemical_formula_sum   'La6 Si4 S16 Cl2'
_cell_volume   681.95624259
_cell_formula_units_Z   2
loop_
 _symmetry_equiv_pos_site_id
 _symmetry_equiv_pos_as_xyz
  1  'x, y, z'
loop_
 _atom_site_type_symbol
 _atom_site_label
 _atom_site_symmetry_multiplicity
 _atom_site_fract_x
 _atom_site_fract_y
 _atom_site_fract_z
 _atom_site_occupancy
  La  La0  1  0.07273200  0.31137700  0.81467300  1
  La  La1  1  0.68862300  0.92726800  0.68532700  1
  La  La2  1  0.31137700  0.07273200  0.31467300  1
  La  La3  1  0.61756900  0.38243100  0.25000000  1
  La  La4  1  0.92726800  0.68862300  0.18532700  1
  La  La5  1  0.38243100  0.61756900  0.75000000  1
  Si  Si6  1  0.37102800  0.30841100  0.03001100  1
  Si  Si7  1  0.62897200  0.69158900  0.96998900  1
  Si  Si8  1  0.69158900  0.62897200  0.46998900  1
  Si  Si9  1  0.30841100  0.37102800  0.53001100  1
  S  S10  1  0.72023100  0.41100800  0.94885800  1
  S  S11  1  0.44115900  0.26173500  0.84149000  1
  S  S12  1  0.89380500  0.40003700  0.35796800  1
  S  S13  1  0.40003700  0.89380500  0.85796800  1
  S  S14  1  0.73826500  0.55884100  0.65851000  1
  S  S15  1  0.27976900  0.58899200  0.05114200  1
  S  S16  1  0.85773900  0.70947700  0.91540700  1
  S  S17  1  0.26173500  0.44115900  0.34149000  1
  S  S18  1  0.58899200  0.27976900  0.55114200  1
  S  S19  1  0.29052300  0.14226100  0.58459300  1
  S  S20  1  0.14226100  0.29052300  0.08459300  1
  S  S21  1  0.41100800  0.72023100  0.44885800  1
  S  S22  1  0.70947700  0.85773900  0.41540700  1
  S  S23  1  0.59996300  0.10619500  0.14203200  1
  S  S24  1  0.10619500  0.59996300  0.64203200  1
  S  S25  1  0.55884100  0.73826500  0.15851000  1
  Cl  Cl26  1  0.00432800  0.99567200  0.75000000  1
  Cl  Cl27  1  0.99567200  0.00432800  0.25000000  1
