# generated using pymatgen
data_ZrMnTlF7
_symmetry_space_group_name_H-M   'P 1'
_cell_length_a   6.54774876
_cell_length_b   6.54774876
_cell_length_c   8.41330900
_cell_angle_alpha   90.00000000
_cell_angle_beta   90.00000000
_cell_angle_gamma   117.58110830
_symmetry_Int_Tables_number   1
_chemical_formula_structural   ZrMnTlF7
_chemical_formula_sum   'Zr2 Mn2 Tl2 F14'
_cell_volume   319.71218185
_cell_formula_units_Z   2
loop_
 _symmetry_equiv_pos_site_id
 _symmetry_equiv_pos_as_xyz
  1  'x, y, z'
loop_
 _atom_site_type_symbol
 _atom_site_label
 _atom_site_symmetry_multiplicity
 _atom_site_fract_x
 _atom_site_fract_y
 _atom_site_fract_z
 _atom_site_occupancy
  Zr  Zr0  1  0.19263600  0.80736400  0.75000000  1
  Zr  Zr1  1  0.80736400  0.19263600  0.25000000  1
  Mn  Mn2  1  0.81233100  0.18766900  0.75000000  1
  Mn  Mn3  1  0.18766900  0.81233100  0.25000000  1
  Tl  Tl4  1  0.50000000  0.50000000  0.50000000  1
  Tl  Tl5  1  0.50000000  0.50000000  0.00000000  1
  F  F6  1  0.44754700  0.15625000  0.75000000  1
  F  F7  1  0.80435600  0.19564400  0.49429000  1
  F  F8  1  0.47479400  0.16660100  0.25000000  1
  F  F9  1  0.83339900  0.52520600  0.25000000  1
  F  F10  1  0.52520600  0.83339900  0.75000000  1
  F  F11  1  0.19564400  0.80435600  0.50571000  1
  F  F12  1  0.19564400  0.80435600  0.99429000  1
  F  F13  1  0.00768100  0.99231900  0.75000000  1
  F  F14  1  0.15625000  0.44754700  0.25000000  1
  F  F15  1  0.80435600  0.19564400  0.00571000  1
  F  F16  1  0.99231900  0.00768100  0.25000000  1
  F  F17  1  0.16660100  0.47479400  0.75000000  1
  F  F18  1  0.84375000  0.55245300  0.75000000  1
  F  F19  1  0.55245300  0.84375000  0.25000000  1
