# generated using pymatgen
data_K10In5Sb9
_symmetry_space_group_name_H-M   'P 1'
_cell_length_a   12.53481400
_cell_length_b   17.09083200
_cell_length_c   18.93159287
_cell_angle_alpha   59.44172316
_cell_angle_beta   90.00000000
_cell_angle_gamma   90.00000000
_symmetry_Int_Tables_number   1
_chemical_formula_structural   K10In5Sb9
_chemical_formula_sum   'K40 In20 Sb36'
_cell_volume   3492.43347169
_cell_formula_units_Z   4
loop_
 _symmetry_equiv_pos_site_id
 _symmetry_equiv_pos_as_xyz
  1  'x, y, z'
loop_
 _atom_site_type_symbol
 _atom_site_label
 _atom_site_symmetry_multiplicity
 _atom_site_fract_x
 _atom_site_fract_y
 _atom_site_fract_z
 _atom_site_occupancy
  K  K0  1  0.14884600  0.24013200  0.32740900  1
  K  K1  1  0.59372400  0.24771800  0.32287300  1
  K  K2  1  0.36685500  0.90355800  0.03550000  1
  K  K3  1  0.88992400  0.19983400  0.61027600  1
  K  K4  1  0.85977300  0.36351600  0.96536900  1
  K  K5  1  0.90287400  0.64317100  0.52402700  1
  K  K6  1  0.37959900  0.07982700  0.46685800  1
  K  K7  1  0.90627600  0.24771800  0.82287300  1
  K  K8  1  0.13381100  0.75414100  0.78605800  1
  K  K9  1  0.86618900  0.24585900  0.21394200  1
  K  K10  1  0.14022700  0.63648400  0.03463100  1
  K  K11  1  0.35115400  0.24013200  0.82740900  1
  K  K12  1  0.36618900  0.75414100  0.28605800  1
  K  K13  1  0.13314500  0.90355800  0.53550000  1
  K  K14  1  0.63641500  0.56235500  0.85745900  1
  K  K15  1  0.09372400  0.75228200  0.17712700  1
  K  K16  1  0.64688200  0.79175700  0.39547000  1
  K  K17  1  0.12040100  0.07982700  0.96685800  1
  K  K18  1  0.63381100  0.24585900  0.71394200  1
  K  K19  1  0.14688200  0.20824300  0.10453000  1
  K  K20  1  0.13641500  0.43764500  0.64254100  1
  K  K21  1  0.64884600  0.75986800  0.17259100  1
  K  K22  1  0.63314500  0.09644200  0.96450000  1
  K  K23  1  0.61007600  0.19983400  0.11027600  1
  K  K24  1  0.40287400  0.35682900  0.97597300  1
  K  K25  1  0.09712600  0.35682900  0.47597300  1
  K  K26  1  0.85115400  0.75986800  0.67259100  1
  K  K27  1  0.64022700  0.36351600  0.46536900  1
  K  K28  1  0.62040100  0.92017300  0.53314200  1
  K  K29  1  0.85311800  0.79175700  0.89547000  1
  K  K30  1  0.86358500  0.56235500  0.35745900  1
  K  K31  1  0.59712600  0.64317100  0.02402700  1
  K  K32  1  0.87959900  0.92017300  0.03314200  1
  K  K33  1  0.38992400  0.80016600  0.88972400  1
  K  K34  1  0.35311800  0.20824300  0.60453000  1
  K  K35  1  0.35977300  0.63648400  0.53463100  1
  K  K36  1  0.36358500  0.43764500  0.14254100  1
  K  K37  1  0.86685500  0.09644200  0.46450000  1
  K  K38  1  0.40627600  0.75228200  0.67712700  1
  K  K39  1  0.11007600  0.80016600  0.38972400  1
  In  In40  1  0.02028300  0.47979800  0.22874200  1
  In  In41  1  0.52028300  0.52020200  0.27125800  1
  In  In42  1  0.50099600  0.00796000  0.30681700  1
  In  In43  1  0.27763300  0.53256700  0.77625900  1
  In  In44  1  0.25101800  0.01211100  0.81005000  1
  In  In45  1  0.47971700  0.47979800  0.72874200  1
  In  In46  1  0.75101800  0.98788900  0.68995000  1
  In  In47  1  0.49900400  0.99204000  0.69318300  1
  In  In48  1  0.36927900  0.49174700  0.44773600  1
  In  In49  1  0.77763300  0.46743300  0.72374100  1
  In  In50  1  0.74898200  0.98788900  0.18995000  1
  In  In51  1  0.00099600  0.99204000  0.19318300  1
  In  In52  1  0.24898200  0.01211100  0.31005000  1
  In  In53  1  0.97971700  0.52020200  0.77125800  1
  In  In54  1  0.13072100  0.49174700  0.94773600  1
  In  In55  1  0.22236700  0.53256700  0.27626000  1
  In  In56  1  0.63072100  0.50825300  0.55226400  1
  In  In57  1  0.99900400  0.00796000  0.80681700  1
  In  In58  1  0.72236700  0.46743300  0.22374100  1
  In  In59  1  0.86927900  0.50825300  0.05226400  1
  Sb  Sb60  1  0.12364600  0.65526000  0.64714100  1
  Sb  Sb61  1  0.51800000  0.96207700  0.17460500  1
  Sb  Sb62  1  0.12278500  0.17729700  0.74574800  1
  Sb  Sb63  1  0.48200000  0.03792300  0.82539500  1
  Sb  Sb64  1  0.87450100  0.90085500  0.44425900  1
  Sb  Sb65  1  0.16612300  0.58750100  0.39899900  1
  Sb  Sb66  1  0.23042300  0.96570600  0.17706900  1
  Sb  Sb67  1  0.43183100  0.39815700  0.62082600  1
  Sb  Sb68  1  0.56816900  0.60184300  0.37917400  1
  Sb  Sb69  1  0.62278500  0.82270300  0.75425200  1
  Sb  Sb70  1  0.33387700  0.58750100  0.89899900  1
  Sb  Sb71  1  0.93183100  0.60184300  0.87917400  1
  Sb  Sb72  1  0.62364600  0.34474000  0.85285900  1
  Sb  Sb73  1  0.37450100  0.09914500  0.05574100  1
  Sb  Sb74  1  0.86146300  0.63051900  0.12238700  1
  Sb  Sb75  1  0.66612300  0.41249900  0.10100100  1
  Sb  Sb76  1  0.12549900  0.09914500  0.55574100  1
  Sb  Sb77  1  0.83387700  0.41249900  0.60100100  1
  Sb  Sb78  1  0.62273300  0.12664700  0.55415700  1
  Sb  Sb79  1  0.63853700  0.63051900  0.62238700  1
  Sb  Sb80  1  0.06816900  0.39815700  0.12082600  1
  Sb  Sb81  1  0.73042300  0.03429400  0.32293100  1
  Sb  Sb82  1  0.01800000  0.03792300  0.32539500  1
  Sb  Sb83  1  0.37721500  0.17729700  0.24574800  1
  Sb  Sb84  1  0.37726700  0.87335300  0.44584300  1
  Sb  Sb85  1  0.36146300  0.36948100  0.37761300  1
  Sb  Sb86  1  0.87721500  0.82270300  0.25425200  1
  Sb  Sb87  1  0.87726700  0.12664700  0.05415700  1
  Sb  Sb88  1  0.76957700  0.03429400  0.82293100  1
  Sb  Sb89  1  0.87635400  0.34474000  0.35285900  1
  Sb  Sb90  1  0.98200000  0.96207700  0.67460500  1
  Sb  Sb91  1  0.37635400  0.65526000  0.14714100  1
  Sb  Sb92  1  0.13853700  0.36948100  0.87761300  1
  Sb  Sb93  1  0.26957700  0.96570600  0.67706900  1
  Sb  Sb94  1  0.12273300  0.87335300  0.94584300  1
  Sb  Sb95  1  0.62549900  0.90085500  0.94425900  1
