# generated using pymatgen
data_Cs7Co4F15
_symmetry_space_group_name_H-M   'P 1'
_cell_length_a   11.13873500
_cell_length_b   8.00008700
_cell_length_c   11.79552615
_cell_angle_alpha   87.61180590
_cell_angle_beta   90.00000000
_cell_angle_gamma   90.00000000
_symmetry_Int_Tables_number   1
_chemical_formula_structural   Cs7Co4F15
_chemical_formula_sum   'Cs14 Co8 F30'
_cell_volume   1050.19639644
_cell_formula_units_Z   2
loop_
 _symmetry_equiv_pos_site_id
 _symmetry_equiv_pos_as_xyz
  1  'x, y, z'
loop_
 _atom_site_type_symbol
 _atom_site_label
 _atom_site_symmetry_multiplicity
 _atom_site_fract_x
 _atom_site_fract_y
 _atom_site_fract_z
 _atom_site_occupancy
  Cs  Cs0  1  0.65366700  0.84119300  0.80371600  1
  Cs  Cs1  1  0.99832800  0.66994700  0.66579800  1
  Cs  Cs2  1  0.81829000  0.50303800  0.03088700  1
  Cs  Cs3  1  0.49832800  0.33005300  0.83420200  1
  Cs  Cs4  1  0.50167200  0.66994700  0.16579800  1
  Cs  Cs5  1  0.50000000  0.00000000  0.50000000  1
  Cs  Cs6  1  0.15366700  0.15880700  0.69628400  1
  Cs  Cs7  1  0.84633300  0.84119300  0.30371600  1
  Cs  Cs8  1  0.00167200  0.33005300  0.33420200  1
  Cs  Cs9  1  0.34633300  0.15880700  0.19628400  1
  Cs  Cs10  1  0.68171000  0.50303800  0.53088700  1
  Cs  Cs11  1  0.31829000  0.49696200  0.46911300  1
  Cs  Cs12  1  0.00000000  0.00000000  0.00000000  1
  Cs  Cs13  1  0.18171000  0.49696200  0.96911300  1
  Co  Co14  1  0.17231300  0.73849800  0.22627800  1
  Co  Co15  1  0.83785100  0.07692800  0.57190100  1
  Co  Co16  1  0.66214900  0.07692800  0.07190100  1
  Co  Co17  1  0.32768700  0.73849800  0.72627800  1
  Co  Co18  1  0.67231300  0.26150200  0.27372200  1
  Co  Co19  1  0.82768700  0.26150200  0.77372200  1
  Co  Co20  1  0.16214900  0.92307200  0.42809900  1
  Co  Co21  1  0.33785100  0.92307200  0.92809900  1
  F  F22  1  0.09087400  0.68854900  0.39461800  1
  F  F23  1  0.40912600  0.68854900  0.89461800  1
  F  F24  1  0.24730800  0.51063000  0.22165400  1
  F  F25  1  0.97446100  0.33134100  0.85855300  1
  F  F26  1  0.23412800  0.83032400  0.58223200  1
  F  F27  1  0.25269200  0.51063000  0.72165400  1
  F  F28  1  0.74730800  0.48937000  0.27834600  1
  F  F29  1  0.73412800  0.16967600  0.91776800  1
  F  F30  1  0.19012500  0.82730300  0.83504300  1
  F  F31  1  0.75269200  0.48937000  0.77834600  1
  F  F32  1  0.59087400  0.31145100  0.10538200  1
  F  F33  1  0.90912600  0.31145100  0.60538200  1
  F  F34  1  0.47446100  0.66865900  0.64144700  1
  F  F35  1  0.30987500  0.82730300  0.33504300  1
  F  F36  1  0.26393600  0.14766200  0.94478200  1
  F  F37  1  0.80987500  0.17269700  0.16495700  1
  F  F38  1  0.60257500  0.02263600  0.24053900  1
  F  F39  1  0.52553900  0.33134100  0.35855300  1
  F  F40  1  0.73606400  0.85233800  0.05521800  1
  F  F41  1  0.76393600  0.85233800  0.55521800  1
  F  F42  1  0.69012500  0.17269700  0.66495700  1
  F  F43  1  0.02553900  0.66865900  0.14144700  1
  F  F44  1  0.10257500  0.97736400  0.25946100  1
  F  F45  1  0.23606400  0.14766200  0.44478200  1
  F  F46  1  0.76587200  0.16967600  0.41776800  1
  F  F47  1  0.39742500  0.97736400  0.75946100  1
  F  F48  1  0.26587200  0.83032400  0.08223200  1
  F  F49  1  0.00000000  0.00000000  0.50000000  1
  F  F50  1  0.89742500  0.02263600  0.74053900  1
  F  F51  1  0.50000000  0.00000000  0.00000000  1
