# generated using pymatgen
data_MgAs2(XeF9)2
_symmetry_space_group_name_H-M   'P 1'
_cell_length_a   8.77731500
_cell_length_b   13.30965700
_cell_length_c   17.08367652
_cell_angle_alpha   51.57366652
_cell_angle_beta   90.00000000
_cell_angle_gamma   90.00000000
_symmetry_Int_Tables_number   1
_chemical_formula_structural   MgAs2(XeF9)2
_chemical_formula_sum   'Mg4 As8 Xe8 F72'
_cell_volume   1563.49979816
_cell_formula_units_Z   4
loop_
 _symmetry_equiv_pos_site_id
 _symmetry_equiv_pos_as_xyz
  1  'x, y, z'
loop_
 _atom_site_type_symbol
 _atom_site_label
 _atom_site_symmetry_multiplicity
 _atom_site_fract_x
 _atom_site_fract_y
 _atom_site_fract_z
 _atom_site_occupancy
  Mg  Mg0  1  0.03733200  0.25798000  0.13532800  1
  Mg  Mg1  1  0.53733200  0.74202000  0.36467200  1
  Mg  Mg2  1  0.46266800  0.25798000  0.63532800  1
  Mg  Mg3  1  0.96266800  0.74202000  0.86467200  1
  As  As4  1  0.30707000  0.02364400  0.17030500  1
  As  As5  1  0.73602900  0.49324900  0.60717400  1
  As  As6  1  0.19293000  0.02364400  0.67030500  1
  As  As7  1  0.23602900  0.50675100  0.89282600  1
  As  As8  1  0.69293000  0.97635600  0.82969500  1
  As  As9  1  0.80707000  0.97635600  0.32969500  1
  As  As10  1  0.76397100  0.49324900  0.10717400  1
  As  As11  1  0.26397100  0.50675100  0.39282600  1
  Xe  Xe12  1  0.85186800  0.79571500  0.16821500  1
  Xe  Xe13  1  0.70347900  0.28241000  0.95039800  1
  Xe  Xe14  1  0.79652100  0.28241000  0.45039800  1
  Xe  Xe15  1  0.20347900  0.71759000  0.54960200  1
  Xe  Xe16  1  0.64813200  0.79571500  0.66821500  1
  Xe  Xe17  1  0.14813200  0.20428500  0.83178500  1
  Xe  Xe18  1  0.29652100  0.71759000  0.04960200  1
  Xe  Xe19  1  0.35186800  0.20428500  0.33178500  1
  F  F20  1  0.72842500  0.00966200  0.71455600  1
  F  F21  1  0.15789100  0.14708800  0.11368000  1
  F  F22  1  0.09456000  0.63388500  0.84450000  1
  F  F23  1  0.04660700  0.89845600  0.73086600  1
  F  F24  1  0.36408900  0.37924600  0.94662100  1
  F  F25  1  0.54746300  0.29369100  0.86038700  1
  F  F26  1  0.79974800  0.73561400  0.78777600  1
  F  F27  1  0.30192300  0.52426800  0.13401900  1
  F  F28  1  0.60918800  0.56570100  0.63791600  1
  F  F29  1  0.82170300  0.40499200  0.72556100  1
  F  F30  1  0.22842500  0.99033800  0.78544400  1
  F  F31  1  0.34303000  0.05896700  0.05501500  1
  F  F32  1  0.84303000  0.94103300  0.44498500  1
  F  F33  1  0.65697000  0.94103300  0.94498500  1
  F  F34  1  0.80165800  0.09090000  0.52600400  1
  F  F35  1  0.37341900  0.73074700  0.45334900  1
  F  F36  1  0.40544000  0.63388500  0.34450000  1
  F  F37  1  0.95253700  0.29369100  0.36038700  1
  F  F38  1  0.84210900  0.85291200  0.88632000  1
  F  F39  1  0.27157500  0.99033800  0.28544400  1
  F  F40  1  0.15194400  0.58267800  0.42665500  1
  F  F41  1  0.15697000  0.05896700  0.55501500  1
  F  F42  1  0.86408900  0.62075400  0.55337900  1
  F  F43  1  0.69807700  0.47573200  0.86598100  1
  F  F44  1  0.65194400  0.41732200  0.07334500  1
  F  F45  1  0.89081200  0.56570100  0.13791600  1
  F  F46  1  0.17138800  0.90958600  0.19739300  1
  F  F47  1  0.39081200  0.43429900  0.36208400  1
  F  F48  1  0.82861200  0.09041400  0.80260700  1
  F  F49  1  0.19834200  0.90910000  0.47399600  1
  F  F50  1  0.45339300  0.89845600  0.23086600  1
  F  F51  1  0.45253700  0.70630900  0.13961300  1
  F  F52  1  0.69834200  0.09090000  0.02600400  1
  F  F53  1  0.13644600  0.42204000  0.01301600  1
  F  F54  1  0.67829700  0.40499200  0.22556100  1
  F  F55  1  0.19807700  0.52426800  0.63401900  1
  F  F56  1  0.84805600  0.41732200  0.57334500  1
  F  F57  1  0.99862800  0.84745400  0.05733100  1
  F  F58  1  0.67138800  0.09041400  0.30260700  1
  F  F59  1  0.59456000  0.36611500  0.65550000  1
  F  F60  1  0.34805600  0.58267800  0.92665500  1
  F  F61  1  0.36355400  0.42204000  0.51301600  1
  F  F62  1  0.29974800  0.26438600  0.71222400  1
  F  F63  1  0.49862800  0.15254600  0.44266900  1
  F  F64  1  0.86355400  0.57796000  0.98698400  1
  F  F65  1  0.63644600  0.57796000  0.48698400  1
  F  F66  1  0.95339300  0.10154400  0.26913400  1
  F  F67  1  0.80192300  0.47573200  0.36598100  1
  F  F68  1  0.20025200  0.26438600  0.21222400  1
  F  F69  1  0.77157500  0.00966200  0.21455600  1
  F  F70  1  0.30165800  0.90910000  0.97399600  1
  F  F71  1  0.32170300  0.59500800  0.77443900  1
  F  F72  1  0.10918800  0.43429900  0.86208400  1
  F  F73  1  0.55655400  0.86250600  0.85681100  1
  F  F74  1  0.44344600  0.13749400  0.14318900  1
  F  F75  1  0.17829700  0.59500800  0.27443900  1
  F  F76  1  0.62658100  0.26925300  0.54665100  1
  F  F77  1  0.32861200  0.90958600  0.69739300  1
  F  F78  1  0.54660700  0.10154400  0.76913400  1
  F  F79  1  0.00137200  0.15254600  0.94266900  1
  F  F80  1  0.70025200  0.73561400  0.28777600  1
  F  F81  1  0.05655400  0.13749400  0.64318900  1
  F  F82  1  0.12658100  0.73074700  0.95334900  1
  F  F83  1  0.50137200  0.84745400  0.55733100  1
  F  F84  1  0.34210900  0.14708800  0.61368000  1
  F  F85  1  0.90544000  0.36611500  0.15550000  1
  F  F86  1  0.65789100  0.85291200  0.38632000  1
  F  F87  1  0.63591100  0.62075400  0.05337900  1
  F  F88  1  0.87341900  0.26925300  0.04665100  1
  F  F89  1  0.04746300  0.70630900  0.63961300  1
  F  F90  1  0.13591100  0.37924600  0.44662100  1
  F  F91  1  0.94344600  0.86250600  0.35681000  1
