# generated using pymatgen
data_Cs(OsO3)2
_symmetry_space_group_name_H-M   'P 1'
_cell_length_a   7.26930944
_cell_length_b   7.26930944
_cell_length_c   7.26930944
_cell_angle_alpha   60.00000000
_cell_angle_beta   60.00000000
_cell_angle_gamma   60.00000000
_symmetry_Int_Tables_number   1
_chemical_formula_structural   Cs(OsO3)2
_chemical_formula_sum   'Cs2 Os4 O12'
_cell_volume   271.62170511
_cell_formula_units_Z   2
loop_
 _symmetry_equiv_pos_site_id
 _symmetry_equiv_pos_as_xyz
  1  'x, y, z'
loop_
 _atom_site_type_symbol
 _atom_site_label
 _atom_site_symmetry_multiplicity
 _atom_site_fract_x
 _atom_site_fract_y
 _atom_site_fract_z
 _atom_site_occupancy
  Cs  Cs0  1  0.00000000  0.00000000  0.00000000  1
  Cs  Cs1  1  0.25000000  0.25000000  0.25000000  1
  Os  Os2  1  0.62500000  0.12500000  0.62500000  1
  Os  Os3  1  0.12500000  0.62500000  0.62500000  1
  Os  Os4  1  0.62500000  0.62500000  0.12500000  1
  Os  Os5  1  0.62500000  0.62500000  0.62500000  1
  O  O6  1  0.56134300  0.93865700  0.93865700  1
  O  O7  1  0.31134300  0.68865700  0.68865700  1
  O  O8  1  0.93865700  0.56134300  0.93865700  1
  O  O9  1  0.93865700  0.56134300  0.56134300  1
  O  O10  1  0.31134300  0.31134300  0.68865700  1
  O  O11  1  0.31134300  0.68865700  0.31134300  1
  O  O12  1  0.68865700  0.31134300  0.68865700  1
  O  O13  1  0.68865700  0.31134300  0.31134300  1
  O  O14  1  0.93865700  0.93865700  0.56134300  1
  O  O15  1  0.56134300  0.56134300  0.93865700  1
  O  O16  1  0.68865700  0.68865700  0.31134300  1
  O  O17  1  0.56134300  0.93865700  0.56134300  1
