# generated using pymatgen
data_Li15Au4
_symmetry_space_group_name_H-M   'P 1'
_cell_length_a   9.37532602
_cell_length_b   9.37532602
_cell_length_c   9.37532602
_cell_angle_alpha   109.47122063
_cell_angle_beta   109.47122063
_cell_angle_gamma   109.47122063
_symmetry_Int_Tables_number   1
_chemical_formula_structural   Li15Au4
_chemical_formula_sum   'Li30 Au8'
_cell_volume   634.36212566
_cell_formula_units_Z   2
loop_
 _symmetry_equiv_pos_site_id
 _symmetry_equiv_pos_as_xyz
  1  'x, y, z'
loop_
 _atom_site_type_symbol
 _atom_site_label
 _atom_site_symmetry_multiplicity
 _atom_site_fract_x
 _atom_site_fract_y
 _atom_site_fract_z
 _atom_site_occupancy
  Li  Li0  1  0.37997400  0.65644200  0.96024500  1
  Li  Li1  1  0.03975500  0.91972900  0.69619700  1
  Li  Li2  1  0.69619700  0.03975500  0.91972900  1
  Li  Li3  1  0.75000000  0.87500000  0.12500000  1
  Li  Li4  1  0.46024500  0.15644200  0.87997400  1
  Li  Li5  1  0.12002600  0.08027100  0.27646800  1
  Li  Li6  1  0.41972900  0.53975500  0.19619700  1
  Li  Li7  1  0.58027100  0.62002600  0.77646800  1
  Li  Li8  1  0.77646800  0.58027100  0.62002600  1
  Li  Li9  1  0.53975500  0.19619700  0.41972900  1
  Li  Li10  1  0.72353200  0.34355800  0.80380300  1
  Li  Li11  1  0.15644200  0.87997400  0.46024500  1
  Li  Li12  1  0.84355800  0.22353200  0.30380300  1
  Li  Li13  1  0.08027100  0.27646800  0.12002600  1
  Li  Li14  1  0.19619700  0.41972900  0.53975500  1
  Li  Li15  1  0.37500000  0.25000000  0.62500000  1
  Li  Li16  1  0.96024500  0.37997400  0.65644200  1
  Li  Li17  1  0.12500000  0.75000000  0.87500000  1
  Li  Li18  1  0.62002600  0.77646800  0.58027100  1
  Li  Li19  1  0.65644200  0.96024500  0.37997400  1
  Li  Li20  1  0.34355800  0.80380300  0.72353200  1
  Li  Li21  1  0.27646800  0.12002600  0.08027100  1
  Li  Li22  1  0.80380300  0.72353200  0.34355800  1
  Li  Li23  1  0.22353200  0.30380300  0.84355800  1
  Li  Li24  1  0.91972900  0.69619700  0.03975500  1
  Li  Li25  1  0.87997400  0.46024500  0.15644200  1
  Li  Li26  1  0.87500000  0.12500000  0.75000000  1
  Li  Li27  1  0.30380300  0.84355800  0.22353200  1
  Li  Li28  1  0.25000000  0.62500000  0.37500000  1
  Li  Li29  1  0.62500000  0.37500000  0.25000000  1
  Au  Au30  1  0.00000000  0.08677400  0.50000000  1
  Au  Au31  1  0.91322600  0.91322600  0.91322600  1
  Au  Au32  1  0.41322600  0.41322600  0.41322600  1
  Au  Au33  1  0.08677400  0.50000000  0.00000000  1
  Au  Au34  1  0.50000000  0.00000000  0.08677400  1
  Au  Au35  1  0.50000000  0.00000000  0.58677400  1
  Au  Au36  1  0.00000000  0.58677400  0.50000000  1
  Au  Au37  1  0.58677400  0.50000000  0.00000000  1
