# generated using pymatgen
data_Yb2(ZnGe)3
_symmetry_space_group_name_H-M   'P 1'
_cell_length_a   8.23080055
_cell_length_b   8.23080055
_cell_length_c   11.62030818
_cell_angle_alpha   54.80151119
_cell_angle_beta   54.80151119
_cell_angle_gamma   30.35857007
_symmetry_Int_Tables_number   1
_chemical_formula_structural   Yb2(ZnGe)3
_chemical_formula_sum   'Yb4 Zn6 Ge6'
_cell_volume   319.11749904
_cell_formula_units_Z   2
loop_
 _symmetry_equiv_pos_site_id
 _symmetry_equiv_pos_as_xyz
  1  'x, y, z'
loop_
 _atom_site_type_symbol
 _atom_site_label
 _atom_site_symmetry_multiplicity
 _atom_site_fract_x
 _atom_site_fract_y
 _atom_site_fract_z
 _atom_site_occupancy
  Yb  Yb0  1  0.56758600  0.56758600  0.09005500  1
  Yb  Yb1  1  0.43241400  0.43241400  0.90994500  1
  Yb  Yb2  1  0.26114200  0.26114200  0.33347300  1
  Yb  Yb3  1  0.73885800  0.73885800  0.66652700  1
  Zn  Zn4  1  0.76793600  0.76793600  0.10160300  1
  Zn  Zn5  1  0.06194100  0.06194100  0.67530100  1
  Zn  Zn6  1  0.23206400  0.23206400  0.89839700  1
  Zn  Zn7  1  0.41977700  0.41977700  0.64220000  1
  Zn  Zn8  1  0.93805900  0.93805900  0.32469900  1
  Zn  Zn9  1  0.58022300  0.58022300  0.35780000  1
  Ge  Ge10  1  0.91632100  0.91632100  0.12266000  1
  Ge  Ge11  1  0.84568800  0.84568800  0.82326600  1
  Ge  Ge12  1  0.08367900  0.08367900  0.87734000  1
  Ge  Ge13  1  0.61728500  0.61728500  0.54105700  1
  Ge  Ge14  1  0.15431200  0.15431200  0.17673400  1
  Ge  Ge15  1  0.38271500  0.38271500  0.45894300  1
