# generated using pymatgen
data_Zr4(AlC2)3
_symmetry_space_group_name_H-M   'P 1'
_cell_length_a   3.36130207
_cell_length_b   3.36130207
_cell_length_c   33.15437300
_cell_angle_alpha   90.00000000
_cell_angle_beta   90.00000000
_cell_angle_gamma   120.00000133
_symmetry_Int_Tables_number   1
_chemical_formula_structural   Zr4(AlC2)3
_chemical_formula_sum   'Zr8 Al6 C12'
_cell_volume   324.40424633
_cell_formula_units_Z   2
loop_
 _symmetry_equiv_pos_site_id
 _symmetry_equiv_pos_as_xyz
  1  'x, y, z'
loop_
 _atom_site_type_symbol
 _atom_site_label
 _atom_site_symmetry_multiplicity
 _atom_site_fract_x
 _atom_site_fract_y
 _atom_site_fract_z
 _atom_site_occupancy
  Zr  Zr0  1  0.66666700  0.33333300  0.54024700  1
  Zr  Zr1  1  0.00000000  0.00000000  0.37921700  1
  Zr  Zr2  1  0.00000000  0.00000000  0.62078300  1
  Zr  Zr3  1  0.33333300  0.66666700  0.04024700  1
  Zr  Zr4  1  0.33333300  0.66666700  0.45975300  1
  Zr  Zr5  1  0.00000000  0.00000000  0.12078300  1
  Zr  Zr6  1  0.00000000  0.00000000  0.87921700  1
  Zr  Zr7  1  0.66666700  0.33333300  0.95975300  1
  Al  Al8  1  0.33333300  0.66666700  0.81080100  1
  Al  Al9  1  0.66666700  0.33333300  0.18919900  1
  Al  Al10  1  0.66666700  0.33333300  0.31080100  1
  Al  Al11  1  0.33333300  0.66666700  0.68919900  1
  Al  Al12  1  0.66666700  0.33333300  0.75000000  1
  Al  Al13  1  0.33333300  0.66666700  0.25000000  1
  C  C14  1  0.33333300  0.66666700  0.91685700  1
  C  C15  1  0.66666700  0.33333300  0.66857000  1
  C  C16  1  0.66666700  0.33333300  0.08314300  1
  C  C17  1  0.33333300  0.66666700  0.33143000  1
  C  C18  1  0.66666700  0.33333300  0.25000000  1
  C  C19  1  0.66666700  0.33333300  0.41685700  1
  C  C20  1  0.00000000  0.00000000  0.00000000  1
  C  C21  1  0.66666700  0.33333300  0.83143000  1
  C  C22  1  0.33333300  0.66666700  0.75000000  1
  C  C23  1  0.33333300  0.66666700  0.58314300  1
  C  C24  1  0.33333300  0.66666700  0.16857000  1
  C  C25  1  0.00000000  0.00000000  0.50000000  1
