# generated using pymatgen
data_Tl4SnS4
_symmetry_space_group_name_H-M   'P 1'
_cell_length_a   8.47328100
_cell_length_b   8.54768100
_cell_length_c   16.01446236
_cell_angle_alpha   74.99511018
_cell_angle_beta   90.00000000
_cell_angle_gamma   90.00000000
_symmetry_Int_Tables_number   1
_chemical_formula_structural   Tl4SnS4
_chemical_formula_sum   'Tl16 Sn4 S16'
_cell_volume   1120.33040692
_cell_formula_units_Z   4
loop_
 _symmetry_equiv_pos_site_id
 _symmetry_equiv_pos_as_xyz
  1  'x, y, z'
loop_
 _atom_site_type_symbol
 _atom_site_label
 _atom_site_symmetry_multiplicity
 _atom_site_fract_x
 _atom_site_fract_y
 _atom_site_fract_z
 _atom_site_occupancy
  Tl  Tl0  1  0.21577400  0.10029900  0.36006300  1
  Tl  Tl1  1  0.71577400  0.89970100  0.13993700  1
  Tl  Tl2  1  0.78422600  0.89970100  0.63993700  1
  Tl  Tl3  1  0.28422600  0.10029900  0.86006300  1
  Tl  Tl4  1  0.82189800  0.89658300  0.38992300  1
  Tl  Tl5  1  0.32189800  0.10341700  0.11007700  1
  Tl  Tl6  1  0.17810200  0.10341700  0.61007700  1
  Tl  Tl7  1  0.67810200  0.89658300  0.88992300  1
  Tl  Tl8  1  0.39966900  0.68338700  0.37783800  1
  Tl  Tl9  1  0.89966900  0.31661300  0.12216200  1
  Tl  Tl10  1  0.60033100  0.31661300  0.62216200  1
  Tl  Tl11  1  0.10033100  0.68338700  0.87783800  1
  Tl  Tl12  1  0.00552200  0.52594200  0.36692900  1
  Tl  Tl13  1  0.50552200  0.47405800  0.13307100  1
  Tl  Tl14  1  0.99447800  0.47405800  0.63307100  1
  Tl  Tl15  1  0.49447800  0.52594200  0.86692900  1
  Sn  Sn16  1  0.88437500  0.28662900  0.87810800  1
  Sn  Sn17  1  0.38437500  0.71337100  0.62189200  1
  Sn  Sn18  1  0.11562500  0.71337100  0.12189200  1
  Sn  Sn19  1  0.61562500  0.28662900  0.37810800  1
  S  S20  1  0.17260200  0.44388600  0.21326900  1
  S  S21  1  0.67260200  0.55611400  0.28673100  1
  S  S22  1  0.82739800  0.55611400  0.78673100  1
  S  S23  1  0.32739800  0.44388600  0.71326900  1
  S  S24  1  0.65186600  0.19320800  0.96389400  1
  S  S25  1  0.15186600  0.80679200  0.53610600  1
  S  S26  1  0.34813400  0.80679200  0.03610600  1
  S  S27  1  0.84813400  0.19320800  0.46389400  1
  S  S28  1  0.55620800  0.09987200  0.29134100  1
  S  S29  1  0.05620800  0.90012800  0.20865900  1
  S  S30  1  0.44379200  0.90012800  0.70865900  1
  S  S31  1  0.94379200  0.09987200  0.79134100  1
  S  S32  1  0.61496800  0.68748000  0.53560800  1
  S  S33  1  0.11496800  0.31252000  0.96439200  1
  S  S34  1  0.38503200  0.31252000  0.46439200  1
  S  S35  1  0.88503200  0.68748000  0.03560800  1
