# generated using pymatgen
data_FeTeCl7
_symmetry_space_group_name_H-M   'P 1'
_cell_length_a   6.78946800
_cell_length_b   8.67103656
_cell_length_c   10.33099962
_cell_angle_alpha   85.12470699
_cell_angle_beta   76.94683353
_cell_angle_gamma   83.24230856
_symmetry_Int_Tables_number   1
_chemical_formula_structural   FeTeCl7
_chemical_formula_sum   'Fe2 Te2 Cl14'
_cell_volume   587.29863467
_cell_formula_units_Z   2
loop_
 _symmetry_equiv_pos_site_id
 _symmetry_equiv_pos_as_xyz
  1  'x, y, z'
loop_
 _atom_site_type_symbol
 _atom_site_label
 _atom_site_symmetry_multiplicity
 _atom_site_fract_x
 _atom_site_fract_y
 _atom_site_fract_z
 _atom_site_occupancy
  Fe  Fe0  1  0.49587600  0.12366000  0.12385600  1
  Fe  Fe1  1  0.74832600  0.55369800  0.56379100  1
  Te  Te2  1  0.94798100  0.49264100  0.09571100  1
  Te  Te3  1  0.20001900  0.92261500  0.54327900  1
  Cl  Cl4  1  0.81788700  0.18280600  0.07008800  1
  Cl  Cl5  1  0.29142800  0.32869400  0.20831600  1
  Cl  Cl6  1  0.48111300  0.92518000  0.27868800  1
  Cl  Cl7  1  0.41138800  0.04834900  0.95256700  1
  Cl  Cl8  1  0.06362000  0.72758100  0.13055000  1
  Cl  Cl9  1  0.16413600  0.46327900  0.88650700  1
  Cl  Cl10  1  0.67275300  0.61377000  0.01028200  1
  Cl  Cl11  1  0.07147500  0.60737200  0.52198900  1
  Cl  Cl12  1  0.54209200  0.75339400  0.65738600  1
  Cl  Cl13  1  0.66985800  0.50400900  0.37424400  1
  Cl  Cl14  1  0.71138200  0.35228400  0.70082900  1
  Cl  Cl15  1  0.32302800  0.15703400  0.56879000  1
  Cl  Cl16  1  0.99367100  0.91873900  0.75818800  1
  Cl  Cl17  1  0.94096800  0.03399500  0.43734100  1
