# generated using pymatgen
data_Ti6In2Si2P12O49
_symmetry_space_group_name_H-M   'P 1'
_cell_length_a   15.86898625
_cell_length_b   15.86898625
_cell_length_c   15.86898589
_cell_angle_alpha   31.39559933
_cell_angle_beta   31.39559933
_cell_angle_gamma   31.39559880
_symmetry_Int_Tables_number   1
_chemical_formula_structural   Ti6In2Si2P12O49
_chemical_formula_sum   'Ti6 In2 Si2 P12 O49'
_cell_volume   962.66363607
_cell_formula_units_Z   1
loop_
 _symmetry_equiv_pos_site_id
 _symmetry_equiv_pos_as_xyz
  1  'x, y, z'
loop_
 _atom_site_type_symbol
 _atom_site_label
 _atom_site_symmetry_multiplicity
 _atom_site_fract_x
 _atom_site_fract_y
 _atom_site_fract_z
 _atom_site_occupancy
  Ti  Ti0  1  0.65597100  0.65597100  0.65597100  1
  Ti  Ti1  1  0.06946500  0.06946500  0.06946500  1
  Ti  Ti2  1  0.24397200  0.24397200  0.24397200  1
  Ti  Ti3  1  0.75602800  0.75602800  0.75602800  1
  Ti  Ti4  1  0.93053500  0.93053500  0.93053500  1
  Ti  Ti5  1  0.34402900  0.34402900  0.34402900  1
  In  In6  1  0.82706800  0.82706800  0.82706800  1
  In  In7  1  0.17293200  0.17293200  0.17293200  1
  Si  Si8  1  0.53562500  0.53562500  0.53562500  1
  Si  Si9  1  0.46437500  0.46437500  0.46437500  1
  P  P10  1  0.41579500  0.12359500  0.82791300  1
  P  P11  1  0.12359500  0.82791300  0.41579500  1
  P  P12  1  0.87640500  0.17208700  0.58420500  1
  P  P13  1  0.42186200  0.70620600  0.99316800  1
  P  P14  1  0.99316800  0.42186200  0.70620600  1
  P  P15  1  0.58420500  0.87640500  0.17208700  1
  P  P16  1  0.00683200  0.57813800  0.29379400  1
  P  P17  1  0.29379400  0.00683200  0.57813800  1
  P  P18  1  0.17208700  0.58420500  0.87640500  1
  P  P19  1  0.57813800  0.29379400  0.00683200  1
  P  P20  1  0.70620600  0.99316800  0.42186200  1
  P  P21  1  0.82791300  0.41579500  0.12359500  1
  O  O22  1  0.46428400  0.26885600  0.61946800  1
  O  O23  1  0.80843300  0.08434900  0.65064100  1
  O  O24  1  0.13822800  0.95590200  0.76600100  1
  O  O25  1  0.61946800  0.46428400  0.26885600  1
  O  O26  1  0.82664100  0.59951100  0.94402500  1
  O  O27  1  0.65064100  0.80843300  0.08434900  1
  O  O28  1  0.90798700  0.28075100  0.09934300  1
  O  O29  1  0.40048900  0.05597500  0.17335900  1
  O  O30  1  0.26083900  0.16815600  0.52529700  1
  O  O31  1  0.38053200  0.53571600  0.73114400  1
  O  O32  1  0.15962200  0.42246800  0.52148500  1
  O  O33  1  0.17335900  0.40048900  0.05597500  1
  O  O34  1  0.52529700  0.26083900  0.16815600  1
  O  O35  1  0.95590200  0.76600100  0.13822800  1
  O  O36  1  0.09201300  0.71924900  0.90065700  1
  O  O37  1  0.59951100  0.94402500  0.82664100  1
  O  O38  1  0.57753200  0.47851500  0.84037800  1
  O  O39  1  0.73916100  0.83184400  0.47470300  1
  O  O40  1  0.91565100  0.34935900  0.19156700  1
  O  O41  1  0.73114400  0.38053200  0.53571600  1
  O  O42  1  0.42246800  0.52148500  0.15962200  1
  O  O43  1  0.16815600  0.52529700  0.26083900  1
  O  O44  1  0.53571600  0.73114400  0.38053200  1
  O  O45  1  0.84037800  0.57753200  0.47851500  1
  O  O46  1  0.08434900  0.65064100  0.80843300  1
  O  O47  1  0.05597500  0.17335900  0.40048900  1
  O  O48  1  0.26885600  0.61946800  0.46428400  1
  O  O49  1  0.43466500  0.29361900  0.06380400  1
  O  O50  1  0.09934300  0.90798700  0.28075100  1
  O  O51  1  0.93619600  0.56533500  0.70638100  1
  O  O52  1  0.50000000  0.50000000  0.50000000  1
  O  O53  1  0.23399900  0.86177200  0.04409800  1
  O  O54  1  0.71924900  0.90065700  0.09201300  1
  O  O55  1  0.47851500  0.84037800  0.57753200  1
  O  O56  1  0.34935900  0.19156700  0.91565100  1
  O  O57  1  0.76600100  0.13822800  0.95590200  1
  O  O58  1  0.90065700  0.09201300  0.71924900  1
  O  O59  1  0.06380400  0.43466500  0.29361900  1
  O  O60  1  0.28075100  0.09934300  0.90798700  1
  O  O61  1  0.04409800  0.23399900  0.86177200  1
  O  O62  1  0.56533500  0.70638100  0.93619600  1
  O  O63  1  0.70638100  0.93619600  0.56533500  1
  O  O64  1  0.83184400  0.47470300  0.73916100  1
  O  O65  1  0.19156700  0.91565100  0.34935900  1
  O  O66  1  0.52148500  0.15962200  0.42246800  1
  O  O67  1  0.86177200  0.04409800  0.23399900  1
  O  O68  1  0.47470300  0.73916100  0.83184400  1
  O  O69  1  0.94402500  0.82664100  0.59951100  1
  O  O70  1  0.29361900  0.06380400  0.43466500  1
