# generated using pymatgen
data_UTe4Br5
_symmetry_space_group_name_H-M   'P 1'
_cell_length_a   9.10406700
_cell_length_b   12.54275261
_cell_length_c   14.09616158
_cell_angle_alpha   80.68789935
_cell_angle_beta   77.01045958
_cell_angle_gamma   78.94943509
_symmetry_Int_Tables_number   1
_chemical_formula_structural   UTe4Br5
_chemical_formula_sum   'U4 Te16 Br20'
_cell_volume   1527.46185895
_cell_formula_units_Z   4
loop_
 _symmetry_equiv_pos_site_id
 _symmetry_equiv_pos_as_xyz
  1  'x, y, z'
loop_
 _atom_site_type_symbol
 _atom_site_label
 _atom_site_symmetry_multiplicity
 _atom_site_fract_x
 _atom_site_fract_y
 _atom_site_fract_z
 _atom_site_occupancy
  U  U0  1  0.41508800  0.71889200  0.23773000  1
  U  U1  1  0.58491200  0.28110800  0.76227000  1
  U  U2  1  0.86847800  0.80451700  0.30494100  1
  U  U3  1  0.13152200  0.19548300  0.69505900  1
  Te  Te4  1  0.26265600  0.32648800  0.11863500  1
  Te  Te5  1  0.73734400  0.67351200  0.88136500  1
  Te  Te6  1  0.11953000  0.39199400  0.30380700  1
  Te  Te7  1  0.88047000  0.60800600  0.69619300  1
  Te  Te8  1  0.95997300  0.22343300  0.37567500  1
  Te  Te9  1  0.04002700  0.77656700  0.62432500  1
  Te  Te10  1  0.72437100  0.35668800  0.29546300  1
  Te  Te11  1  0.27562900  0.64331200  0.70453700  1
  Te  Te12  1  0.82816800  0.32607200  0.09342300  1
  Te  Te13  1  0.17183200  0.67392800  0.90657700  1
  Te  Te14  1  0.07561200  0.17350200  0.11375400  1
  Te  Te15  1  0.92438800  0.82649800  0.88624600  1
  Te  Te16  1  0.49661200  0.20807500  0.35805500  1
  Te  Te17  1  0.50338800  0.79192500  0.64194500  1
  Te  Te18  1  0.49966900  0.15389900  0.18394600  1
  Te  Te19  1  0.50033100  0.84610100  0.81605400  1
  Br  Br20  1  0.49748600  0.51909500  0.14316600  1
  Br  Br21  1  0.50251400  0.48090500  0.85683400  1
  Br  Br22  1  0.37282700  0.58300100  0.40759500  1
  Br  Br23  1  0.62717300  0.41699900  0.59240500  1
  Br  Br24  1  0.44882500  0.86409400  0.07034500  1
  Br  Br25  1  0.55117500  0.13590600  0.92965500  1
  Br  Br26  1  0.85274200  0.97545500  0.15378600  1
  Br  Br27  1  0.14725800  0.02454500  0.84621400  1
  Br  Br28  1  0.87760200  0.62135800  0.43615900  1
  Br  Br29  1  0.12239800  0.37864200  0.56384100  1
  Br  Br30  1  0.79167900  0.92610100  0.46658400  1
  Br  Br31  1  0.20832100  0.07389900  0.53341600  1
  Br  Br32  1  0.53071300  0.85315700  0.34772700  1
  Br  Br33  1  0.46928700  0.14684300  0.65227300  1
  Br  Br34  1  0.15489800  0.87600200  0.31880600  1
  Br  Br35  1  0.84510200  0.12399800  0.68119400  1
  Br  Br36  1  0.75233100  0.67504900  0.18914200  1
  Br  Br37  1  0.24766900  0.32495100  0.81085800  1
  Br  Br38  1  0.13431900  0.68020000  0.18017100  1
  Br  Br39  1  0.86568100  0.31980000  0.81982900  1
