# generated using pymatgen
data_CaZr4(PO4)6
_symmetry_space_group_name_H-M   'P 1'
_cell_length_a   9.21760882
_cell_length_b   9.21760882
_cell_length_c   9.21760850
_cell_angle_alpha   58.06164869
_cell_angle_beta   58.06164869
_cell_angle_gamma   58.06164902
_symmetry_Int_Tables_number   1
_chemical_formula_structural   CaZr4(PO4)6
_chemical_formula_sum   'Ca1 Zr4 P6 O24'
_cell_volume   529.16826381
_cell_formula_units_Z   1
loop_
 _symmetry_equiv_pos_site_id
 _symmetry_equiv_pos_as_xyz
  1  'x, y, z'
loop_
 _atom_site_type_symbol
 _atom_site_label
 _atom_site_symmetry_multiplicity
 _atom_site_fract_x
 _atom_site_fract_y
 _atom_site_fract_z
 _atom_site_occupancy
  Ca  Ca0  1  0.50000000  0.50000000  0.50000000  1
  Zr  Zr1  1  0.35122600  0.35122600  0.35122600  1
  Zr  Zr2  1  0.86048400  0.86048400  0.86048400  1
  Zr  Zr3  1  0.64877400  0.64877400  0.64877400  1
  Zr  Zr4  1  0.13951600  0.13951600  0.13951600  1
  P  P5  1  0.04602600  0.46929800  0.74301100  1
  P  P6  1  0.74301100  0.04602600  0.46929800  1
  P  P7  1  0.53070200  0.25698900  0.95397400  1
  P  P8  1  0.46929800  0.74301100  0.04602600  1
  P  P9  1  0.95397400  0.53070200  0.25698900  1
  P  P10  1  0.25698900  0.95397400  0.53070200  1
  O  O11  1  0.30932100  0.10765600  0.49446500  1
  O  O12  1  0.23342300  0.42991100  0.58692000  1
  O  O13  1  0.57008900  0.41308000  0.76657800  1
  O  O14  1  0.94817100  0.69809100  0.08228900  1
  O  O15  1  0.91771100  0.05182900  0.30190900  1
  O  O16  1  0.69809100  0.08228900  0.94817100  1
  O  O17  1  0.10765600  0.49446500  0.30932100  1
  O  O18  1  0.36191500  0.23420100  0.98552700  1
  O  O19  1  0.30190900  0.91771100  0.05182900  1
  O  O20  1  0.89234400  0.50553500  0.69067900  1
  O  O21  1  0.05182900  0.30190900  0.91771100  1
  O  O22  1  0.58692000  0.23342300  0.42991100  1
  O  O23  1  0.08228900  0.94817100  0.69809100  1
  O  O24  1  0.50553500  0.69067900  0.89234400  1
  O  O25  1  0.01447300  0.63808500  0.76579900  1
  O  O26  1  0.41308000  0.76657800  0.57008900  1
  O  O27  1  0.63808500  0.76579900  0.01447300  1
  O  O28  1  0.98552700  0.36191500  0.23420100  1
  O  O29  1  0.69067900  0.89234400  0.50553500  1
  O  O30  1  0.76579900  0.01447300  0.63808500  1
  O  O31  1  0.42991100  0.58692000  0.23342300  1
  O  O32  1  0.23420100  0.98552700  0.36191500  1
  O  O33  1  0.49446500  0.30932100  0.10765600  1
  O  O34  1  0.76657800  0.57008900  0.41308000  1
