# generated using pymatgen
data_Cs7Ni4F15
_symmetry_space_group_name_H-M   'P 1'
_cell_length_a   11.04250400
_cell_length_b   7.95385500
_cell_length_c   11.63106066
_cell_angle_alpha   87.53417361
_cell_angle_beta   90.00000000
_cell_angle_gamma   90.00000000
_symmetry_Int_Tables_number   1
_chemical_formula_structural   Cs7Ni4F15
_chemical_formula_sum   'Cs14 Ni8 F30'
_cell_volume   1020.61568576
_cell_formula_units_Z   2
loop_
 _symmetry_equiv_pos_site_id
 _symmetry_equiv_pos_as_xyz
  1  'x, y, z'
loop_
 _atom_site_type_symbol
 _atom_site_label
 _atom_site_symmetry_multiplicity
 _atom_site_fract_x
 _atom_site_fract_y
 _atom_site_fract_z
 _atom_site_occupancy
  Cs  Cs0  1  0.68098100  0.50256300  0.52856200  1
  Cs  Cs1  1  0.31901900  0.49743700  0.47143800  1
  Cs  Cs2  1  0.81901900  0.50256300  0.02856200  1
  Cs  Cs3  1  0.34638100  0.16196000  0.19674200  1
  Cs  Cs4  1  0.99588500  0.67013700  0.66744100  1
  Cs  Cs5  1  0.65361900  0.83804000  0.80325800  1
  Cs  Cs6  1  0.00411500  0.32986300  0.33255900  1
  Cs  Cs7  1  0.00000000  0.00000000  0.00000000  1
  Cs  Cs8  1  0.15361900  0.16196000  0.69674200  1
  Cs  Cs9  1  0.49588500  0.32986300  0.83255900  1
  Cs  Cs10  1  0.18098100  0.49743700  0.97143800  1
  Cs  Cs11  1  0.50000000  0.00000000  0.50000000  1
  Cs  Cs12  1  0.84638100  0.83804000  0.30325800  1
  Cs  Cs13  1  0.50411500  0.67013700  0.16744100  1
  Ni  Ni14  1  0.17304500  0.74143300  0.22896400  1
  Ni  Ni15  1  0.33771500  0.92305500  0.92966400  1
  Ni  Ni16  1  0.83771500  0.07694500  0.57033600  1
  Ni  Ni17  1  0.82695500  0.25856700  0.77103600  1
  Ni  Ni18  1  0.16228500  0.92305500  0.42966400  1
  Ni  Ni19  1  0.66228500  0.07694500  0.07033600  1
  Ni  Ni20  1  0.32695500  0.74143300  0.72896400  1
  Ni  Ni21  1  0.67304500  0.25856700  0.27103600  1
  F  F22  1  0.52791600  0.33088300  0.35778500  1
  F  F23  1  0.19138000  0.82952500  0.83709400  1
  F  F24  1  0.97208400  0.33088300  0.85778500  1
  F  F25  1  0.59288700  0.31055300  0.10710900  1
  F  F26  1  0.76436300  0.85212000  0.55415000  1
  F  F27  1  0.40711300  0.68944700  0.89289100  1
  F  F28  1  0.69138000  0.17047500  0.66290600  1
  F  F29  1  0.60269700  0.02190800  0.23847900  1
  F  F30  1  0.25148000  0.51439100  0.72150100  1
  F  F31  1  0.89730300  0.02190800  0.73847900  1
  F  F32  1  0.80862000  0.17047500  0.16290600  1
  F  F33  1  0.09288700  0.68944700  0.39289100  1
  F  F34  1  0.26609800  0.83174400  0.08353400  1
  F  F35  1  0.39730300  0.97809200  0.76152100  1
  F  F36  1  0.75148000  0.48560900  0.77849900  1
  F  F37  1  0.76609800  0.16825600  0.41646600  1
  F  F38  1  0.10269700  0.97809200  0.26152100  1
  F  F39  1  0.73390200  0.16825600  0.91646600  1
  F  F40  1  0.02791600  0.66911700  0.14221500  1
  F  F41  1  0.90711300  0.31055300  0.60710900  1
  F  F42  1  0.73563700  0.85212000  0.05415000  1
  F  F43  1  0.23563700  0.14788000  0.44585000  1
  F  F44  1  0.30862000  0.82952500  0.33709400  1
  F  F45  1  0.26436300  0.14788000  0.94585000  1
  F  F46  1  0.74852000  0.48560900  0.27849900  1
  F  F47  1  0.47208400  0.66911700  0.64221500  1
  F  F48  1  0.24852000  0.51439100  0.22150100  1
  F  F49  1  0.23390200  0.83174400  0.58353400  1
  F  F50  1  0.00000000  0.00000000  0.50000000  1
  F  F51  1  0.50000000  0.00000000  0.00000000  1
