# generated using pymatgen
data_KNaMnO2
_symmetry_space_group_name_H-M   'P 1'
_cell_length_a   6.81212949
_cell_length_b   7.05591200
_cell_length_c   6.81213809
_cell_angle_alpha   90.00006612
_cell_angle_beta   92.14320696
_cell_angle_gamma   90.00006489
_symmetry_Int_Tables_number   1
_chemical_formula_structural   KNaMnO2
_chemical_formula_sum   'K4 Na4 Mn4 O8'
_cell_volume   327.20172762
_cell_formula_units_Z   4
loop_
 _symmetry_equiv_pos_site_id
 _symmetry_equiv_pos_as_xyz
  1  'x, y, z'
loop_
 _atom_site_type_symbol
 _atom_site_label
 _atom_site_symmetry_multiplicity
 _atom_site_fract_x
 _atom_site_fract_y
 _atom_site_fract_z
 _atom_site_occupancy
  K  K0  1  0.50000600  0.99999900  0.00000400  1
  K  K1  1  0.00000500  0.50000000  0.50001100  1
  K  K2  1  0.00000900  0.25000200  0.00000700  1
  K  K3  1  0.00000900  0.74999900  0.00000700  1
  Na  Na4  1  0.64966200  0.24999800  0.64966200  1
  Na  Na5  1  0.35035500  0.25000000  0.35035800  1
  Na  Na6  1  0.64966300  0.75000200  0.64966200  1
  Na  Na7  1  0.35035500  0.75000000  0.35035800  1
  Mn  Mn8  1  0.62459300  0.49999900  0.16071700  1
  Mn  Mn9  1  0.16071400  0.00000000  0.62459200  1
  Mn  Mn10  1  0.37535200  0.50000000  0.83925200  1
  Mn  Mn11  1  0.83924600  0.00000000  0.37534000  1
  O  O12  1  0.69705300  0.74998800  0.30294900  1
  O  O13  1  0.69705400  0.25001300  0.30294900  1
  O  O14  1  0.30295300  0.24999700  0.69706100  1
  O  O15  1  0.30295300  0.75000500  0.69705900  1
  O  O16  1  0.69274400  0.50000000  0.86435000  1
  O  O17  1  0.30724800  0.50000000  0.13567900  1
  O  O18  1  0.86435000  0.00000000  0.69273600  1
  O  O19  1  0.13567300  0.99999900  0.30724800  1
