# generated using pymatgen
data_GdP5O14
_symmetry_space_group_name_H-M   'P 1'
_cell_length_a   9.06424200
_cell_length_b   8.85684300
_cell_length_c   13.06330446
_cell_angle_alpha   89.59184326
_cell_angle_beta   90.00000000
_cell_angle_gamma   90.00000000
_symmetry_Int_Tables_number   1
_chemical_formula_structural   GdP5O14
_chemical_formula_sum   'Gd4 P20 O56'
_cell_volume   1048.70289623
_cell_formula_units_Z   4
loop_
 _symmetry_equiv_pos_site_id
 _symmetry_equiv_pos_as_xyz
  1  'x, y, z'
loop_
 _atom_site_type_symbol
 _atom_site_label
 _atom_site_symmetry_multiplicity
 _atom_site_fract_x
 _atom_site_fract_y
 _atom_site_fract_z
 _atom_site_occupancy
  Gd  Gd0  1  0.68834900  0.72279800  0.99882800  1
  Gd  Gd1  1  0.18834900  0.27720200  0.50117200  1
  Gd  Gd2  1  0.31165100  0.27720200  0.00117200  1
  Gd  Gd3  1  0.81165100  0.72279800  0.49882800  1
  P  P4  1  0.00466000  0.50686000  0.29864500  1
  P  P5  1  0.75507800  0.31618200  0.50013600  1
  P  P6  1  0.50254700  0.99445600  0.17205300  1
  P  P7  1  0.04990900  0.77113300  0.16403200  1
  P  P8  1  0.00254700  0.00554400  0.32794700  1
  P  P9  1  0.24492200  0.68381800  0.49986400  1
  P  P10  1  0.25507800  0.68381800  0.99986400  1
  P  P11  1  0.95009100  0.22886700  0.83596800  1
  P  P12  1  0.50466000  0.49314000  0.20135500  1
  P  P13  1  0.54612800  0.24426100  0.66499800  1
  P  P14  1  0.49745300  0.00554400  0.82794700  1
  P  P15  1  0.45387200  0.75573900  0.33500200  1
  P  P16  1  0.54990900  0.22886700  0.33596800  1
  P  P17  1  0.95387200  0.24426100  0.16499800  1
  P  P18  1  0.49534000  0.50686000  0.79864500  1
  P  P19  1  0.74492200  0.31618200  0.00013600  1
  P  P20  1  0.04612800  0.75573900  0.83500200  1
  P  P21  1  0.99745300  0.99445600  0.67205300  1
  P  P22  1  0.45009100  0.77113300  0.66403200  1
  P  P23  1  0.99534000  0.49314000  0.70135500  1
  O  O24  1  0.58009300  0.13120300  0.75553300  1
  O  O25  1  0.11558100  0.08365600  0.62081400  1
  O  O26  1  0.81088700  0.47045600  0.99564100  1
  O  O27  1  0.31423800  0.79067900  0.58973000  1
  O  O28  1  0.91788100  0.09367100  0.76142600  1
  O  O29  1  0.90350600  0.76781100  0.11481700  1
  O  O30  1  0.59474100  0.77715100  0.38986700  1
  O  O31  1  0.41788100  0.90632900  0.73857400  1
  O  O32  1  0.07375800  0.59387500  0.78911600  1
  O  O33  1  0.69020400  0.22209100  0.59888200  1
  O  O34  1  0.58314300  0.28894200  0.99970700  1
  O  O35  1  0.38390100  0.41169000  0.14794400  1
  O  O36  1  0.38441900  0.08365600  0.12081400  1
  O  O37  1  0.37732200  0.07986600  0.88676100  1
  O  O38  1  0.09649400  0.23218900  0.88518300  1
  O  O39  1  0.92624200  0.40612500  0.21088400  1
  O  O40  1  0.12267800  0.07986600  0.38676100  1
  O  O41  1  0.31088700  0.52954400  0.50435900  1
  O  O42  1  0.88293900  0.58592100  0.64673800  1
  O  O43  1  0.11609900  0.41169000  0.64794400  1
  O  O44  1  0.42624200  0.59387500  0.28911600  1
  O  O45  1  0.11706100  0.41407900  0.35326200  1
  O  O46  1  0.40350600  0.23218900  0.38518300  1
  O  O47  1  0.58211900  0.09367100  0.26142600  1
  O  O48  1  0.40397400  0.62503900  0.72715900  1
  O  O49  1  0.41685700  0.71105800  0.00029300  1
  O  O50  1  0.09474100  0.22284900  0.11013300  1
  O  O51  1  0.08009300  0.86879700  0.74446700  1
  O  O52  1  0.68911300  0.47045600  0.49564100  1
  O  O53  1  0.80979600  0.22209100  0.09888200  1
  O  O54  1  0.90525900  0.77715100  0.88986700  1
  O  O55  1  0.19020400  0.77790900  0.90111800  1
  O  O56  1  0.59649400  0.76781100  0.61481700  1
  O  O57  1  0.81423800  0.20932100  0.91027000  1
  O  O58  1  0.18911300  0.52954400  0.00435900  1
  O  O59  1  0.30979600  0.77790900  0.40111800  1
  O  O60  1  0.57375800  0.40612500  0.71088400  1
  O  O61  1  0.91990700  0.13120300  0.25553300  1
  O  O62  1  0.61558100  0.91634400  0.87918600  1
  O  O63  1  0.61609900  0.58831000  0.85205600  1
  O  O64  1  0.68576200  0.20932100  0.41027000  1
  O  O65  1  0.18576200  0.79067900  0.08973000  1
  O  O66  1  0.61706100  0.58592100  0.14673800  1
  O  O67  1  0.88441900  0.91634400  0.37918600  1
  O  O68  1  0.59602600  0.37496100  0.27284100  1
  O  O69  1  0.87732200  0.92013400  0.61323900  1
  O  O70  1  0.38293900  0.41407900  0.85326200  1
  O  O71  1  0.09602600  0.62503900  0.22715900  1
  O  O72  1  0.88390100  0.58831000  0.35205600  1
  O  O73  1  0.40525900  0.22284900  0.61013300  1
  O  O74  1  0.08314300  0.71105800  0.50029300  1
  O  O75  1  0.90397400  0.37496100  0.77284100  1
  O  O76  1  0.91685700  0.28894200  0.49970700  1
  O  O77  1  0.41990700  0.86879700  0.24446700  1
  O  O78  1  0.62267800  0.92013400  0.11323900  1
  O  O79  1  0.08211900  0.90632900  0.23857400  1
