# generated using pymatgen
data_K4In2Si8O21
_symmetry_space_group_name_H-M   'P 1'
_cell_length_a   11.66705100
_cell_length_b   8.54030200
_cell_length_c   13.60743541
_cell_angle_alpha   51.38040922
_cell_angle_beta   90.00000000
_cell_angle_gamma   90.00000000
_symmetry_Int_Tables_number   1
_chemical_formula_structural   K4In2Si8O21
_chemical_formula_sum   'K8 In4 Si16 O42'
_cell_volume   1059.33270672
_cell_formula_units_Z   2
loop_
 _symmetry_equiv_pos_site_id
 _symmetry_equiv_pos_as_xyz
  1  'x, y, z'
loop_
 _atom_site_type_symbol
 _atom_site_label
 _atom_site_symmetry_multiplicity
 _atom_site_fract_x
 _atom_site_fract_y
 _atom_site_fract_z
 _atom_site_occupancy
  K  K0  1  0.35780100  0.22052100  0.79536700  1
  K  K1  1  0.46752500  0.80210900  0.69172300  1
  K  K2  1  0.64219900  0.77947900  0.20463300  1
  K  K3  1  0.85780100  0.77947900  0.70463300  1
  K  K4  1  0.03247500  0.80210900  0.19172300  1
  K  K5  1  0.96752500  0.19789100  0.80827700  1
  K  K6  1  0.53247500  0.19789100  0.30827700  1
  K  K7  1  0.14219900  0.22052100  0.29536700  1
  In  In8  1  0.66617900  0.26219900  0.53993000  1
  In  In9  1  0.83382100  0.26219900  0.03993000  1
  In  In10  1  0.16617900  0.73780100  0.96007000  1
  In  In11  1  0.33382100  0.73780100  0.46007000  1
  Si  Si12  1  0.45711900  0.68633000  0.99556500  1
  Si  Si13  1  0.54288100  0.31367000  0.00443500  1
  Si  Si14  1  0.32654600  0.61565100  0.21134400  1
  Si  Si15  1  0.95711900  0.31367000  0.50443500  1
  Si  Si16  1  0.36803600  0.29618800  0.49716300  1
  Si  Si17  1  0.33703500  0.02469800  0.16424400  1
  Si  Si18  1  0.66296500  0.97530200  0.83575600  1
  Si  Si19  1  0.83703500  0.97530200  0.33575600  1
  Si  Si20  1  0.13196400  0.29618800  0.99716300  1
  Si  Si21  1  0.17345400  0.61565100  0.71134400  1
  Si  Si22  1  0.82654600  0.38434900  0.28865600  1
  Si  Si23  1  0.63196400  0.70381200  0.50283700  1
  Si  Si24  1  0.67345400  0.38434900  0.78865600  1
  Si  Si25  1  0.86803600  0.70381200  0.00283700  1
  Si  Si26  1  0.04288100  0.68633000  0.49556500  1
  Si  Si27  1  0.16296500  0.02469800  0.66424400  1
  O  O28  1  0.06396300  0.15450500  0.55513300  1
  O  O29  1  0.85046500  0.56130500  0.96435100  1
  O  O30  1  0.86005800  0.21290300  0.27326700  1
  O  O31  1  0.43832700  0.59786100  0.14305200  1
  O  O32  1  0.84731200  0.96527100  0.22162100  1
  O  O33  1  0.71335700  0.90779400  0.40848400  1
  O  O34  1  0.35046500  0.43869500  0.53564900  1
  O  O35  1  0.99580700  0.78605100  0.99174800  1
  O  O36  1  0.93832700  0.40213900  0.35694800  1
  O  O37  1  0.06167300  0.59786100  0.64305200  1
  O  O38  1  0.14953500  0.43869500  0.03564900  1
  O  O39  1  0.36005800  0.78709700  0.22673300  1
  O  O40  1  0.79173900  0.34034300  0.86120100  1
  O  O41  1  0.56167300  0.40213900  0.85694800  1
  O  O42  1  0.15396200  0.79544700  0.40911900  1
  O  O43  1  0.65268800  0.96527100  0.72162100  1
  O  O44  1  0.50419300  0.78605100  0.49174800  1
  O  O45  1  0.49580700  0.21394900  0.50825200  1
  O  O46  1  0.20826100  0.65965700  0.13879900  1
  O  O47  1  0.84603800  0.20455300  0.59088100  1
  O  O48  1  0.21335700  0.09220600  0.09151600  1
  O  O49  1  0.13994200  0.78709700  0.72673300  1
  O  O50  1  0.81816000  0.60025600  0.14683700  1
  O  O51  1  0.56396300  0.84549500  0.94486700  1
  O  O52  1  0.34603800  0.79544700  0.90911900  1
  O  O53  1  0.29173900  0.65965700  0.63879900  1
  O  O54  1  0.70826100  0.34034300  0.36120100  1
  O  O55  1  0.00419300  0.21394900  0.00825200  1
  O  O56  1  0.15268800  0.03472900  0.77837900  1
  O  O57  1  0.28664300  0.09220600  0.59151600  1
  O  O58  1  0.50000000  0.50000000  0.00000000  1
  O  O59  1  0.93603700  0.84549500  0.44486700  1
  O  O60  1  0.31816000  0.39974400  0.35316300  1
  O  O61  1  0.68184000  0.60025600  0.64683700  1
  O  O62  1  0.78664300  0.90779400  0.90848400  1
  O  O63  1  0.34731200  0.03472900  0.27837900  1
  O  O64  1  0.18184000  0.39974400  0.85316300  1
  O  O65  1  0.63994200  0.21290300  0.77326700  1
  O  O66  1  0.65396200  0.20455300  0.09088100  1
  O  O67  1  0.64953500  0.56130500  0.46435100  1
  O  O68  1  0.43603700  0.15450500  0.05513300  1
  O  O69  1  0.00000000  0.50000000  0.50000000  1
