# generated using pymatgen
data_Ca5(ReO6)2
_symmetry_space_group_name_H-M   'P 1'
_cell_length_a   19.23257763
_cell_length_b   19.23257763
_cell_length_c   19.23257743
_cell_angle_alpha   29.08231123
_cell_angle_beta   29.08231123
_cell_angle_gamma   29.08230896
_symmetry_Int_Tables_number   1
_chemical_formula_structural   Ca5(ReO6)2
_chemical_formula_sum   'Ca30 Re12 O72'
_cell_volume   1486.78007288
_cell_formula_units_Z   6
loop_
 _symmetry_equiv_pos_site_id
 _symmetry_equiv_pos_as_xyz
  1  'x, y, z'
loop_
 _atom_site_type_symbol
 _atom_site_label
 _atom_site_symmetry_multiplicity
 _atom_site_fract_x
 _atom_site_fract_y
 _atom_site_fract_z
 _atom_site_occupancy
  Ca  Ca0  1  0.46403200  0.79939200  0.17394700  1
  Ca  Ca1  1  0.17394700  0.46403200  0.79939200  1
  Ca  Ca2  1  0.21875400  0.50799600  0.92072500  1
  Ca  Ca3  1  0.89595100  0.89595100  0.89595100  1
  Ca  Ca4  1  0.07927500  0.78124600  0.49200400  1
  Ca  Ca5  1  0.49200400  0.07927500  0.78124600  1
  Ca  Ca6  1  0.03596800  0.32605300  0.70060800  1
  Ca  Ca7  1  0.32605300  0.70060800  0.03596800  1
  Ca  Ca8  1  0.10404900  0.10404900  0.10404900  1
  Ca  Ca9  1  0.42072500  0.00799600  0.71875400  1
  Ca  Ca10  1  0.96403200  0.67394700  0.29939200  1
  Ca  Ca11  1  0.82605300  0.53596800  0.20060800  1
  Ca  Ca12  1  0.79939200  0.17394700  0.46403200  1
  Ca  Ca13  1  0.29939200  0.96403200  0.67394700  1
  Ca  Ca14  1  0.75000000  0.75000000  0.75000000  1
  Ca  Ca15  1  0.28124600  0.57927500  0.99200400  1
  Ca  Ca16  1  0.67394700  0.29939200  0.96403200  1
  Ca  Ca17  1  0.92072500  0.21875400  0.50799600  1
  Ca  Ca18  1  0.78124600  0.49200400  0.07927500  1
  Ca  Ca19  1  0.00799600  0.71875400  0.42072500  1
  Ca  Ca20  1  0.57927500  0.99200400  0.28124600  1
  Ca  Ca21  1  0.20060800  0.82605300  0.53596800  1
  Ca  Ca22  1  0.99200400  0.28124600  0.57927500  1
  Ca  Ca23  1  0.39595100  0.39595100  0.39595100  1
  Ca  Ca24  1  0.60404900  0.60404900  0.60404900  1
  Ca  Ca25  1  0.50799600  0.92072500  0.21875400  1
  Ca  Ca26  1  0.71875400  0.42072500  0.00799600  1
  Ca  Ca27  1  0.70060800  0.03596800  0.32605300  1
  Ca  Ca28  1  0.25000000  0.25000000  0.25000000  1
  Ca  Ca29  1  0.53596800  0.20060800  0.82605300  1
  Re  Re30  1  0.83907200  0.83907200  0.83907200  1
  Re  Re31  1  0.41590300  0.75000000  0.08409700  1
  Re  Re32  1  0.91590300  0.58409700  0.25000000  1
  Re  Re33  1  0.16092800  0.16092800  0.16092800  1
  Re  Re34  1  0.00000000  0.00000000  0.00000000  1
  Re  Re35  1  0.75000000  0.08409700  0.41590300  1
  Re  Re36  1  0.50000000  0.50000000  0.50000000  1
  Re  Re37  1  0.33907200  0.33907200  0.33907200  1
  Re  Re38  1  0.58409700  0.25000000  0.91590300  1
  Re  Re39  1  0.25000000  0.91590300  0.58409700  1
  Re  Re40  1  0.66092800  0.66092800  0.66092800  1
  Re  Re41  1  0.08409700  0.41590300  0.75000000  1
  O  O42  1  0.35222900  0.52646800  0.67919500  1
  O  O43  1  0.94233100  0.33295000  0.97294800  1
  O  O44  1  0.96741100  0.58595500  0.77386100  1
  O  O45  1  0.97353200  0.14777100  0.82080500  1
  O  O46  1  0.76870300  0.70039700  0.20907600  1
  O  O47  1  0.29092400  0.79960300  0.73129700  1
  O  O48  1  0.32080500  0.64777100  0.47353200  1
  O  O49  1  0.93085400  0.97320900  0.67780300  1
  O  O50  1  0.33295000  0.97294800  0.94233100  1
  O  O51  1  0.02646800  0.85222900  0.17919500  1
  O  O52  1  0.00930300  0.75780700  0.69805000  1
  O  O53  1  0.99069700  0.24219300  0.30195000  1
  O  O54  1  0.74219300  0.49069700  0.80195000  1
  O  O55  1  0.91404500  0.53258900  0.72613900  1
  O  O56  1  0.82219700  0.52679100  0.56914600  1
  O  O57  1  0.27386100  0.08595500  0.46741100  1
  O  O58  1  0.22613900  0.03258900  0.41404500  1
  O  O59  1  0.41404500  0.22613900  0.03258900  1
  O  O60  1  0.56914600  0.82219700  0.52679100  1
  O  O61  1  0.64777100  0.47353200  0.32080500  1
  O  O62  1  0.55766900  0.52705200  0.16705000  1
  O  O63  1  0.44233100  0.47294800  0.83295000  1
  O  O64  1  0.69805000  0.00930300  0.75780700  1
  O  O65  1  0.06914600  0.02679100  0.32219700  1
  O  O66  1  0.32219700  0.06914600  0.02679100  1
  O  O67  1  0.05766900  0.66705000  0.02705200  1
  O  O68  1  0.97294800  0.94233100  0.33295000  1
  O  O69  1  0.20039700  0.26870300  0.70907600  1
  O  O70  1  0.03258900  0.41404500  0.22613900  1
  O  O71  1  0.67780300  0.93085400  0.97320900  1
  O  O72  1  0.67919500  0.35222900  0.52646800  1
  O  O73  1  0.72613900  0.91404500  0.53258900  1
  O  O74  1  0.97320900  0.67780300  0.93085400  1
  O  O75  1  0.80195000  0.74219300  0.49069700  1
  O  O76  1  0.14777100  0.82080500  0.97353200  1
  O  O77  1  0.47353200  0.32080500  0.64777100  1
  O  O78  1  0.17919500  0.02646800  0.85222900  1
  O  O79  1  0.85222900  0.17919500  0.02646800  1
  O  O80  1  0.77386100  0.96741100  0.58595500  1
  O  O81  1  0.79960300  0.73129700  0.29092400  1
  O  O82  1  0.43085400  0.17780300  0.47320900  1
  O  O83  1  0.26870300  0.70907600  0.20039700  1
  O  O84  1  0.02705200  0.05766900  0.66705000  1
  O  O85  1  0.19805000  0.25780700  0.50930300  1
  O  O86  1  0.50930300  0.19805000  0.25780700  1
  O  O87  1  0.23129700  0.29960300  0.79092400  1
  O  O88  1  0.52705200  0.16705000  0.55766900  1
  O  O89  1  0.17780300  0.47320900  0.43085400  1
  O  O90  1  0.52646800  0.67919500  0.35222900  1
  O  O91  1  0.30195000  0.99069700  0.24219300  1
  O  O92  1  0.47294800  0.83295000  0.44233100  1
  O  O93  1  0.53258900  0.72613900  0.91404500  1
  O  O94  1  0.49069700  0.80195000  0.74219300  1
  O  O95  1  0.79092400  0.23129700  0.29960300  1
  O  O96  1  0.58595500  0.77386100  0.96741100  1
  O  O97  1  0.73129700  0.29092400  0.79960300  1
  O  O98  1  0.82080500  0.97353200  0.14777100  1
  O  O99  1  0.66705000  0.02705200  0.05766900  1
  O  O100  1  0.25780700  0.50930300  0.19805000  1
  O  O101  1  0.02679100  0.32219700  0.06914600  1
  O  O102  1  0.16705000  0.55766900  0.52705200  1
  O  O103  1  0.20907600  0.76870300  0.70039700  1
  O  O104  1  0.46741100  0.27386100  0.08595500  1
  O  O105  1  0.52679100  0.56914600  0.82219700  1
  O  O106  1  0.08595500  0.46741100  0.27386100  1
  O  O107  1  0.24219300  0.30195000  0.99069700  1
  O  O108  1  0.70039700  0.20907600  0.76870300  1
  O  O109  1  0.29960300  0.79092400  0.23129700  1
  O  O110  1  0.70907600  0.20039700  0.26870300  1
  O  O111  1  0.75780700  0.69805000  0.00930300  1
  O  O112  1  0.83295000  0.44233100  0.47294800  1
  O  O113  1  0.47320900  0.43085400  0.17780300  1
