# generated using pymatgen
data_Rb7NaZn2O6
_symmetry_space_group_name_H-M   'P 1'
_cell_length_a   7.20949500
_cell_length_b   9.59673613
_cell_length_c   11.44272703
_cell_angle_alpha   105.94762177
_cell_angle_beta   91.99618514
_cell_angle_gamma   108.73215335
_symmetry_Int_Tables_number   1
_chemical_formula_structural   Rb7NaZn2O6
_chemical_formula_sum   'Rb14 Na2 Zn4 O12'
_cell_volume   714.28864886
_cell_formula_units_Z   2
loop_
 _symmetry_equiv_pos_site_id
 _symmetry_equiv_pos_as_xyz
  1  'x, y, z'
loop_
 _atom_site_type_symbol
 _atom_site_label
 _atom_site_symmetry_multiplicity
 _atom_site_fract_x
 _atom_site_fract_y
 _atom_site_fract_z
 _atom_site_occupancy
  Rb  Rb0  1  0.95248300  0.66485100  0.59270100  1
  Rb  Rb1  1  0.56355300  0.33915500  0.01914300  1
  Rb  Rb2  1  0.03483000  0.51635600  0.18830800  1
  Rb  Rb3  1  0.47582500  0.48422500  0.68673700  1
  Rb  Rb4  1  0.43644700  0.66084500  0.98085700  1
  Rb  Rb5  1  0.04751700  0.33514900  0.40729900  1
  Rb  Rb6  1  0.52417500  0.51577500  0.31326300  1
  Rb  Rb7  1  0.02855500  0.86823800  0.36533800  1
  Rb  Rb8  1  0.20671100  0.92907300  0.90819700  1
  Rb  Rb9  1  0.48852100  0.12334800  0.68357200  1
  Rb  Rb10  1  0.79328900  0.07092700  0.09180300  1
  Rb  Rb11  1  0.51147900  0.87665200  0.31642800  1
  Rb  Rb12  1  0.96517000  0.48364400  0.81169200  1
  Rb  Rb13  1  0.97144500  0.13176200  0.63466200  1
  Na  Na14  1  0.30652000  0.11461900  0.21542900  1
  Na  Na15  1  0.69348000  0.88538100  0.78457100  1
  Zn  Zn16  1  0.58084500  0.25434100  0.43849300  1
  Zn  Zn17  1  0.41915500  0.74565900  0.56150700  1
  Zn  Zn18  1  0.09284800  0.24835000  0.94102000  1
  Zn  Zn19  1  0.90715200  0.75165000  0.05898000  1
  O  O20  1  0.18659400  0.82649000  0.12021600  1
  O  O21  1  0.22903100  0.66449500  0.41643300  1
  O  O22  1  0.18552500  0.25570000  0.10507700  1
  O  O23  1  0.77096900  0.33550500  0.58356700  1
  O  O24  1  0.30029600  0.17264100  0.44449700  1
  O  O25  1  0.71866100  0.68074700  0.16376700  1
  O  O26  1  0.81447500  0.74430000  0.89492300  1
  O  O27  1  0.65656100  0.24870400  0.27648000  1
  O  O28  1  0.81340600  0.17351000  0.87978400  1
  O  O29  1  0.34343900  0.75129600  0.72352000  1
  O  O30  1  0.28133900  0.31925300  0.83623300  1
  O  O31  1  0.69970400  0.82735900  0.55550300  1
