# generated using pymatgen
data_BaTiO3
_symmetry_space_group_name_H-M   'P 1'
_cell_length_a   4.08113094
_cell_length_b   4.08113094
_cell_length_c   4.08113105
_cell_angle_alpha   89.66458290
_cell_angle_beta   89.66458290
_cell_angle_gamma   89.66457903
_symmetry_Int_Tables_number   1
_chemical_formula_structural   BaTiO3
_chemical_formula_sum   'Ba1 Ti1 O3'
_cell_volume   67.97032702
_cell_formula_units_Z   1
loop_
 _symmetry_equiv_pos_site_id
 _symmetry_equiv_pos_as_xyz
  1  'x, y, z'
loop_
 _atom_site_type_symbol
 _atom_site_label
 _atom_site_symmetry_multiplicity
 _atom_site_fract_x
 _atom_site_fract_y
 _atom_site_fract_z
 _atom_site_occupancy
  Ba  Ba0  1  0.00206900  0.00206900  0.00206900  1
  Ti  Ti1  1  0.51644000  0.51644000  0.51644000  1
  O  O2  1  0.97375300  0.48461900  0.48461900  1
  O  O3  1  0.48461900  0.97375300  0.48461900  1
  O  O4  1  0.48461900  0.48461900  0.97375300  1
