# generated using pymatgen
data_CsAu(SO4)2
_symmetry_space_group_name_H-M   'P 1'
_cell_length_a   9.30700500
_cell_length_b   9.24685600
_cell_length_c   10.55066449
_cell_angle_alpha   68.58945725
_cell_angle_beta   90.00000000
_cell_angle_gamma   90.00000000
_symmetry_Int_Tables_number   1
_chemical_formula_structural   CsAu(SO4)2
_chemical_formula_sum   'Cs4 Au4 S8 O32'
_cell_volume   845.33382226
_cell_formula_units_Z   4
loop_
 _symmetry_equiv_pos_site_id
 _symmetry_equiv_pos_as_xyz
  1  'x, y, z'
loop_
 _atom_site_type_symbol
 _atom_site_label
 _atom_site_symmetry_multiplicity
 _atom_site_fract_x
 _atom_site_fract_y
 _atom_site_fract_z
 _atom_site_occupancy
  Cs  Cs0  1  0.14057800  0.61232900  0.24394400  1
  Cs  Cs1  1  0.64057800  0.88767100  0.75605600  1
  Cs  Cs2  1  0.85942200  0.38767100  0.75605600  1
  Cs  Cs3  1  0.35942200  0.11232900  0.24394400  1
  Au  Au4  1  0.35552200  0.36691600  0.71103700  1
  Au  Au5  1  0.14447800  0.86691600  0.71103700  1
  Au  Au6  1  0.85552200  0.13308400  0.28896300  1
  Au  Au7  1  0.64447800  0.63308400  0.28896300  1
  S  S8  1  0.74285600  0.45990700  0.09835200  1
  S  S9  1  0.47131900  0.69543300  0.52633400  1
  S  S10  1  0.75714400  0.95990700  0.09835200  1
  S  S11  1  0.25714400  0.54009300  0.90164800  1
  S  S12  1  0.97131900  0.80456700  0.47366600  1
  S  S13  1  0.02868100  0.19543300  0.52633400  1
  S  S14  1  0.24285600  0.04009300  0.90164800  1
  S  S15  1  0.52868100  0.30456700  0.47366600  1
  O  O16  1  0.70633400  0.03790000  0.19961400  1
  O  O17  1  0.49400600  0.25327800  0.62870000  1
  O  O18  1  0.35443700  0.56882200  0.54561100  1
  O  O19  1  0.50599400  0.74672200  0.37130000  1
  O  O20  1  0.99400600  0.24672200  0.37130000  1
  O  O21  1  0.23321800  0.43470700  0.04067300  1
  O  O22  1  0.20633400  0.46210000  0.80038600  1
  O  O23  1  0.39907300  0.60486300  0.86546000  1
  O  O24  1  0.90524800  0.66753700  0.46233500  1
  O  O25  1  0.85443700  0.93117800  0.45438900  1
  O  O26  1  0.29366600  0.96210000  0.80038600  1
  O  O27  1  0.40524800  0.83246300  0.53766500  1
  O  O28  1  0.73321800  0.06529300  0.95932700  1
  O  O29  1  0.64556300  0.43117800  0.45438900  1
  O  O30  1  0.89907300  0.89513700  0.13454000  1
  O  O31  1  0.90510200  0.13241900  0.61180200  1
  O  O32  1  0.10092700  0.10486300  0.86546000  1
  O  O33  1  0.79366600  0.53790000  0.19961400  1
  O  O34  1  0.35967800  0.16812000  0.88001300  1
  O  O35  1  0.00599400  0.75327800  0.62870000  1
  O  O36  1  0.59489800  0.63241900  0.61180200  1
  O  O37  1  0.40510200  0.36758100  0.38819800  1
  O  O38  1  0.14556300  0.06882200  0.54561100  1
  O  O39  1  0.64032200  0.83188000  0.11998700  1
  O  O40  1  0.59475200  0.16753700  0.46233500  1
  O  O41  1  0.76678200  0.56529300  0.95932700  1
  O  O42  1  0.60092700  0.39513700  0.13454000  1
  O  O43  1  0.26678200  0.93470700  0.04067300  1
  O  O44  1  0.09475200  0.33246300  0.53766500  1
  O  O45  1  0.14032200  0.66812000  0.88001300  1
  O  O46  1  0.85967800  0.33188000  0.11998700  1
  O  O47  1  0.09489800  0.86758100  0.38819800  1
