# generated using pymatgen
data_PrCoGe
_symmetry_space_group_name_H-M   'P 1'
_cell_length_a   4.16011600
_cell_length_b   4.16011600
_cell_length_c   6.98091600
_cell_angle_alpha   90.00000000
_cell_angle_beta   90.00000000
_cell_angle_gamma   90.00000000
_symmetry_Int_Tables_number   1
_chemical_formula_structural   PrCoGe
_chemical_formula_sum   'Pr2 Co2 Ge2'
_cell_volume   120.81567745
_cell_formula_units_Z   2
loop_
 _symmetry_equiv_pos_site_id
 _symmetry_equiv_pos_as_xyz
  1  'x, y, z'
loop_
 _atom_site_type_symbol
 _atom_site_label
 _atom_site_symmetry_multiplicity
 _atom_site_fract_x
 _atom_site_fract_y
 _atom_site_fract_z
 _atom_site_occupancy
  Pr  Pr0  1  0.50000000  0.00000000  0.31178000  1
  Pr  Pr1  1  0.00000000  0.50000000  0.68822000  1
  Co  Co2  1  0.50000000  0.50000000  0.00000000  1
  Co  Co3  1  0.00000000  0.00000000  0.00000000  1
  Ge  Ge4  1  0.00000000  0.50000000  0.18110000  1
  Ge  Ge5  1  0.50000000  0.00000000  0.81890000  1
