# generated using pymatgen
data_As2Pb3O8
_symmetry_space_group_name_H-M   'P 1'
_cell_length_a   6.37963600
_cell_length_b   7.57781000
_cell_length_c   9.56745316
_cell_angle_alpha   65.83481539
_cell_angle_beta   90.00000000
_cell_angle_gamma   90.00000000
_symmetry_Int_Tables_number   1
_chemical_formula_structural   As2Pb3O8
_chemical_formula_sum   'As4 Pb6 O16'
_cell_volume   421.99421136
_cell_formula_units_Z   2
loop_
 _symmetry_equiv_pos_site_id
 _symmetry_equiv_pos_as_xyz
  1  'x, y, z'
loop_
 _atom_site_type_symbol
 _atom_site_label
 _atom_site_symmetry_multiplicity
 _atom_site_fract_x
 _atom_site_fract_y
 _atom_site_fract_z
 _atom_site_occupancy
  As  As0  1  0.02060800  0.79806900  0.40023400  1
  As  As1  1  0.52060800  0.20193100  0.09976600  1
  As  As2  1  0.97939200  0.20193100  0.59976600  1
  As  As3  1  0.47939200  0.79806900  0.90023400  1
  Pb  Pb4  1  0.00000000  0.00000000  0.00000000  1
  Pb  Pb5  1  0.50000000  0.00000000  0.50000000  1
  Pb  Pb6  1  0.90529100  0.62566800  0.78435500  1
  Pb  Pb7  1  0.40529100  0.37433200  0.71564500  1
  Pb  Pb8  1  0.09470900  0.37433200  0.21564500  1
  Pb  Pb9  1  0.59470900  0.62566800  0.28435500  1
  O  O10  1  0.23985100  0.72042400  0.51273800  1
  O  O11  1  0.73985100  0.27957600  0.98726200  1
  O  O12  1  0.76014900  0.27957600  0.48726200  1
  O  O13  1  0.26014900  0.72042400  0.01273800  1
  O  O14  1  0.69810700  0.74785700  0.02027000  1
  O  O15  1  0.19810700  0.25214300  0.47973000  1
  O  O16  1  0.30189300  0.25214300  0.97973000  1
  O  O17  1  0.80189300  0.74785700  0.52027000  1
  O  O18  1  0.03002300  0.31892800  0.72005400  1
  O  O19  1  0.53002300  0.68107200  0.77994600  1
  O  O20  1  0.96997700  0.68107200  0.27994600  1
  O  O21  1  0.46997700  0.31892800  0.22005400  1
  O  O22  1  0.03753700  0.03701200  0.27607100  1
  O  O23  1  0.53753700  0.96298800  0.22392900  1
  O  O24  1  0.96246300  0.96298800  0.72392900  1
  O  O25  1  0.46246300  0.03701200  0.77607100  1
