# generated using pymatgen
data_Ca2GeS4
_symmetry_space_group_name_H-M   'P 1'
_cell_length_a   6.36448500
_cell_length_b   8.24701300
_cell_length_c   13.82406500
_cell_angle_alpha   90.00000000
_cell_angle_beta   90.00000000
_cell_angle_gamma   90.00000000
_symmetry_Int_Tables_number   1
_chemical_formula_structural   Ca2GeS4
_chemical_formula_sum   'Ca8 Ge4 S16'
_cell_volume   725.59739285
_cell_formula_units_Z   4
loop_
 _symmetry_equiv_pos_site_id
 _symmetry_equiv_pos_as_xyz
  1  'x, y, z'
loop_
 _atom_site_type_symbol
 _atom_site_label
 _atom_site_symmetry_multiplicity
 _atom_site_fract_x
 _atom_site_fract_y
 _atom_site_fract_z
 _atom_site_occupancy
  Ca  Ca0  1  0.00000000  0.00000000  0.00000000  1
  Ca  Ca1  1  0.50000000  0.00000000  0.50000000  1
  Ca  Ca2  1  0.00000000  0.50000000  0.00000000  1
  Ca  Ca3  1  0.50000000  0.50000000  0.50000000  1
  Ca  Ca4  1  0.48474600  0.75000000  0.22594500  1
  Ca  Ca5  1  0.98474600  0.25000000  0.27405500  1
  Ca  Ca6  1  0.51525400  0.25000000  0.77405500  1
  Ca  Ca7  1  0.01525400  0.75000000  0.72594500  1
  Ge  Ge8  1  0.90637500  0.75000000  0.40549700  1
  Ge  Ge9  1  0.40637500  0.25000000  0.09450300  1
  Ge  Ge10  1  0.09362500  0.25000000  0.59450300  1
  Ge  Ge11  1  0.59362500  0.75000000  0.90549700  1
  S  S12  1  0.77018100  0.75000000  0.55614000  1
  S  S13  1  0.27018100  0.25000000  0.94386000  1
  S  S14  1  0.22981900  0.25000000  0.44386000  1
  S  S15  1  0.72981900  0.75000000  0.05614000  1
  S  S16  1  0.25518300  0.75000000  0.40557700  1
  S  S17  1  0.75518300  0.25000000  0.09442300  1
  S  S18  1  0.74481700  0.25000000  0.59442300  1
  S  S19  1  0.24481700  0.75000000  0.90557700  1
  S  S20  1  0.75679300  0.96307300  0.33098000  1
  S  S21  1  0.25679300  0.03692700  0.16902000  1
  S  S22  1  0.24320700  0.46307300  0.66902000  1
  S  S23  1  0.74320700  0.53692700  0.83098000  1
  S  S24  1  0.24320700  0.03692700  0.66902000  1
  S  S25  1  0.74320700  0.96307300  0.83098000  1
  S  S26  1  0.75679300  0.53692700  0.33098000  1
  S  S27  1  0.25679300  0.46307300  0.16902000  1
