# generated using pymatgen
data_BaHf(PO4)2
_symmetry_space_group_name_H-M   'P 1'
_cell_length_a   5.10004225
_cell_length_b   5.10004225
_cell_length_c   7.95615949
_cell_angle_alpha   86.93926986
_cell_angle_beta   86.93926986
_cell_angle_gamma   63.22561008
_symmetry_Int_Tables_number   1
_chemical_formula_structural   BaHf(PO4)2
_chemical_formula_sum   'Ba1 Hf1 P2 O8'
_cell_volume   184.39269517
_cell_formula_units_Z   1
loop_
 _symmetry_equiv_pos_site_id
 _symmetry_equiv_pos_as_xyz
  1  'x, y, z'
loop_
 _atom_site_type_symbol
 _atom_site_label
 _atom_site_symmetry_multiplicity
 _atom_site_fract_x
 _atom_site_fract_y
 _atom_site_fract_z
 _atom_site_occupancy
  Ba  Ba0  1  0.00000000  0.00000000  0.50000000  1
  Hf  Hf1  1  0.00000000  0.00000000  0.00000000  1
  P  P2  1  0.36225500  0.36225500  0.77967000  1
  P  P3  1  0.63774500  0.63774500  0.22033000  1
  O  O4  1  0.30160300  0.77506500  0.18669600  1
  O  O5  1  0.22336400  0.22336400  0.91045900  1
  O  O6  1  0.31792400  0.31792400  0.59742400  1
  O  O7  1  0.68207600  0.68207600  0.40257600  1
  O  O8  1  0.77663600  0.77663600  0.08954100  1
  O  O9  1  0.77506500  0.30160300  0.18669600  1
  O  O10  1  0.22493500  0.69839700  0.81330400  1
  O  O11  1  0.69839700  0.22493500  0.81330400  1
