# generated using pymatgen
data_CsPr(SO4)2
_symmetry_space_group_name_H-M   'P 1'
_cell_length_a   5.50700500
_cell_length_b   9.72213600
_cell_length_c   14.54146700
_cell_angle_alpha   90.00000000
_cell_angle_beta   90.00000000
_cell_angle_gamma   90.00000000
_symmetry_Int_Tables_number   1
_chemical_formula_structural   CsPr(SO4)2
_chemical_formula_sum   'Cs4 Pr4 S8 O32'
_cell_volume   778.54798468
_cell_formula_units_Z   4
loop_
 _symmetry_equiv_pos_site_id
 _symmetry_equiv_pos_as_xyz
  1  'x, y, z'
loop_
 _atom_site_type_symbol
 _atom_site_label
 _atom_site_symmetry_multiplicity
 _atom_site_fract_x
 _atom_site_fract_y
 _atom_site_fract_z
 _atom_site_occupancy
  Cs  Cs0  1  0.25000000  0.07725500  0.25000000  1
  Cs  Cs1  1  0.25000000  0.42274500  0.75000000  1
  Cs  Cs2  1  0.75000000  0.92274500  0.75000000  1
  Cs  Cs3  1  0.75000000  0.57725500  0.25000000  1
  Pr  Pr4  1  0.67656000  0.25000000  0.50000000  1
  Pr  Pr5  1  0.82344000  0.25000000  0.00000000  1
  Pr  Pr6  1  0.32344000  0.75000000  0.50000000  1
  Pr  Pr7  1  0.17656000  0.75000000  0.00000000  1
  S  S8  1  0.23797800  0.41390300  0.41582700  1
  S  S9  1  0.23797800  0.08609700  0.58417300  1
  S  S10  1  0.26202200  0.41390300  0.08417300  1
  S  S11  1  0.26202200  0.08609700  0.91582700  1
  S  S12  1  0.76202200  0.58609700  0.58417300  1
  S  S13  1  0.76202200  0.91390300  0.41582700  1
  S  S14  1  0.73797800  0.58609700  0.91582700  1
  S  S15  1  0.73797800  0.91390300  0.08417300  1
  O  O16  1  0.30509800  0.40269200  0.51521000  1
  O  O17  1  0.30509800  0.09730800  0.48479000  1
  O  O18  1  0.19490200  0.40269200  0.98479000  1
  O  O19  1  0.19490200  0.09730800  0.01521000  1
  O  O20  1  0.69490200  0.59730800  0.48479000  1
  O  O21  1  0.69490200  0.90269200  0.51521000  1
  O  O22  1  0.80509800  0.59730800  0.01521000  1
  O  O23  1  0.80509800  0.90269200  0.98479000  1
  O  O24  1  0.22593800  0.56151600  0.38808100  1
  O  O25  1  0.22593800  0.93848400  0.61191900  1
  O  O26  1  0.27406200  0.56151600  0.11191900  1
  O  O27  1  0.27406200  0.93848400  0.88808100  1
  O  O28  1  0.77406200  0.43848400  0.61191900  1
  O  O29  1  0.77406200  0.06151600  0.38808100  1
  O  O30  1  0.72593800  0.43848400  0.88808100  1
  O  O31  1  0.72593800  0.06151600  0.11191900  1
  O  O32  1  0.43349400  0.34144500  0.36289300  1
  O  O33  1  0.43349400  0.15855500  0.63710700  1
  O  O34  1  0.06650600  0.34144500  0.13710700  1
  O  O35  1  0.06650600  0.15855500  0.86289300  1
  O  O36  1  0.56650600  0.65855500  0.63710700  1
  O  O37  1  0.56650600  0.84144500  0.36289300  1
  O  O38  1  0.93349400  0.65855500  0.86289300  1
  O  O39  1  0.93349400  0.84144500  0.13710700  1
  O  O40  1  0.99773000  0.34857100  0.39842300  1
  O  O41  1  0.99773000  0.15142900  0.60157700  1
  O  O42  1  0.50227000  0.34857100  0.10157700  1
  O  O43  1  0.50227000  0.15142900  0.89842300  1
  O  O44  1  0.00227000  0.65142900  0.60157700  1
  O  O45  1  0.00227000  0.84857100  0.39842300  1
  O  O46  1  0.49773000  0.65142900  0.89842300  1
  O  O47  1  0.49773000  0.84857100  0.10157700  1
