# generated using pymatgen
data_CsV(MoO4)2
_symmetry_space_group_name_H-M   'P 1'
_cell_length_a   5.81818327
_cell_length_b   10.17708974
_cell_length_c   10.06451718
_cell_angle_alpha   60.17682317
_cell_angle_beta   89.97414522
_cell_angle_gamma   106.61653627
_symmetry_Int_Tables_number   1
_chemical_formula_structural   CsV(MoO4)2
_chemical_formula_sum   'Cs2 V2 Mo4 O16'
_cell_volume   488.07731893
_cell_formula_units_Z   2
loop_
 _symmetry_equiv_pos_site_id
 _symmetry_equiv_pos_as_xyz
  1  'x, y, z'
loop_
 _atom_site_type_symbol
 _atom_site_label
 _atom_site_symmetry_multiplicity
 _atom_site_fract_x
 _atom_site_fract_y
 _atom_site_fract_z
 _atom_site_occupancy
  Cs  Cs0  1  0.50041200  0.00087000  0.49913300  1
  Cs  Cs1  1  0.99960600  0.99913200  0.00086600  1
  V  V2  1  0.75004000  0.50001600  0.24999100  1
  V  V3  1  0.24997000  0.49997800  0.75000900  1
  Mo  Mo4  1  0.14497200  0.29029100  0.18784900  1
  Mo  Mo5  1  0.35501100  0.70971500  0.31216100  1
  Mo  Mo6  1  0.64543600  0.29080900  0.68791900  1
  Mo  Mo7  1  0.85454300  0.70917900  0.81207500  1
  O  O8  1  0.95967900  0.91963600  0.70630100  1
  O  O9  1  0.46020500  0.92027800  0.20616100  1
  O  O10  1  0.03980200  0.07972600  0.29384100  1
  O  O11  1  0.54032800  0.08035500  0.79369900  1
  O  O12  1  0.92138700  0.35581400  0.24048800  1
  O  O13  1  0.42151900  0.35619200  0.74024200  1
  O  O14  1  0.82149000  0.64278400  0.01711700  1
  O  O15  1  0.32175600  0.64327500  0.51700000  1
  O  O16  1  0.43394500  0.35579400  0.24038600  1
  O  O17  1  0.93480000  0.35625500  0.74017100  1
  O  O18  1  0.17823500  0.35671500  0.98300900  1
  O  O19  1  0.67852600  0.35723600  0.48287600  1
  O  O20  1  0.07847900  0.64379800  0.75975500  1
  O  O21  1  0.57861800  0.64421500  0.25950500  1
  O  O22  1  0.56518700  0.64371900  0.75983300  1
  O  O23  1  0.06605400  0.64421900  0.25961300  1
