# generated using pymatgen
data_TbSeClO3
_symmetry_space_group_name_H-M   'P 1'
_cell_length_a   7.05738900
_cell_length_b   7.33144100
_cell_length_c   8.91929700
_cell_angle_alpha   90.00000000
_cell_angle_beta   90.00000000
_cell_angle_gamma   90.00000000
_symmetry_Int_Tables_number   1
_chemical_formula_structural   TbSeClO3
_chemical_formula_sum   'Tb4 Se4 Cl4 O12'
_cell_volume   461.49183932
_cell_formula_units_Z   4
loop_
 _symmetry_equiv_pos_site_id
 _symmetry_equiv_pos_as_xyz
  1  'x, y, z'
loop_
 _atom_site_type_symbol
 _atom_site_label
 _atom_site_symmetry_multiplicity
 _atom_site_fract_x
 _atom_site_fract_y
 _atom_site_fract_z
 _atom_site_occupancy
  Tb  Tb0  1  0.25000000  0.60589000  0.96079800  1
  Tb  Tb1  1  0.75000000  0.39411000  0.03920200  1
  Tb  Tb2  1  0.25000000  0.10589000  0.53920200  1
  Tb  Tb3  1  0.75000000  0.89411000  0.46079800  1
  Se  Se4  1  0.75000000  0.28976900  0.63228800  1
  Se  Se5  1  0.25000000  0.21023100  0.13228800  1
  Se  Se6  1  0.75000000  0.78976900  0.86771200  1
  Se  Se7  1  0.25000000  0.71023100  0.36771200  1
  Cl  Cl8  1  0.75000000  0.55659300  0.31833000  1
  Cl  Cl9  1  0.75000000  0.05659300  0.18167000  1
  Cl  Cl10  1  0.25000000  0.44340700  0.68167000  1
  Cl  Cl11  1  0.25000000  0.94340700  0.81833000  1
  O  O12  1  0.57315300  0.14158300  0.56732600  1
  O  O13  1  0.07315300  0.85841700  0.43267400  1
  O  O14  1  0.25000000  0.25184500  0.31993300  1
  O  O15  1  0.92684700  0.14158300  0.56732600  1
  O  O16  1  0.42684700  0.35841700  0.06732600  1
  O  O17  1  0.92684700  0.64158300  0.93267400  1
  O  O18  1  0.75000000  0.74815500  0.68006700  1
  O  O19  1  0.25000000  0.75184500  0.18006700  1
  O  O20  1  0.42684700  0.85841700  0.43267400  1
  O  O21  1  0.07315300  0.35841700  0.06732600  1
  O  O22  1  0.75000000  0.24815500  0.81993300  1
  O  O23  1  0.57315300  0.64158300  0.93267400  1
