# generated using pymatgen
data_CsV2P5O16
_symmetry_space_group_name_H-M   'P 1'
_cell_length_a   9.59337100
_cell_length_b   7.67878900
_cell_length_c   10.42910537
_cell_angle_alpha   68.08820397
_cell_angle_beta   90.00000000
_cell_angle_gamma   90.00000000
_symmetry_Int_Tables_number   1
_chemical_formula_structural   CsV2P5O16
_chemical_formula_sum   'Cs2 V4 P10 O32'
_cell_volume   712.76507827
_cell_formula_units_Z   2
loop_
 _symmetry_equiv_pos_site_id
 _symmetry_equiv_pos_as_xyz
  1  'x, y, z'
loop_
 _atom_site_type_symbol
 _atom_site_label
 _atom_site_symmetry_multiplicity
 _atom_site_fract_x
 _atom_site_fract_y
 _atom_site_fract_z
 _atom_site_occupancy
  Cs  Cs0  1  0.80560500  0.99791600  0.75347300  1
  Cs  Cs1  1  0.19439500  0.99791600  0.25347300  1
  V  V2  1  0.36883500  0.92582300  0.86236400  1
  V  V3  1  0.63116500  0.92582300  0.36236400  1
  V  V4  1  0.14327800  0.37868800  0.46664900  1
  V  V5  1  0.85672200  0.37868800  0.96664900  1
  P  P6  1  0.87334700  0.27856700  0.30267300  1
  P  P7  1  0.12665300  0.27856700  0.80267300  1
  P  P8  1  0.86048800  0.61201000  0.37296700  1
  P  P9  1  0.13951200  0.61201000  0.87296700  1
  P  P10  1  0.70617200  0.57042800  0.62693900  1
  P  P11  1  0.29382800  0.57042800  0.12693900  1
  P  P12  1  0.45961000  0.51543100  0.49284600  1
  P  P13  1  0.54039000  0.51543100  0.99284600  1
  P  P14  1  0.41758000  0.12643700  0.52475300  1
  P  P15  1  0.58242000  0.12643700  0.02475300  1
  O  O16  1  0.98927100  0.23033800  0.41091200  1
  O  O17  1  0.01072900  0.23033800  0.91091200  1
  O  O18  1  0.74706700  0.15260200  0.34909900  1
  O  O19  1  0.25293300  0.15260200  0.84909900  1
  O  O20  1  0.92946100  0.29970100  0.15955800  1
  O  O21  1  0.07053900  0.29970100  0.65955800  1
  O  O22  1  0.81867900  0.49097100  0.28529300  1
  O  O23  1  0.18132100  0.49097100  0.78529300  1
  O  O24  1  0.79992000  0.80588400  0.30607100  1
  O  O25  1  0.20008000  0.80588400  0.80607100  1
  O  O26  1  0.01690400  0.60970800  0.39660700  1
  O  O27  1  0.98309600  0.60970800  0.89660700  1
  O  O28  1  0.78727600  0.49562600  0.52131000  1
  O  O29  1  0.21272400  0.49562600  0.02131000  1
  O  O30  1  0.76948200  0.48083600  0.76654900  1
  O  O31  1  0.23051800  0.48083600  0.26654900  1
  O  O32  1  0.70211000  0.78239100  0.56376500  1
  O  O33  1  0.29789000  0.78239100  0.06376500  1
  O  O34  1  0.55183600  0.48349600  0.63179100  1
  O  O35  1  0.44816400  0.48349600  0.13179100  1
  O  O36  1  0.30680400  0.51579700  0.52530200  1
  O  O37  1  0.69319600  0.51579700  0.02530200  1
  O  O38  1  0.51807500  0.68520300  0.37930800  1
  O  O39  1  0.48192500  0.68520300  0.87930800  1
  O  O40  1  0.49564300  0.33210000  0.46077200  1
  O  O41  1  0.50435700  0.33210000  0.96077200  1
  O  O42  1  0.26012200  0.15632800  0.50381000  1
  O  O43  1  0.73987800  0.15632800  0.00381000  1
  O  O44  1  0.45884600  0.04205500  0.67637300  1
  O  O45  1  0.54115400  0.04205500  0.17637300  1
  O  O46  1  0.47020500  0.01926200  0.43911600  1
  O  O47  1  0.52979500  0.01926200  0.93911600  1
