# generated using pymatgen
data_CsMo3Br3Cl4
_symmetry_space_group_name_H-M   'P 1'
_cell_length_a   10.31268508
_cell_length_b   10.31268508
_cell_length_c   15.81032500
_cell_angle_alpha   90.00000000
_cell_angle_beta   90.00000000
_cell_angle_gamma   119.99999413
_symmetry_Int_Tables_number   1
_chemical_formula_structural   CsMo3Br3Cl4
_chemical_formula_sum   'Cs4 Mo12 Br12 Cl16'
_cell_volume   1456.17968146
_cell_formula_units_Z   4
loop_
 _symmetry_equiv_pos_site_id
 _symmetry_equiv_pos_as_xyz
  1  'x, y, z'
loop_
 _atom_site_type_symbol
 _atom_site_label
 _atom_site_symmetry_multiplicity
 _atom_site_fract_x
 _atom_site_fract_y
 _atom_site_fract_z
 _atom_site_occupancy
  Cs  Cs0  1  0.00000000  0.00000000  0.51790500  1
  Cs  Cs1  1  0.00000000  0.00000000  0.01790500  1
  Cs  Cs2  1  0.33333300  0.66666700  0.24393500  1
  Cs  Cs3  1  0.66666700  0.33333300  0.74393500  1
  Mo  Mo4  1  0.51637600  0.32755600  0.31742500  1
  Mo  Mo5  1  0.67244400  0.18882000  0.31742500  1
  Mo  Mo6  1  0.34073600  0.81758000  0.68187700  1
  Mo  Mo7  1  0.47684400  0.65926400  0.68187700  1
  Mo  Mo8  1  0.32755600  0.51637600  0.81742500  1
  Mo  Mo9  1  0.48362400  0.81118000  0.81742500  1
  Mo  Mo10  1  0.18882000  0.67244400  0.81742500  1
  Mo  Mo11  1  0.81118000  0.48362400  0.31742500  1
  Mo  Mo12  1  0.52315600  0.18242000  0.18187700  1
  Mo  Mo13  1  0.81758000  0.34073600  0.18187700  1
  Mo  Mo14  1  0.18242000  0.52315600  0.68187700  1
  Mo  Mo15  1  0.65926400  0.47684400  0.18187700  1
  Br  Br16  1  0.36015500  0.03963000  0.59263700  1
  Br  Br17  1  0.97493000  0.67094400  0.90606500  1
  Br  Br18  1  0.67094400  0.97493000  0.40606500  1
  Br  Br19  1  0.69601500  0.02507000  0.90606500  1
  Br  Br20  1  0.63984500  0.67947500  0.09263700  1
  Br  Br21  1  0.32905600  0.30398500  0.90606500  1
  Br  Br22  1  0.30398500  0.32905600  0.40606500  1
  Br  Br23  1  0.02507000  0.69601500  0.40606500  1
  Br  Br24  1  0.03963000  0.36015500  0.09263700  1
  Br  Br25  1  0.32052500  0.96037000  0.09263700  1
  Br  Br26  1  0.67947500  0.63984500  0.59263700  1
  Br  Br27  1  0.96037000  0.32052500  0.59263700  1
  Cl  Cl28  1  0.33333300  0.66666700  0.55713700  1
  Cl  Cl29  1  0.65667300  0.60703400  0.31520600  1
  Cl  Cl30  1  0.38048200  0.31838800  0.18401700  1
  Cl  Cl31  1  0.61951800  0.93790600  0.68401700  1
  Cl  Cl32  1  0.93790600  0.61951800  0.18401700  1
  Cl  Cl33  1  0.31838800  0.38048200  0.68401700  1
  Cl  Cl34  1  0.04963900  0.39296600  0.81520600  1
  Cl  Cl35  1  0.34332700  0.95036100  0.81520600  1
  Cl  Cl36  1  0.39296600  0.04963900  0.31520600  1
  Cl  Cl37  1  0.66666700  0.33333300  0.44174200  1
  Cl  Cl38  1  0.06209400  0.68161200  0.68401700  1
  Cl  Cl39  1  0.60703400  0.65667300  0.81520600  1
  Cl  Cl40  1  0.68161200  0.06209400  0.18401700  1
  Cl  Cl41  1  0.33333300  0.66666700  0.94174200  1
  Cl  Cl42  1  0.95036100  0.34332700  0.31520600  1
  Cl  Cl43  1  0.66666700  0.33333300  0.05713700  1
