# generated using pymatgen
data_Eu2B4Rh5
_symmetry_space_group_name_H-M   'P 1'
_cell_length_a   7.55282586
_cell_length_b   6.29971638
_cell_length_c   5.71900250
_cell_angle_alpha   77.70156237
_cell_angle_beta   54.58204095
_cell_angle_gamma   47.71639668
_symmetry_Int_Tables_number   1
_chemical_formula_structural   Eu2B4Rh5
_chemical_formula_sum   'Eu2 B4 Rh5'
_cell_volume   156.84044872
_cell_formula_units_Z   1
loop_
 _symmetry_equiv_pos_site_id
 _symmetry_equiv_pos_as_xyz
  1  'x, y, z'
loop_
 _atom_site_type_symbol
 _atom_site_label
 _atom_site_symmetry_multiplicity
 _atom_site_fract_x
 _atom_site_fract_y
 _atom_site_fract_z
 _atom_site_occupancy
  Eu  Eu0  1  0.85646400  0.85646400  0.14353600  1
  Eu  Eu1  1  0.14353600  0.14353600  0.85646400  1
  B  B2  1  0.20876400  0.53219500  0.46780500  1
  B  B3  1  0.79123600  0.46780500  0.53219500  1
  B  B4  1  0.53219500  0.20876400  0.79123600  1
  B  B5  1  0.46780500  0.79123600  0.20876400  1
  Rh  Rh6  1  0.50000000  0.50000000  0.00000000  1
  Rh  Rh7  1  0.75000000  0.75000000  0.75000000  1
  Rh  Rh8  1  0.25000000  0.25000000  0.25000000  1
  Rh  Rh9  1  0.00000000  0.00000000  0.50000000  1
  Rh  Rh10  1  0.50000000  0.50000000  0.50000000  1
