# generated using pymatgen
data_BiAuCl6
_symmetry_space_group_name_H-M   'P 1'
_cell_length_a   7.69230900
_cell_length_b   10.17242389
_cell_length_c   14.34466948
_cell_angle_alpha   103.90729006
_cell_angle_beta   96.28568062
_cell_angle_gamma   111.83069843
_symmetry_Int_Tables_number   1
_chemical_formula_structural   BiAuCl6
_chemical_formula_sum   'Bi4 Au4 Cl24'
_cell_volume   986.48325260
_cell_formula_units_Z   4
loop_
 _symmetry_equiv_pos_site_id
 _symmetry_equiv_pos_as_xyz
  1  'x, y, z'
loop_
 _atom_site_type_symbol
 _atom_site_label
 _atom_site_symmetry_multiplicity
 _atom_site_fract_x
 _atom_site_fract_y
 _atom_site_fract_z
 _atom_site_occupancy
  Bi  Bi0  1  0.59603000  0.93054100  0.62067100  1
  Bi  Bi1  1  0.03202100  0.68490500  0.12837400  1
  Bi  Bi2  1  0.40397000  0.06945900  0.37932900  1
  Bi  Bi3  1  0.96797900  0.31509500  0.87162600  1
  Au  Au4  1  0.29414800  0.63111500  0.76596300  1
  Au  Au5  1  0.50000000  0.50000000  0.50000000  1
  Au  Au6  1  0.70585200  0.36888500  0.23403700  1
  Au  Au7  1  0.00000000  0.00000000  0.00000000  1
  Cl  Cl8  1  0.77598800  0.09478300  0.96682800  1
  Cl  Cl9  1  0.72839100  0.15821300  0.25741100  1
  Cl  Cl10  1  0.27160900  0.84178700  0.74258900  1
  Cl  Cl11  1  0.76850600  0.80002300  0.03012800  1
  Cl  Cl12  1  0.61314600  0.18858400  0.74144000  1
  Cl  Cl13  1  0.31372600  0.41675800  0.78678400  1
  Cl  Cl14  1  0.68627400  0.58324200  0.21321600  1
  Cl  Cl15  1  0.29685500  0.62048300  0.49727500  1
  Cl  Cl16  1  0.23149400  0.19997700  0.96987200  1
  Cl  Cl17  1  0.75862900  0.72381400  0.52172600  1
  Cl  Cl18  1  0.22401200  0.90521700  0.03317200  1
  Cl  Cl19  1  0.73378500  0.04947300  0.48631100  1
  Cl  Cl20  1  0.60911200  0.72395300  0.74968300  1
  Cl  Cl21  1  0.95668400  0.05508800  0.72518900  1
  Cl  Cl22  1  0.24137100  0.27618600  0.47827400  1
  Cl  Cl23  1  0.38685400  0.81141600  0.25856000  1
  Cl  Cl24  1  0.97645100  0.53806000  0.78177200  1
  Cl  Cl25  1  0.75698900  0.43420100  0.97484600  1
  Cl  Cl26  1  0.24301100  0.56579900  0.02515400  1
  Cl  Cl27  1  0.02354900  0.46194000  0.21822800  1
  Cl  Cl28  1  0.39088800  0.27604700  0.25031700  1
  Cl  Cl29  1  0.26621500  0.95052700  0.51368900  1
  Cl  Cl30  1  0.70314500  0.37951700  0.50272500  1
  Cl  Cl31  1  0.04331600  0.94491200  0.27481100  1
