# generated using pymatgen
data_ThTl
_symmetry_space_group_name_H-M   'P 1'
_cell_length_a   6.58365000
_cell_length_b   10.02366900
_cell_length_c   10.95824600
_cell_angle_alpha   90.00000000
_cell_angle_beta   90.00000000
_cell_angle_gamma   90.00000000
_symmetry_Int_Tables_number   1
_chemical_formula_structural   ThTl
_chemical_formula_sum   'Th12 Tl12'
_cell_volume   723.16016885
_cell_formula_units_Z   12
loop_
 _symmetry_equiv_pos_site_id
 _symmetry_equiv_pos_as_xyz
  1  'x, y, z'
loop_
 _atom_site_type_symbol
 _atom_site_label
 _atom_site_symmetry_multiplicity
 _atom_site_fract_x
 _atom_site_fract_y
 _atom_site_fract_z
 _atom_site_occupancy
  Th  Th0  1  0.00000000  0.75000000  0.60934100  1
  Th  Th1  1  0.50000000  0.25000000  0.39065900  1
  Th  Th2  1  0.00000000  0.25000000  0.39065900  1
  Th  Th3  1  0.50000000  0.75000000  0.60934100  1
  Th  Th4  1  0.75000000  0.63069700  0.31499600  1
  Th  Th5  1  0.25000000  0.36930300  0.68500400  1
  Th  Th6  1  0.75000000  0.13069700  0.68500400  1
  Th  Th7  1  0.25000000  0.86930300  0.31499600  1
  Th  Th8  1  0.75000000  0.53549900  0.88523900  1
  Th  Th9  1  0.25000000  0.46450100  0.11476100  1
  Th  Th10  1  0.75000000  0.03549900  0.11476100  1
  Th  Th11  1  0.25000000  0.96450100  0.88523900  1
  Tl  Tl12  1  0.00000000  0.75000000  0.07755400  1
  Tl  Tl13  1  0.50000000  0.25000000  0.92244600  1
  Tl  Tl14  1  0.00000000  0.25000000  0.92244600  1
  Tl  Tl15  1  0.50000000  0.75000000  0.07755400  1
  Tl  Tl16  1  0.75000000  0.94940000  0.40668500  1
  Tl  Tl17  1  0.25000000  0.05060000  0.59331500  1
  Tl  Tl18  1  0.75000000  0.44940000  0.59331500  1
  Tl  Tl19  1  0.25000000  0.55060000  0.40668500  1
  Tl  Tl20  1  0.75000000  0.87230700  0.85137700  1
  Tl  Tl21  1  0.25000000  0.12769300  0.14862300  1
  Tl  Tl22  1  0.75000000  0.37230700  0.14862300  1
  Tl  Tl23  1  0.25000000  0.62769300  0.85137700  1
