# generated using pymatgen
data_LuAg4
_symmetry_space_group_name_H-M   'P 1'
_cell_length_a   5.24204244
_cell_length_b   5.24204244
_cell_length_c   5.24204244
_cell_angle_alpha   99.03541936
_cell_angle_beta   99.03541936
_cell_angle_gamma   133.30721422
_symmetry_Int_Tables_number   1
_chemical_formula_structural   LuAg4
_chemical_formula_sum   'Lu1 Ag4'
_cell_volume   96.23832333
_cell_formula_units_Z   1
loop_
 _symmetry_equiv_pos_site_id
 _symmetry_equiv_pos_as_xyz
  1  'x, y, z'
loop_
 _atom_site_type_symbol
 _atom_site_label
 _atom_site_symmetry_multiplicity
 _atom_site_fract_x
 _atom_site_fract_y
 _atom_site_fract_z
 _atom_site_occupancy
  Lu  Lu0  1  0.00000000  0.00000000  0.00000000  1
  Ag  Ag1  1  0.80300400  0.59778200  0.40078600  1
  Ag  Ag2  1  0.40221800  0.80300400  0.20522200  1
  Ag  Ag3  1  0.59778200  0.19699600  0.79477800  1
  Ag  Ag4  1  0.19699600  0.40221800  0.59921400  1
