# generated using pymatgen
data_PAuClF3
_symmetry_space_group_name_H-M   'P 1'
_cell_length_a   4.94113900
_cell_length_b   5.65698000
_cell_length_c   18.78554000
_cell_angle_alpha   90.00000000
_cell_angle_beta   90.00000000
_cell_angle_gamma   90.00000000
_symmetry_Int_Tables_number   1
_chemical_formula_structural   PAuClF3
_chemical_formula_sum   'P4 Au4 Cl4 F12'
_cell_volume   525.09199578
_cell_formula_units_Z   4
loop_
 _symmetry_equiv_pos_site_id
 _symmetry_equiv_pos_as_xyz
  1  'x, y, z'
loop_
 _atom_site_type_symbol
 _atom_site_label
 _atom_site_symmetry_multiplicity
 _atom_site_fract_x
 _atom_site_fract_y
 _atom_site_fract_z
 _atom_site_occupancy
  P  P0  1  0.52578500  0.75000000  0.64598600  1
  P  P1  1  0.02578500  0.25000000  0.85401400  1
  P  P2  1  0.97421500  0.75000000  0.14598600  1
  P  P3  1  0.47421500  0.25000000  0.35401400  1
  Au  Au4  1  0.15762900  0.25000000  0.96617000  1
  Au  Au5  1  0.65762900  0.75000000  0.53383000  1
  Au  Au6  1  0.84237100  0.75000000  0.03383000  1
  Au  Au7  1  0.34237100  0.25000000  0.46617000  1
  Cl  Cl8  1  0.15379100  0.25000000  0.57791700  1
  Cl  Cl9  1  0.84620900  0.75000000  0.42208300  1
  Cl  Cl10  1  0.34620900  0.25000000  0.07791700  1
  Cl  Cl11  1  0.65379100  0.75000000  0.92208300  1
  F  F12  1  0.12874600  0.46118400  0.80743000  1
  F  F13  1  0.72027900  0.25000000  0.83236000  1
  F  F14  1  0.37125400  0.03881600  0.30743000  1
  F  F15  1  0.37125400  0.46118400  0.30743000  1
  F  F16  1  0.62874600  0.53881600  0.69257000  1
  F  F17  1  0.62874600  0.96118400  0.69257000  1
  F  F18  1  0.77972100  0.25000000  0.33236000  1
  F  F19  1  0.27972100  0.75000000  0.16764000  1
  F  F20  1  0.87125400  0.53881600  0.19257000  1
  F  F21  1  0.87125400  0.96118400  0.19257000  1
  F  F22  1  0.22027900  0.75000000  0.66764000  1
  F  F23  1  0.12874600  0.03881600  0.80743000  1
