# generated using pymatgen
data_CsTmZnSe3
_symmetry_space_group_name_H-M   'P 1'
_cell_length_a   8.39624855
_cell_length_b   8.39624855
_cell_length_c   10.91196200
_cell_angle_alpha   90.00000000
_cell_angle_beta   90.00000000
_cell_angle_gamma   151.45957426
_symmetry_Int_Tables_number   1
_chemical_formula_structural   CsTmZnSe3
_chemical_formula_sum   'Cs2 Tm2 Zn2 Se6'
_cell_volume   367.53627004
_cell_formula_units_Z   2
loop_
 _symmetry_equiv_pos_site_id
 _symmetry_equiv_pos_as_xyz
  1  'x, y, z'
loop_
 _atom_site_type_symbol
 _atom_site_label
 _atom_site_symmetry_multiplicity
 _atom_site_fract_x
 _atom_site_fract_y
 _atom_site_fract_z
 _atom_site_occupancy
  Cs  Cs0  1  0.25769400  0.74230600  0.75000000  1
  Cs  Cs1  1  0.74230600  0.25769400  0.25000000  1
  Tm  Tm2  1  0.00000000  0.00000000  0.00000000  1
  Tm  Tm3  1  0.00000000  0.00000000  0.50000000  1
  Zn  Zn4  1  0.53958500  0.46041500  0.75000000  1
  Zn  Zn5  1  0.46041500  0.53958500  0.25000000  1
  Se  Se6  1  0.61521200  0.38478800  0.94399300  1
  Se  Se7  1  0.38478800  0.61521200  0.05600700  1
  Se  Se8  1  0.38478800  0.61521200  0.44399300  1
  Se  Se9  1  0.61521200  0.38478800  0.55600700  1
  Se  Se10  1  0.94601200  0.05398800  0.75000000  1
  Se  Se11  1  0.05398800  0.94601200  0.25000000  1
