# generated using pymatgen
data_LaNiSb3
_symmetry_space_group_name_H-M   'P 1'
_cell_length_a   6.32523200
_cell_length_b   12.25604900
_cell_length_c   12.95708200
_cell_angle_alpha   90.00000000
_cell_angle_beta   90.00000000
_cell_angle_gamma   90.00000000
_symmetry_Int_Tables_number   1
_chemical_formula_structural   LaNiSb3
_chemical_formula_sum   'La8 Ni8 Sb24'
_cell_volume   1004.46348891
_cell_formula_units_Z   8
loop_
 _symmetry_equiv_pos_site_id
 _symmetry_equiv_pos_as_xyz
  1  'x, y, z'
loop_
 _atom_site_type_symbol
 _atom_site_label
 _atom_site_symmetry_multiplicity
 _atom_site_fract_x
 _atom_site_fract_y
 _atom_site_fract_z
 _atom_site_occupancy
  La  La0  1  0.22518300  0.25000000  0.30297300  1
  La  La1  1  0.75000000  0.00000000  0.29869900  1
  La  La2  1  0.25000000  0.00000000  0.70130100  1
  La  La3  1  0.25000000  0.50000000  0.70130100  1
  La  La4  1  0.75000000  0.50000000  0.29869900  1
  La  La5  1  0.27481700  0.75000000  0.30297300  1
  La  La6  1  0.72518300  0.25000000  0.69702700  1
  La  La7  1  0.77481700  0.75000000  0.69702700  1
  Ni  Ni8  1  0.45659800  0.13577500  0.09702400  1
  Ni  Ni9  1  0.04340200  0.63577500  0.09702400  1
  Ni  Ni10  1  0.45659800  0.36422500  0.09702400  1
  Ni  Ni11  1  0.54340200  0.63577500  0.90297600  1
  Ni  Ni12  1  0.54340200  0.86422500  0.90297600  1
  Ni  Ni13  1  0.95659800  0.13577500  0.90297600  1
  Ni  Ni14  1  0.04340200  0.86422500  0.09702400  1
  Ni  Ni15  1  0.95659800  0.36422500  0.90297600  1
  Sb  Sb16  1  0.27376000  0.75000000  0.78688400  1
  Sb  Sb17  1  0.98821100  0.37622700  0.50271800  1
  Sb  Sb18  1  0.75000000  0.50000000  0.02686300  1
  Sb  Sb19  1  0.25000000  0.00000000  0.21948200  1
  Sb  Sb20  1  0.25000000  0.50000000  0.97313700  1
  Sb  Sb21  1  0.09995200  0.25000000  0.05544500  1
  Sb  Sb22  1  0.59995200  0.25000000  0.94455500  1
  Sb  Sb23  1  0.75000000  0.50000000  0.78051800  1
  Sb  Sb24  1  0.51178900  0.62377300  0.50271800  1
  Sb  Sb25  1  0.48821100  0.37622700  0.49728200  1
  Sb  Sb26  1  0.75000000  0.00000000  0.78051800  1
  Sb  Sb27  1  0.72624000  0.25000000  0.21311600  1
  Sb  Sb28  1  0.51178900  0.87622700  0.50271800  1
  Sb  Sb29  1  0.25000000  0.50000000  0.21948200  1
  Sb  Sb30  1  0.22624000  0.25000000  0.78688400  1
  Sb  Sb31  1  0.90004800  0.75000000  0.94455500  1
  Sb  Sb32  1  0.48821100  0.12377300  0.49728200  1
  Sb  Sb33  1  0.98821100  0.12377300  0.50271800  1
  Sb  Sb34  1  0.01178900  0.62377300  0.49728200  1
  Sb  Sb35  1  0.01178900  0.87622700  0.49728200  1
  Sb  Sb36  1  0.75000000  0.00000000  0.02686300  1
  Sb  Sb37  1  0.40004800  0.75000000  0.05544500  1
  Sb  Sb38  1  0.77376000  0.75000000  0.21311600  1
  Sb  Sb39  1  0.25000000  0.00000000  0.97313700  1
