# generated using pymatgen
data_KPO3
_symmetry_space_group_name_H-M   'P 1'
_cell_length_a   4.62236800
_cell_length_b   10.53277800
_cell_length_c   14.28361273
_cell_angle_alpha   78.68805048
_cell_angle_beta   90.00000000
_cell_angle_gamma   90.00000000
_symmetry_Int_Tables_number   1
_chemical_formula_structural   KPO3
_chemical_formula_sum   'K8 P8 O24'
_cell_volume   681.90800330
_cell_formula_units_Z   8
loop_
 _symmetry_equiv_pos_site_id
 _symmetry_equiv_pos_as_xyz
  1  'x, y, z'
loop_
 _atom_site_type_symbol
 _atom_site_label
 _atom_site_symmetry_multiplicity
 _atom_site_fract_x
 _atom_site_fract_y
 _atom_site_fract_z
 _atom_site_occupancy
  K  K0  1  0.27906000  0.93328500  0.67083300  1
  K  K1  1  0.77906000  0.06671500  0.82916700  1
  K  K2  1  0.72094000  0.06671500  0.32916700  1
  K  K3  1  0.22094000  0.93328500  0.17083300  1
  K  K4  1  0.73614900  0.60211500  0.63125800  1
  K  K5  1  0.23614900  0.39788500  0.86874200  1
  K  K6  1  0.26385100  0.39788500  0.36874200  1
  K  K7  1  0.76385100  0.60211500  0.13125800  1
  P  P8  1  0.79558500  0.21550800  0.55538100  1
  P  P9  1  0.29558500  0.78449200  0.94461900  1
  P  P10  1  0.20441500  0.78449200  0.44461900  1
  P  P11  1  0.70441500  0.21550800  0.05538100  1
  P  P12  1  0.29702700  0.30965500  0.65303300  1
  P  P13  1  0.79702700  0.69034500  0.84696700  1
  P  P14  1  0.70297300  0.69034500  0.34696700  1
  P  P15  1  0.20297300  0.30965500  0.15303300  1
  O  O16  1  0.11792200  0.27685100  0.56164300  1
  O  O17  1  0.61792200  0.72314900  0.93835700  1
  O  O18  1  0.88207800  0.72314900  0.43835700  1
  O  O19  1  0.38207800  0.27685100  0.06164300  1
  O  O20  1  0.61697500  0.32091400  0.60439700  1
  O  O21  1  0.11697500  0.67908600  0.89560300  1
  O  O22  1  0.38302500  0.67908600  0.39560300  1
  O  O23  1  0.88302500  0.32091400  0.10439700  1
  O  O24  1  0.27902400  0.19865200  0.73673700  1
  O  O25  1  0.77902400  0.80134800  0.76326300  1
  O  O26  1  0.72097600  0.80134800  0.26326300  1
  O  O27  1  0.22097600  0.19865200  0.23673700  1
  O  O28  1  0.22612900  0.44346000  0.66740300  1
  O  O29  1  0.72612900  0.55654000  0.83259700  1
  O  O30  1  0.77387100  0.55654000  0.33259700  1
  O  O31  1  0.27387100  0.44346000  0.16740300  1
  O  O32  1  0.72481100  0.08354100  0.11751000  1
  O  O33  1  0.22481100  0.91645900  0.38249000  1
  O  O34  1  0.27518900  0.91645900  0.88249000  1
  O  O35  1  0.77518900  0.08354100  0.61751000  1
  O  O36  1  0.22749300  0.76318300  0.04906600  1
  O  O37  1  0.72749300  0.23681700  0.45093400  1
  O  O38  1  0.77250700  0.23681700  0.95093400  1
  O  O39  1  0.27250700  0.76318300  0.54906600  1
