# generated using pymatgen
data_CeAl3
_symmetry_space_group_name_H-M   'P 1'
_cell_length_a   6.42113026
_cell_length_b   6.42113026
_cell_length_c   4.63142400
_cell_angle_alpha   90.00000000
_cell_angle_beta   90.00000000
_cell_angle_gamma   120.00000267
_symmetry_Int_Tables_number   1
_chemical_formula_structural   CeAl3
_chemical_formula_sum   'Ce2 Al6'
_cell_volume   165.37433927
_cell_formula_units_Z   2
loop_
 _symmetry_equiv_pos_site_id
 _symmetry_equiv_pos_as_xyz
  1  'x, y, z'
loop_
 _atom_site_type_symbol
 _atom_site_label
 _atom_site_symmetry_multiplicity
 _atom_site_fract_x
 _atom_site_fract_y
 _atom_site_fract_z
 _atom_site_occupancy
  Ce  Ce0  1  0.66666700  0.33333300  0.75000000  1
  Ce  Ce1  1  0.33333300  0.66666700  0.25000000  1
  Al  Al2  1  0.71061300  0.85530700  0.75000000  1
  Al  Al3  1  0.14469300  0.85530700  0.75000000  1
  Al  Al4  1  0.85530700  0.14469300  0.25000000  1
  Al  Al5  1  0.85530700  0.71061300  0.25000000  1
  Al  Al6  1  0.14469300  0.28938700  0.75000000  1
  Al  Al7  1  0.28938700  0.14469300  0.25000000  1
