# generated using pymatgen
data_K3Na2SnBi3
_symmetry_space_group_name_H-M   'P 1'
_cell_length_a   14.38106091
_cell_length_b   14.38106091
_cell_length_c   14.38106091
_cell_angle_alpha   150.72637093
_cell_angle_beta   106.13385150
_cell_angle_gamma   81.36283470
_symmetry_Int_Tables_number   1
_chemical_formula_structural   K3Na2SnBi3
_chemical_formula_sum   'K12 Na8 Sn4 Bi12'
_cell_volume   1369.86886236
_cell_formula_units_Z   4
loop_
 _symmetry_equiv_pos_site_id
 _symmetry_equiv_pos_as_xyz
  1  'x, y, z'
loop_
 _atom_site_type_symbol
 _atom_site_label
 _atom_site_symmetry_multiplicity
 _atom_site_fract_x
 _atom_site_fract_y
 _atom_site_fract_z
 _atom_site_occupancy
  K  K0  1  0.58776900  0.94321500  0.20113500  1
  K  K1  1  0.07612000  0.75000000  0.82612000  1
  K  K2  1  0.91223100  0.11336600  0.35544600  1
  K  K3  1  0.41223100  0.05678500  0.79886500  1
  K  K4  1  0.75792000  0.61336600  0.70113500  1
  K  K5  1  0.24208000  0.38663400  0.29886500  1
  K  K6  1  0.08776900  0.88663400  0.64455400  1
  K  K7  1  0.42388000  0.25000000  0.67388000  1
  K  K8  1  0.74208000  0.44321500  0.85544600  1
  K  K9  1  0.25792000  0.55678500  0.14455400  1
  K  K10  1  0.92388000  0.25000000  0.17388000  1
  K  K11  1  0.57612000  0.75000000  0.32612000  1
  Na  Na12  1  0.00284700  0.25284700  0.75000000  1
  Na  Na13  1  0.66201200  0.91201200  0.75000000  1
  Na  Na14  1  0.99715300  0.74715300  0.25000000  1
  Na  Na15  1  0.49715300  0.24715300  0.25000000  1
  Na  Na16  1  0.50284700  0.75284700  0.75000000  1
  Na  Na17  1  0.16201200  0.41201200  0.75000000  1
  Na  Na18  1  0.33798800  0.08798800  0.25000000  1
  Na  Na19  1  0.83798800  0.58798800  0.25000000  1
  Sn  Sn20  1  0.66761700  0.41761700  0.25000000  1
  Sn  Sn21  1  0.16761700  0.91761700  0.25000000  1
  Sn  Sn22  1  0.83238300  0.08238300  0.75000000  1
  Sn  Sn23  1  0.33238300  0.58238300  0.75000000  1
  Bi  Bi24  1  0.35167700  0.75000000  0.10167700  1
  Bi  Bi25  1  0.47813300  0.55263400  0.35061900  1
  Bi  Bi26  1  0.97813300  0.62751500  0.92550000  1
  Bi  Bi27  1  0.52186700  0.44736600  0.64938100  1
  Bi  Bi28  1  0.29798500  0.87248500  0.85061900  1
  Bi  Bi29  1  0.70201500  0.12751500  0.14938100  1
  Bi  Bi30  1  0.02186700  0.37248500  0.07450000  1
  Bi  Bi31  1  0.64832300  0.25000000  0.89832300  1
  Bi  Bi32  1  0.79798500  0.94736600  0.42550000  1
  Bi  Bi33  1  0.14832300  0.25000000  0.39832300  1
  Bi  Bi34  1  0.20201500  0.05263400  0.57450000  1
  Bi  Bi35  1  0.85167700  0.75000000  0.60167700  1
