# generated using pymatgen
data_K6PdSe20
_symmetry_space_group_name_H-M   'P 1'
_cell_length_a   12.80182200
_cell_length_b   14.27438400
_cell_length_c   19.44707300
_cell_angle_alpha   90.00000000
_cell_angle_beta   90.00000000
_cell_angle_gamma   90.00000000
_symmetry_Int_Tables_number   1
_chemical_formula_structural   K6PdSe20
_chemical_formula_sum   'K24 Pd4 Se80'
_cell_volume   3553.72162035
_cell_formula_units_Z   4
loop_
 _symmetry_equiv_pos_site_id
 _symmetry_equiv_pos_as_xyz
  1  'x, y, z'
loop_
 _atom_site_type_symbol
 _atom_site_label
 _atom_site_symmetry_multiplicity
 _atom_site_fract_x
 _atom_site_fract_y
 _atom_site_fract_z
 _atom_site_occupancy
  K  K0  1  0.00000000  0.98742200  0.75000000  1
  K  K1  1  0.00000000  0.01257800  0.25000000  1
  K  K2  1  0.50000000  0.48742200  0.75000000  1
  K  K3  1  0.50000000  0.80424700  0.75000000  1
  K  K4  1  0.35316500  0.20627500  0.99898700  1
  K  K5  1  0.00000000  0.69575300  0.25000000  1
  K  K6  1  0.00000000  0.30424700  0.75000000  1
  K  K7  1  0.00000000  0.00000000  0.00000000  1
  K  K8  1  0.14683500  0.70627500  0.99898700  1
  K  K9  1  0.50000000  0.51257800  0.25000000  1
  K  K10  1  0.50000000  0.50000000  0.00000000  1
  K  K11  1  0.85316500  0.29372500  0.00101300  1
  K  K12  1  0.50000000  0.16511500  0.75000000  1
  K  K13  1  0.00000000  0.00000000  0.50000000  1
  K  K14  1  0.50000000  0.83488500  0.25000000  1
  K  K15  1  0.50000000  0.50000000  0.50000000  1
  K  K16  1  0.14683500  0.29372500  0.49898700  1
  K  K17  1  0.64683500  0.79372500  0.00101300  1
  K  K18  1  0.00000000  0.33488500  0.25000000  1
  K  K19  1  0.00000000  0.66511500  0.75000000  1
  K  K20  1  0.64683500  0.20627500  0.50101300  1
  K  K21  1  0.85316500  0.70627500  0.50101300  1
  K  K22  1  0.50000000  0.19575300  0.25000000  1
  K  K23  1  0.35316500  0.79372500  0.49898700  1
  Pd  Pd24  1  0.50000000  0.00000000  0.50000000  1
  Pd  Pd25  1  0.50000000  0.00000000  0.00000000  1
  Pd  Pd26  1  0.00000000  0.50000000  0.50000000  1
  Pd  Pd27  1  0.00000000  0.50000000  0.00000000  1
  Se  Se28  1  0.25519300  0.95055600  0.87782100  1
  Se  Se29  1  0.18959300  0.48720500  0.16063600  1
  Se  Se30  1  0.25688700  0.36889000  0.70960100  1
  Se  Se31  1  0.61293800  0.69499100  0.60417400  1
  Se  Se32  1  0.56174100  0.65036200  0.87391400  1
  Se  Se33  1  0.24480700  0.45055600  0.87782100  1
  Se  Se34  1  0.34235200  0.72868400  0.12681600  1
  Se  Se35  1  0.88706200  0.19499100  0.60417400  1
  Se  Se36  1  0.93825900  0.15036200  0.87391400  1
  Se  Se37  1  0.24480700  0.54944400  0.37782100  1
  Se  Se38  1  0.68959300  0.01279500  0.83936400  1
  Se  Se39  1  0.98642300  0.48443100  0.87367400  1
  Se  Se40  1  0.48363600  0.32770400  0.87860000  1
  Se  Se41  1  0.98363600  0.82770400  0.62140000  1
  Se  Se42  1  0.01357700  0.48443100  0.62632600  1
  Se  Se43  1  0.75519300  0.54944400  0.12217900  1
  Se  Se44  1  0.19106200  0.53044000  0.49328700  1
  Se  Se45  1  0.31040700  0.01279500  0.66063600  1
  Se  Se46  1  0.81040700  0.48720500  0.33936400  1
  Se  Se47  1  0.18959300  0.51279500  0.66063600  1
  Se  Se48  1  0.69106200  0.03044000  0.00671300  1
  Se  Se49  1  0.75519300  0.45055600  0.62217900  1
  Se  Se50  1  0.31040700  0.98720500  0.16063600  1
  Se  Se51  1  0.38706200  0.69499100  0.89582600  1
  Se  Se52  1  0.80893800  0.46956000  0.50671300  1
  Se  Se53  1  0.51357700  0.98443100  0.87367400  1
  Se  Se54  1  0.25519300  0.04944400  0.37782100  1
  Se  Se55  1  0.43825900  0.65036200  0.62608600  1
  Se  Se56  1  0.80893800  0.53044000  0.00671300  1
  Se  Se57  1  0.51636400  0.32770400  0.62140000  1
  Se  Se58  1  0.19106200  0.46956000  0.99328700  1
  Se  Se59  1  0.72808300  0.39419600  0.17324800  1
  Se  Se60  1  0.22808300  0.10580400  0.82675200  1
  Se  Se61  1  0.43825900  0.34963800  0.12608600  1
  Se  Se62  1  0.48642300  0.01556900  0.12632600  1
  Se  Se63  1  0.77191700  0.10580400  0.67324800  1
  Se  Se64  1  0.24311300  0.13111000  0.20960100  1
  Se  Se65  1  0.72808300  0.60580400  0.67324800  1
  Se  Se66  1  0.34235200  0.27131600  0.62681600  1
  Se  Se67  1  0.27191700  0.60580400  0.82675200  1
  Se  Se68  1  0.48642300  0.98443100  0.62632600  1
  Se  Se69  1  0.84235200  0.22868400  0.37318400  1
  Se  Se70  1  0.01636400  0.17229600  0.37860000  1
  Se  Se71  1  0.68959300  0.98720500  0.33936400  1
  Se  Se72  1  0.98642300  0.51556900  0.37367400  1
  Se  Se73  1  0.06174100  0.84963800  0.12608600  1
  Se  Se74  1  0.75688700  0.13111000  0.29039900  1
  Se  Se75  1  0.01636400  0.82770400  0.87860000  1
  Se  Se76  1  0.74480700  0.04944400  0.12217900  1
  Se  Se77  1  0.69106200  0.96956000  0.50671300  1
  Se  Se78  1  0.65764800  0.72868400  0.37318400  1
  Se  Se79  1  0.15764800  0.77131600  0.62681600  1
  Se  Se80  1  0.11293800  0.80500900  0.39582600  1
  Se  Se81  1  0.01357700  0.51556900  0.12632600  1
  Se  Se82  1  0.27191700  0.39419600  0.32675200  1
  Se  Se83  1  0.93825900  0.84963800  0.37391400  1
  Se  Se84  1  0.30893800  0.03044000  0.49328700  1
  Se  Se85  1  0.81040700  0.51279500  0.83936400  1
  Se  Se86  1  0.06174100  0.15036200  0.62608600  1
  Se  Se87  1  0.77191700  0.89419600  0.17324800  1
  Se  Se88  1  0.22808300  0.89419600  0.32675200  1
  Se  Se89  1  0.11293800  0.19499100  0.89582600  1
  Se  Se90  1  0.98363600  0.17229600  0.12140000  1
  Se  Se91  1  0.74480700  0.95055600  0.62217900  1
  Se  Se92  1  0.75688700  0.86889000  0.79039900  1
  Se  Se93  1  0.88706200  0.80500900  0.10417400  1
  Se  Se94  1  0.61293800  0.30500900  0.10417400  1
  Se  Se95  1  0.56174100  0.34963800  0.37391400  1
  Se  Se96  1  0.65764800  0.27131600  0.87318400  1
  Se  Se97  1  0.24311300  0.86889000  0.70960100  1
  Se  Se98  1  0.84235200  0.77131600  0.87318400  1
  Se  Se99  1  0.51357700  0.01556900  0.37367400  1
  Se  Se100  1  0.48363600  0.67229600  0.37860000  1
  Se  Se101  1  0.51636400  0.67229600  0.12140000  1
  Se  Se102  1  0.15764800  0.22868400  0.12681600  1
  Se  Se103  1  0.25688700  0.63111000  0.20960100  1
  Se  Se104  1  0.30893800  0.96956000  0.99328700  1
  Se  Se105  1  0.74311300  0.63111000  0.29039900  1
  Se  Se106  1  0.74311300  0.36889000  0.79039900  1
  Se  Se107  1  0.38706200  0.30500900  0.39582600  1
