# generated using pymatgen
data_SmCuTeS
_symmetry_space_group_name_H-M   'P 1'
_cell_length_a   7.56711700
_cell_length_b   7.59395100
_cell_length_c   12.70286100
_cell_angle_alpha   90.00000000
_cell_angle_beta   90.00000000
_cell_angle_gamma   90.00000000
_symmetry_Int_Tables_number   1
_chemical_formula_structural   SmCuTeS
_chemical_formula_sum   'Sm8 Cu8 Te8 S8'
_cell_volume   729.96121491
_cell_formula_units_Z   8
loop_
 _symmetry_equiv_pos_site_id
 _symmetry_equiv_pos_as_xyz
  1  'x, y, z'
loop_
 _atom_site_type_symbol
 _atom_site_label
 _atom_site_symmetry_multiplicity
 _atom_site_fract_x
 _atom_site_fract_y
 _atom_site_fract_z
 _atom_site_occupancy
  Sm  Sm0  1  0.52239900  0.24052300  0.06837100  1
  Sm  Sm1  1  0.02239900  0.25947700  0.93162900  1
  Sm  Sm2  1  0.47760100  0.75947700  0.93162900  1
  Sm  Sm3  1  0.47760100  0.74052300  0.43162900  1
  Sm  Sm4  1  0.97760100  0.74052300  0.06837100  1
  Sm  Sm5  1  0.52239900  0.25947700  0.56837100  1
  Sm  Sm6  1  0.02239900  0.24052300  0.43162900  1
  Sm  Sm7  1  0.97760100  0.75947700  0.56837100  1
  Cu  Cu8  1  0.16945500  0.07118200  0.20922100  1
  Cu  Cu9  1  0.66945500  0.07118200  0.29077900  1
  Cu  Cu10  1  0.16945500  0.42881800  0.70922100  1
  Cu  Cu11  1  0.33054500  0.57118200  0.20922100  1
  Cu  Cu12  1  0.83054500  0.57118200  0.29077900  1
  Cu  Cu13  1  0.33054500  0.92881800  0.70922100  1
  Cu  Cu14  1  0.66945500  0.42881800  0.79077900  1
  Cu  Cu15  1  0.83054500  0.92881800  0.79077900  1
  Te  Te16  1  0.89073900  0.22202100  0.69273500  1
  Te  Te17  1  0.60926100  0.77797900  0.19273500  1
  Te  Te18  1  0.60926100  0.72202100  0.69273500  1
  Te  Te19  1  0.10926100  0.77797900  0.30726500  1
  Te  Te20  1  0.10926100  0.72202100  0.80726500  1
  Te  Te21  1  0.39073900  0.22202100  0.80726500  1
  Te  Te22  1  0.89073900  0.27797900  0.19273500  1
  Te  Te23  1  0.39073900  0.27797900  0.30726500  1
  S  S24  1  0.75989500  0.99798200  0.96175800  1
  S  S25  1  0.25989500  0.99798200  0.53824200  1
  S  S26  1  0.74010500  0.00201800  0.46175800  1
  S  S27  1  0.75989500  0.50201800  0.46175800  1
  S  S28  1  0.24010500  0.00201800  0.03824200  1
  S  S29  1  0.74010500  0.49798200  0.96175800  1
  S  S30  1  0.25989500  0.50201800  0.03824200  1
  S  S31  1  0.24010500  0.49798200  0.53824200  1
