# generated using pymatgen
data_KFeF4
_symmetry_space_group_name_H-M   'P 1'
_cell_length_a   7.72906800
_cell_length_b   7.93417100
_cell_length_c   12.45991800
_cell_angle_alpha   90.00000000
_cell_angle_beta   90.00000000
_cell_angle_gamma   90.00000000
_symmetry_Int_Tables_number   1
_chemical_formula_structural   KFeF4
_chemical_formula_sum   'K8 Fe8 F32'
_cell_volume   764.08886135
_cell_formula_units_Z   8
loop_
 _symmetry_equiv_pos_site_id
 _symmetry_equiv_pos_as_xyz
  1  'x, y, z'
loop_
 _atom_site_type_symbol
 _atom_site_label
 _atom_site_symmetry_multiplicity
 _atom_site_fract_x
 _atom_site_fract_y
 _atom_site_fract_z
 _atom_site_occupancy
  K  K0  1  0.75000000  0.37571700  0.02529200  1
  K  K1  1  0.25000000  0.37621300  0.48305600  1
  K  K2  1  0.75000000  0.87621300  0.01694400  1
  K  K3  1  0.25000000  0.62428300  0.97470800  1
  K  K4  1  0.25000000  0.87571700  0.47470800  1
  K  K5  1  0.75000000  0.12428300  0.52529200  1
  K  K6  1  0.75000000  0.62378700  0.51694400  1
  K  K7  1  0.25000000  0.12378700  0.98305600  1
  Fe  Fe8  1  0.00050500  0.62559500  0.24898600  1
  Fe  Fe9  1  0.99949500  0.12559500  0.25101400  1
  Fe  Fe10  1  0.99949500  0.37440500  0.75101400  1
  Fe  Fe11  1  0.50050500  0.37440500  0.75101400  1
  Fe  Fe12  1  0.49949500  0.87440500  0.74898600  1
  Fe  Fe13  1  0.50050500  0.12559500  0.25101400  1
  Fe  Fe14  1  0.49949500  0.62559500  0.24898600  1
  Fe  Fe15  1  0.00050500  0.87440500  0.74898600  1
  F  F16  1  0.03541000  0.87562200  0.25181300  1
  F  F17  1  0.45067900  0.61949500  0.39870700  1
  F  F18  1  0.03541000  0.62437800  0.75181300  1
  F  F19  1  0.45167500  0.36870400  0.90095300  1
  F  F20  1  0.54832500  0.86870400  0.59904700  1
  F  F21  1  0.75000000  0.40174500  0.78881700  1
  F  F22  1  0.95067900  0.38050500  0.60129300  1
  F  F23  1  0.46459000  0.62437800  0.75181300  1
  F  F24  1  0.75000000  0.84442800  0.78578900  1
  F  F25  1  0.04932100  0.61949500  0.39870700  1
  F  F26  1  0.54932100  0.11949500  0.10129300  1
  F  F27  1  0.53541000  0.37562200  0.24818700  1
  F  F28  1  0.54932100  0.38050500  0.60129300  1
  F  F29  1  0.95067900  0.11949500  0.10129300  1
  F  F30  1  0.54832500  0.63129600  0.09904700  1
  F  F31  1  0.45167500  0.13129600  0.40095300  1
  F  F32  1  0.04932100  0.88050500  0.89870700  1
  F  F33  1  0.25000000  0.90174500  0.71118300  1
  F  F34  1  0.95167500  0.63129600  0.09904700  1
  F  F35  1  0.75000000  0.65557200  0.28578900  1
  F  F36  1  0.25000000  0.34442800  0.71421100  1
  F  F37  1  0.96459000  0.37562200  0.24818700  1
  F  F38  1  0.53541000  0.12437800  0.74818700  1
  F  F39  1  0.95167500  0.86870400  0.59904700  1
  F  F40  1  0.45067900  0.88050500  0.89870700  1
  F  F41  1  0.46459000  0.87562200  0.25181300  1
  F  F42  1  0.04832500  0.13129600  0.40095300  1
  F  F43  1  0.25000000  0.15557200  0.21421100  1
  F  F44  1  0.96459000  0.12437800  0.74818700  1
  F  F45  1  0.25000000  0.59825500  0.21118300  1
  F  F46  1  0.75000000  0.09825500  0.28881700  1
  F  F47  1  0.04832500  0.36870400  0.90095300  1
