# generated using pymatgen
data_NiBiPO5
_symmetry_space_group_name_H-M   'P 1'
_cell_length_a   5.24856333
_cell_length_b   7.30449553
_cell_length_c   11.31372400
_cell_angle_alpha   89.99998217
_cell_angle_beta   89.99997393
_cell_angle_gamma   107.44490173
_symmetry_Int_Tables_number   1
_chemical_formula_structural   NiBiPO5
_chemical_formula_sum   'Ni4 Bi4 P4 O20'
_cell_volume   413.79687891
_cell_formula_units_Z   4
loop_
 _symmetry_equiv_pos_site_id
 _symmetry_equiv_pos_as_xyz
  1  'x, y, z'
loop_
 _atom_site_type_symbol
 _atom_site_label
 _atom_site_symmetry_multiplicity
 _atom_site_fract_x
 _atom_site_fract_y
 _atom_site_fract_z
 _atom_site_occupancy
  Ni  Ni0  1  0.86943900  0.31474100  0.42104800  1
  Ni  Ni1  1  0.63056100  0.18525900  0.92104800  1
  Ni  Ni2  1  0.13053200  0.68525200  0.57897600  1
  Ni  Ni3  1  0.36947100  0.81474800  0.07897600  1
  Bi  Bi4  1  0.11435100  0.18943300  0.10138500  1
  Bi  Bi5  1  0.38564800  0.31056700  0.60138500  1
  Bi  Bi6  1  0.88565200  0.81057100  0.89861300  1
  Bi  Bi7  1  0.61434800  0.68943000  0.39861300  1
  P  P8  1  0.28284500  0.47592600  0.84810800  1
  P  P9  1  0.78286000  0.97594500  0.65189000  1
  P  P10  1  0.71714100  0.52405500  0.15189000  1
  P  P11  1  0.21715400  0.02407400  0.34810800  1
  O  O12  1  0.24277000  0.48491600  0.47484000  1
  O  O13  1  0.25723000  0.01508400  0.97484000  1
  O  O14  1  0.75727000  0.51513700  0.52516000  1
  O  O15  1  0.74273000  0.98486400  0.02516000  1
  O  O16  1  0.19043300  0.51254500  0.72169200  1
  O  O17  1  0.30956600  0.98745500  0.22169200  1
  O  O18  1  0.80955300  0.48747000  0.27829100  1
  O  O19  1  0.69044700  0.01253000  0.77829200  1
  O  O20  1  0.48749100  0.61548100  0.17282000  1
  O  O21  1  0.98749600  0.11544700  0.32716500  1
  O  O22  1  0.51250300  0.38455300  0.82716500  1
  O  O23  1  0.01250800  0.88451900  0.67282000  1
  O  O24  1  0.45217800  0.16090800  0.41846300  1
  O  O25  1  0.95219700  0.66092900  0.08154000  1
  O  O26  1  0.54780200  0.83907000  0.58153900  1
  O  O27  1  0.04782200  0.33909200  0.91846300  1
  O  O28  1  0.39262600  0.66728800  0.91737700  1
  O  O29  1  0.10737500  0.83271200  0.41737700  1
  O  O30  1  0.89264400  0.16727400  0.58263200  1
  O  O31  1  0.60735600  0.33272600  0.08263200  1
