# generated using pymatgen
data_NiMoO4
_symmetry_space_group_name_H-M   'P 1'
_cell_length_a   6.59512699
_cell_length_b   6.59512699
_cell_length_c   7.77496185
_cell_angle_alpha   72.44180556
_cell_angle_beta   72.44180556
_cell_angle_gamma   84.83052380
_symmetry_Int_Tables_number   1
_chemical_formula_structural   NiMoO4
_chemical_formula_sum   'Ni4 Mo4 O16'
_cell_volume   307.40061131
_cell_formula_units_Z   4
loop_
 _symmetry_equiv_pos_site_id
 _symmetry_equiv_pos_as_xyz
  1  'x, y, z'
loop_
 _atom_site_type_symbol
 _atom_site_label
 _atom_site_symmetry_multiplicity
 _atom_site_fract_x
 _atom_site_fract_y
 _atom_site_fract_z
 _atom_site_occupancy
  Ni  Ni0  1  0.31448500  0.31448500  0.84268400  1
  Ni  Ni1  1  0.68551500  0.68551500  0.15731600  1
  Ni  Ni2  1  0.68581600  0.31418400  0.50000000  1
  Ni  Ni3  1  0.31418400  0.68581600  0.50000000  1
  Mo  Mo4  1  0.28269700  0.28269700  0.36180900  1
  Mo  Mo5  1  0.71730300  0.71730300  0.63819100  1
  Mo  Mo6  1  0.71670400  0.28329600  0.00000000  1
  Mo  Mo7  1  0.28329600  0.71670400  0.00000000  1
  O  O8  1  0.35044700  0.65256500  0.76128500  1
  O  O9  1  0.34743500  0.64955300  0.23871500  1
  O  O10  1  0.64955300  0.34743500  0.23871500  1
  O  O11  1  0.65256500  0.35044700  0.76128500  1
  O  O12  1  0.99358200  0.31770700  0.92122300  1
  O  O13  1  0.68229300  0.00641800  0.07877700  1
  O  O14  1  0.00641800  0.68229300  0.07877700  1
  O  O15  1  0.31770700  0.99358200  0.92122300  1
  O  O16  1  0.00593900  0.31686200  0.42176800  1
  O  O17  1  0.68313800  0.99406100  0.57823200  1
  O  O18  1  0.99406100  0.68313800  0.57823200  1
  O  O19  1  0.31686200  0.00593900  0.42176800  1
  O  O20  1  0.34952200  0.34952200  0.56239400  1
  O  O21  1  0.65047800  0.65047800  0.43760600  1
  O  O22  1  0.34787200  0.34787200  0.08696300  1
  O  O23  1  0.65212800  0.65212800  0.91303700  1
