# generated using pymatgen
data_CuTeBr
_symmetry_space_group_name_H-M   'P 1'
_cell_length_a   16.30860091
_cell_length_b   11.90106037
_cell_length_c   11.73384535
_cell_angle_alpha   87.26066557
_cell_angle_beta   46.79488144
_cell_angle_gamma   45.94445298
_symmetry_Int_Tables_number   1
_chemical_formula_structural   CuTeBr
_chemical_formula_sum   'Cu8 Te8 Br8'
_cell_volume   687.03197051
_cell_formula_units_Z   8
loop_
 _symmetry_equiv_pos_site_id
 _symmetry_equiv_pos_as_xyz
  1  'x, y, z'
loop_
 _atom_site_type_symbol
 _atom_site_label
 _atom_site_symmetry_multiplicity
 _atom_site_fract_x
 _atom_site_fract_y
 _atom_site_fract_z
 _atom_site_occupancy
  Cu  Cu0  1  0.00000000  0.00000000  0.00000000  1
  Cu  Cu1  1  0.50000000  0.50000000  0.50000000  1
  Cu  Cu2  1  0.86420900  0.13579100  0.86420900  1
  Cu  Cu3  1  0.11420900  0.38579100  0.11420900  1
  Cu  Cu4  1  0.75000000  0.75000000  0.75000000  1
  Cu  Cu5  1  0.13579100  0.86420900  0.13579100  1
  Cu  Cu6  1  0.25000000  0.25000000  0.25000000  1
  Cu  Cu7  1  0.38579100  0.11420900  0.38579100  1
  Te  Te8  1  0.73930900  0.65625000  0.14677100  1
  Te  Te9  1  0.45767000  0.14677100  0.65625000  1
  Te  Te10  1  0.10322900  0.79233000  0.51069100  1
  Te  Te11  1  0.14677100  0.45767000  0.73930900  1
  Te  Te12  1  0.51069100  0.59375000  0.10322900  1
  Te  Te13  1  0.79233000  0.10322900  0.59375000  1
  Te  Te14  1  0.65625000  0.73930900  0.45767000  1
  Te  Te15  1  0.59375000  0.51069100  0.79233000  1
  Br  Br16  1  0.88123300  0.24789100  0.25116300  1
  Br  Br17  1  0.61971400  0.25116300  0.24789100  1
  Br  Br18  1  0.24789100  0.88123300  0.61971400  1
  Br  Br19  1  0.63028600  0.99883700  0.00210900  1
  Br  Br20  1  0.99883700  0.63028600  0.36876700  1
  Br  Br21  1  0.25116300  0.61971400  0.88123300  1
  Br  Br22  1  0.00210900  0.36876700  0.63028600  1
  Br  Br23  1  0.36876700  0.00210900  0.99883700  1
