# generated using pymatgen
data_AsXeF11
_symmetry_space_group_name_H-M   'P 1'
_cell_length_a   16.68315800
_cell_length_b   6.15816500
_cell_length_c   8.30783910
_cell_angle_alpha   87.25882793
_cell_angle_beta   90.00000000
_cell_angle_gamma   90.00000000
_symmetry_Int_Tables_number   1
_chemical_formula_structural   AsXeF11
_chemical_formula_sum   'As4 Xe4 F44'
_cell_volume   852.55114574
_cell_formula_units_Z   4
loop_
 _symmetry_equiv_pos_site_id
 _symmetry_equiv_pos_as_xyz
  1  'x, y, z'
loop_
 _atom_site_type_symbol
 _atom_site_label
 _atom_site_symmetry_multiplicity
 _atom_site_fract_x
 _atom_site_fract_y
 _atom_site_fract_z
 _atom_site_occupancy
  As  As0  1  0.60581400  0.60375800  0.79916800  1
  As  As1  1  0.10581400  0.39624200  0.70083200  1
  As  As2  1  0.39418600  0.39624200  0.20083200  1
  As  As3  1  0.89418600  0.60375800  0.29916800  1
  Xe  Xe4  1  0.10632600  0.79672200  0.25225200  1
  Xe  Xe5  1  0.39367400  0.79672200  0.75225200  1
  Xe  Xe6  1  0.60632600  0.20327800  0.24774800  1
  Xe  Xe7  1  0.89367400  0.20327800  0.74774800  1
  F  F8  1  0.30765800  0.92747600  0.62025000  1
  F  F9  1  0.92096900  0.89457900  0.72186000  1
  F  F10  1  0.31233600  0.83800400  0.92135700  1
  F  F11  1  0.53950700  0.82832700  0.85606300  1
  F  F12  1  0.34089300  0.52563000  0.69055900  1
  F  F13  1  0.69234200  0.07252400  0.37975000  1
  F  F14  1  0.91712500  0.47631300  0.49495600  1
  F  F15  1  0.41712500  0.52368700  0.00504400  1
  F  F16  1  0.18766400  0.83800400  0.42135700  1
  F  F17  1  0.96049300  0.82832700  0.35606300  1
  F  F18  1  0.87855200  0.73796700  0.11216800  1
  F  F19  1  0.46049300  0.17167300  0.14393700  1
  F  F20  1  0.19234200  0.92747600  0.12025000  1
  F  F21  1  0.44840300  0.81811900  0.54155500  1
  F  F22  1  0.15910700  0.52563000  0.19055900  1
  F  F23  1  0.84089300  0.47437000  0.80944100  1
  F  F24  1  0.94840300  0.18188100  0.95844500  1
  F  F25  1  0.68660400  0.73392400  0.88576500  1
  F  F26  1  0.08287500  0.52368700  0.50504400  1
  F  F27  1  0.05159700  0.81811900  0.04155500  1
  F  F28  1  0.80765800  0.07252400  0.87975000  1
  F  F29  1  0.31339600  0.26607600  0.11423500  1
  F  F30  1  0.62144800  0.73796700  0.61216800  1
  F  F31  1  0.18660400  0.26607600  0.61423500  1
  F  F32  1  0.42096900  0.10542100  0.77814000  1
  F  F33  1  0.81339600  0.73392400  0.38576500  1
  F  F34  1  0.81233600  0.16199600  0.57864300  1
  F  F35  1  0.48605900  0.51210500  0.27202500  1
  F  F36  1  0.01394100  0.51210500  0.77202500  1
  F  F37  1  0.37855200  0.26203300  0.38783200  1
  F  F38  1  0.68766400  0.16199600  0.07864300  1
  F  F39  1  0.58287500  0.47631300  0.99495600  1
  F  F40  1  0.84009800  0.37568100  0.24736200  1
  F  F41  1  0.03950700  0.17167300  0.64393700  1
  F  F42  1  0.12144800  0.26203300  0.88783200  1
  F  F43  1  0.34009800  0.62431900  0.25263800  1
  F  F44  1  0.65990200  0.37568100  0.74736200  1
  F  F45  1  0.51394100  0.48789500  0.72797500  1
  F  F46  1  0.57903100  0.89457900  0.22186000  1
  F  F47  1  0.65910700  0.47437000  0.30944100  1
  F  F48  1  0.15990200  0.62431900  0.75263800  1
  F  F49  1  0.98606000  0.48789500  0.22797500  1
  F  F50  1  0.55159700  0.18188100  0.45844500  1
  F  F51  1  0.07903100  0.10542100  0.27814000  1
