# generated using pymatgen
data_NaCaBeSi2O6F
_symmetry_space_group_name_H-M   'P 1'
_cell_length_a   7.45721300
_cell_length_b   7.47368900
_cell_length_c   10.09308700
_cell_angle_alpha   90.00000000
_cell_angle_beta   90.00000000
_cell_angle_gamma   90.00000000
_symmetry_Int_Tables_number   1
_chemical_formula_structural   NaCaBeSi2O6F
_chemical_formula_sum   'Na4 Ca4 Be4 Si8 O24 F4'
_cell_volume   562.51691529
_cell_formula_units_Z   4
loop_
 _symmetry_equiv_pos_site_id
 _symmetry_equiv_pos_as_xyz
  1  'x, y, z'
loop_
 _atom_site_type_symbol
 _atom_site_label
 _atom_site_symmetry_multiplicity
 _atom_site_fract_x
 _atom_site_fract_y
 _atom_site_fract_z
 _atom_site_occupancy
  Na  Na0  1  0.10387200  0.18282600  0.25556300  1
  Na  Na1  1  0.39612800  0.81717400  0.75556300  1
  Na  Na2  1  0.60387200  0.31717400  0.74443700  1
  Na  Na3  1  0.89612800  0.68282600  0.24443700  1
  Ca  Ca4  1  0.07680800  0.14509100  0.73938300  1
  Ca  Ca5  1  0.42319200  0.85490900  0.23938300  1
  Ca  Ca6  1  0.57680800  0.35490900  0.26061700  1
  Ca  Ca7  1  0.92319200  0.64509100  0.76061700  1
  Be  Be8  1  0.11904100  0.85940100  0.96743800  1
  Be  Be9  1  0.88095900  0.35940100  0.53256200  1
  Be  Be10  1  0.61904100  0.64059900  0.03256200  1
  Be  Be11  1  0.38095900  0.14059900  0.46743800  1
  Si  Si12  1  0.40004800  0.14192400  0.97678400  1
  Si  Si13  1  0.76319900  0.99072800  0.99899300  1
  Si  Si14  1  0.09995200  0.85807600  0.47678400  1
  Si  Si15  1  0.73680100  0.00927200  0.49899300  1
  Si  Si16  1  0.59995200  0.64192400  0.52321600  1
  Si  Si17  1  0.90004800  0.35807600  0.02321600  1
  Si  Si18  1  0.23680100  0.49072800  0.50100700  1
  Si  Si19  1  0.26319900  0.50927200  0.00100700  1
  O  O20  1  0.35206700  0.34276700  0.91093300  1
  O  O21  1  0.92038200  0.91189700  0.90301700  1
  O  O22  1  0.59898800  0.08612700  0.91051700  1
  O  O23  1  0.42038200  0.58810300  0.09698300  1
  O  O24  1  0.85206700  0.15723300  0.08906700  1
  O  O25  1  0.82395700  0.16264300  0.59344400  1
  O  O26  1  0.90101200  0.91387300  0.41051700  1
  O  O27  1  0.67604300  0.83735700  0.09344400  1
  O  O28  1  0.40101200  0.58612700  0.58948300  1
  O  O29  1  0.64793300  0.84276700  0.58906700  1
  O  O30  1  0.17604300  0.66264300  0.90655600  1
  O  O31  1  0.75416700  0.49183200  0.08942700  1
  O  O32  1  0.14793300  0.65723300  0.41093300  1
  O  O33  1  0.74583300  0.50816800  0.58942700  1
  O  O34  1  0.40974000  0.14469700  0.13585100  1
  O  O35  1  0.59026000  0.64469700  0.36414900  1
  O  O36  1  0.25416700  0.00816800  0.91057300  1
  O  O37  1  0.90974000  0.35530300  0.86414900  1
  O  O38  1  0.32395700  0.33735700  0.40655600  1
  O  O39  1  0.24583300  0.99183200  0.41057300  1
  O  O40  1  0.57961800  0.08810300  0.40301700  1
  O  O41  1  0.09898800  0.41387300  0.08948300  1
  O  O42  1  0.09026000  0.85530300  0.63585100  1
  O  O43  1  0.07961800  0.41189700  0.59698300  1
  F  F44  1  0.87875400  0.35260700  0.37426100  1
  F  F45  1  0.37875400  0.14739300  0.62573900  1
  F  F46  1  0.62124600  0.64739300  0.87426100  1
  F  F47  1  0.12124600  0.85260700  0.12573900  1
