# generated using pymatgen
data_KSn
_symmetry_space_group_name_H-M   'P 1'
_cell_length_a   12.47525030
_cell_length_b   12.47525030
_cell_length_c   12.47525030
_cell_angle_alpha   124.98839655
_cell_angle_beta   124.98839655
_cell_angle_gamma   81.55725287
_symmetry_Int_Tables_number   1
_chemical_formula_structural   KSn
_chemical_formula_sum   'K16 Sn16'
_cell_volume   1254.35585718
_cell_formula_units_Z   16
loop_
 _symmetry_equiv_pos_site_id
 _symmetry_equiv_pos_as_xyz
  1  'x, y, z'
loop_
 _atom_site_type_symbol
 _atom_site_label
 _atom_site_symmetry_multiplicity
 _atom_site_fract_x
 _atom_site_fract_y
 _atom_site_fract_z
 _atom_site_occupancy
  K  K0  1  0.48745600  0.37500000  0.61245600  1
  K  K1  1  0.62820300  0.87179700  0.00000000  1
  K  K2  1  0.12820300  0.12820300  0.75640600  1
  K  K3  1  0.26254400  0.87500000  0.88754400  1
  K  K4  1  0.37179700  0.37179700  0.24359400  1
  K  K5  1  0.87179700  0.62820300  0.00000000  1
  K  K6  1  0.62500000  0.73745600  0.61245600  1
  K  K7  1  0.76254400  0.87500000  0.38754400  1
  K  K8  1  0.87820300  0.62179700  0.50000000  1
  K  K9  1  0.98745600  0.37500000  0.11245600  1
  K  K10  1  0.12500000  0.01254400  0.38754400  1
  K  K11  1  0.12179700  0.37820300  0.50000000  1
  K  K12  1  0.12500000  0.51254400  0.88754400  1
  K  K13  1  0.37820300  0.87820300  0.25640600  1
  K  K14  1  0.62179700  0.12179700  0.74359400  1
  K  K15  1  0.62500000  0.23745600  0.11245600  1
  Sn  Sn16  1  0.87133800  0.19319500  0.45196400  1
  Sn  Sn17  1  0.50876900  0.55680500  0.17814300  1
  Sn  Sn18  1  0.08062600  0.75876900  0.45196400  1
  Sn  Sn19  1  0.24123100  0.69319500  0.32185700  1
  Sn  Sn20  1  0.80680500  0.25876900  0.67814300  1
  Sn  Sn21  1  0.66937400  0.49123100  0.04803600  1
  Sn  Sn22  1  0.44319500  0.62133800  0.95196400  1
  Sn  Sn23  1  0.58062600  0.12866200  0.32185700  1
  Sn  Sn24  1  0.16937400  0.12133800  0.17814300  1
  Sn  Sn25  1  0.87866200  0.05680500  0.04803600  1
  Sn  Sn26  1  0.37866200  0.33062600  0.82185700  1
  Sn  Sn27  1  0.30680500  0.62866200  0.54803600  1
  Sn  Sn28  1  0.37133800  0.91937400  0.67814300  1
  Sn  Sn29  1  0.74123100  0.41937400  0.54803600  1
  Sn  Sn30  1  0.94319500  0.99123100  0.82185700  1
  Sn  Sn31  1  0.00876900  0.83062600  0.95196400  1
