# generated using pymatgen
data_KNaPrNbO5
_symmetry_space_group_name_H-M   'P 1'
_cell_length_a   5.81684600
_cell_length_b   5.81684600
_cell_length_c   8.39176200
_cell_angle_alpha   90.00000000
_cell_angle_beta   90.00000000
_cell_angle_gamma   90.00000000
_symmetry_Int_Tables_number   1
_chemical_formula_structural   KNaPrNbO5
_chemical_formula_sum   'K2 Na2 Pr2 Nb2 O10'
_cell_volume   283.94111958
_cell_formula_units_Z   2
loop_
 _symmetry_equiv_pos_site_id
 _symmetry_equiv_pos_as_xyz
  1  'x, y, z'
loop_
 _atom_site_type_symbol
 _atom_site_label
 _atom_site_symmetry_multiplicity
 _atom_site_fract_x
 _atom_site_fract_y
 _atom_site_fract_z
 _atom_site_occupancy
  K  K0  1  0.00000000  0.00000000  0.00000000  1
  K  K1  1  0.50000000  0.50000000  0.00000000  1
  Na  Na2  1  0.50000000  0.00000000  0.75890500  1
  Na  Na3  1  0.00000000  0.50000000  0.24109500  1
  Pr  Pr4  1  0.50000000  0.50000000  0.50000000  1
  Pr  Pr5  1  0.00000000  0.00000000  0.50000000  1
  Nb  Nb6  1  0.00000000  0.50000000  0.74370200  1
  Nb  Nb7  1  0.50000000  0.00000000  0.25629800  1
  O  O8  1  0.73014300  0.23014300  0.32826500  1
  O  O9  1  0.76985700  0.73014300  0.67173500  1
  O  O10  1  0.73014300  0.76985700  0.32826500  1
  O  O11  1  0.76985700  0.26985700  0.67173500  1
  O  O12  1  0.26985700  0.23014300  0.32826500  1
  O  O13  1  0.50000000  0.00000000  0.03359800  1
  O  O14  1  0.00000000  0.50000000  0.96640200  1
  O  O15  1  0.26985700  0.76985700  0.32826500  1
  O  O16  1  0.23014300  0.26985700  0.67173500  1
  O  O17  1  0.23014300  0.73014300  0.67173500  1
