# generated using pymatgen
data_Cs2Te10Mo9
_symmetry_space_group_name_H-M   'P 1'
_cell_length_a   14.54534751
_cell_length_b   14.54534751
_cell_length_c   14.54534728
_cell_angle_alpha   42.11405225
_cell_angle_beta   42.11405225
_cell_angle_gamma   42.11405122
_symmetry_Int_Tables_number   1
_chemical_formula_structural   Cs2Te10Mo9
_chemical_formula_sum   'Cs4 Te20 Mo18'
_cell_volume   1252.13797513
_cell_formula_units_Z   2
loop_
 _symmetry_equiv_pos_site_id
 _symmetry_equiv_pos_as_xyz
  1  'x, y, z'
loop_
 _atom_site_type_symbol
 _atom_site_label
 _atom_site_symmetry_multiplicity
 _atom_site_fract_x
 _atom_site_fract_y
 _atom_site_fract_z
 _atom_site_occupancy
  Cs  Cs0  1  0.30109900  0.30109900  0.30109900  1
  Cs  Cs1  1  0.69890100  0.69890100  0.69890100  1
  Cs  Cs2  1  0.42417500  0.42417500  0.42417500  1
  Cs  Cs3  1  0.57582500  0.57582500  0.57582500  1
  Te  Te4  1  0.20296900  0.20296900  0.20296900  1
  Te  Te5  1  0.17834800  0.81451100  0.43726700  1
  Te  Te6  1  0.05479900  0.41333000  0.79699900  1
  Te  Te7  1  0.93178500  0.30230000  0.67990100  1
  Te  Te8  1  0.41333000  0.79699900  0.05479900  1
  Te  Te9  1  0.82165200  0.18548900  0.56273300  1
  Te  Te10  1  0.06821500  0.69770000  0.32009900  1
  Te  Te11  1  0.43726700  0.17834800  0.81451100  1
  Te  Te12  1  0.81451100  0.43726700  0.17834800  1
  Te  Te13  1  0.30230000  0.67990100  0.93178500  1
  Te  Te14  1  0.94520100  0.58667000  0.20300100  1
  Te  Te15  1  0.32009900  0.06821500  0.69770000  1
  Te  Te16  1  0.58667000  0.20300100  0.94520100  1
  Te  Te17  1  0.67990100  0.93178500  0.30230000  1
  Te  Te18  1  0.79699900  0.05479900  0.41333000  1
  Te  Te19  1  0.79703100  0.79703100  0.79703100  1
  Te  Te20  1  0.56273300  0.82165200  0.18548900  1
  Te  Te21  1  0.20300100  0.94520100  0.58667000  1
  Te  Te22  1  0.18548900  0.56273300  0.82165200  1
  Te  Te23  1  0.69770000  0.32009900  0.06821500  1
  Mo  Mo24  1  0.77129500  0.89776600  0.06843500  1
  Mo  Mo25  1  0.12803300  0.30066400  0.00905500  1
  Mo  Mo26  1  0.18482400  0.89218900  0.01197700  1
  Mo  Mo27  1  0.10223400  0.93156500  0.22870500  1
  Mo  Mo28  1  0.81517600  0.10781100  0.98802300  1
  Mo  Mo29  1  0.00905500  0.12803300  0.30066400  1
  Mo  Mo30  1  0.89218900  0.01197700  0.18482400  1
  Mo  Mo31  1  0.69933600  0.99094500  0.87196700  1
  Mo  Mo32  1  0.89776600  0.06843500  0.77129500  1
  Mo  Mo33  1  0.99094500  0.87196700  0.69933600  1
  Mo  Mo34  1  0.98802300  0.81517600  0.10781100  1
  Mo  Mo35  1  0.01197700  0.18482400  0.89218900  1
  Mo  Mo36  1  0.10781100  0.98802300  0.81517600  1
  Mo  Mo37  1  0.22870500  0.10223400  0.93156500  1
  Mo  Mo38  1  0.87196700  0.69933600  0.99094500  1
  Mo  Mo39  1  0.93156500  0.22870500  0.10223400  1
  Mo  Mo40  1  0.30066400  0.00905500  0.12803300  1
  Mo  Mo41  1  0.06843500  0.77129500  0.89776600  1
