# generated using pymatgen
data_KP(OF)2
_symmetry_space_group_name_H-M   'P 1'
_cell_length_a   6.28804300
_cell_length_b   7.76933500
_cell_length_c   8.15913200
_cell_angle_alpha   90.00000000
_cell_angle_beta   90.00000000
_cell_angle_gamma   90.00000000
_symmetry_Int_Tables_number   1
_chemical_formula_structural   KP(OF)2
_chemical_formula_sum   'K4 P4 O8 F8'
_cell_volume   398.60552130
_cell_formula_units_Z   4
loop_
 _symmetry_equiv_pos_site_id
 _symmetry_equiv_pos_as_xyz
  1  'x, y, z'
loop_
 _atom_site_type_symbol
 _atom_site_label
 _atom_site_symmetry_multiplicity
 _atom_site_fract_x
 _atom_site_fract_y
 _atom_site_fract_z
 _atom_site_occupancy
  K  K0  1  0.25000000  0.14494100  0.14859500  1
  K  K1  1  0.75000000  0.64494100  0.35140500  1
  K  K2  1  0.25000000  0.35505900  0.64859500  1
  K  K3  1  0.75000000  0.85505900  0.85140500  1
  P  P4  1  0.25000000  0.80841100  0.59183500  1
  P  P5  1  0.75000000  0.19158900  0.40816500  1
  P  P6  1  0.75000000  0.30841000  0.90816500  1
  P  P7  1  0.25000000  0.69158900  0.09183500  1
  O  O8  1  0.04208700  0.71709200  0.59768300  1
  O  O9  1  0.95791300  0.28290800  0.40231700  1
  O  O10  1  0.54208700  0.28290800  0.40231700  1
  O  O11  1  0.45791300  0.71709200  0.59768300  1
  O  O12  1  0.45791300  0.78290800  0.09768300  1
  O  O13  1  0.95791300  0.21709200  0.90231700  1
  O  O14  1  0.04208700  0.78290800  0.09768300  1
  O  O15  1  0.54208700  0.21709200  0.90231700  1
  F  F16  1  0.75000000  0.43638600  0.06167000  1
  F  F17  1  0.75000000  0.04552900  0.27008200  1
  F  F18  1  0.75000000  0.45447100  0.77008200  1
  F  F19  1  0.75000000  0.06361400  0.56167000  1
  F  F20  1  0.25000000  0.95447100  0.72991800  1
  F  F21  1  0.25000000  0.54552900  0.22991800  1
  F  F22  1  0.25000000  0.93638600  0.43833000  1
  F  F23  1  0.25000000  0.56361400  0.93833000  1
