# generated using pymatgen
data_P2Pb3O8
_symmetry_space_group_name_H-M   'P 1'
_cell_length_a   7.14278965
_cell_length_b   7.14278965
_cell_length_c   9.02647447
_cell_angle_alpha   71.96732631
_cell_angle_beta   71.96732631
_cell_angle_gamma   77.00946892
_symmetry_Int_Tables_number   1
_chemical_formula_structural   P2Pb3O8
_chemical_formula_sum   'P4 Pb6 O16'
_cell_volume   412.13768363
_cell_formula_units_Z   2
loop_
 _symmetry_equiv_pos_site_id
 _symmetry_equiv_pos_as_xyz
  1  'x, y, z'
loop_
 _atom_site_type_symbol
 _atom_site_label
 _atom_site_symmetry_multiplicity
 _atom_site_fract_x
 _atom_site_fract_y
 _atom_site_fract_z
 _atom_site_occupancy
  P  P0  1  0.08525000  0.49088800  0.19853800  1
  P  P1  1  0.50911200  0.91475000  0.30146200  1
  P  P2  1  0.91475000  0.50911200  0.80146200  1
  P  P3  1  0.49088800  0.08525000  0.69853800  1
  Pb  Pb4  1  0.58657700  0.41342300  0.25000000  1
  Pb  Pb5  1  0.41342300  0.58657700  0.75000000  1
  Pb  Pb6  1  0.10352100  0.19548100  0.56023200  1
  Pb  Pb7  1  0.80451900  0.89647900  0.93976800  1
  Pb  Pb8  1  0.89647900  0.80451900  0.43976800  1
  Pb  Pb9  1  0.19548100  0.10352100  0.06023200  1
  O  O10  1  0.25879800  0.42509700  0.06066500  1
  O  O11  1  0.57490300  0.74120200  0.43933500  1
  O  O12  1  0.74120200  0.57490300  0.93933500  1
  O  O13  1  0.42509700  0.25879800  0.56066500  1
  O  O14  1  0.51500700  0.82899200  0.15906700  1
  O  O15  1  0.17100800  0.48499300  0.34093300  1
  O  O16  1  0.48499300  0.17100800  0.84093300  1
  O  O17  1  0.82899200  0.51500700  0.65906700  1
  O  O18  1  0.98368500  0.70619200  0.14268300  1
  O  O19  1  0.29380800  0.01631500  0.35731700  1
  O  O20  1  0.01631500  0.29380800  0.85731700  1
  O  O21  1  0.70619200  0.98368500  0.64268300  1
  O  O22  1  0.66387300  0.06398500  0.23768800  1
  O  O23  1  0.93601500  0.33612700  0.26231200  1
  O  O24  1  0.33612700  0.93601500  0.76231200  1
  O  O25  1  0.06398500  0.66387300  0.73768800  1
