# generated using pymatgen
data_K4NpS2ClO10
_symmetry_space_group_name_H-M   'P 1'
_cell_length_a   4.58222900
_cell_length_b   10.23804100
_cell_length_c   15.72921968
_cell_angle_alpha   64.04634709
_cell_angle_beta   90.00000000
_cell_angle_gamma   90.00000000
_symmetry_Int_Tables_number   1
_chemical_formula_structural   K4NpS2ClO10
_chemical_formula_sum   'K8 Np2 S4 Cl2 O20'
_cell_volume   663.48664567
_cell_formula_units_Z   2
loop_
 _symmetry_equiv_pos_site_id
 _symmetry_equiv_pos_as_xyz
  1  'x, y, z'
loop_
 _atom_site_type_symbol
 _atom_site_label
 _atom_site_symmetry_multiplicity
 _atom_site_fract_x
 _atom_site_fract_y
 _atom_site_fract_z
 _atom_site_occupancy
  K  K0  1  0.23578600  0.83241000  0.60653500  1
  K  K1  1  0.77181600  0.56517700  0.86992400  1
  K  K2  1  0.76421400  0.83241000  0.10653500  1
  K  K3  1  0.76421400  0.16759000  0.39346500  1
  K  K4  1  0.22818400  0.43482300  0.13007600  1
  K  K5  1  0.77181600  0.43482300  0.63007600  1
  K  K6  1  0.23578600  0.16759000  0.89346500  1
  K  K7  1  0.22818400  0.56517700  0.36992400  1
  Np  Np8  1  0.73820100  0.00000000  0.75000000  1
  Np  Np9  1  0.26179900  0.00000000  0.25000000  1
  S  S10  1  0.34335000  0.20422400  0.56888900  1
  S  S11  1  0.65665000  0.79577600  0.43111100  1
  S  S12  1  0.65665000  0.20422400  0.06888900  1
  S  S13  1  0.34335000  0.79577600  0.93111100  1
  Cl  Cl14  1  0.26696600  0.50000000  0.75000000  1
  Cl  Cl15  1  0.73303400  0.50000000  0.25000000  1
  O  O16  1  0.25488000  0.82715500  0.01050000  1
  O  O17  1  0.33069400  0.18942900  0.08128500  1
  O  O18  1  0.26117300  0.84918600  0.21508800  1
  O  O19  1  0.33069400  0.81057100  0.41871500  1
  O  O20  1  0.77130000  0.08615700  0.16193900  1
  O  O21  1  0.74512000  0.82715500  0.51050000  1
  O  O22  1  0.66930600  0.18942900  0.58128500  1
  O  O23  1  0.74512000  0.17284500  0.98950000  1
  O  O24  1  0.22870000  0.91384300  0.83806100  1
  O  O25  1  0.74935300  0.34958200  0.05589900  1
  O  O26  1  0.25064700  0.65041800  0.94410100  1
  O  O27  1  0.74935300  0.65041800  0.44410100  1
  O  O28  1  0.77130000  0.91384300  0.33806100  1
  O  O29  1  0.22870000  0.08615700  0.66193900  1
  O  O30  1  0.25488000  0.17284500  0.48950000  1
  O  O31  1  0.73882700  0.84918600  0.71508800  1
  O  O32  1  0.25064700  0.34958200  0.55589900  1
  O  O33  1  0.73882700  0.15081400  0.78491200  1
  O  O34  1  0.26117300  0.15081400  0.28491200  1
  O  O35  1  0.66930600  0.81057100  0.91871500  1
