# generated using pymatgen
data_BaMo2(PO6)2
_symmetry_space_group_name_H-M   'P 1'
_cell_length_a   7.33288300
_cell_length_b   6.47283600
_cell_length_c   10.17176861
_cell_angle_alpha   84.90740386
_cell_angle_beta   90.00000000
_cell_angle_gamma   90.00000000
_symmetry_Int_Tables_number   1
_chemical_formula_structural   BaMo2(PO6)2
_chemical_formula_sum   'Ba2 Mo4 P4 O24'
_cell_volume   480.89258475
_cell_formula_units_Z   2
loop_
 _symmetry_equiv_pos_site_id
 _symmetry_equiv_pos_as_xyz
  1  'x, y, z'
loop_
 _atom_site_type_symbol
 _atom_site_label
 _atom_site_symmetry_multiplicity
 _atom_site_fract_x
 _atom_site_fract_y
 _atom_site_fract_z
 _atom_site_occupancy
  Ba  Ba0  1  0.00000000  0.00000000  0.00000000  1
  Ba  Ba1  1  0.50000000  0.00000000  0.50000000  1
  Mo  Mo2  1  0.96612500  0.72748900  0.67415200  1
  Mo  Mo3  1  0.46612500  0.27251100  0.82584800  1
  Mo  Mo4  1  0.03387500  0.27251100  0.32584800  1
  Mo  Mo5  1  0.53387500  0.72748900  0.17415200  1
  P  P6  1  0.55670500  0.76501600  0.84371100  1
  P  P7  1  0.94329500  0.76501600  0.34371100  1
  P  P8  1  0.05670500  0.23498400  0.65628900  1
  P  P9  1  0.44329500  0.23498400  0.15628900  1
  O  O10  1  0.33614200  0.21980000  0.02727700  1
  O  O11  1  0.17825700  0.24698700  0.77971500  1
  O  O12  1  0.43110500  0.56884700  0.85587900  1
  O  O13  1  0.83614200  0.78020000  0.47272300  1
  O  O14  1  0.93110500  0.43115300  0.64412100  1
  O  O15  1  0.18014900  0.76713200  0.60282000  1
  O  O16  1  0.56889500  0.43115300  0.14412100  1
  O  O17  1  0.31985100  0.76713200  0.10282000  1
  O  O18  1  0.66385800  0.78020000  0.97272300  1
  O  O19  1  0.51881600  0.31538000  0.65918600  1
  O  O20  1  0.68014900  0.23286800  0.89718000  1
  O  O21  1  0.81985100  0.23286800  0.39718000  1
  O  O22  1  0.48118400  0.68462000  0.34081400  1
  O  O23  1  0.42758000  0.95581100  0.81558100  1
  O  O24  1  0.92758000  0.04418900  0.68441900  1
  O  O25  1  0.06889500  0.56884700  0.35587900  1
  O  O26  1  0.82174300  0.75301300  0.22028500  1
  O  O27  1  0.57242000  0.04418900  0.18441900  1
  O  O28  1  0.98118400  0.31538000  0.15918600  1
  O  O29  1  0.07242000  0.95581100  0.31558100  1
  O  O30  1  0.01881600  0.68462000  0.84081400  1
  O  O31  1  0.32174300  0.24698700  0.27971500  1
  O  O32  1  0.16385800  0.21980000  0.52727700  1
  O  O33  1  0.67825700  0.75301300  0.72028500  1
