# generated using pymatgen
data_GdNi(BO2)5
_symmetry_space_group_name_H-M   'P 1'
_cell_length_a   7.62522000
_cell_length_b   8.64316200
_cell_length_c   12.44171667
_cell_angle_alpha   49.67719100
_cell_angle_beta   90.00000000
_cell_angle_gamma   90.00000000
_symmetry_Int_Tables_number   1
_chemical_formula_structural   GdNi(BO2)5
_chemical_formula_sum   'Gd4 Ni4 B20 O40'
_cell_volume   625.16458971
_cell_formula_units_Z   4
loop_
 _symmetry_equiv_pos_site_id
 _symmetry_equiv_pos_as_xyz
  1  'x, y, z'
loop_
 _atom_site_type_symbol
 _atom_site_label
 _atom_site_symmetry_multiplicity
 _atom_site_fract_x
 _atom_site_fract_y
 _atom_site_fract_z
 _atom_site_occupancy
  Gd  Gd0  1  0.18076600  0.94491500  0.23829300  1
  Gd  Gd1  1  0.68076600  0.05508500  0.26170700  1
  Gd  Gd2  1  0.81923400  0.05508500  0.76170700  1
  Gd  Gd3  1  0.31923400  0.94491500  0.73829300  1
  Ni  Ni4  1  0.41026600  0.47302200  0.12830500  1
  Ni  Ni5  1  0.91026600  0.52697800  0.37169500  1
  Ni  Ni6  1  0.58973400  0.52697800  0.87169500  1
  Ni  Ni7  1  0.08973400  0.47302200  0.62830500  1
  B  B8  1  0.57507300  0.65845100  0.25527100  1
  B  B9  1  0.07507300  0.34154900  0.24472900  1
  B  B10  1  0.42492700  0.34154900  0.74472900  1
  B  B11  1  0.92492700  0.65845100  0.75527100  1
  B  B12  1  0.32484800  0.08750700  0.39531700  1
  B  B13  1  0.82484800  0.91249300  0.10468300  1
  B  B14  1  0.67515200  0.91249300  0.60468300  1
  B  B15  1  0.17515200  0.08750700  0.89531700  1
  B  B16  1  0.53303300  0.27917000  0.44321000  1
  B  B17  1  0.03303300  0.72083000  0.05679000  1
  B  B18  1  0.46696700  0.72083000  0.55679000  1
  B  B19  1  0.96696700  0.27917000  0.94321000  1
  B  B20  1  0.60193300  0.84527400  0.99413600  1
  B  B21  1  0.10193300  0.15472600  0.50586400  1
  B  B22  1  0.39806700  0.15472600  0.00586400  1
  B  B23  1  0.89806700  0.84527400  0.49413600  1
  B  B24  1  0.31195400  0.52224700  0.41092200  1
  B  B25  1  0.81195400  0.47775300  0.08907800  1
  B  B26  1  0.68804600  0.47775300  0.58907800  1
  B  B27  1  0.18804600  0.52224700  0.91092200  1
  O  O28  1  0.70510800  0.80776100  0.22761400  1
  O  O29  1  0.20510800  0.19223900  0.27238600  1
  O  O30  1  0.29489200  0.19223900  0.77238600  1
  O  O31  1  0.79489200  0.80776100  0.72761400  1
  O  O32  1  0.53434100  0.68767300  0.12438200  1
  O  O33  1  0.03434100  0.31232700  0.37561800  1
  O  O34  1  0.46565900  0.31232700  0.87561800  1
  O  O35  1  0.96565900  0.68767300  0.62438200  1
  O  O36  1  0.40770900  0.68489900  0.30042900  1
  O  O37  1  0.90770900  0.31510100  0.19957100  1
  O  O38  1  0.59229100  0.31510100  0.69957100  1
  O  O39  1  0.09229100  0.68489900  0.80042900  1
  O  O40  1  0.65123400  0.45533000  0.36205100  1
  O  O41  1  0.15123400  0.54467000  0.13794900  1
  O  O42  1  0.34876600  0.54467000  0.63794900  1
  O  O43  1  0.84876600  0.45533000  0.86205100  1
  O  O44  1  0.47083900  0.23590900  0.34991400  1
  O  O45  1  0.97083900  0.76409100  0.15008600  1
  O  O46  1  0.52916100  0.76409100  0.65008600  1
  O  O47  1  0.02916100  0.23590900  0.84991400  1
  O  O48  1  0.39285100  0.90569200  0.42057700  1
  O  O49  1  0.89285100  0.09430800  0.07942300  1
  O  O50  1  0.60714900  0.09430800  0.57942300  1
  O  O51  1  0.10714900  0.90569200  0.92057700  1
  O  O52  1  0.22929900  0.02734100  0.51907600  1
  O  O53  1  0.72929900  0.97265900  0.98092400  1
  O  O54  1  0.77070100  0.97265900  0.48092400  1
  O  O55  1  0.27070100  0.02734100  0.01907600  1
  O  O56  1  0.37575500  0.32884600  0.48988300  1
  O  O57  1  0.87575500  0.67115400  0.01011700  1
  O  O58  1  0.62424500  0.67115400  0.51011700  1
  O  O59  1  0.12424500  0.32884600  0.98988300  1
  O  O60  1  0.65114200  0.42250600  0.07084900  1
  O  O61  1  0.15114200  0.57749400  0.42915100  1
  O  O62  1  0.34885800  0.57749400  0.92915100  1
  O  O63  1  0.84885800  0.42250600  0.57084900  1
  O  O64  1  0.44517800  0.11621800  0.12572000  1
  O  O65  1  0.94517800  0.88378200  0.37428000  1
  O  O66  1  0.55482200  0.88378200  0.87428000  1
  O  O67  1  0.05482200  0.11621800  0.62572000  1
