# generated using pymatgen
data_Li2CrF6
_symmetry_space_group_name_H-M   'P 1'
_cell_length_a   4.67729900
_cell_length_b   4.67729900
_cell_length_c   9.04122600
_cell_angle_alpha   90.00000000
_cell_angle_beta   90.00000000
_cell_angle_gamma   90.00000000
_symmetry_Int_Tables_number   1
_chemical_formula_structural   Li2CrF6
_chemical_formula_sum   'Li4 Cr2 F12'
_cell_volume   197.79603981
_cell_formula_units_Z   2
loop_
 _symmetry_equiv_pos_site_id
 _symmetry_equiv_pos_as_xyz
  1  'x, y, z'
loop_
 _atom_site_type_symbol
 _atom_site_label
 _atom_site_symmetry_multiplicity
 _atom_site_fract_x
 _atom_site_fract_y
 _atom_site_fract_z
 _atom_site_occupancy
  Li  Li0  1  0.50000000  0.50000000  0.33485900  1
  Li  Li1  1  0.00000000  0.00000000  0.16514100  1
  Li  Li2  1  0.50000000  0.50000000  0.66514100  1
  Li  Li3  1  0.00000000  0.00000000  0.83485900  1
  Cr  Cr4  1  0.00000000  0.00000000  0.50000000  1
  Cr  Cr5  1  0.50000000  0.50000000  0.00000000  1
  F  F6  1  0.19203600  0.19203600  0.34804600  1
  F  F7  1  0.69203600  0.30796400  0.84804600  1
  F  F8  1  0.80796400  0.80796400  0.65195400  1
  F  F9  1  0.71999900  0.28000100  0.50000000  1
  F  F10  1  0.69203600  0.30796400  0.15195400  1
  F  F11  1  0.19203600  0.19203600  0.65195400  1
  F  F12  1  0.80796400  0.80796400  0.34804600  1
  F  F13  1  0.30796400  0.69203600  0.15195400  1
  F  F14  1  0.28000100  0.71999900  0.50000000  1
  F  F15  1  0.78000100  0.78000100  0.00000000  1
  F  F16  1  0.30796400  0.69203600  0.84804600  1
  F  F17  1  0.21999900  0.21999900  0.00000000  1
