# generated using pymatgen
data_CaCdSn
_symmetry_space_group_name_H-M   'P 1'
_cell_length_a   7.72716595
_cell_length_b   7.72716595
_cell_length_c   4.72513300
_cell_angle_alpha   90.00000000
_cell_angle_beta   90.00000000
_cell_angle_gamma   119.99999959
_symmetry_Int_Tables_number   1
_chemical_formula_structural   CaCdSn
_chemical_formula_sum   'Ca3 Cd3 Sn3'
_cell_volume   244.33470030
_cell_formula_units_Z   3
loop_
 _symmetry_equiv_pos_site_id
 _symmetry_equiv_pos_as_xyz
  1  'x, y, z'
loop_
 _atom_site_type_symbol
 _atom_site_label
 _atom_site_symmetry_multiplicity
 _atom_site_fract_x
 _atom_site_fract_y
 _atom_site_fract_z
 _atom_site_occupancy
  Ca  Ca0  1  0.00000000  0.57757100  0.50000000  1
  Ca  Ca1  1  0.57757100  0.00000000  0.50000000  1
  Ca  Ca2  1  0.42242900  0.42242900  0.50000000  1
  Cd  Cd3  1  0.25309000  0.00000000  0.00000000  1
  Cd  Cd4  1  0.74691000  0.74691000  0.00000000  1
  Cd  Cd5  1  0.00000000  0.25309000  0.00000000  1
  Sn  Sn6  1  0.00000000  0.00000000  0.50000000  1
  Sn  Sn7  1  0.66666700  0.33333300  0.00000000  1
  Sn  Sn8  1  0.33333300  0.66666700  0.00000000  1
