# generated using pymatgen
data_Ho2Ti3Si4
_symmetry_space_group_name_H-M   'P 1'
_cell_length_a   7.04027000
_cell_length_b   7.04027000
_cell_length_c   12.94355000
_cell_angle_alpha   90.00000000
_cell_angle_beta   90.00000000
_cell_angle_gamma   90.00000000
_symmetry_Int_Tables_number   1
_chemical_formula_structural   Ho2Ti3Si4
_chemical_formula_sum   'Ho8 Ti12 Si16'
_cell_volume   641.55225482
_cell_formula_units_Z   4
loop_
 _symmetry_equiv_pos_site_id
 _symmetry_equiv_pos_as_xyz
  1  'x, y, z'
loop_
 _atom_site_type_symbol
 _atom_site_label
 _atom_site_symmetry_multiplicity
 _atom_site_fract_x
 _atom_site_fract_y
 _atom_site_fract_z
 _atom_site_occupancy
  Ho  Ho0  1  0.34114200  0.00266800  0.46643300  1
  Ho  Ho1  1  0.49733200  0.84114200  0.71643300  1
  Ho  Ho2  1  0.50266800  0.15885800  0.21643300  1
  Ho  Ho3  1  0.84114200  0.49733200  0.28356700  1
  Ho  Ho4  1  0.15885800  0.50266800  0.78356700  1
  Ho  Ho5  1  0.65885800  0.99733200  0.96643300  1
  Ho  Ho6  1  0.00266800  0.34114200  0.53356700  1
  Ho  Ho7  1  0.99733200  0.65885800  0.03356700  1
  Ti  Ti8  1  0.32699900  0.32699900  0.00000000  1
  Ti  Ti9  1  0.17300100  0.82699900  0.25000000  1
  Ti  Ti10  1  0.82699900  0.17300100  0.75000000  1
  Ti  Ti11  1  0.67300100  0.67300100  0.50000000  1
  Ti  Ti12  1  0.15136400  0.00777000  0.87603600  1
  Ti  Ti13  1  0.49223000  0.65136400  0.12603600  1
  Ti  Ti14  1  0.50777000  0.34863600  0.62603600  1
  Ti  Ti15  1  0.65136400  0.49223000  0.87396400  1
  Ti  Ti16  1  0.34863600  0.50777000  0.37396400  1
  Ti  Ti17  1  0.84863600  0.99223000  0.37603600  1
  Ti  Ti18  1  0.00777000  0.15136400  0.12396400  1
  Ti  Ti19  1  0.99223000  0.84863600  0.62396400  1
  Si  Si20  1  0.20276300  0.13156600  0.68426700  1
  Si  Si21  1  0.36843400  0.70276300  0.93426700  1
  Si  Si22  1  0.63156600  0.29723700  0.43426700  1
  Si  Si23  1  0.70276300  0.36843400  0.06573300  1
  Si  Si24  1  0.29723700  0.63156600  0.56573300  1
  Si  Si25  1  0.79723700  0.86843400  0.18426700  1
  Si  Si26  1  0.13156600  0.20276300  0.31573300  1
  Si  Si27  1  0.86843400  0.79723700  0.81573300  1
  Si  Si28  1  0.29068800  0.95290000  0.06474500  1
  Si  Si29  1  0.54710000  0.79068800  0.31474500  1
  Si  Si30  1  0.45290000  0.20931200  0.81474500  1
  Si  Si31  1  0.79068800  0.54710000  0.68525500  1
  Si  Si32  1  0.20931200  0.45290000  0.18525500  1
  Si  Si33  1  0.70931200  0.04710000  0.56474500  1
  Si  Si34  1  0.95290000  0.29068800  0.93525500  1
  Si  Si35  1  0.04710000  0.70931200  0.43525500  1
