# generated using pymatgen
data_Cs5Si3AgO9
_symmetry_space_group_name_H-M   'P 1'
_cell_length_a   6.62041900
_cell_length_b   9.89331500
_cell_length_c   11.79701685
_cell_angle_alpha   86.18101321
_cell_angle_beta   90.00000000
_cell_angle_gamma   90.00000000
_symmetry_Int_Tables_number   1
_chemical_formula_structural   Cs5Si3AgO9
_chemical_formula_sum   'Cs10 Si6 Ag2 O18'
_cell_volume   770.96394612
_cell_formula_units_Z   2
loop_
 _symmetry_equiv_pos_site_id
 _symmetry_equiv_pos_as_xyz
  1  'x, y, z'
loop_
 _atom_site_type_symbol
 _atom_site_label
 _atom_site_symmetry_multiplicity
 _atom_site_fract_x
 _atom_site_fract_y
 _atom_site_fract_z
 _atom_site_occupancy
  Cs  Cs0  1  0.25000000  0.33919900  0.06338700  1
  Cs  Cs1  1  0.75000000  0.95197500  0.61856600  1
  Cs  Cs2  1  0.25000000  0.22269800  0.68577300  1
  Cs  Cs3  1  0.25000000  0.04802500  0.38143400  1
  Cs  Cs4  1  0.25000000  0.72583300  0.14194200  1
  Cs  Cs5  1  0.25000000  0.46117200  0.39823200  1
  Cs  Cs6  1  0.75000000  0.66080100  0.93661300  1
  Cs  Cs7  1  0.75000000  0.53882800  0.60176800  1
  Cs  Cs8  1  0.75000000  0.27416700  0.85805800  1
  Cs  Cs9  1  0.75000000  0.77730200  0.31422700  1
  Si  Si10  1  0.25000000  0.86984900  0.79935300  1
  Si  Si11  1  0.75000000  0.13015100  0.20064700  1
  Si  Si12  1  0.25000000  0.55726300  0.79046200  1
  Si  Si13  1  0.75000000  0.25368000  0.43515300  1
  Si  Si14  1  0.25000000  0.74632000  0.56484700  1
  Si  Si15  1  0.75000000  0.44273700  0.20953800  1
  Ag  Ag16  1  0.00000000  0.00000000  0.00000000  1
  Ag  Ag17  1  0.50000000  0.00000000  0.00000000  1
  O  O18  1  0.45664600  0.75699200  0.49207800  1
  O  O19  1  0.95769600  0.05297200  0.16486700  1
  O  O20  1  0.45769600  0.94702800  0.83513300  1
  O  O21  1  0.45579900  0.47617300  0.82490700  1
  O  O22  1  0.95664600  0.24300800  0.50792200  1
  O  O23  1  0.04420100  0.47617300  0.82490700  1
  O  O24  1  0.25000000  0.70928300  0.85259300  1
  O  O25  1  0.75000000  0.12910000  0.34140200  1
  O  O26  1  0.75000000  0.39876600  0.35023900  1
  O  O27  1  0.04230400  0.94702800  0.83513300  1
  O  O28  1  0.25000000  0.60123400  0.64976100  1
  O  O29  1  0.54230400  0.05297200  0.16486700  1
  O  O30  1  0.75000000  0.29071700  0.14740700  1
  O  O31  1  0.54335400  0.24300800  0.50792200  1
  O  O32  1  0.54420100  0.52382700  0.17509300  1
  O  O33  1  0.04335400  0.75699200  0.49207800  1
  O  O34  1  0.95579900  0.52382700  0.17509300  1
  O  O35  1  0.25000000  0.87090000  0.65859800  1
