# generated using pymatgen
data_Ba2ReO5
_symmetry_space_group_name_H-M   'P 1'
_cell_length_a   5.75669400
_cell_length_b   7.45428800
_cell_length_c   11.72035100
_cell_angle_alpha   90.00000000
_cell_angle_beta   90.00000000
_cell_angle_gamma   90.00000000
_symmetry_Int_Tables_number   1
_chemical_formula_structural   Ba2ReO5
_chemical_formula_sum   'Ba8 Re4 O20'
_cell_volume   502.94434678
_cell_formula_units_Z   4
loop_
 _symmetry_equiv_pos_site_id
 _symmetry_equiv_pos_as_xyz
  1  'x, y, z'
loop_
 _atom_site_type_symbol
 _atom_site_label
 _atom_site_symmetry_multiplicity
 _atom_site_fract_x
 _atom_site_fract_y
 _atom_site_fract_z
 _atom_site_occupancy
  Ba  Ba0  1  0.75000000  0.47761600  0.28519400  1
  Ba  Ba1  1  0.25000000  0.52238400  0.71480600  1
  Ba  Ba2  1  0.75000000  0.97761600  0.21480600  1
  Ba  Ba3  1  0.25000000  0.02238400  0.78519400  1
  Ba  Ba4  1  0.75000000  0.16499400  0.58030500  1
  Ba  Ba5  1  0.25000000  0.83500600  0.41969500  1
  Ba  Ba6  1  0.75000000  0.66499400  0.91969500  1
  Ba  Ba7  1  0.25000000  0.33500600  0.08030500  1
  Re  Re8  1  0.75000000  0.16884600  0.93725700  1
  Re  Re9  1  0.25000000  0.83115400  0.06274300  1
  Re  Re10  1  0.75000000  0.66884600  0.56274300  1
  Re  Re11  1  0.25000000  0.33115400  0.43725700  1
  O  O12  1  0.48771300  0.17788800  0.38497000  1
  O  O13  1  0.98771300  0.82211200  0.61503000  1
  O  O14  1  0.01228700  0.67788800  0.11503000  1
  O  O15  1  0.51228700  0.32211200  0.88497000  1
  O  O16  1  0.51228700  0.82211200  0.61503000  1
  O  O17  1  0.01228700  0.17788800  0.38497000  1
  O  O18  1  0.98771300  0.32211200  0.88497000  1
  O  O19  1  0.48771300  0.67788800  0.11503000  1
  O  O20  1  0.50000000  0.50000000  0.50000000  1
  O  O21  1  0.00000000  0.50000000  0.50000000  1
  O  O22  1  0.00000000  0.00000000  0.00000000  1
  O  O23  1  0.50000000  0.00000000  0.00000000  1
  O  O24  1  0.75000000  0.27836000  0.09003200  1
  O  O25  1  0.25000000  0.72164000  0.90996800  1
  O  O26  1  0.75000000  0.77836000  0.40996800  1
  O  O27  1  0.25000000  0.22164000  0.59003200  1
  O  O28  1  0.75000000  0.02175500  0.80698000  1
  O  O29  1  0.25000000  0.97824500  0.19302000  1
  O  O30  1  0.75000000  0.52175500  0.69302000  1
  O  O31  1  0.25000000  0.47824500  0.30698000  1
