# generated using pymatgen
data_La2C2Cl
_symmetry_space_group_name_H-M   'P 1'
_cell_length_a   7.82088820
_cell_length_b   7.82088820
_cell_length_c   6.77877636
_cell_angle_alpha   78.99258389
_cell_angle_beta   78.99258389
_cell_angle_gamma   31.43493348
_symmetry_Int_Tables_number   1
_chemical_formula_structural   La2C2Cl
_chemical_formula_sum   'La4 C4 Cl2'
_cell_volume   211.94672903
_cell_formula_units_Z   2
loop_
 _symmetry_equiv_pos_site_id
 _symmetry_equiv_pos_as_xyz
  1  'x, y, z'
loop_
 _atom_site_type_symbol
 _atom_site_label
 _atom_site_symmetry_multiplicity
 _atom_site_fract_x
 _atom_site_fract_y
 _atom_site_fract_z
 _atom_site_occupancy
  La  La0  1  0.54912000  0.15229100  0.15140300  1
  La  La1  1  0.15229100  0.54912000  0.65140300  1
  La  La2  1  0.45088000  0.84770900  0.84859700  1
  La  La3  1  0.84770900  0.45088000  0.34859700  1
  C  C4  1  0.35862900  0.08679400  0.47332000  1
  C  C5  1  0.91320600  0.64137100  0.02668000  1
  C  C6  1  0.64137100  0.91320600  0.52668000  1
  C  C7  1  0.08679400  0.35862900  0.97332000  1
  Cl  Cl8  1  0.78675500  0.21324500  0.75000000  1
  Cl  Cl9  1  0.21324500  0.78675500  0.25000000  1
