# generated using pymatgen
data_Ca2Ni7P4
_symmetry_space_group_name_H-M   'P 1'
_cell_length_a   3.68983100
_cell_length_b   9.19422600
_cell_length_c   10.35583400
_cell_angle_alpha   90.00000000
_cell_angle_beta   90.00000000
_cell_angle_gamma   90.00000000
_symmetry_Int_Tables_number   1
_chemical_formula_structural   Ca2Ni7P4
_chemical_formula_sum   'Ca4 Ni14 P8'
_cell_volume   351.32311947
_cell_formula_units_Z   2
loop_
 _symmetry_equiv_pos_site_id
 _symmetry_equiv_pos_as_xyz
  1  'x, y, z'
loop_
 _atom_site_type_symbol
 _atom_site_label
 _atom_site_symmetry_multiplicity
 _atom_site_fract_x
 _atom_site_fract_y
 _atom_site_fract_z
 _atom_site_occupancy
  Ca  Ca0  1  0.00000000  0.06060700  0.39459700  1
  Ca  Ca1  1  0.50000000  0.93939300  0.89459700  1
  Ca  Ca2  1  0.00000000  0.43765100  0.17861100  1
  Ca  Ca3  1  0.50000000  0.56234900  0.67861100  1
  Ni  Ni4  1  0.00000000  0.05939300  0.70037600  1
  Ni  Ni5  1  0.50000000  0.94060700  0.20037600  1
  Ni  Ni6  1  0.00000000  0.72857600  0.50841700  1
  Ni  Ni7  1  0.50000000  0.27142400  0.00841700  1
  Ni  Ni8  1  0.00000000  0.09535200  0.09568100  1
  Ni  Ni9  1  0.50000000  0.90464800  0.59568100  1
  Ni  Ni10  1  0.00000000  0.74815400  0.27329000  1
  Ni  Ni11  1  0.50000000  0.25184600  0.77329000  1
  Ni  Ni12  1  0.00000000  0.30472800  0.60041700  1
  Ni  Ni13  1  0.50000000  0.69527200  0.10041700  1
  Ni  Ni14  1  0.00000000  0.68394900  0.91358000  1
  Ni  Ni15  1  0.50000000  0.31605100  0.41358000  1
  Ni  Ni16  1  0.00000000  0.41528000  0.87321600  1
  Ni  Ni17  1  0.50000000  0.58472000  0.37321600  1
  P  P18  1  0.00000000  0.18069700  0.89163100  1
  P  P19  1  0.50000000  0.81930300  0.39163100  1
  P  P20  1  0.00000000  0.84350500  0.08326800  1
  P  P21  1  0.50000000  0.15649500  0.58326800  1
  P  P22  1  0.00000000  0.81240500  0.71191900  1
  P  P23  1  0.50000000  0.18759500  0.21191900  1
  P  P24  1  0.00000000  0.47864400  0.45909500  1
  P  P25  1  0.50000000  0.52135600  0.95909500  1
