# generated using pymatgen
data_K3Bi2(PO4)3
_symmetry_space_group_name_H-M   'P 1'
_cell_length_a   9.73002180
_cell_length_b   9.73002180
_cell_length_c   6.93213846
_cell_angle_alpha   72.46929768
_cell_angle_beta   72.46929768
_cell_angle_gamma   88.81495892
_symmetry_Int_Tables_number   1
_chemical_formula_structural   K3Bi2(PO4)3
_chemical_formula_sum   'K6 Bi4 P6 O24'
_cell_volume   594.96897533
_cell_formula_units_Z   2
loop_
 _symmetry_equiv_pos_site_id
 _symmetry_equiv_pos_as_xyz
  1  'x, y, z'
loop_
 _atom_site_type_symbol
 _atom_site_label
 _atom_site_symmetry_multiplicity
 _atom_site_fract_x
 _atom_site_fract_y
 _atom_site_fract_z
 _atom_site_occupancy
  K  K0  1  0.01295300  0.98704700  0.75000000  1
  K  K1  1  0.50000000  0.50000000  0.00000000  1
  K  K2  1  0.98704700  0.01295300  0.25000000  1
  K  K3  1  0.27421900  0.72578100  0.75000000  1
  K  K4  1  0.50000000  0.50000000  0.50000000  1
  K  K5  1  0.72578100  0.27421900  0.25000000  1
  Bi  Bi6  1  0.61403300  0.90961100  0.16960000  1
  Bi  Bi7  1  0.90961100  0.61403300  0.66960000  1
  Bi  Bi8  1  0.09038900  0.38596700  0.33040000  1
  Bi  Bi9  1  0.38596700  0.09038900  0.83040000  1
  P  P10  1  0.34735800  0.13806300  0.36279500  1
  P  P11  1  0.75441600  0.24558400  0.75000000  1
  P  P12  1  0.24558400  0.75441600  0.25000000  1
  P  P13  1  0.86193700  0.65264200  0.13720500  1
  P  P14  1  0.65264200  0.86193700  0.63720500  1
  P  P15  1  0.13806300  0.34735800  0.86279500  1
  O  O16  1  0.38249600  0.75902300  0.31838900  1
  O  O17  1  0.98570300  0.66512200  0.92369200  1
  O  O18  1  0.89016000  0.24034800  0.55888800  1
  O  O19  1  0.75965200  0.10984000  0.94111200  1
  O  O20  1  0.55626000  0.91139100  0.82896200  1
  O  O21  1  0.24034800  0.89016000  0.05888800  1
  O  O22  1  0.15647300  0.19320300  0.83984100  1
  O  O23  1  0.84352700  0.80679700  0.16015900  1
  O  O24  1  0.27824700  0.41520300  0.86702000  1
  O  O25  1  0.66512200  0.98570300  0.42369200  1
  O  O26  1  0.41520300  0.27824700  0.36702000  1
  O  O27  1  0.08860900  0.44374000  0.67103800  1
  O  O28  1  0.19320300  0.15647300  0.33984100  1
  O  O29  1  0.61750400  0.24097700  0.68161100  1
  O  O30  1  0.33487800  0.01429700  0.57630800  1
  O  O31  1  0.01429700  0.33487800  0.07630800  1
  O  O32  1  0.75902300  0.38249600  0.81838900  1
  O  O33  1  0.80679700  0.84352700  0.66015900  1
  O  O34  1  0.44374000  0.08860900  0.17103800  1
  O  O35  1  0.58479700  0.72175300  0.63298000  1
  O  O36  1  0.91139100  0.55626000  0.32896200  1
  O  O37  1  0.72175300  0.58479700  0.13298000  1
  O  O38  1  0.24097700  0.61750400  0.18161100  1
  O  O39  1  0.10984000  0.75965200  0.44111200  1
