# generated using pymatgen
data_Rb2Na2SiO4
_symmetry_space_group_name_H-M   'P 1'
_cell_length_a   9.92873300
_cell_length_b   11.04543700
_cell_length_c   11.26967100
_cell_angle_alpha   90.00000000
_cell_angle_beta   90.00000000
_cell_angle_gamma   90.00000000
_symmetry_Int_Tables_number   1
_chemical_formula_structural   Rb2Na2SiO4
_chemical_formula_sum   'Rb16 Na16 Si8 O32'
_cell_volume   1235.91320535
_cell_formula_units_Z   8
loop_
 _symmetry_equiv_pos_site_id
 _symmetry_equiv_pos_as_xyz
  1  'x, y, z'
loop_
 _atom_site_type_symbol
 _atom_site_label
 _atom_site_symmetry_multiplicity
 _atom_site_fract_x
 _atom_site_fract_y
 _atom_site_fract_z
 _atom_site_occupancy
  Rb  Rb0  1  0.64016100  0.15050800  0.63653500  1
  Rb  Rb1  1  0.14016100  0.34949200  0.36346500  1
  Rb  Rb2  1  0.29839200  0.93717100  0.03555600  1
  Rb  Rb3  1  0.70160800  0.43717100  0.46444400  1
  Rb  Rb4  1  0.79839200  0.56282900  0.96444400  1
  Rb  Rb5  1  0.35983900  0.65050800  0.86346500  1
  Rb  Rb6  1  0.64016100  0.34949200  0.13653500  1
  Rb  Rb7  1  0.14016100  0.15050800  0.86346500  1
  Rb  Rb8  1  0.85983900  0.84949200  0.13653500  1
  Rb  Rb9  1  0.29839200  0.56282900  0.53555600  1
  Rb  Rb10  1  0.70160800  0.06282900  0.96444400  1
  Rb  Rb11  1  0.35983900  0.84949200  0.36346500  1
  Rb  Rb12  1  0.20160800  0.06282900  0.53555600  1
  Rb  Rb13  1  0.20160800  0.43717100  0.03555600  1
  Rb  Rb14  1  0.79839200  0.93717100  0.46444400  1
  Rb  Rb15  1  0.85983900  0.65050800  0.63653500  1
  Na  Na16  1  0.03314800  0.74927500  0.90638900  1
  Na  Na17  1  0.96685200  0.25072500  0.09361100  1
  Na  Na18  1  0.90815300  0.95126300  0.74650800  1
  Na  Na19  1  0.03314800  0.75072500  0.40638900  1
  Na  Na20  1  0.90815300  0.54873700  0.24650800  1
  Na  Na21  1  0.59184700  0.04873700  0.24650800  1
  Na  Na22  1  0.40815300  0.54873700  0.25349200  1
  Na  Na23  1  0.09184700  0.04873700  0.25349200  1
  Na  Na24  1  0.53314800  0.74927500  0.59361100  1
  Na  Na25  1  0.09184700  0.45126300  0.75349200  1
  Na  Na26  1  0.46685200  0.24927500  0.90638900  1
  Na  Na27  1  0.46685200  0.25072500  0.40638900  1
  Na  Na28  1  0.53314800  0.75072500  0.09361100  1
  Na  Na29  1  0.59184700  0.45126300  0.74650800  1
  Na  Na30  1  0.96685200  0.24927500  0.59361100  1
  Na  Na31  1  0.40815300  0.95126300  0.75349200  1
  Si  Si32  1  0.15766100  0.80442500  0.68217300  1
  Si  Si33  1  0.34233900  0.30442500  0.68217300  1
  Si  Si34  1  0.15766100  0.69557500  0.18217300  1
  Si  Si35  1  0.65766100  0.69557500  0.31782700  1
  Si  Si36  1  0.65766100  0.80442500  0.81782700  1
  Si  Si37  1  0.34233900  0.19557500  0.18217300  1
  Si  Si38  1  0.84233900  0.30442500  0.81782700  1
  Si  Si39  1  0.84233900  0.19557500  0.31782700  1
  O  O40  1  0.84186600  0.10598200  0.19787000  1
  O  O41  1  0.87812500  0.16322600  0.77391500  1
  O  O42  1  0.46078100  0.14805600  0.08836800  1
  O  O43  1  0.15813400  0.60598200  0.30213000  1
  O  O44  1  0.19066600  0.31042800  0.61931200  1
  O  O45  1  0.03921900  0.85194400  0.58836800  1
  O  O46  1  0.30933400  0.68957200  0.11931200  1
  O  O47  1  0.69066600  0.31042800  0.88068800  1
  O  O48  1  0.96078100  0.35194400  0.91163200  1
  O  O49  1  0.37812500  0.33677400  0.22608500  1
  O  O50  1  0.69066600  0.18957200  0.38068800  1
  O  O51  1  0.80933400  0.81042800  0.88068800  1
  O  O52  1  0.46078100  0.35194400  0.58836800  1
  O  O53  1  0.96078100  0.14805600  0.41163200  1
  O  O54  1  0.84186600  0.39401800  0.69787000  1
  O  O55  1  0.53921900  0.85194400  0.91163200  1
  O  O56  1  0.65813400  0.60598200  0.19787000  1
  O  O57  1  0.37812500  0.16322600  0.72608500  1
  O  O58  1  0.15813400  0.89401800  0.80213000  1
  O  O59  1  0.65813400  0.89401800  0.69787000  1
  O  O60  1  0.87812500  0.33677400  0.27391500  1
  O  O61  1  0.30933400  0.81042800  0.61931200  1
  O  O62  1  0.34186600  0.39401800  0.80213000  1
  O  O63  1  0.62187500  0.66322600  0.77391500  1
  O  O64  1  0.12187500  0.83677400  0.22608500  1
  O  O65  1  0.19066600  0.18957200  0.11931200  1
  O  O66  1  0.34186600  0.10598200  0.30213000  1
  O  O67  1  0.53921900  0.64805600  0.41163200  1
  O  O68  1  0.03921900  0.64805600  0.08836800  1
  O  O69  1  0.80933400  0.68957200  0.38068800  1
  O  O70  1  0.62187500  0.83677400  0.27391500  1
  O  O71  1  0.12187500  0.66322600  0.72608500  1
