# generated using pymatgen
data_CsInS2
_symmetry_space_group_name_H-M   'P 1'
_cell_length_a   8.08528028
_cell_length_b   8.08528028
_cell_length_c   16.58463107
_cell_angle_alpha   83.02043664
_cell_angle_beta   83.02043664
_cell_angle_gamma   89.99117086
_symmetry_Int_Tables_number   1
_chemical_formula_structural   CsInS2
_chemical_formula_sum   'Cs8 In8 S16'
_cell_volume   1068.04022767
_cell_formula_units_Z   8
loop_
 _symmetry_equiv_pos_site_id
 _symmetry_equiv_pos_as_xyz
  1  'x, y, z'
loop_
 _atom_site_type_symbol
 _atom_site_label
 _atom_site_symmetry_multiplicity
 _atom_site_fract_x
 _atom_site_fract_y
 _atom_site_fract_z
 _atom_site_occupancy
  Cs  Cs0  1  0.72304200  0.34861500  0.10784700  1
  Cs  Cs1  1  0.72426400  0.84716400  0.10694900  1
  Cs  Cs2  1  0.27573600  0.15283600  0.89305100  1
  Cs  Cs3  1  0.15283600  0.27573600  0.39305100  1
  Cs  Cs4  1  0.65138500  0.27695800  0.39215300  1
  Cs  Cs5  1  0.27695800  0.65138500  0.89215300  1
  Cs  Cs6  1  0.34861500  0.72304200  0.60784700  1
  Cs  Cs7  1  0.84716400  0.72426400  0.60694900  1
  In  In8  1  0.20860700  0.08131700  0.16550200  1
  In  In9  1  0.79170500  0.41378100  0.83452500  1
  In  In10  1  0.91868300  0.79139300  0.33449800  1
  In  In11  1  0.58621900  0.20829500  0.66547500  1
  In  In12  1  0.79139300  0.91868300  0.83449800  1
  In  In13  1  0.08131700  0.20860700  0.66550200  1
  In  In14  1  0.41378100  0.79170500  0.33452500  1
  In  In15  1  0.20829500  0.58621900  0.16547500  1
  S  S16  1  0.93129900  0.06870100  0.25000000  1
  S  S17  1  0.23010600  0.85661100  0.07286100  1
  S  S18  1  0.14338900  0.76989400  0.42713900  1
  S  S19  1  0.06809500  0.44495000  0.74923000  1
  S  S20  1  0.85661100  0.23010600  0.57286100  1
  S  S21  1  0.23119700  0.35630400  0.07553700  1
  S  S22  1  0.76989400  0.14338900  0.92713900  1
  S  S23  1  0.76880300  0.64369600  0.92446300  1
  S  S24  1  0.55645300  0.44354700  0.75000000  1
  S  S25  1  0.35630400  0.23119700  0.57553700  1
  S  S26  1  0.44495000  0.06809500  0.24923000  1
  S  S27  1  0.55505000  0.93190500  0.75077000  1
  S  S28  1  0.06870100  0.93129900  0.75000000  1
  S  S29  1  0.44354700  0.55645300  0.25000000  1
  S  S30  1  0.93190500  0.55505000  0.25077000  1
  S  S31  1  0.64369600  0.76880300  0.42446300  1
