# generated using pymatgen
data_KLaSi(CN2)4
_symmetry_space_group_name_H-M   'P 1'
_cell_length_a   6.98008600
_cell_length_b   7.67515600
_cell_length_c   9.52586600
_cell_angle_alpha   90.00000000
_cell_angle_beta   90.00000000
_cell_angle_gamma   90.00000000
_symmetry_Int_Tables_number   1
_chemical_formula_structural   KLaSi(CN2)4
_chemical_formula_sum   'K2 La2 Si2 C8 N16'
_cell_volume   510.33159062
_cell_formula_units_Z   2
loop_
 _symmetry_equiv_pos_site_id
 _symmetry_equiv_pos_as_xyz
  1  'x, y, z'
loop_
 _atom_site_type_symbol
 _atom_site_label
 _atom_site_symmetry_multiplicity
 _atom_site_fract_x
 _atom_site_fract_y
 _atom_site_fract_z
 _atom_site_occupancy
  K  K0  1  0.92165500  0.00000000  0.00000000  1
  K  K1  1  0.07834500  0.50000000  0.50000000  1
  La  La2  1  0.25905800  0.00000000  0.50000000  1
  La  La3  1  0.74094200  0.50000000  0.00000000  1
  Si  Si4  1  0.75178000  0.00000000  0.50000000  1
  Si  Si5  1  0.24822000  0.50000000  0.00000000  1
  C  C6  1  0.87261500  0.78557000  0.70036000  1
  C  C7  1  0.36415100  0.67249300  0.77102900  1
  C  C8  1  0.36415100  0.32750700  0.22897100  1
  C  C9  1  0.12738500  0.71443000  0.20036000  1
  C  C10  1  0.12738500  0.28557000  0.79964000  1
  C  C11  1  0.87261500  0.21443000  0.29964000  1
  C  C12  1  0.63584900  0.82750700  0.27102900  1
  C  C13  1  0.63584900  0.17249300  0.72897100  1
  N  N14  1  0.91167600  0.13517000  0.41332500  1
  N  N15  1  0.67238500  0.23968800  0.83917200  1
  N  N16  1  0.67238500  0.76031200  0.16082800  1
  N  N17  1  0.15591900  0.79110900  0.30762300  1
  N  N18  1  0.32761500  0.26031200  0.33917200  1
  N  N19  1  0.32761500  0.73968800  0.66082800  1
  N  N20  1  0.08832400  0.63517000  0.08667500  1
  N  N21  1  0.15591900  0.20889100  0.69237700  1
  N  N22  1  0.59324300  0.09997000  0.61296000  1
  N  N23  1  0.84408100  0.29110900  0.19237700  1
  N  N24  1  0.84408100  0.70889100  0.80762300  1
  N  N25  1  0.08832400  0.36483000  0.91332500  1
  N  N26  1  0.40675700  0.40003000  0.11296000  1
  N  N27  1  0.59324300  0.90003000  0.38704000  1
  N  N28  1  0.40675700  0.59997000  0.88704000  1
  N  N29  1  0.91167600  0.86483000  0.58667500  1
