# generated using pymatgen
data_Tb3BWO9
_symmetry_space_group_name_H-M   'P 1'
_cell_length_a   8.59774921
_cell_length_b   8.59774921
_cell_length_c   5.42446500
_cell_angle_alpha   90.00000000
_cell_angle_beta   90.00000000
_cell_angle_gamma   119.99999390
_symmetry_Int_Tables_number   1
_chemical_formula_structural   Tb3BWO9
_chemical_formula_sum   'Tb6 B2 W2 O18'
_cell_volume   347.26188258
_cell_formula_units_Z   2
loop_
 _symmetry_equiv_pos_site_id
 _symmetry_equiv_pos_as_xyz
  1  'x, y, z'
loop_
 _atom_site_type_symbol
 _atom_site_label
 _atom_site_symmetry_multiplicity
 _atom_site_fract_x
 _atom_site_fract_y
 _atom_site_fract_z
 _atom_site_occupancy
  Tb  Tb0  1  0.07939800  0.72344000  0.70052900  1
  Tb  Tb1  1  0.64404200  0.92060200  0.70052900  1
  Tb  Tb2  1  0.92060200  0.27656000  0.20052900  1
  Tb  Tb3  1  0.27656000  0.35595800  0.70052900  1
  Tb  Tb4  1  0.72344000  0.64404200  0.20052900  1
  Tb  Tb5  1  0.35595800  0.07939800  0.20052900  1
  B  B6  1  0.00000000  0.00000000  0.87161600  1
  B  B7  1  0.00000000  0.00000000  0.37161600  1
  W  W8  1  0.66666700  0.33333300  0.74368300  1
  W  W9  1  0.33333300  0.66666700  0.24368300  1
  O  O10  1  0.26017900  0.79798400  0.03518700  1
  O  O11  1  0.73982100  0.20201600  0.53518700  1
  O  O12  1  0.12446600  0.18091700  0.36265500  1
  O  O13  1  0.51747800  0.38664300  0.97426400  1
  O  O14  1  0.05645100  0.87553400  0.36265500  1
  O  O15  1  0.86916500  0.48252200  0.97426400  1
  O  O16  1  0.81908300  0.94354900  0.36265500  1
  O  O17  1  0.13083500  0.51747800  0.47426400  1
  O  O18  1  0.79798400  0.53780500  0.53518700  1
  O  O19  1  0.18091700  0.05645100  0.86265500  1
  O  O20  1  0.94354900  0.12446600  0.86265500  1
  O  O21  1  0.87553400  0.81908300  0.86265500  1
  O  O22  1  0.48252200  0.61335700  0.47426400  1
  O  O23  1  0.20201600  0.46219500  0.03518700  1
  O  O24  1  0.46219500  0.26017900  0.53518700  1
  O  O25  1  0.61335700  0.13083500  0.97426400  1
  O  O26  1  0.53780500  0.73982100  0.03518700  1
  O  O27  1  0.38664300  0.86916500  0.47426400  1
