# generated using pymatgen
data_BaZr(PO4)2
_symmetry_space_group_name_H-M   'P 1'
_cell_length_a   5.11461808
_cell_length_b   5.11461808
_cell_length_c   8.01650674
_cell_angle_alpha   87.23094614
_cell_angle_beta   87.23094614
_cell_angle_gamma   63.51561826
_symmetry_Int_Tables_number   1
_chemical_formula_structural   BaZr(PO4)2
_chemical_formula_sum   'Ba1 Zr1 P2 O8'
_cell_volume   187.39571175
_cell_formula_units_Z   1
loop_
 _symmetry_equiv_pos_site_id
 _symmetry_equiv_pos_as_xyz
  1  'x, y, z'
loop_
 _atom_site_type_symbol
 _atom_site_label
 _atom_site_symmetry_multiplicity
 _atom_site_fract_x
 _atom_site_fract_y
 _atom_site_fract_z
 _atom_site_occupancy
  Ba  Ba0  1  0.00000000  0.00000000  0.50000000  1
  Zr  Zr1  1  0.00000000  0.00000000  0.00000000  1
  P  P2  1  0.63770900  0.63770900  0.22134700  1
  P  P3  1  0.36229100  0.36229100  0.77865300  1
  O  O4  1  0.31333100  0.31333100  0.59917700  1
  O  O5  1  0.68666900  0.68666900  0.40082300  1
  O  O6  1  0.30235000  0.77288600  0.19005800  1
  O  O7  1  0.77288600  0.30235000  0.19005800  1
  O  O8  1  0.77350000  0.77350000  0.08815300  1
  O  O9  1  0.69765000  0.22711400  0.80994200  1
  O  O10  1  0.22650000  0.22650000  0.91184700  1
  O  O11  1  0.22711400  0.69765000  0.80994200  1
