# generated using pymatgen
data_KVPbO4
_symmetry_space_group_name_H-M   'P 1'
_cell_length_a   5.89671800
_cell_length_b   7.85086500
_cell_length_c   10.33260300
_cell_angle_alpha   90.00000000
_cell_angle_beta   90.00000000
_cell_angle_gamma   90.00000000
_symmetry_Int_Tables_number   1
_chemical_formula_structural   KVPbO4
_chemical_formula_sum   'K4 V4 Pb4 O16'
_cell_volume   478.34100497
_cell_formula_units_Z   4
loop_
 _symmetry_equiv_pos_site_id
 _symmetry_equiv_pos_as_xyz
  1  'x, y, z'
loop_
 _atom_site_type_symbol
 _atom_site_label
 _atom_site_symmetry_multiplicity
 _atom_site_fract_x
 _atom_site_fract_y
 _atom_site_fract_z
 _atom_site_occupancy
  K  K0  1  0.25000000  0.17921400  0.91060000  1
  K  K1  1  0.75000000  0.82078600  0.08940000  1
  K  K2  1  0.25000000  0.67921400  0.58940000  1
  K  K3  1  0.75000000  0.32078600  0.41060000  1
  V  V4  1  0.75000000  0.25691300  0.07932900  1
  V  V5  1  0.25000000  0.74308700  0.92067100  1
  V  V6  1  0.75000000  0.75691300  0.42067100  1
  V  V7  1  0.25000000  0.24308700  0.57932900  1
  Pb  Pb8  1  0.75000000  0.47753400  0.78313400  1
  Pb  Pb9  1  0.25000000  0.52246600  0.21686600  1
  Pb  Pb10  1  0.75000000  0.97753400  0.71686600  1
  Pb  Pb11  1  0.25000000  0.02246600  0.28313400  1
  O  O12  1  0.25000000  0.52856200  0.89303300  1
  O  O13  1  0.75000000  0.47143800  0.10696700  1
  O  O14  1  0.25000000  0.02856200  0.60696700  1
  O  O15  1  0.75000000  0.97143800  0.39303300  1
  O  O16  1  0.75000000  0.21987000  0.90959800  1
  O  O17  1  0.25000000  0.78013000  0.09040200  1
  O  O18  1  0.75000000  0.71987000  0.59040200  1
  O  O19  1  0.25000000  0.28013000  0.40959800  1
  O  O20  1  0.99332300  0.16428500  0.14626000  1
  O  O21  1  0.49332300  0.83571500  0.85374000  1
  O  O22  1  0.50667700  0.66428500  0.35374000  1
  O  O23  1  0.00667700  0.33571500  0.64626000  1
  O  O24  1  0.00667700  0.83571500  0.85374000  1
  O  O25  1  0.50667700  0.16428500  0.14626000  1
  O  O26  1  0.49332300  0.33571500  0.64626000  1
  O  O27  1  0.99332300  0.66428500  0.35374000  1
