# generated using pymatgen
data_BaLaCuSe3
_symmetry_space_group_name_H-M   'P 1'
_cell_length_a   4.30995900
_cell_length_b   11.24739400
_cell_length_c   14.03239300
_cell_angle_alpha   90.00000000
_cell_angle_beta   90.00000000
_cell_angle_gamma   90.00000000
_symmetry_Int_Tables_number   1
_chemical_formula_structural   BaLaCuSe3
_chemical_formula_sum   'Ba4 La4 Cu4 Se12'
_cell_volume   680.23157477
_cell_formula_units_Z   4
loop_
 _symmetry_equiv_pos_site_id
 _symmetry_equiv_pos_as_xyz
  1  'x, y, z'
loop_
 _atom_site_type_symbol
 _atom_site_label
 _atom_site_symmetry_multiplicity
 _atom_site_fract_x
 _atom_site_fract_y
 _atom_site_fract_z
 _atom_site_occupancy
  Ba  Ba0  1  0.75000000  0.22830700  0.49589000  1
  Ba  Ba1  1  0.25000000  0.77169300  0.50411000  1
  Ba  Ba2  1  0.75000000  0.72830700  0.00411000  1
  Ba  Ba3  1  0.25000000  0.27169300  0.99589000  1
  La  La4  1  0.75000000  0.49031300  0.74024000  1
  La  La5  1  0.25000000  0.50968700  0.25976000  1
  La  La6  1  0.75000000  0.99031300  0.75976000  1
  La  La7  1  0.25000000  0.00968700  0.24024000  1
  Cu  Cu8  1  0.75000000  0.25861600  0.21652200  1
  Cu  Cu9  1  0.25000000  0.74138400  0.78347800  1
  Cu  Cu10  1  0.75000000  0.75861600  0.28347800  1
  Cu  Cu11  1  0.25000000  0.24138400  0.71652200  1
  Se  Se12  1  0.75000000  0.44214400  0.11781700  1
  Se  Se13  1  0.25000000  0.55785600  0.88218300  1
  Se  Se14  1  0.75000000  0.94214400  0.38218300  1
  Se  Se15  1  0.25000000  0.05785600  0.61781700  1
  Se  Se16  1  0.75000000  0.24453800  0.81829600  1
  Se  Se17  1  0.25000000  0.75546200  0.18170400  1
  Se  Se18  1  0.75000000  0.74453800  0.68170400  1
  Se  Se19  1  0.25000000  0.25546200  0.31829600  1
  Se  Se20  1  0.75000000  0.08795800  0.10551700  1
  Se  Se21  1  0.25000000  0.91204200  0.89448300  1
  Se  Se22  1  0.75000000  0.58795800  0.39448300  1
  Se  Se23  1  0.25000000  0.41204200  0.60551700  1
