# generated using pymatgen
data_Hf(SeCl6)2
_symmetry_space_group_name_H-M   'P 1'
_cell_length_a   13.06677627
_cell_length_b   12.86770137
_cell_length_c   9.00547803
_cell_angle_alpha   70.87387737
_cell_angle_beta   68.49810084
_cell_angle_gamma   40.62802180
_symmetry_Int_Tables_number   1
_chemical_formula_structural   Hf(SeCl6)2
_chemical_formula_sum   'Hf2 Se4 Cl24'
_cell_volume   914.26864529
_cell_formula_units_Z   2
loop_
 _symmetry_equiv_pos_site_id
 _symmetry_equiv_pos_as_xyz
  1  'x, y, z'
loop_
 _atom_site_type_symbol
 _atom_site_label
 _atom_site_symmetry_multiplicity
 _atom_site_fract_x
 _atom_site_fract_y
 _atom_site_fract_z
 _atom_site_occupancy
  Hf  Hf0  1  0.87372000  0.87372000  0.62628000  1
  Hf  Hf1  1  0.62372000  0.62372000  0.37628000  1
  Se  Se2  1  0.42484000  0.98624700  0.02630000  1
  Se  Se3  1  0.22370000  0.68738700  0.82516000  1
  Se  Se4  1  0.98624700  0.42484000  0.56261300  1
  Se  Se5  1  0.68738700  0.22370000  0.26375300  1
  Cl  Cl6  1  0.43958100  0.46438700  0.26587100  1
  Cl  Cl7  1  0.66931800  0.58418800  0.64173000  1
  Cl  Cl8  1  0.22378300  0.32940700  0.44996200  1
  Cl  Cl9  1  0.74260500  0.35584100  0.39936300  1
  Cl  Cl10  1  0.50848000  0.89598400  0.32576200  1
  Cl  Cl11  1  0.92423800  0.98022600  0.74152000  1
  Cl  Cl12  1  0.98022600  0.92423800  0.35401600  1
  Cl  Cl13  1  0.35584100  0.74260500  0.50219200  1
  Cl  Cl14  1  0.89598400  0.50848000  0.26977400  1
  Cl  Cl15  1  0.32940700  0.22378300  0.99684800  1
  Cl  Cl16  1  0.66035100  0.10306800  0.18368800  1
  Cl  Cl17  1  0.25315200  0.80003800  0.92059300  1
  Cl  Cl18  1  0.74780800  0.85063700  0.89415900  1
  Cl  Cl19  1  0.85063700  0.74780800  0.50739500  1
  Cl  Cl20  1  0.14523600  0.60827000  0.66581200  1
  Cl  Cl21  1  0.80003800  0.25315200  0.02621700  1
  Cl  Cl22  1  0.06631200  0.19710700  0.58964900  1
  Cl  Cl23  1  0.10306800  0.66035100  0.05289300  1
  Cl  Cl24  1  0.41984000  0.98412900  0.78561300  1
  Cl  Cl25  1  0.98412900  0.41984000  0.81041900  1
  Cl  Cl26  1  0.58418800  0.66931800  0.10476400  1
  Cl  Cl27  1  0.46438700  0.43958100  0.83016000  1
  Cl  Cl28  1  0.60827000  0.14523600  0.58068200  1
  Cl  Cl29  1  0.19710700  0.06631200  0.14693200  1
