# generated using pymatgen
data_K3SnTe3
_symmetry_space_group_name_H-M   'P 1'
_cell_length_a   13.88324500
_cell_length_b   9.72807500
_cell_length_c   9.74877866
_cell_angle_alpha   63.15577218
_cell_angle_beta   90.00000000
_cell_angle_gamma   90.00000000
_symmetry_Int_Tables_number   1
_chemical_formula_structural   K3SnTe3
_chemical_formula_sum   'K12 Sn4 Te12'
_cell_volume   1174.75847129
_cell_formula_units_Z   4
loop_
 _symmetry_equiv_pos_site_id
 _symmetry_equiv_pos_as_xyz
  1  'x, y, z'
loop_
 _atom_site_type_symbol
 _atom_site_label
 _atom_site_symmetry_multiplicity
 _atom_site_fract_x
 _atom_site_fract_y
 _atom_site_fract_z
 _atom_site_occupancy
  K  K0  1  0.71819500  0.05486400  0.79651800  1
  K  K1  1  0.21819500  0.94513600  0.70348200  1
  K  K2  1  0.28180500  0.94513600  0.20348200  1
  K  K3  1  0.78180500  0.05486400  0.29651800  1
  K  K4  1  0.06540900  0.27625200  0.20653200  1
  K  K5  1  0.56540900  0.72374800  0.29346800  1
  K  K6  1  0.93459100  0.72374800  0.79346800  1
  K  K7  1  0.43459100  0.27625200  0.70653200  1
  K  K8  1  0.65680800  0.50163700  0.01094100  1
  K  K9  1  0.15680800  0.49836300  0.48905900  1
  K  K10  1  0.34319200  0.49836300  0.98905900  1
  K  K11  1  0.84319200  0.50163700  0.51094100  1
  Sn  Sn12  1  0.99174400  0.84547800  0.12382200  1
  Sn  Sn13  1  0.49174400  0.15452200  0.37617800  1
  Sn  Sn14  1  0.00825600  0.15452200  0.87617800  1
  Sn  Sn15  1  0.50825600  0.84547800  0.62382200  1
  Te  Te16  1  0.02503000  0.85561800  0.40004000  1
  Te  Te17  1  0.52503000  0.14438200  0.09996000  1
  Te  Te18  1  0.97497000  0.14438200  0.59996000  1
  Te  Te19  1  0.47497000  0.85561800  0.90004000  1
  Te  Te20  1  0.80690500  0.73917500  0.11790100  1
  Te  Te21  1  0.30690500  0.26082500  0.38209900  1
  Te  Te22  1  0.19309500  0.26082500  0.88209900  1
  Te  Te23  1  0.69309500  0.73917500  0.61790100  1
  Te  Te24  1  0.13372000  0.67072500  0.07465200  1
  Te  Te25  1  0.63372000  0.32927500  0.42534800  1
  Te  Te26  1  0.86628000  0.32927500  0.92534800  1
  Te  Te27  1  0.36628000  0.67072500  0.57465200  1
