# generated using pymatgen
data_Tl2Cu3(SeO3)6
_symmetry_space_group_name_H-M   'P 1'
_cell_length_a   4.85234115
_cell_length_b   9.82928306
_cell_length_c   10.21161300
_cell_angle_alpha   67.86275388
_cell_angle_beta   82.13238435
_cell_angle_gamma   79.47687605
_symmetry_Int_Tables_number   1
_chemical_formula_structural   Tl2Cu3(SeO3)6
_chemical_formula_sum   'Tl2 Cu3 Se6 O18'
_cell_volume   442.31217239
_cell_formula_units_Z   1
loop_
 _symmetry_equiv_pos_site_id
 _symmetry_equiv_pos_as_xyz
  1  'x, y, z'
loop_
 _atom_site_type_symbol
 _atom_site_label
 _atom_site_symmetry_multiplicity
 _atom_site_fract_x
 _atom_site_fract_y
 _atom_site_fract_z
 _atom_site_occupancy
  Tl  Tl0  1  0.44685700  0.31580800  0.67790500  1
  Tl  Tl1  1  0.55314300  0.68419200  0.32209500  1
  Cu  Cu2  1  0.20603500  0.52993500  0.08652300  1
  Cu  Cu3  1  0.79396500  0.47006500  0.91347700  1
  Cu  Cu4  1  0.00000000  0.00000000  0.00000000  1
  Se  Se5  1  0.62473300  0.78431300  0.96209500  1
  Se  Se6  1  0.91277600  0.92443900  0.34970900  1
  Se  Se7  1  0.08722400  0.07556100  0.65029100  1
  Se  Se8  1  0.31109600  0.64294000  0.67892200  1
  Se  Se9  1  0.68890400  0.35706000  0.32107800  1
  Se  Se10  1  0.37526700  0.21568700  0.03790500  1
  O  O11  1  0.90058000  0.64117600  0.95762900  1
  O  O12  1  0.57424700  0.57757200  0.57679600  1
  O  O13  1  0.26190100  0.14581000  0.92338800  1
  O  O14  1  0.97816200  0.03610600  0.17449100  1
  O  O15  1  0.09942000  0.35882400  0.04237100  1
  O  O16  1  0.42575300  0.42242800  0.42320400  1
  O  O17  1  0.87038400  0.50958900  0.26908100  1
  O  O18  1  0.37479700  0.69624500  0.09466100  1
  O  O19  1  0.73809900  0.85419000  0.07661200  1
  O  O20  1  0.48370200  0.61919200  0.82492000  1
  O  O21  1  0.43229200  0.10627800  0.63738700  1
  O  O22  1  0.51629800  0.38080800  0.17508000  1
  O  O23  1  0.92856800  0.25319900  0.63545200  1
  O  O24  1  0.56770800  0.89372200  0.36261300  1
  O  O25  1  0.07143200  0.74680100  0.36454800  1
  O  O26  1  0.02183800  0.96389400  0.82550900  1
  O  O27  1  0.12961600  0.49041100  0.73091900  1
  O  O28  1  0.62520300  0.30375500  0.90533900  1
