# generated using pymatgen
data_MgAs2(XeF8)2
_symmetry_space_group_name_H-M   'P 1'
_cell_length_a   5.45620400
_cell_length_b   9.26582100
_cell_length_c   15.57277400
_cell_angle_alpha   90.00000000
_cell_angle_beta   90.00000000
_cell_angle_gamma   90.00000000
_symmetry_Int_Tables_number   1
_chemical_formula_structural   MgAs2(XeF8)2
_chemical_formula_sum   'Mg2 As4 Xe4 F32'
_cell_volume   787.30042645
_cell_formula_units_Z   2
loop_
 _symmetry_equiv_pos_site_id
 _symmetry_equiv_pos_as_xyz
  1  'x, y, z'
loop_
 _atom_site_type_symbol
 _atom_site_label
 _atom_site_symmetry_multiplicity
 _atom_site_fract_x
 _atom_site_fract_y
 _atom_site_fract_z
 _atom_site_occupancy
  Mg  Mg0  1  0.00000000  0.50000000  0.00000000  1
  Mg  Mg1  1  0.00000000  0.00000000  0.50000000  1
  As  As2  1  0.50000000  0.75622800  0.57911400  1
  As  As3  1  0.50000000  0.74377200  0.07911400  1
  As  As4  1  0.50000000  0.24377200  0.42088600  1
  As  As5  1  0.50000000  0.25622800  0.92088600  1
  Xe  Xe6  1  0.00000000  0.16438100  0.17082000  1
  Xe  Xe7  1  0.00000000  0.83561900  0.82918000  1
  Xe  Xe8  1  0.00000000  0.33561900  0.67082000  1
  Xe  Xe9  1  0.00000000  0.66438100  0.32918000  1
  F  F10  1  0.26668400  0.37194000  0.41169700  1
  F  F11  1  0.73331600  0.62806000  0.58830300  1
  F  F12  1  0.73331600  0.87194000  0.08830300  1
  F  F13  1  0.73044100  0.60080800  0.06967400  1
  F  F14  1  0.00000000  0.50247500  0.75400300  1
  F  F15  1  0.26668400  0.62806000  0.58830300  1
  F  F16  1  0.73044100  0.89919200  0.56967400  1
  F  F17  1  0.26955900  0.89919200  0.56967400  1
  F  F18  1  0.26668400  0.12806000  0.91169700  1
  F  F19  1  0.50000000  0.28886600  0.80980100  1
  F  F20  1  0.73044100  0.39919200  0.93032600  1
  F  F21  1  0.73331600  0.12806000  0.91169700  1
  F  F22  1  0.26955900  0.39919200  0.93032600  1
  F  F23  1  0.00000000  0.99752500  0.25400300  1
  F  F24  1  0.50000000  0.75757500  0.96655900  1
  F  F25  1  0.00000000  0.65729000  0.91605000  1
  F  F26  1  0.00000000  0.84271000  0.41605000  1
  F  F27  1  0.50000000  0.78886600  0.69019900  1
  F  F28  1  0.50000000  0.74242500  0.46655900  1
  F  F29  1  0.50000000  0.71113400  0.19019900  1
  F  F30  1  0.26955900  0.60080800  0.06967400  1
  F  F31  1  0.00000000  0.00247500  0.74599700  1
  F  F32  1  0.73331600  0.37194000  0.41169700  1
  F  F33  1  0.50000000  0.24242500  0.03344100  1
  F  F34  1  0.50000000  0.21113400  0.30980100  1
  F  F35  1  0.00000000  0.49752500  0.24599700  1
  F  F36  1  0.26668400  0.87194000  0.08830300  1
  F  F37  1  0.26955900  0.10080800  0.43032600  1
  F  F38  1  0.00000000  0.34271000  0.08395000  1
  F  F39  1  0.73044100  0.10080800  0.43032600  1
  F  F40  1  0.00000000  0.15729000  0.58395000  1
  F  F41  1  0.50000000  0.25757500  0.53344100  1
