# generated using pymatgen
data_Er2Al3Co
_symmetry_space_group_name_H-M   'P 1'
_cell_length_a   5.49280554
_cell_length_b   5.49280554
_cell_length_c   8.51981600
_cell_angle_alpha   90.00000000
_cell_angle_beta   90.00000000
_cell_angle_gamma   119.99999443
_symmetry_Int_Tables_number   1
_chemical_formula_structural   Er2Al3Co
_chemical_formula_sum   'Er4 Al6 Co2'
_cell_volume   222.61238339
_cell_formula_units_Z   2
loop_
 _symmetry_equiv_pos_site_id
 _symmetry_equiv_pos_as_xyz
  1  'x, y, z'
loop_
 _atom_site_type_symbol
 _atom_site_label
 _atom_site_symmetry_multiplicity
 _atom_site_fract_x
 _atom_site_fract_y
 _atom_site_fract_z
 _atom_site_occupancy
  Er  Er0  1  0.33333300  0.66666700  0.44425400  1
  Er  Er1  1  0.66666700  0.33333300  0.94425400  1
  Er  Er2  1  0.66666700  0.33333300  0.55574600  1
  Er  Er3  1  0.33333300  0.66666700  0.05574600  1
  Al  Al4  1  0.32282500  0.16141200  0.25000000  1
  Al  Al5  1  0.16141200  0.83858800  0.75000000  1
  Al  Al6  1  0.16141200  0.32282500  0.75000000  1
  Al  Al7  1  0.83858800  0.67717500  0.25000000  1
  Al  Al8  1  0.67717500  0.83858800  0.75000000  1
  Al  Al9  1  0.83858800  0.16141200  0.25000000  1
  Co  Co10  1  0.00000000  0.00000000  0.00000000  1
  Co  Co11  1  0.00000000  0.00000000  0.50000000  1
