# generated using pymatgen
data_K3SbTe3
_symmetry_space_group_name_H-M   'P 1'
_cell_length_a   10.58717000
_cell_length_b   10.58717000
_cell_length_c   10.58717000
_cell_angle_alpha   90.00000000
_cell_angle_beta   90.00000000
_cell_angle_gamma   90.00000000
_symmetry_Int_Tables_number   1
_chemical_formula_structural   K3SbTe3
_chemical_formula_sum   'K12 Sb4 Te12'
_cell_volume   1186.69649605
_cell_formula_units_Z   4
loop_
 _symmetry_equiv_pos_site_id
 _symmetry_equiv_pos_as_xyz
  1  'x, y, z'
loop_
 _atom_site_type_symbol
 _atom_site_label
 _atom_site_symmetry_multiplicity
 _atom_site_fract_x
 _atom_site_fract_y
 _atom_site_fract_z
 _atom_site_occupancy
  K  K0  1  0.58091200  0.58091200  0.58091200  1
  K  K1  1  0.91908800  0.41908800  0.08091200  1
  K  K2  1  0.08091200  0.91908800  0.41908800  1
  K  K3  1  0.41908800  0.08091200  0.91908800  1
  K  K4  1  0.32144400  0.32144400  0.32144400  1
  K  K5  1  0.17855600  0.67855600  0.82144400  1
  K  K6  1  0.82144400  0.17855600  0.67855600  1
  K  K7  1  0.67855600  0.82144400  0.17855600  1
  K  K8  1  0.81638200  0.81638200  0.81638200  1
  K  K9  1  0.68361800  0.18361800  0.31638200  1
  K  K10  1  0.31638200  0.68361800  0.18361800  1
  K  K11  1  0.18361800  0.31638200  0.68361800  1
  Sb  Sb12  1  0.02896900  0.02896900  0.02896900  1
  Sb  Sb13  1  0.47103100  0.97103100  0.52896900  1
  Sb  Sb14  1  0.52896900  0.47103100  0.97103100  1
  Sb  Sb15  1  0.97103100  0.52896900  0.47103100  1
  Te  Te16  1  0.22442200  0.60844700  0.49768400  1
  Te  Te17  1  0.49768400  0.22442200  0.60844700  1
  Te  Te18  1  0.60844700  0.49768400  0.22442200  1
  Te  Te19  1  0.89155300  0.50231600  0.72442200  1
  Te  Te20  1  0.99768400  0.27557800  0.39155300  1
  Te  Te21  1  0.39155300  0.99768400  0.27557800  1
  Te  Te22  1  0.00231600  0.77557800  0.10844700  1
  Te  Te23  1  0.50231600  0.72442200  0.89155300  1
  Te  Te24  1  0.10844700  0.00231600  0.77557800  1
  Te  Te25  1  0.72442200  0.89155300  0.50231600  1
  Te  Te26  1  0.77557800  0.10844700  0.00231600  1
  Te  Te27  1  0.27557800  0.39155300  0.99768400  1
