# generated using pymatgen
data_TmPO4
_symmetry_space_group_name_H-M   'P 1'
_cell_length_a   5.71330121
_cell_length_b   5.71330121
_cell_length_c   5.71330121
_cell_angle_alpha   105.97296229
_cell_angle_beta   105.97296229
_cell_angle_gamma   116.72011330
_symmetry_Int_Tables_number   1
_chemical_formula_structural   TmPO4
_chemical_formula_sum   'Tm2 P2 O8'
_cell_volume   141.81777397
_cell_formula_units_Z   2
loop_
 _symmetry_equiv_pos_site_id
 _symmetry_equiv_pos_as_xyz
  1  'x, y, z'
loop_
 _atom_site_type_symbol
 _atom_site_label
 _atom_site_symmetry_multiplicity
 _atom_site_fract_x
 _atom_site_fract_y
 _atom_site_fract_z
 _atom_site_occupancy
  Tm  Tm0  1  0.50000000  0.50000000  0.00000000  1
  Tm  Tm1  1  0.75000000  0.25000000  0.50000000  1
  P  P2  1  0.25000000  0.75000000  0.50000000  1
  P  P3  1  0.00000000  0.00000000  0.00000000  1
  O  O4  1  0.83736800  0.66152300  0.82415500  1
  O  O5  1  0.26321200  0.58736800  0.67584500  1
  O  O6  1  0.91152300  0.58736800  0.32415500  1
  O  O7  1  0.83736800  0.01321200  0.17584500  1
  O  O8  1  0.98678800  0.16263200  0.82415500  1
  O  O9  1  0.41263200  0.08847700  0.67584500  1
  O  O10  1  0.41263200  0.73678800  0.32415500  1
  O  O11  1  0.33847700  0.16263200  0.17584500  1
