# generated using pymatgen
data_Ba3LaRu2O9
_symmetry_space_group_name_H-M   'P 1'
_cell_length_a   6.01852701
_cell_length_b   6.01852701
_cell_length_c   15.08579300
_cell_angle_alpha   90.00000000
_cell_angle_beta   90.00000000
_cell_angle_gamma   119.99998913
_symmetry_Int_Tables_number   1
_chemical_formula_structural   Ba3LaRu2O9
_chemical_formula_sum   'Ba6 La2 Ru4 O18'
_cell_volume   473.23760906
_cell_formula_units_Z   2
loop_
 _symmetry_equiv_pos_site_id
 _symmetry_equiv_pos_as_xyz
  1  'x, y, z'
loop_
 _atom_site_type_symbol
 _atom_site_label
 _atom_site_symmetry_multiplicity
 _atom_site_fract_x
 _atom_site_fract_y
 _atom_site_fract_z
 _atom_site_occupancy
  Ba  Ba0  1  0.66666700  0.33333300  0.39448300  1
  Ba  Ba1  1  0.33333300  0.66666700  0.60551700  1
  Ba  Ba2  1  0.66666700  0.33333300  0.10551700  1
  Ba  Ba3  1  0.00000000  0.00000000  0.25000000  1
  Ba  Ba4  1  0.33333300  0.66666700  0.89448300  1
  Ba  Ba5  1  0.00000000  0.00000000  0.75000000  1
  La  La6  1  0.00000000  0.00000000  0.50000000  1
  La  La7  1  0.00000000  0.00000000  0.00000000  1
  Ru  Ru8  1  0.33333300  0.66666700  0.16717200  1
  Ru  Ru9  1  0.66666700  0.33333300  0.83282800  1
  Ru  Ru10  1  0.66666700  0.33333300  0.66717200  1
  Ru  Ru11  1  0.33333300  0.66666700  0.33282800  1
  O  O12  1  0.49093800  0.98187500  0.25000000  1
  O  O13  1  0.35737200  0.17868600  0.59426200  1
  O  O14  1  0.64262800  0.82131400  0.09426200  1
  O  O15  1  0.17868600  0.35737200  0.09426200  1
  O  O16  1  0.17868600  0.82131400  0.09426200  1
  O  O17  1  0.50906200  0.01812500  0.75000000  1
  O  O18  1  0.82131400  0.17868600  0.59426200  1
  O  O19  1  0.82131400  0.64262800  0.90573800  1
  O  O20  1  0.82131400  0.64262800  0.59426200  1
  O  O21  1  0.82131400  0.17868600  0.90573800  1
  O  O22  1  0.17868600  0.35737200  0.40573800  1
  O  O23  1  0.01812500  0.50906200  0.25000000  1
  O  O24  1  0.64262800  0.82131400  0.40573800  1
  O  O25  1  0.49093800  0.50906200  0.25000000  1
  O  O26  1  0.35737200  0.17868600  0.90573800  1
  O  O27  1  0.50906200  0.49093800  0.75000000  1
  O  O28  1  0.98187500  0.49093800  0.75000000  1
  O  O29  1  0.17868600  0.82131400  0.40573800  1
