# generated using pymatgen
data_Na2TeO3
_symmetry_space_group_name_H-M   'P 1'
_cell_length_a   10.39270200
_cell_length_b   5.01558600
_cell_length_c   6.96836433
_cell_angle_alpha   88.69973358
_cell_angle_beta   90.00000000
_cell_angle_gamma   90.00000000
_symmetry_Int_Tables_number   1
_chemical_formula_structural   Na2TeO3
_chemical_formula_sum   'Na8 Te4 O12'
_cell_volume   363.13587942
_cell_formula_units_Z   4
loop_
 _symmetry_equiv_pos_site_id
 _symmetry_equiv_pos_as_xyz
  1  'x, y, z'
loop_
 _atom_site_type_symbol
 _atom_site_label
 _atom_site_symmetry_multiplicity
 _atom_site_fract_x
 _atom_site_fract_y
 _atom_site_fract_z
 _atom_site_occupancy
  Na  Na0  1  0.41338500  0.75548200  0.14122900  1
  Na  Na1  1  0.91338500  0.24451800  0.35877100  1
  Na  Na2  1  0.58661500  0.24451800  0.85877100  1
  Na  Na3  1  0.08661500  0.75548200  0.64122900  1
  Na  Na4  1  0.24679300  0.25633900  0.40468900  1
  Na  Na5  1  0.74679300  0.74366100  0.09531100  1
  Na  Na6  1  0.75320700  0.74366100  0.59531100  1
  Na  Na7  1  0.25320700  0.25633900  0.90468900  1
  Te  Te8  1  0.08267800  0.73564700  0.16712300  1
  Te  Te9  1  0.58267800  0.26435300  0.33287700  1
  Te  Te10  1  0.91732200  0.26435300  0.83287700  1
  Te  Te11  1  0.41732200  0.73564700  0.66712300  1
  O  O12  1  0.21614700  0.77329100  0.35398600  1
  O  O13  1  0.71614700  0.22670900  0.14601400  1
  O  O14  1  0.78385300  0.22670900  0.64601400  1
  O  O15  1  0.28385300  0.77329100  0.85398600  1
  O  O16  1  0.43735200  0.24779300  0.16691200  1
  O  O17  1  0.93735200  0.75220700  0.33308800  1
  O  O18  1  0.56264800  0.75220700  0.83308800  1
  O  O19  1  0.06264800  0.24779300  0.66691200  1
  O  O20  1  0.09537200  0.35751400  0.14939600  1
  O  O21  1  0.59537200  0.64248600  0.35060400  1
  O  O22  1  0.90462800  0.64248600  0.85060400  1
  O  O23  1  0.40462800  0.35751400  0.64939600  1
