# generated using pymatgen
data_InAu3
_symmetry_space_group_name_H-M   'P 1'
_cell_length_a   4.83773500
_cell_length_b   5.40768000
_cell_length_c   5.84960000
_cell_angle_alpha   90.00000000
_cell_angle_beta   90.00000000
_cell_angle_gamma   90.00000000
_symmetry_Int_Tables_number   1
_chemical_formula_structural   InAu3
_chemical_formula_sum   'In2 Au6'
_cell_volume   153.03093404
_cell_formula_units_Z   2
loop_
 _symmetry_equiv_pos_site_id
 _symmetry_equiv_pos_as_xyz
  1  'x, y, z'
loop_
 _atom_site_type_symbol
 _atom_site_label
 _atom_site_symmetry_multiplicity
 _atom_site_fract_x
 _atom_site_fract_y
 _atom_site_fract_z
 _atom_site_occupancy
  In  In0  1  0.50000000  0.33221600  0.50000000  1
  In  In1  1  0.00000000  0.66778400  0.00000000  1
  Au  Au2  1  0.00000000  0.66649700  0.50000000  1
  Au  Au3  1  0.50000000  0.33350300  0.00000000  1
  Au  Au4  1  0.00000000  0.16650000  0.74820700  1
  Au  Au5  1  0.50000000  0.83350000  0.75179300  1
  Au  Au6  1  0.00000000  0.16650000  0.25179300  1
  Au  Au7  1  0.50000000  0.83350000  0.24820700  1
