# generated using pymatgen
data_La5(SiN3)3
_symmetry_space_group_name_H-M   'P 1'
_cell_length_a   7.84741796
_cell_length_b   7.84741796
_cell_length_c   16.08170000
_cell_angle_alpha   90.00000000
_cell_angle_beta   90.00000000
_cell_angle_gamma   93.78859771
_symmetry_Int_Tables_number   1
_chemical_formula_structural   La5(SiN3)3
_chemical_formula_sum   'La20 Si12 N36'
_cell_volume   988.17848643
_cell_formula_units_Z   4
loop_
 _symmetry_equiv_pos_site_id
 _symmetry_equiv_pos_as_xyz
  1  'x, y, z'
loop_
 _atom_site_type_symbol
 _atom_site_label
 _atom_site_symmetry_multiplicity
 _atom_site_fract_x
 _atom_site_fract_y
 _atom_site_fract_z
 _atom_site_occupancy
  La  La0  1  0.53480900  0.04633800  0.36931000  1
  La  La1  1  0.51924000  0.48076000  0.16213900  1
  La  La2  1  0.50315900  0.49684100  0.61372100  1
  La  La3  1  0.79223400  0.79223400  0.50000000  1
  La  La4  1  0.96519100  0.45366200  0.86931000  1
  La  La5  1  0.49684100  0.50315900  0.38627900  1
  La  La6  1  0.00315900  0.99684100  0.88627900  1
  La  La7  1  0.04633800  0.53480900  0.63069000  1
  La  La8  1  0.95366200  0.46519100  0.36931000  1
  La  La9  1  0.01924000  0.98076000  0.33786100  1
  La  La10  1  0.45366200  0.96519100  0.13069000  1
  La  La11  1  0.48076000  0.51924000  0.83786100  1
  La  La12  1  0.54633800  0.03480900  0.86931000  1
  La  La13  1  0.70776600  0.70776600  0.00000000  1
  La  La14  1  0.29223400  0.29223400  0.00000000  1
  La  La15  1  0.98076000  0.01924000  0.66213900  1
  La  La16  1  0.46519100  0.95366200  0.63069000  1
  La  La17  1  0.20776600  0.20776600  0.50000000  1
  La  La18  1  0.03480900  0.54633800  0.13069000  1
  La  La19  1  0.99684100  0.00315900  0.11372100  1
  Si  Si20  1  0.73802600  0.26197400  0.51705900  1
  Si  Si21  1  0.76197400  0.23802600  0.01705900  1
  Si  Si22  1  0.27877300  0.72122700  0.27380900  1
  Si  Si23  1  0.26197400  0.73802600  0.48294100  1
  Si  Si24  1  0.77877300  0.22122700  0.22619100  1
  Si  Si25  1  0.71618700  0.78381300  0.25000000  1
  Si  Si26  1  0.23802600  0.76197400  0.98294100  1
  Si  Si27  1  0.72122700  0.27877300  0.72619100  1
  Si  Si28  1  0.22122700  0.77877300  0.77380900  1
  Si  Si29  1  0.78381300  0.71618700  0.75000000  1
  Si  Si30  1  0.21618700  0.28381300  0.25000000  1
  Si  Si31  1  0.28381300  0.21618700  0.75000000  1
  N  N32  1  0.50434600  0.24642300  0.74258300  1
  N  N33  1  0.26939700  0.73060300  0.87593800  1
  N  N34  1  0.99565400  0.25357700  0.24258300  1
  N  N35  1  0.23060300  0.76939700  0.37593800  1
  N  N36  1  0.24642300  0.50434600  0.25741700  1
  N  N37  1  0.76939700  0.23060300  0.62406200  1
  N  N38  1  0.66296800  0.33703200  0.29470600  1
  N  N39  1  0.77509300  0.70028100  0.15428700  1
  N  N40  1  0.51519300  0.22206300  0.49966400  1
  N  N41  1  0.63576500  0.36423500  0.95488500  1
  N  N42  1  0.20028100  0.27509300  0.65428700  1
  N  N43  1  0.29971900  0.22490700  0.15428700  1
  N  N44  1  0.13576500  0.86423500  0.54511500  1
  N  N45  1  0.79971900  0.72490700  0.34571300  1
  N  N46  1  0.22490700  0.29971900  0.84571300  1
  N  N47  1  0.49565400  0.75357700  0.25741700  1
  N  N48  1  0.83703200  0.16296800  0.79470600  1
  N  N49  1  0.70028100  0.77509300  0.84571300  1
  N  N50  1  0.16296800  0.83703200  0.20529400  1
  N  N51  1  0.48480700  0.77793700  0.50033600  1
  N  N52  1  0.75357700  0.49565400  0.74258300  1
  N  N53  1  0.00434600  0.74642300  0.75741700  1
  N  N54  1  0.27509300  0.20028100  0.34571300  1
  N  N55  1  0.77793700  0.48480700  0.49966400  1
  N  N56  1  0.01519300  0.72206300  0.00033600  1
  N  N57  1  0.74642300  0.00434600  0.24258300  1
  N  N58  1  0.72206300  0.01519300  0.99966400  1
  N  N59  1  0.25357700  0.99565400  0.75741700  1
  N  N60  1  0.27793700  0.98480700  0.00033600  1
  N  N61  1  0.36423500  0.63576500  0.04511500  1
  N  N62  1  0.72490700  0.79971900  0.65428700  1
  N  N63  1  0.22206300  0.51519300  0.50033600  1
  N  N64  1  0.73060300  0.26939700  0.12406200  1
  N  N65  1  0.98480700  0.27793700  0.99966400  1
  N  N66  1  0.33703200  0.66296800  0.70529400  1
  N  N67  1  0.86423500  0.13576500  0.45488500  1
