# generated using pymatgen
data_Al6SnTe10
_symmetry_space_group_name_H-M   'P 1'
_cell_length_a   14.70977118
_cell_length_b   14.70977064
_cell_length_c   18.18705447
_cell_angle_alpha   90.00000000
_cell_angle_beta   90.00000000
_cell_angle_gamma   119.99999904
_symmetry_Int_Tables_number   1
_chemical_formula_structural   Al6SnTe10
_chemical_formula_sum   'Al36 Sn6 Te60'
_cell_volume   3408.04108502
_cell_formula_units_Z   6
loop_
 _symmetry_equiv_pos_site_id
 _symmetry_equiv_pos_as_xyz
  1  'x, y, z'
loop_
 _atom_site_type_symbol
 _atom_site_label
 _atom_site_symmetry_multiplicity
 _atom_site_fract_x
 _atom_site_fract_y
 _atom_site_fract_z
 _atom_site_occupancy
  Al  Al0  1  0.99060047  0.91768262  0.91939658  1
  Al  Al1  1  0.07291885  0.08231738  0.74727042  1
  Al  Al2  1  0.00939953  0.92708115  0.41393742  1
  Al  Al3  1  0.08231738  0.07291885  0.25272958  1
  Al  Al4  1  0.14141481  0.92258780  0.59667260  1
  Al  Al5  1  0.25795341  0.81079240  0.07411256  1
  Al  Al6  1  0.11684131  0.52336984  0.93325180  1
  Al  Al7  1  0.25599248  0.67797139  0.25026227  1
  Al  Al8  1  0.25486182  0.65894765  0.74813722  1
  Al  Al9  1  0.40652853  0.88315869  0.59991880  1
  Al  Al10  1  0.18920760  0.44716101  0.40744556  1
  Al  Al11  1  0.07741220  0.21882701  0.93000560  1
  Al  Al12  1  0.40408583  0.74513818  0.41480322  1
  Al  Al13  1  0.32202861  0.57802109  0.58359627  1
  Al  Al14  1  0.34105235  0.59591417  0.08147022  1
  Al  Al15  1  0.42197891  0.74400752  0.91692927  1
  Al  Al16  1  0.21882701  0.07741220  0.06999440  1
  Al  Al17  1  0.47663016  0.59347147  0.26658480  1
  Al  Al18  1  0.55283899  0.74204659  0.74077956  1
  Al  Al19  1  0.44716101  0.18920760  0.59255444  1
  Al  Al20  1  0.78117299  0.85858519  0.26333860  1
  Al  Al21  1  0.59347147  0.47663016  0.73341520  1
  Al  Al22  1  0.57802109  0.32202861  0.41640373  1
  Al  Al23  1  0.59591417  0.34105235  0.91852978  1
  Al  Al24  1  0.52336984  0.11684131  0.06674820  1
  Al  Al25  1  0.74204659  0.55283899  0.25922044  1
  Al  Al26  1  0.85858519  0.78117299  0.73666140  1
  Al  Al27  1  0.65894765  0.25486182  0.25186278  1
  Al  Al28  1  0.74400752  0.42197891  0.08307073  1
  Al  Al29  1  0.74513818  0.40408583  0.58519678  1
  Al  Al30  1  0.67797139  0.25599248  0.74973773  1
  Al  Al31  1  0.88315869  0.40652853  0.40008120  1
  Al  Al32  1  0.81079240  0.25795341  0.92588744  1
  Al  Al33  1  0.92258780  0.14141481  0.40332740  1
  Al  Al34  1  0.92708115  0.00939953  0.58606258  1
  Al  Al35  1  0.91768262  0.99060047  0.08060342  1
  Sn  Sn36  1  0.08787511  0.74126772  0.84277302  1
  Sn  Sn37  1  0.25873228  0.34660739  0.17610602  1
  Sn  Sn38  1  0.65339261  0.91212489  0.50944002  1
  Sn  Sn39  1  0.34660739  0.25873228  0.82389398  1
  Sn  Sn40  1  0.91212489  0.65339261  0.49055998  1
  Sn  Sn41  1  0.74126772  0.08787511  0.15722698  1
  Te  Te42  1  0.15661023  0.00000000  0.83333300  1
  Te  Te43  1  0.03396820  0.89887101  0.06105250  1
  Te  Te44  1  0.24926368  0.24926368  -0.00000000  1
  Te  Te45  1  0.00000000  0.75073632  0.66666700  1
  Te  Te46  1  0.14600531  0.87231404  0.45787496  1
  Te  Te47  1  0.08631405  0.66418339  0.00392855  1
  Te  Te48  1  0.06331609  0.52339679  0.79411445  1
  Te  Te49  1  0.21422012  0.82265400  0.21075770  1
  Te  Te50  1  0.33130075  0.99933627  0.00568027  1
  Te  Te51  1  0.00066373  0.33196548  0.33901327  1
  Te  Te52  1  0.19692910  0.63215940  0.39283386  1
  Te  Te53  1  0.23191438  0.69761392  0.60633150  1
  Te  Te54  1  0.17266700  0.51182648  0.16413386  1
  Te  Te55  1  1.00000000  0.15661023  0.16666700  1
  Te  Te56  1  0.33915947  0.82733300  0.83080086  1
  Te  Te57  1  0.17734600  0.39156512  0.54409170  1
  Te  Te58  1  0.46008070  0.93668391  0.46078145  1
  Te  Te59  1  0.12768596  0.27369127  0.79120796  1
  Te  Te60  1  0.43523030  0.80307090  0.05950086  1
  Te  Te61  1  0.10112899  0.13509819  0.39438550  1
  Te  Te62  1  0.30238608  0.53430047  0.93966450  1
  Te  Te63  1  0.46569953  0.76808562  0.27299750  1
  Te  Te64  1  0.13509819  0.10112899  0.60561450  1
  Te  Te65  1  0.36784060  0.56476970  0.72616786  1
  Te  Te66  1  0.57786934  0.91368595  0.67059555  1
  Te  Te67  1  0.33581661  0.42213066  0.33726155  1
  Te  Te68  1  0.48817352  0.66084053  0.49746786  1
  Te  Te69  1  0.47660321  0.53991930  0.12744745  1
  Te  Te70  1  0.27369127  0.12768596  0.20879204  1
  Te  Te71  1  0.60843488  0.78577988  0.87742470  1
  Te  Te72  1  0.42213066  0.33581661  0.66273845  1
  Te  Te73  1  0.72630873  0.85399469  0.12454096  1
  Te  Te74  1  0.53991930  0.47660321  0.87255255  1
  Te  Te75  1  0.39156512  0.17734600  0.45590830  1
  Te  Te76  1  0.33196548  0.00066373  0.66098673  1
  Te  Te77  1  0.66803452  0.66869925  0.67234727  1
  Te  Te78  1  0.66869925  0.66803452  0.32765273  1
  Te  Te79  1  0.56476970  0.36784060  0.27383214  1
  Te  Te80  1  0.86490181  0.96603180  0.72771950  1
  Te  Te81  1  0.53430047  0.30238608  0.06033550  1
  Te  Te82  1  0.66084053  0.48817352  0.50253214  1
  Te  Te83  1  0.51182648  0.17266700  0.83586614  1
  Te  Te84  1  0.78577988  0.60843488  0.12257530  1
  Te  Te85  1  0.52339679  0.06331609  0.20588555  1
  Te  Te86  1  0.85399469  0.72630873  0.87545904  1
  Te  Te87  1  0.63215940  0.19692910  0.60716614  1
  Te  Te88  1  0.96603180  0.86490181  0.27228050  1
  Te  Te89  1  0.76808562  0.46569953  0.72700250  1
  Te  Te90  1  0.69761392  0.23191438  0.39366850  1
  Te  Te91  1  0.80307090  0.43523030  0.94049914  1
  Te  Te92  1  0.66418339  0.08631405  0.99607145  1
  Te  Te93  1  0.91368595  0.57786934  0.32940445  1
  Te  Te94  1  0.82733300  0.33915947  0.16919914  1
  Te  Te95  1  0.93668391  0.46008070  0.53921855  1
  Te  Te96  1  0.82265400  0.21422012  0.78924230  1
  Te  Te97  1  0.75073632  1.00000000  0.33333300  1
  Te  Te98  1  0.87231404  0.14600531  0.54212504  1
  Te  Te99  1  0.99933627  0.33130075  0.99431973  1
  Te  Te100  1  0.89887101  0.03396820  0.93894750  1
  Te  Te101  1  0.84338977  0.84338977  0.50000000  1
