# generated using pymatgen
data_Zn(GaNi)3
_symmetry_space_group_name_H-M   'P 1'
_cell_length_a   9.92619785
_cell_length_b   9.92619785
_cell_length_c   9.92619785
_cell_angle_alpha   109.47122063
_cell_angle_beta   109.47122063
_cell_angle_gamma   109.47122063
_symmetry_Int_Tables_number   1
_chemical_formula_structural   Zn(GaNi)3
_chemical_formula_sum   'Zn8 Ga24 Ni24'
_cell_volume   752.88196019
_cell_formula_units_Z   8
loop_
 _symmetry_equiv_pos_site_id
 _symmetry_equiv_pos_as_xyz
  1  'x, y, z'
loop_
 _atom_site_type_symbol
 _atom_site_label
 _atom_site_symmetry_multiplicity
 _atom_site_fract_x
 _atom_site_fract_y
 _atom_site_fract_z
 _atom_site_occupancy
  Zn  Zn0  1  0.00000000  0.50000000  0.50000000  1
  Zn  Zn1  1  0.50000000  0.50000000  0.50000000  1
  Zn  Zn2  1  0.00000000  0.00000000  0.50000000  1
  Zn  Zn3  1  0.50000000  0.50000000  0.00000000  1
  Zn  Zn4  1  0.50000000  0.00000000  0.50000000  1
  Zn  Zn5  1  0.00000000  0.50000000  0.00000000  1
  Zn  Zn6  1  0.50000000  0.00000000  0.00000000  1
  Zn  Zn7  1  0.00000000  0.00000000  0.00000000  1
  Ga  Ga8  1  0.75000000  0.51133300  0.76133300  1
  Ga  Ga9  1  0.75000000  0.23866700  0.48866700  1
  Ga  Ga10  1  0.76133300  0.75000000  0.51133300  1
  Ga  Ga11  1  0.51133300  0.25000000  0.76133300  1
  Ga  Ga12  1  0.01133300  0.25000000  0.26133300  1
  Ga  Ga13  1  0.73866700  0.98866700  0.75000000  1
  Ga  Ga14  1  0.51133300  0.76133300  0.75000000  1
  Ga  Ga15  1  0.23866700  0.25000000  0.48866700  1
  Ga  Ga16  1  0.01133300  0.26133300  0.75000000  1
  Ga  Ga17  1  0.25000000  0.76133300  0.51133300  1
  Ga  Ga18  1  0.98866700  0.73866700  0.25000000  1
  Ga  Ga19  1  0.23866700  0.48866700  0.75000000  1
  Ga  Ga20  1  0.25000000  0.26133300  0.01133300  1
  Ga  Ga21  1  0.26133300  0.75000000  0.01133300  1
  Ga  Ga22  1  0.48866700  0.75000000  0.23866700  1
  Ga  Ga23  1  0.76133300  0.51133300  0.25000000  1
  Ga  Ga24  1  0.75000000  0.73866700  0.98866700  1
  Ga  Ga25  1  0.75000000  0.01133300  0.26133300  1
  Ga  Ga26  1  0.25000000  0.98866700  0.73866700  1
  Ga  Ga27  1  0.26133300  0.01133300  0.25000000  1
  Ga  Ga28  1  0.98866700  0.75000000  0.73866700  1
  Ga  Ga29  1  0.25000000  0.48866700  0.23866700  1
  Ga  Ga30  1  0.73866700  0.25000000  0.98866700  1
  Ga  Ga31  1  0.48866700  0.23866700  0.25000000  1
  Ni  Ni32  1  0.00799000  0.01597900  0.75799000  1
  Ni  Ni33  1  0.50799000  0.75000000  0.99201000  1
  Ni  Ni34  1  0.01597900  0.75799000  0.00799000  1
  Ni  Ni35  1  0.24201000  0.99201000  0.98402100  1
  Ni  Ni36  1  0.75000000  0.99201000  0.50799000  1
  Ni  Ni37  1  0.25000000  0.74201000  0.75799000  1
  Ni  Ni38  1  0.75799000  0.00799000  0.01597900  1
  Ni  Ni39  1  0.74201000  0.75799000  0.25000000  1
  Ni  Ni40  1  0.98402100  0.24201000  0.99201000  1
  Ni  Ni41  1  0.75000000  0.25799000  0.24201000  1
  Ni  Ni42  1  0.00799000  0.49201000  0.25000000  1
  Ni  Ni43  1  0.49201000  0.25000000  0.00799000  1
  Ni  Ni44  1  0.99201000  0.98402100  0.24201000  1
  Ni  Ni45  1  0.25799000  0.51597900  0.50799000  1
  Ni  Ni46  1  0.50799000  0.25799000  0.51597900  1
  Ni  Ni47  1  0.24201000  0.75000000  0.25799000  1
  Ni  Ni48  1  0.51597900  0.50799000  0.25799000  1
  Ni  Ni49  1  0.49201000  0.74201000  0.48402100  1
  Ni  Ni50  1  0.99201000  0.50799000  0.75000000  1
  Ni  Ni51  1  0.75799000  0.25000000  0.74201000  1
  Ni  Ni52  1  0.25799000  0.24201000  0.75000000  1
  Ni  Ni53  1  0.48402100  0.49201000  0.74201000  1
  Ni  Ni54  1  0.25000000  0.00799000  0.49201000  1
  Ni  Ni55  1  0.74201000  0.48402100  0.49201000  1
