# generated using pymatgen
data_Sr3Al2Cl2O5
_symmetry_space_group_name_H-M   'P 1'
_cell_length_a   9.49874200
_cell_length_b   9.51416000
_cell_length_c   9.51885100
_cell_angle_alpha   90.00000000
_cell_angle_beta   90.00000000
_cell_angle_gamma   90.00000000
_symmetry_Int_Tables_number   1
_chemical_formula_structural   Sr3Al2Cl2O5
_chemical_formula_sum   'Sr12 Al8 Cl8 O20'
_cell_volume   860.24284924
_cell_formula_units_Z   4
loop_
 _symmetry_equiv_pos_site_id
 _symmetry_equiv_pos_as_xyz
  1  'x, y, z'
loop_
 _atom_site_type_symbol
 _atom_site_label
 _atom_site_symmetry_multiplicity
 _atom_site_fract_x
 _atom_site_fract_y
 _atom_site_fract_z
 _atom_site_occupancy
  Sr  Sr0  1  0.99203900  0.75148000  0.08888600  1
  Sr  Sr1  1  0.58776600  0.48733100  0.24165300  1
  Sr  Sr2  1  0.75977000  0.91083100  0.49943100  1
  Sr  Sr3  1  0.25977000  0.58916900  0.50056900  1
  Sr  Sr4  1  0.74023000  0.08916900  0.99943100  1
  Sr  Sr5  1  0.24023000  0.41083100  0.00056900  1
  Sr  Sr6  1  0.49203900  0.74852000  0.91111400  1
  Sr  Sr7  1  0.91223400  0.51266900  0.74165300  1
  Sr  Sr8  1  0.50796100  0.24852000  0.58888600  1
  Sr  Sr9  1  0.00796100  0.25148000  0.41111400  1
  Sr  Sr10  1  0.08776600  0.01266900  0.75834700  1
  Sr  Sr11  1  0.41223400  0.98733100  0.25834700  1
  Al  Al12  1  0.59403900  0.40083600  0.90263800  1
  Al  Al13  1  0.39947500  0.09491100  0.90278100  1
  Al  Al14  1  0.60052500  0.59491100  0.59721900  1
  Al  Al15  1  0.40596100  0.90083600  0.59736200  1
  Al  Al16  1  0.10052500  0.90508900  0.40278100  1
  Al  Al17  1  0.89947500  0.40508900  0.09721900  1
  Al  Al18  1  0.90596100  0.59916400  0.40263800  1
  Al  Al19  1  0.09403900  0.09916400  0.09736200  1
  Cl  Cl20  1  0.68239600  0.79752500  0.19785800  1
  Cl  Cl21  1  0.31760400  0.29752500  0.30214200  1
  Cl  Cl22  1  0.29570600  0.68462800  0.18978700  1
  Cl  Cl23  1  0.18239600  0.70247500  0.80214200  1
  Cl  Cl24  1  0.70429400  0.18462800  0.31021300  1
  Cl  Cl25  1  0.79570600  0.81537200  0.81021300  1
  Cl  Cl26  1  0.20429400  0.31537200  0.68978700  1
  Cl  Cl27  1  0.81760400  0.20247500  0.69785800  1
  O  O28  1  0.49420800  0.74211300  0.64424800  1
  O  O29  1  0.00008300  0.01175200  0.51431600  1
  O  O30  1  0.00579200  0.25788700  0.14424800  1
  O  O31  1  0.85488800  0.50344400  0.25046800  1
  O  O32  1  0.73941400  0.35564400  0.01294000  1
  O  O33  1  0.99991700  0.51175200  0.98568400  1
  O  O34  1  0.50008300  0.48824800  0.48568400  1
  O  O35  1  0.35488800  0.99655600  0.74953200  1
  O  O36  1  0.26058600  0.85564400  0.48706000  1
  O  O37  1  0.99420800  0.75788700  0.35575200  1
  O  O38  1  0.23941400  0.14435600  0.98706000  1
  O  O39  1  0.14511200  0.00344400  0.24953200  1
  O  O40  1  0.51830400  0.00654400  0.49687500  1
  O  O41  1  0.50579200  0.24211300  0.85575200  1
  O  O42  1  0.98169600  0.99345600  0.99687500  1
  O  O43  1  0.48169600  0.50654400  0.00312500  1
  O  O44  1  0.76058600  0.64435600  0.51294000  1
  O  O45  1  0.64511200  0.49655600  0.75046800  1
  O  O46  1  0.49991700  0.98824800  0.01431600  1
  O  O47  1  0.01830400  0.49345600  0.50312500  1
