# generated using pymatgen
data_Tl2Te
_symmetry_space_group_name_H-M   'P 1'
_cell_length_a   9.33611043
_cell_length_b   9.33611043
_cell_length_c   32.06625685
_cell_angle_alpha   81.91211766
_cell_angle_beta   81.91211766
_cell_angle_gamma   58.84657237
_symmetry_Int_Tables_number   1
_chemical_formula_structural   Tl2Te
_chemical_formula_sum   'Tl44 Te22'
_cell_volume   2360.50083278
_cell_formula_units_Z   22
loop_
 _symmetry_equiv_pos_site_id
 _symmetry_equiv_pos_as_xyz
  1  'x, y, z'
loop_
 _atom_site_type_symbol
 _atom_site_label
 _atom_site_symmetry_multiplicity
 _atom_site_fract_x
 _atom_site_fract_y
 _atom_site_fract_z
 _atom_site_occupancy
  Tl  Tl0  1  0.40345000  0.20574600  0.31182000  1
  Tl  Tl1  1  0.20574600  0.40345000  0.81182000  1
  Tl  Tl2  1  0.48248100  0.68106100  0.41363000  1
  Tl  Tl3  1  0.00802900  0.83417500  0.42858900  1
  Tl  Tl4  1  0.71777700  0.19689200  0.80957500  1
  Tl  Tl5  1  0.52621700  0.05595800  0.43523700  1
  Tl  Tl6  1  0.56194600  0.71025700  0.00170600  1
  Tl  Tl7  1  0.16953600  0.04570200  0.75944700  1
  Tl  Tl8  1  0.04570200  0.16953600  0.25944700  1
  Tl  Tl9  1  0.79425400  0.59655000  0.18818000  1
  Tl  Tl10  1  0.51767900  0.03452700  0.12293700  1
  Tl  Tl11  1  0.99197100  0.16582500  0.57141100  1
  Tl  Tl12  1  0.94404200  0.47378300  0.06476300  1
  Tl  Tl13  1  0.19689200  0.71777700  0.30957500  1
  Tl  Tl14  1  0.73443400  0.25486100  0.14468400  1
  Tl  Tl15  1  0.83417500  0.00802900  0.92858900  1
  Tl  Tl16  1  0.39299300  0.30783800  0.69726400  1
  Tl  Tl17  1  0.30783800  0.39299300  0.19726400  1
  Tl  Tl18  1  0.48232100  0.96547300  0.87706300  1
  Tl  Tl19  1  0.26556600  0.74513900  0.85531600  1
  Tl  Tl20  1  0.95429800  0.83046400  0.74055300  1
  Tl  Tl21  1  0.05595800  0.52621700  0.93523700  1
  Tl  Tl22  1  0.60700700  0.69216200  0.30273600  1
  Tl  Tl23  1  0.43805400  0.28974300  0.99829400  1
  Tl  Tl24  1  0.10623600  0.15477800  0.46287700  1
  Tl  Tl25  1  0.51751900  0.31893900  0.58637000  1
  Tl  Tl26  1  0.28222300  0.80310800  0.19042500  1
  Tl  Tl27  1  0.84522200  0.89376400  0.03712300  1
  Tl  Tl28  1  0.16582500  0.99197100  0.07141100  1
  Tl  Tl29  1  0.25486100  0.73443400  0.64468400  1
  Tl  Tl30  1  0.69216200  0.60700700  0.80273600  1
  Tl  Tl31  1  0.47378300  0.94404200  0.56476300  1
  Tl  Tl32  1  0.74513900  0.26556600  0.35531600  1
  Tl  Tl33  1  0.15477800  0.10623600  0.96287700  1
  Tl  Tl34  1  0.96547300  0.48232100  0.37706300  1
  Tl  Tl35  1  0.68106100  0.48248100  0.91363000  1
  Tl  Tl36  1  0.31893900  0.51751900  0.08637000  1
  Tl  Tl37  1  0.80310800  0.28222300  0.69042500  1
  Tl  Tl38  1  0.28974300  0.43805400  0.49829400  1
  Tl  Tl39  1  0.71025700  0.56194600  0.50170600  1
  Tl  Tl40  1  0.59655000  0.79425400  0.68818000  1
  Tl  Tl41  1  0.89376400  0.84522200  0.53712300  1
  Tl  Tl42  1  0.83046400  0.95429800  0.24055300  1
  Tl  Tl43  1  0.03452700  0.51767900  0.62293700  1
  Te  Te44  1  0.77364600  0.90691400  0.35195700  1
  Te  Te45  1  0.09308600  0.22635400  0.14804300  1
  Te  Te46  1  0.98113500  0.48158100  0.72629700  1
  Te  Te47  1  0.90691400  0.77364600  0.85195700  1
  Te  Te48  1  0.22635400  0.09308600  0.64804300  1
  Te  Te49  1  0.32117100  0.45313100  0.39475000  1
  Te  Te50  1  0.39674800  0.60325200  0.75000000  1
  Te  Te51  1  0.01907800  0.18583500  0.87085500  1
  Te  Te52  1  0.21976900  0.71159400  0.98463300  1
  Te  Te53  1  0.54686900  0.67882900  0.10525000  1
  Te  Te54  1  0.71159400  0.21976900  0.48463300  1
  Te  Te55  1  0.81416500  0.98092200  0.62914500  1
  Te  Te56  1  0.60325200  0.39674800  0.25000000  1
  Te  Te57  1  0.51841900  0.01886500  0.77370300  1
  Te  Te58  1  0.45313100  0.32117100  0.89475000  1
  Te  Te59  1  0.98092200  0.81416500  0.12914500  1
  Te  Te60  1  0.78023100  0.28840600  0.01536700  1
  Te  Te61  1  0.67882900  0.54686900  0.60525000  1
  Te  Te62  1  0.18583500  0.01907800  0.37085500  1
  Te  Te63  1  0.01886500  0.51841900  0.27370300  1
  Te  Te64  1  0.28840600  0.78023100  0.51536700  1
  Te  Te65  1  0.48158100  0.98113500  0.22629700  1
