# generated using pymatgen
data_KNaZnP2O7
_symmetry_space_group_name_H-M   'P 1'
_cell_length_a   7.37343200
_cell_length_b   7.54654200
_cell_length_c   14.83924816
_cell_angle_alpha   59.39095576
_cell_angle_beta   90.00000000
_cell_angle_gamma   90.00000000
_symmetry_Int_Tables_number   1
_chemical_formula_structural   KNaZnP2O7
_chemical_formula_sum   'K4 Na4 Zn4 P8 O28'
_cell_volume   710.66025749
_cell_formula_units_Z   4
loop_
 _symmetry_equiv_pos_site_id
 _symmetry_equiv_pos_as_xyz
  1  'x, y, z'
loop_
 _atom_site_type_symbol
 _atom_site_label
 _atom_site_symmetry_multiplicity
 _atom_site_fract_x
 _atom_site_fract_y
 _atom_site_fract_z
 _atom_site_occupancy
  K  K0  1  0.79262300  0.79711200  0.60296300  1
  K  K1  1  0.70737700  0.79711200  0.10296300  1
  K  K2  1  0.20737700  0.20288800  0.39703700  1
  K  K3  1  0.29262300  0.20288800  0.89703700  1
  Na  Na4  1  0.52320300  0.74019800  0.88758300  1
  Na  Na5  1  0.02320300  0.25980200  0.61241700  1
  Na  Na6  1  0.47679700  0.25980200  0.11241700  1
  Na  Na7  1  0.97679700  0.74019800  0.38758300  1
  Zn  Zn8  1  0.51974900  0.20931300  0.62121100  1
  Zn  Zn9  1  0.48025100  0.79068700  0.37878900  1
  Zn  Zn10  1  0.98025100  0.20931300  0.12121100  1
  Zn  Zn11  1  0.01974900  0.79068700  0.87878900  1
  P  P12  1  0.71447700  0.42425200  0.40097600  1
  P  P13  1  0.78552300  0.42425200  0.90097600  1
  P  P14  1  0.78136500  0.17801300  0.79722000  1
  P  P15  1  0.71863500  0.17801300  0.29722000  1
  P  P16  1  0.21447700  0.57574800  0.09902400  1
  P  P17  1  0.28552300  0.57574800  0.59902400  1
  P  P18  1  0.21863500  0.82198700  0.20278000  1
  P  P19  1  0.28136500  0.82198700  0.70278000  1
  O  O20  1  0.47660900  0.91018500  0.68234400  1
  O  O21  1  0.09785600  0.63407600  0.55137800  1
  O  O22  1  0.90214400  0.36592400  0.44862200  1
  O  O23  1  0.81682400  0.65925000  0.84923800  1
  O  O24  1  0.40214400  0.63407600  0.05137800  1
  O  O25  1  0.55608000  0.29712600  0.47273400  1
  O  O26  1  0.68317600  0.65925000  0.34923800  1
  O  O27  1  0.59785600  0.36592400  0.94862200  1
  O  O28  1  0.18317600  0.34075000  0.15076200  1
  O  O29  1  0.52339100  0.08981500  0.31765600  1
  O  O30  1  0.44392000  0.70287400  0.52726600  1
  O  O31  1  0.26303700  0.73990600  0.31931700  1
  O  O32  1  0.35953300  0.96168200  0.12480900  1
  O  O33  1  0.05608000  0.70287400  0.02726600  1
  O  O34  1  0.29668500  0.60801400  0.70006200  1
  O  O35  1  0.73696300  0.26009400  0.68068300  1
  O  O36  1  0.94392000  0.29712600  0.97273400  1
  O  O37  1  0.23696300  0.73990600  0.81931700  1
  O  O38  1  0.76303700  0.26009400  0.18068300  1
  O  O39  1  0.70331500  0.39198600  0.29993800  1
  O  O40  1  0.14046700  0.96168200  0.62480900  1
  O  O41  1  0.85953300  0.03831800  0.37519100  1
  O  O42  1  0.97660900  0.08981500  0.81765600  1
  O  O43  1  0.64046700  0.03831800  0.87519100  1
  O  O44  1  0.02339100  0.91018500  0.18234400  1
  O  O45  1  0.31682400  0.34075000  0.65076200  1
  O  O46  1  0.79668500  0.39198600  0.79993800  1
  O  O47  1  0.20331500  0.60801400  0.20006200  1
