# generated using pymatgen
data_TcBi3O8
_symmetry_space_group_name_H-M   'P 1'
_cell_length_a   11.72075700
_cell_length_b   11.72075700
_cell_length_c   11.72075700
_cell_angle_alpha   90.00000000
_cell_angle_beta   90.00000000
_cell_angle_gamma   90.00000000
_symmetry_Int_Tables_number   1
_chemical_formula_structural   TcBi3O8
_chemical_formula_sum   'Tc8 Bi24 O64'
_cell_volume   1610.15240908
_cell_formula_units_Z   8
loop_
 _symmetry_equiv_pos_site_id
 _symmetry_equiv_pos_as_xyz
  1  'x, y, z'
loop_
 _atom_site_type_symbol
 _atom_site_label
 _atom_site_symmetry_multiplicity
 _atom_site_fract_x
 _atom_site_fract_y
 _atom_site_fract_z
 _atom_site_occupancy
  Tc  Tc0  1  0.11365300  0.88634700  0.38634700  1
  Tc  Tc1  1  0.88634700  0.38634700  0.11365300  1
  Tc  Tc2  1  0.11910400  0.11910400  0.11910400  1
  Tc  Tc3  1  0.88089600  0.61910400  0.38089600  1
  Tc  Tc4  1  0.38634700  0.11365300  0.88634700  1
  Tc  Tc5  1  0.61365300  0.61365300  0.61365300  1
  Tc  Tc6  1  0.61910400  0.38089600  0.88089600  1
  Tc  Tc7  1  0.38089600  0.88089600  0.61910400  1
  Bi  Bi8  1  0.35296200  0.64166600  0.88842400  1
  Bi  Bi9  1  0.15358400  0.63483100  0.11616900  1
  Bi  Bi10  1  0.13483100  0.38383100  0.84641600  1
  Bi  Bi11  1  0.38383100  0.84641600  0.13483100  1
  Bi  Bi12  1  0.85833400  0.11157600  0.85296200  1
  Bi  Bi13  1  0.85296200  0.85833400  0.11157600  1
  Bi  Bi14  1  0.65358400  0.86516900  0.88383100  1
  Bi  Bi15  1  0.86516900  0.88383100  0.65358400  1
  Bi  Bi16  1  0.11616900  0.15358400  0.63483100  1
  Bi  Bi17  1  0.61157600  0.64703800  0.14166600  1
  Bi  Bi18  1  0.14166600  0.61157600  0.64703800  1
  Bi  Bi19  1  0.34641600  0.36516900  0.61616900  1
  Bi  Bi20  1  0.38842400  0.14703800  0.35833400  1
  Bi  Bi21  1  0.35833400  0.38842400  0.14703800  1
  Bi  Bi22  1  0.61616900  0.34641600  0.36516900  1
  Bi  Bi23  1  0.63483100  0.11616900  0.15358400  1
  Bi  Bi24  1  0.11157600  0.85296200  0.85833400  1
  Bi  Bi25  1  0.84641600  0.13483100  0.38383100  1
  Bi  Bi26  1  0.14703800  0.35833400  0.38842400  1
  Bi  Bi27  1  0.88842400  0.35296200  0.64166600  1
  Bi  Bi28  1  0.36516900  0.61616900  0.34641600  1
  Bi  Bi29  1  0.88383100  0.65358400  0.86516900  1
  Bi  Bi30  1  0.64166600  0.88842400  0.35296200  1
  Bi  Bi31  1  0.64703800  0.14166600  0.61157600  1
  O  O32  1  0.46724400  0.96724400  0.53275600  1
  O  O33  1  0.77213700  0.77213700  0.77213700  1
  O  O34  1  0.23002200  0.50255700  0.24385900  1
  O  O35  1  0.26997800  0.49744300  0.74385900  1
  O  O36  1  0.12042400  0.74997500  0.44443200  1
  O  O37  1  0.22786300  0.27213700  0.72786300  1
  O  O38  1  0.25048500  0.05336200  0.14273500  1
  O  O39  1  0.72786300  0.22786300  0.27213700  1
  O  O40  1  0.76997800  0.00255700  0.25614100  1
  O  O41  1  0.24108200  0.47086300  0.50320100  1
  O  O42  1  0.52913700  0.00320100  0.25891800  1
  O  O43  1  0.24951500  0.94663800  0.64273500  1
  O  O44  1  0.53275600  0.46724400  0.96724400  1
  O  O45  1  0.78425800  0.21574200  0.71574200  1
  O  O46  1  0.24997500  0.05556800  0.87957600  1
  O  O47  1  0.74108200  0.02913700  0.49679900  1
  O  O48  1  0.35726500  0.74951500  0.55336200  1
  O  O49  1  0.55336200  0.35726500  0.74951500  1
  O  O50  1  0.75614100  0.73002200  0.99744300  1
  O  O51  1  0.47318200  0.02681800  0.97318200  1
  O  O52  1  0.28425800  0.28425800  0.28425800  1
  O  O53  1  0.49679900  0.74108200  0.02913700  1
  O  O54  1  0.75891800  0.97086300  0.99679900  1
  O  O55  1  0.73002200  0.99744300  0.75614100  1
  O  O56  1  0.03275600  0.03275600  0.03275600  1
  O  O57  1  0.21574200  0.71574200  0.78425800  1
  O  O58  1  0.25891800  0.52913700  0.00320100  1
  O  O59  1  0.85726500  0.75048500  0.44663800  1
  O  O60  1  0.94443200  0.37957600  0.25002500  1
  O  O61  1  0.52681800  0.52681800  0.52681800  1
  O  O62  1  0.24385900  0.23002200  0.50255700  1
  O  O63  1  0.44443200  0.12042400  0.74997500  1
  O  O64  1  0.99679900  0.75891800  0.97086300  1
  O  O65  1  0.97086300  0.99679900  0.75891800  1
  O  O66  1  0.02913700  0.49679900  0.74108200  1
  O  O67  1  0.37957600  0.25002500  0.94443200  1
  O  O68  1  0.00255700  0.25614100  0.76997800  1
  O  O69  1  0.62042400  0.75002500  0.55556800  1
  O  O70  1  0.94663800  0.64273500  0.24951500  1
  O  O71  1  0.74951500  0.55336200  0.35726500  1
  O  O72  1  0.05556800  0.87957600  0.24997500  1
  O  O73  1  0.55556800  0.62042400  0.75002500  1
  O  O74  1  0.71574200  0.78425800  0.21574200  1
  O  O75  1  0.75048500  0.44663800  0.85726500  1
  O  O76  1  0.74997500  0.44443200  0.12042400  1
  O  O77  1  0.25614100  0.76997800  0.00255700  1
  O  O78  1  0.87957600  0.24997500  0.05556800  1
  O  O79  1  0.99744300  0.75614100  0.73002200  1
  O  O80  1  0.02681800  0.97318200  0.47318200  1
  O  O81  1  0.97318200  0.47318200  0.02681800  1
  O  O82  1  0.44663800  0.85726500  0.75048500  1
  O  O83  1  0.27213700  0.72786300  0.22786300  1
  O  O84  1  0.25002500  0.94443200  0.37957600  1
  O  O85  1  0.49744300  0.74385900  0.26997800  1
  O  O86  1  0.75002500  0.55556800  0.62042400  1
  O  O87  1  0.96724400  0.53275600  0.46724400  1
  O  O88  1  0.14273500  0.25048500  0.05336200  1
  O  O89  1  0.64273500  0.24951500  0.94663800  1
  O  O90  1  0.47086300  0.50320100  0.24108200  1
  O  O91  1  0.50255700  0.24385900  0.23002200  1
  O  O92  1  0.74385900  0.26997800  0.49744300  1
  O  O93  1  0.00320100  0.25891800  0.52913700  1
  O  O94  1  0.50320100  0.24108200  0.47086300  1
  O  O95  1  0.05336200  0.14273500  0.25048500  1
