# generated using pymatgen
data_KBaB5O9
_symmetry_space_group_name_H-M   'P 1'
_cell_length_a   8.50327600
_cell_length_b   6.79400900
_cell_length_c   14.50371115
_cell_angle_alpha   87.00511328
_cell_angle_beta   90.00000000
_cell_angle_gamma   90.00000000
_symmetry_Int_Tables_number   1
_chemical_formula_structural   KBaB5O9
_chemical_formula_sum   'K4 Ba4 B20 O36'
_cell_volume   836.75433534
_cell_formula_units_Z   4
loop_
 _symmetry_equiv_pos_site_id
 _symmetry_equiv_pos_as_xyz
  1  'x, y, z'
loop_
 _atom_site_type_symbol
 _atom_site_label
 _atom_site_symmetry_multiplicity
 _atom_site_fract_x
 _atom_site_fract_y
 _atom_site_fract_z
 _atom_site_occupancy
  K  K0  1  0.85372500  0.50955600  0.59593300  1
  K  K1  1  0.35372500  0.49044400  0.90406700  1
  K  K2  1  0.14627500  0.49044400  0.40406700  1
  K  K3  1  0.64627500  0.50955600  0.09593300  1
  Ba  Ba4  1  0.53196900  0.07345600  0.72735900  1
  Ba  Ba5  1  0.46803100  0.92654400  0.27264100  1
  Ba  Ba6  1  0.03196900  0.92654400  0.77264100  1
  Ba  Ba7  1  0.96803100  0.07345600  0.22735900  1
  B  B8  1  0.72614700  0.20156800  0.39672200  1
  B  B9  1  0.19188900  0.16059500  0.57366600  1
  B  B10  1  0.69188900  0.83940500  0.92633400  1
  B  B11  1  0.69360900  0.06009300  0.05566200  1
  B  B12  1  0.77385300  0.20156800  0.89672200  1
  B  B13  1  0.02003300  0.60201000  0.19120700  1
  B  B14  1  0.19360900  0.93990700  0.44433800  1
  B  B15  1  0.97996700  0.39799000  0.80879300  1
  B  B16  1  0.79255000  0.53571300  0.31878300  1
  B  B17  1  0.80811100  0.83940500  0.42633400  1
  B  B18  1  0.30639100  0.93990700  0.94433800  1
  B  B19  1  0.22614700  0.79843200  0.10327800  1
  B  B20  1  0.27385300  0.79843200  0.60327800  1
  B  B21  1  0.52003300  0.39799000  0.30879300  1
  B  B22  1  0.80639100  0.06009300  0.55566200  1
  B  B23  1  0.47996700  0.60201000  0.69120700  1
  B  B24  1  0.70745000  0.53571300  0.81878300  1
  B  B25  1  0.29255000  0.46428700  0.18121700  1
  B  B26  1  0.20745000  0.46428700  0.68121700  1
  B  B27  1  0.30811100  0.16059500  0.07366600  1
  O  O28  1  0.15956000  0.12470700  0.48225300  1
  O  O29  1  0.55981400  0.24407100  0.37022700  1
  O  O30  1  0.88006000  0.55732300  0.79328600  1
  O  O31  1  0.25472400  0.00940300  0.13310800  1
  O  O32  1  0.74527600  0.99059700  0.86689200  1
  O  O33  1  0.33047000  0.34853900  0.09961200  1
  O  O34  1  0.84044000  0.87529300  0.51774700  1
  O  O35  1  0.82573100  0.08396400  0.64617000  1
  O  O36  1  0.16779300  0.66926100  0.65863700  1
  O  O37  1  0.05981400  0.75592900  0.12977300  1
  O  O38  1  0.24713800  0.79049800  0.00383100  1
  O  O39  1  0.16953000  0.34853900  0.59961200  1
  O  O40  1  0.94018600  0.24407100  0.87022700  1
  O  O41  1  0.24527600  0.00940300  0.63310800  1
  O  O42  1  0.37787400  0.38159400  0.26453400  1
  O  O43  1  0.83220700  0.33073900  0.34136300  1
  O  O44  1  0.75472400  0.99059700  0.36689200  1
  O  O45  1  0.83047000  0.65146100  0.40038800  1
  O  O46  1  0.17426900  0.91603600  0.35383000  1
  O  O47  1  0.74713800  0.20950200  0.49616900  1
  O  O48  1  0.61994000  0.55732300  0.29328600  1
  O  O49  1  0.38006000  0.44267700  0.70671400  1
  O  O50  1  0.87787400  0.61840600  0.23546600  1
  O  O51  1  0.67426900  0.08396400  0.14617000  1
  O  O52  1  0.33220700  0.66926100  0.15863700  1
  O  O53  1  0.75286200  0.20950200  0.99616900  1
  O  O54  1  0.62212600  0.61840600  0.73546600  1
  O  O55  1  0.34044000  0.12470700  0.98225300  1
  O  O56  1  0.44018600  0.75592900  0.62977300  1
  O  O57  1  0.25286200  0.79049800  0.50383100  1
  O  O58  1  0.65956000  0.87529300  0.01774700  1
  O  O59  1  0.66953000  0.65146100  0.90038800  1
  O  O60  1  0.12212600  0.38159400  0.76453400  1
  O  O61  1  0.66779300  0.33073900  0.84136300  1
  O  O62  1  0.32573100  0.91603600  0.85383000  1
  O  O63  1  0.11994000  0.44267700  0.20671400  1
