# generated using pymatgen
data_Sm2(MoO4)3
_symmetry_space_group_name_H-M   'P 1'
_cell_length_a   7.02303764
_cell_length_b   7.02303764
_cell_length_c   11.62593538
_cell_angle_alpha   79.38420460
_cell_angle_beta   79.38420460
_cell_angle_gamma   112.74178349
_symmetry_Int_Tables_number   1
_chemical_formula_structural   Sm2(MoO4)3
_chemical_formula_sum   'Sm4 Mo6 O24'
_cell_volume   498.73020911
_cell_formula_units_Z   2
loop_
 _symmetry_equiv_pos_site_id
 _symmetry_equiv_pos_as_xyz
  1  'x, y, z'
loop_
 _atom_site_type_symbol
 _atom_site_label
 _atom_site_symmetry_multiplicity
 _atom_site_fract_x
 _atom_site_fract_y
 _atom_site_fract_z
 _atom_site_occupancy
  Sm  Sm0  1  0.80336300  0.54767200  0.90847200  1
  Sm  Sm1  1  0.45232800  0.19663700  0.59152800  1
  Sm  Sm2  1  0.54767200  0.80336300  0.40847200  1
  Sm  Sm3  1  0.19663700  0.45232800  0.09152800  1
  Mo  Mo4  1  0.69962000  0.98606700  0.05267400  1
  Mo  Mo5  1  0.01393300  0.30038000  0.44732600  1
  Mo  Mo6  1  0.30038000  0.01393300  0.94732600  1
  Mo  Mo7  1  0.98606700  0.69962000  0.55267400  1
  Mo  Mo8  1  0.61931200  0.38068800  0.25000000  1
  Mo  Mo9  1  0.38068800  0.61931200  0.75000000  1
  O  O10  1  0.72559400  0.12848400  0.46037400  1
  O  O11  1  0.90329600  0.48922100  0.21780200  1
  O  O12  1  0.17435300  0.60016400  0.42121500  1
  O  O13  1  0.82246600  0.89026000  0.94566800  1
  O  O14  1  0.12848300  0.72559400  0.96037400  1
  O  O15  1  0.70737500  0.85494500  0.19906300  1
  O  O16  1  0.44862500  0.53118200  0.88905400  1
  O  O17  1  0.87151700  0.27440600  0.03962600  1
  O  O18  1  0.85494500  0.70737500  0.69906300  1
  O  O19  1  0.10974000  0.17753500  0.55433200  1
  O  O20  1  0.51077900  0.09670400  0.28219800  1
  O  O21  1  0.29262500  0.14505500  0.80093700  1
  O  O22  1  0.09670400  0.51077900  0.78219800  1
  O  O23  1  0.89026000  0.82246500  0.44566800  1
  O  O24  1  0.14505500  0.29262500  0.30093700  1
  O  O25  1  0.53118200  0.44862500  0.38905400  1
  O  O26  1  0.39983600  0.82564700  0.07878500  1
  O  O27  1  0.27440600  0.87151600  0.53962600  1
  O  O28  1  0.17753500  0.10974000  0.05433200  1
  O  O29  1  0.55137500  0.46881800  0.11094600  1
  O  O30  1  0.46881800  0.55137500  0.61094600  1
  O  O31  1  0.48922100  0.90329600  0.71780200  1
  O  O32  1  0.60016400  0.17435300  0.92121500  1
  O  O33  1  0.82564700  0.39983600  0.57878500  1
