# generated using pymatgen
data_Cs3As11
_symmetry_space_group_name_H-M   'P 1'
_cell_length_a   10.38556114
_cell_length_b   10.38556114
_cell_length_c   19.91164114
_cell_angle_alpha   86.68791712
_cell_angle_beta   86.68791712
_cell_angle_gamma   98.49492141
_symmetry_Int_Tables_number   1
_chemical_formula_structural   Cs3As11
_chemical_formula_sum   'Cs12 As44'
_cell_volume   2115.76979146
_cell_formula_units_Z   4
loop_
 _symmetry_equiv_pos_site_id
 _symmetry_equiv_pos_as_xyz
  1  'x, y, z'
loop_
 _atom_site_type_symbol
 _atom_site_label
 _atom_site_symmetry_multiplicity
 _atom_site_fract_x
 _atom_site_fract_y
 _atom_site_fract_z
 _atom_site_occupancy
  Cs  Cs0  1  0.28917900  0.79700800  0.60940400  1
  Cs  Cs1  1  0.52959600  0.69513200  0.37120800  1
  Cs  Cs2  1  0.47040400  0.30486800  0.62879200  1
  Cs  Cs3  1  0.97506300  0.25538800  0.62041200  1
  Cs  Cs4  1  0.74461200  0.02493700  0.87958800  1
  Cs  Cs5  1  0.71082100  0.20299200  0.39059600  1
  Cs  Cs6  1  0.30486800  0.47040400  0.12879200  1
  Cs  Cs7  1  0.79700800  0.28917900  0.10940400  1
  Cs  Cs8  1  0.69513200  0.52959600  0.87120800  1
  Cs  Cs9  1  0.25538800  0.97506300  0.12041200  1
  Cs  Cs10  1  0.20299200  0.71082100  0.89059600  1
  Cs  Cs11  1  0.02493700  0.74461200  0.37958800  1
  As  As12  1  0.97572600  0.71468600  0.74478900  1
  As  As13  1  0.28531400  0.02427400  0.75521100  1
  As  As14  1  0.09409900  0.06991300  0.81893700  1
  As  As15  1  0.39714700  0.33621500  0.44592400  1
  As  As16  1  0.16607700  0.44213300  0.31365600  1
  As  As17  1  0.98999800  0.36289100  0.89730400  1
  As  As18  1  0.74834000  0.52431300  0.50625200  1
  As  As19  1  0.88188500  0.72885400  0.01958100  1
  As  As20  1  0.93008700  0.90590100  0.68106300  1
  As  As21  1  0.02427400  0.28531400  0.25521100  1
  As  As22  1  0.85097500  0.94745400  0.05945500  1
  As  As23  1  0.25166000  0.47568700  0.49374800  1
  As  As24  1  0.60778700  0.93220200  0.06971800  1
  As  As25  1  0.90590100  0.93008700  0.18106300  1
  As  As26  1  0.94745400  0.85097500  0.55945500  1
  As  As27  1  0.44213300  0.16607700  0.81365600  1
  As  As28  1  0.65049500  0.62442300  0.17899600  1
  As  As29  1  0.72885400  0.88188500  0.51958100  1
  As  As30  1  0.66378500  0.60285300  0.05407600  1
  As  As31  1  0.37557700  0.34950500  0.32100400  1
  As  As32  1  0.39221300  0.06779800  0.93028200  1
  As  As33  1  0.34950500  0.37557700  0.82100400  1
  As  As34  1  0.05254600  0.14902500  0.44054500  1
  As  As35  1  0.47568700  0.25166000  0.99374800  1
  As  As36  1  0.01000200  0.63710900  0.10269600  1
  As  As37  1  0.62442300  0.65049500  0.67899600  1
  As  As38  1  0.11400900  0.31019200  0.79855900  1
  As  As39  1  0.60285300  0.66378500  0.55407600  1
  As  As40  1  0.36289100  0.98999800  0.39730400  1
  As  As41  1  0.71468600  0.97572600  0.24478900  1
  As  As42  1  0.63710900  0.01000200  0.60269600  1
  As  As43  1  0.14902500  0.05254600  0.94054500  1
  As  As44  1  0.06991300  0.09409900  0.31893700  1
  As  As45  1  0.06779800  0.39221300  0.43028200  1
  As  As46  1  0.68980800  0.88599100  0.70144100  1
  As  As47  1  0.93220200  0.60778700  0.56971800  1
  As  As48  1  0.31019200  0.11400900  0.29855900  1
  As  As49  1  0.11811500  0.27114600  0.98041900  1
  As  As50  1  0.27114600  0.11811500  0.48041900  1
  As  As51  1  0.83392300  0.55786700  0.68634400  1
  As  As52  1  0.33621500  0.39714700  0.94592400  1
  As  As53  1  0.88599100  0.68980800  0.20144100  1
  As  As54  1  0.55786700  0.83392300  0.18634400  1
  As  As55  1  0.52431300  0.74834000  0.00625200  1
