# generated using pymatgen
data_Ce3Si6N11
_symmetry_space_group_name_H-M   'P 1'
_cell_length_a   10.15738400
_cell_length_b   10.15738400
_cell_length_c   4.88540300
_cell_angle_alpha   90.00000000
_cell_angle_beta   90.00000000
_cell_angle_gamma   90.00000000
_symmetry_Int_Tables_number   1
_chemical_formula_structural   Ce3Si6N11
_chemical_formula_sum   'Ce6 Si12 N22'
_cell_volume   504.03899540
_cell_formula_units_Z   2
loop_
 _symmetry_equiv_pos_site_id
 _symmetry_equiv_pos_as_xyz
  1  'x, y, z'
loop_
 _atom_site_type_symbol
 _atom_site_label
 _atom_site_symmetry_multiplicity
 _atom_site_fract_x
 _atom_site_fract_y
 _atom_site_fract_z
 _atom_site_occupancy
  Ce  Ce0  1  0.18113200  0.31886800  0.64402600  1
  Ce  Ce1  1  0.31886800  0.81886800  0.64402600  1
  Ce  Ce2  1  0.68113200  0.18113200  0.64402600  1
  Ce  Ce3  1  0.81886800  0.68113200  0.64402600  1
  Ce  Ce4  1  0.00000000  0.00000000  0.65420600  1
  Ce  Ce5  1  0.50000000  0.50000000  0.65420600  1
  Si  Si6  1  0.20903200  0.07881600  0.11480600  1
  Si  Si7  1  0.07881600  0.79096800  0.11480600  1
  Si  Si8  1  0.92118400  0.20903200  0.11480600  1
  Si  Si9  1  0.79096800  0.92118400  0.11480600  1
  Si  Si10  1  0.70903200  0.42118400  0.11480600  1
  Si  Si11  1  0.29096800  0.57881600  0.11480600  1
  Si  Si12  1  0.42118400  0.29096800  0.11480600  1
  Si  Si13  1  0.57881600  0.70903200  0.11480600  1
  Si  Si14  1  0.11723500  0.61723500  0.60412300  1
  Si  Si15  1  0.61723500  0.88276500  0.60412300  1
  Si  Si16  1  0.38276500  0.11723500  0.60412300  1
  Si  Si17  1  0.88276500  0.38276500  0.60412300  1
  N  N18  1  0.22968300  0.07533200  0.46816900  1
  N  N19  1  0.07533200  0.77031700  0.46816900  1
  N  N20  1  0.92466800  0.22968300  0.46816900  1
  N  N21  1  0.77031700  0.92466800  0.46816900  1
  N  N22  1  0.72968300  0.42466800  0.46816900  1
  N  N23  1  0.27031700  0.57533200  0.46816900  1
  N  N24  1  0.42466800  0.27031700  0.46816900  1
  N  N25  1  0.57533200  0.72968300  0.46816900  1
  N  N26  1  0.15337000  0.65337000  0.95089800  1
  N  N27  1  0.65337000  0.84663000  0.95089800  1
  N  N28  1  0.34663000  0.15337000  0.95089800  1
  N  N29  1  0.84663000  0.34663000  0.95089800  1
  N  N30  1  0.17899900  0.92028600  0.00189500  1
  N  N31  1  0.92028600  0.82100100  0.00189500  1
  N  N32  1  0.07971400  0.17899900  0.00189500  1
  N  N33  1  0.82100100  0.07971400  0.00189500  1
  N  N34  1  0.67899900  0.57971400  0.00189500  1
  N  N35  1  0.32100100  0.42028600  0.00189500  1
  N  N36  1  0.57971400  0.32100100  0.00189500  1
  N  N37  1  0.42028600  0.67899900  0.00189500  1
  N  N38  1  0.00000000  0.50000000  0.57598900  1
  N  N39  1  0.50000000  0.00000000  0.57598900  1
