# generated using pymatgen
data_HS9N
_symmetry_space_group_name_H-M   'P 1'
_cell_length_a   5.58199600
_cell_length_b   14.27271500
_cell_length_c   15.19126700
_cell_angle_alpha   90.00000000
_cell_angle_beta   90.00000000
_cell_angle_gamma   90.00000000
_symmetry_Int_Tables_number   1
_chemical_formula_structural   HS9N
_chemical_formula_sum   'H4 S36 N4'
_cell_volume   1210.29185801
_cell_formula_units_Z   4
loop_
 _symmetry_equiv_pos_site_id
 _symmetry_equiv_pos_as_xyz
  1  'x, y, z'
loop_
 _atom_site_type_symbol
 _atom_site_label
 _atom_site_symmetry_multiplicity
 _atom_site_fract_x
 _atom_site_fract_y
 _atom_site_fract_z
 _atom_site_occupancy
  H  H0  1  0.83122000  0.35022800  0.75000000  1
  H  H1  1  0.33122000  0.14977200  0.25000000  1
  H  H2  1  0.66878000  0.85022800  0.75000000  1
  H  H3  1  0.16878000  0.64977200  0.25000000  1
  S  S4  1  0.32034700  0.53656600  0.75000000  1
  S  S5  1  0.82034700  0.96343400  0.25000000  1
  S  S6  1  0.17965300  0.03656600  0.75000000  1
  S  S7  1  0.67965300  0.46343400  0.25000000  1
  S  S8  1  0.14794400  0.47793600  0.64158800  1
  S  S9  1  0.64794400  0.02206400  0.35841200  1
  S  S10  1  0.35205600  0.97793600  0.85841200  1
  S  S11  1  0.85205600  0.52206400  0.14158800  1
  S  S12  1  0.85205600  0.52206400  0.35841200  1
  S  S13  1  0.35205600  0.97793600  0.64158800  1
  S  S14  1  0.64794400  0.02206400  0.14158800  1
  S  S15  1  0.14794400  0.47793600  0.85841200  1
  S  S16  1  0.36928500  0.39705700  0.56544200  1
  S  S17  1  0.86928500  0.10294300  0.43455800  1
  S  S18  1  0.13071500  0.89705700  0.93455800  1
  S  S19  1  0.63071500  0.60294300  0.06544200  1
  S  S20  1  0.63071500  0.60294300  0.43455800  1
  S  S21  1  0.13071500  0.89705700  0.56544200  1
  S  S22  1  0.86928500  0.10294300  0.06544200  1
  S  S23  1  0.36928500  0.39705700  0.93455800  1
  S  S24  1  0.37153400  0.26032200  0.61415400  1
  S  S25  1  0.87153400  0.23967800  0.38584600  1
  S  S26  1  0.12846600  0.76032200  0.88584600  1
  S  S27  1  0.62846600  0.73967800  0.11415400  1
  S  S28  1  0.62846600  0.73967800  0.38584600  1
  S  S29  1  0.12846600  0.76032200  0.61415400  1
  S  S30  1  0.87153400  0.23967800  0.11415400  1
  S  S31  1  0.37153400  0.26032200  0.88584600  1
  S  S32  1  0.72052900  0.23432700  0.65105400  1
  S  S33  1  0.22052900  0.26567300  0.34894600  1
  S  S34  1  0.77947100  0.73432700  0.84894600  1
  S  S35  1  0.27947100  0.76567300  0.15105400  1
  S  S36  1  0.27947100  0.76567300  0.34894600  1
  S  S37  1  0.77947100  0.73432700  0.65105400  1
  S  S38  1  0.22052900  0.26567300  0.15105400  1
  S  S39  1  0.72052900  0.23432700  0.84894600  1
  N  N40  1  0.77899300  0.28144100  0.75000000  1
  N  N41  1  0.27899300  0.21855900  0.25000000  1
  N  N42  1  0.72100700  0.78144100  0.75000000  1
  N  N43  1  0.22100700  0.71855900  0.25000000  1
