# generated using pymatgen
data_K2(TcSe2)3
_symmetry_space_group_name_H-M   'P 1'
_cell_length_a   10.11503929
_cell_length_b   10.11503929
_cell_length_c   12.53604759
_cell_angle_alpha   88.70397092
_cell_angle_beta   88.70397092
_cell_angle_gamma   60.58501951
_symmetry_Int_Tables_number   1
_chemical_formula_structural   K2(TcSe2)3
_chemical_formula_sum   'K8 Tc12 Se24'
_cell_volume   1116.88248937
_cell_formula_units_Z   4
loop_
 _symmetry_equiv_pos_site_id
 _symmetry_equiv_pos_as_xyz
  1  'x, y, z'
loop_
 _atom_site_type_symbol
 _atom_site_label
 _atom_site_symmetry_multiplicity
 _atom_site_fract_x
 _atom_site_fract_y
 _atom_site_fract_z
 _atom_site_occupancy
  K  K0  1  0.60272100  0.39727900  0.75000000  1
  K  K1  1  0.39727900  0.60272100  0.25000000  1
  K  K2  1  0.21672700  0.78327300  0.75000000  1
  K  K3  1  0.78327300  0.21672700  0.25000000  1
  K  K4  1  0.12225300  0.64814600  0.01888500  1
  K  K5  1  0.35185400  0.87774700  0.48111500  1
  K  K6  1  0.87774700  0.35185400  0.98111500  1
  K  K7  1  0.64814600  0.12225300  0.51888500  1
  Tc  Tc8  1  0.00369800  0.31591700  0.52666400  1
  Tc  Tc9  1  0.68408300  0.99630200  0.97333600  1
  Tc  Tc10  1  0.99630200  0.68408300  0.47333600  1
  Tc  Tc11  1  0.31591700  0.00369800  0.02666400  1
  Tc  Tc12  1  0.11120300  0.47201600  0.62566600  1
  Tc  Tc13  1  0.52798400  0.88879700  0.87433400  1
  Tc  Tc14  1  0.88879700  0.52798400  0.37433400  1
  Tc  Tc15  1  0.47201600  0.11120300  0.12566600  1
  Tc  Tc16  1  0.81755700  0.60165300  0.57977000  1
  Tc  Tc17  1  0.39834700  0.18244300  0.92023000  1
  Tc  Tc18  1  0.18244300  0.39834700  0.42023000  1
  Tc  Tc19  1  0.60165300  0.81755700  0.07977000  1
  Se  Se20  1  0.07479900  0.25212200  0.33366700  1
  Se  Se21  1  0.74787800  0.92520100  0.16633300  1
  Se  Se22  1  0.92520100  0.74787800  0.66633300  1
  Se  Se23  1  0.25212200  0.07479900  0.83366700  1
  Se  Se24  1  0.79656600  0.71707200  0.92861600  1
  Se  Se25  1  0.28292800  0.20343400  0.57138400  1
  Se  Se26  1  0.20343400  0.28292800  0.07138400  1
  Se  Se27  1  0.71707200  0.79656600  0.42861600  1
  Se  Se28  1  0.06130700  0.60743300  0.28083100  1
  Se  Se29  1  0.39256700  0.93869300  0.21916900  1
  Se  Se30  1  0.93869300  0.39256700  0.71916900  1
  Se  Se31  1  0.60743300  0.06130700  0.78083100  1
  Se  Se32  1  0.27815600  0.55223500  0.51916500  1
  Se  Se33  1  0.44776500  0.72184400  0.98083500  1
  Se  Se34  1  0.72184400  0.44776500  0.48083500  1
  Se  Se35  1  0.55223500  0.27815600  0.01916500  1
  Se  Se36  1  0.06684400  0.99687800  0.08130600  1
  Se  Se37  1  0.00312200  0.93315600  0.41869400  1
  Se  Se38  1  0.93315600  0.00312200  0.91869400  1
  Se  Se39  1  0.99687800  0.06684400  0.58130600  1
  Se  Se40  1  0.26275700  0.44121300  0.80553000  1
  Se  Se41  1  0.55878700  0.73724300  0.69447000  1
  Se  Se42  1  0.73724300  0.55878700  0.19447000  1
  Se  Se43  1  0.44121300  0.26275700  0.30553000  1
