# generated using pymatgen
data_Rb3PO4
_symmetry_space_group_name_H-M   'P 1'
_cell_length_a   6.26600000
_cell_length_b   8.57574000
_cell_length_c   11.88276300
_cell_angle_alpha   90.00000000
_cell_angle_beta   90.00000000
_cell_angle_gamma   90.00000000
_symmetry_Int_Tables_number   1
_chemical_formula_structural   Rb3PO4
_chemical_formula_sum   'Rb12 P4 O16'
_cell_volume   638.52724309
_cell_formula_units_Z   4
loop_
 _symmetry_equiv_pos_site_id
 _symmetry_equiv_pos_as_xyz
  1  'x, y, z'
loop_
 _atom_site_type_symbol
 _atom_site_label
 _atom_site_symmetry_multiplicity
 _atom_site_fract_x
 _atom_site_fract_y
 _atom_site_fract_z
 _atom_site_occupancy
  Rb  Rb0  1  0.13979600  0.25000000  0.07336900  1
  Rb  Rb1  1  0.69112100  0.49233800  0.14385400  1
  Rb  Rb2  1  0.86020400  0.75000000  0.92663100  1
  Rb  Rb3  1  0.19112100  0.50766200  0.35614600  1
  Rb  Rb4  1  0.69112100  0.00766200  0.14385400  1
  Rb  Rb5  1  0.19112100  0.99233800  0.35614600  1
  Rb  Rb6  1  0.63979600  0.75000000  0.42663100  1
  Rb  Rb7  1  0.30887900  0.99233800  0.85614600  1
  Rb  Rb8  1  0.30887900  0.50766200  0.85614600  1
  Rb  Rb9  1  0.80887900  0.00766200  0.64385400  1
  Rb  Rb10  1  0.80887900  0.49233800  0.64385400  1
  Rb  Rb11  1  0.36020400  0.25000000  0.57336900  1
  P  P12  1  0.77833200  0.25000000  0.38502300  1
  P  P13  1  0.27833200  0.75000000  0.11497700  1
  P  P14  1  0.22166800  0.75000000  0.61497700  1
  P  P15  1  0.72166800  0.25000000  0.88502300  1
  O  O16  1  0.36357900  0.59995400  0.60930700  1
  O  O17  1  0.41015100  0.75000000  0.22743000  1
  O  O18  1  0.86357900  0.40004600  0.89069300  1
  O  O19  1  0.13642100  0.90004600  0.10930700  1
  O  O20  1  0.86357900  0.09995400  0.89069300  1
  O  O21  1  0.56000700  0.25000000  0.98637300  1
  O  O22  1  0.06000700  0.75000000  0.51362700  1
  O  O23  1  0.93999300  0.25000000  0.48637300  1
  O  O24  1  0.63642100  0.09995400  0.39069300  1
  O  O25  1  0.36357900  0.90004600  0.60930700  1
  O  O26  1  0.43999300  0.75000000  0.01362700  1
  O  O27  1  0.63642100  0.40004600  0.39069300  1
  O  O28  1  0.08984900  0.75000000  0.72743000  1
  O  O29  1  0.91015100  0.25000000  0.27257000  1
  O  O30  1  0.58984900  0.25000000  0.77257000  1
  O  O31  1  0.13642100  0.59995400  0.10930700  1
