# generated using pymatgen
data_La12C6I17
_symmetry_space_group_name_H-M   'P 1'
_cell_length_a   12.09032829
_cell_length_b   12.09032829
_cell_length_c   19.69389275
_cell_angle_alpha   89.30446119
_cell_angle_beta   89.30446119
_cell_angle_gamma   64.09249660
_symmetry_Int_Tables_number   1
_chemical_formula_structural   La12C6I17
_chemical_formula_sum   'La24 C12 I34'
_cell_volume   2589.19437835
_cell_formula_units_Z   2
loop_
 _symmetry_equiv_pos_site_id
 _symmetry_equiv_pos_as_xyz
  1  'x, y, z'
loop_
 _atom_site_type_symbol
 _atom_site_label
 _atom_site_symmetry_multiplicity
 _atom_site_fract_x
 _atom_site_fract_y
 _atom_site_fract_z
 _atom_site_occupancy
  La  La0  1  0.33830400  0.80833600  0.28930900  1
  La  La1  1  0.35751100  0.35908900  0.04968700  1
  La  La2  1  0.35908900  0.35751100  0.54968700  1
  La  La3  1  0.46458700  0.45209900  0.37068100  1
  La  La4  1  0.57469000  0.09855200  0.88197800  1
  La  La5  1  0.54790100  0.53541300  0.12931900  1
  La  La6  1  0.70462400  0.28633600  0.97910600  1
  La  La7  1  0.53541300  0.54790100  0.62931900  1
  La  La8  1  0.66169600  0.19166400  0.71069100  1
  La  La9  1  0.64248900  0.64091100  0.95031300  1
  La  La10  1  0.07527100  0.02083300  0.15218400  1
  La  La11  1  0.29537600  0.71366400  0.02089400  1
  La  La12  1  0.90144800  0.42531000  0.61802200  1
  La  La13  1  0.02083300  0.07527100  0.65218400  1
  La  La14  1  0.42531000  0.90144800  0.11802200  1
  La  La15  1  0.45209900  0.46458700  0.87068100  1
  La  La16  1  0.64091100  0.64248900  0.45031300  1
  La  La17  1  0.09855200  0.57469000  0.38197800  1
  La  La18  1  0.92472900  0.97916700  0.84781600  1
  La  La19  1  0.28633600  0.70462400  0.47910600  1
  La  La20  1  0.80833600  0.33830400  0.78930900  1
  La  La21  1  0.97916700  0.92472900  0.34781600  1
  La  La22  1  0.71366400  0.29537600  0.52089400  1
  La  La23  1  0.19166400  0.66169600  0.21069100  1
  C  C24  1  0.27689700  0.63427700  0.35039300  1
  C  C25  1  0.72310300  0.36572300  0.64960700  1
  C  C26  1  0.36572300  0.72310300  0.14960700  1
  C  C27  1  0.53229000  0.53269800  0.98860700  1
  C  C28  1  0.74327000  0.16656900  0.84742100  1
  C  C29  1  0.46771000  0.46730200  0.01139300  1
  C  C30  1  0.25673000  0.83343100  0.15257900  1
  C  C31  1  0.46730200  0.46771000  0.51139300  1
  C  C32  1  0.83343100  0.25673000  0.65257900  1
  C  C33  1  0.16656900  0.74327000  0.34742100  1
  C  C34  1  0.63427700  0.27689700  0.85039300  1
  C  C35  1  0.53269800  0.53229000  0.48860700  1
  I  I36  1  0.30873900  0.29071800  0.39896700  1
  I  I37  1  0.60433200  0.10313000  0.55869300  1
  I  I38  1  0.49880700  0.96818700  0.25600100  1
  I  I39  1  0.90665400  0.88584100  0.19656400  1
  I  I40  1  0.70928200  0.69126100  0.10103300  1
  I  I41  1  0.28138700  0.80634100  0.63825200  1
  I  I42  1  0.11415900  0.09334600  0.30343600  1
  I  I43  1  0.21101900  0.18280100  0.10072500  1
  I  I44  1  0.89687000  0.39566800  0.94130700  1
  I  I45  1  0.09353600  0.60020000  0.54904300  1
  I  I46  1  0.60020000  0.09353600  0.04904300  1
  I  I47  1  0.78898100  0.81719900  0.89927500  1
  I  I48  1  0.62570100  0.57756200  0.29195400  1
  I  I49  1  0.88584100  0.90665400  0.69656400  1
  I  I50  1  0.03181300  0.50119300  0.24399900  1
  I  I51  1  0.18280100  0.21101900  0.60072500  1
  I  I52  1  0.71861300  0.19365900  0.36174800  1
  I  I53  1  0.09334600  0.11415900  0.80343600  1
  I  I54  1  0.57756200  0.62570100  0.79195400  1
  I  I55  1  0.00000000  0.00000000  0.00000000  1
  I  I56  1  0.39566800  0.89687000  0.44130700  1
  I  I57  1  0.42243800  0.37429900  0.20804600  1
  I  I58  1  0.29071800  0.30873900  0.89896700  1
  I  I59  1  0.37429900  0.42243800  0.70804600  1
  I  I60  1  0.81719900  0.78898100  0.39927500  1
  I  I61  1  0.50119300  0.03181300  0.74399900  1
  I  I62  1  0.69126100  0.70928200  0.60103300  1
  I  I63  1  0.19365900  0.71861300  0.86174800  1
  I  I64  1  0.39980000  0.90646400  0.95095700  1
  I  I65  1  0.90646400  0.39980000  0.45095700  1
  I  I66  1  0.10313000  0.60433200  0.05869300  1
  I  I67  1  0.96818700  0.49880700  0.75600100  1
  I  I68  1  0.80634100  0.28138700  0.13825200  1
  I  I69  1  0.00000000  0.00000000  0.50000000  1
