# generated using pymatgen
data_Ca5P3ClO12
_symmetry_space_group_name_H-M   'P 1'
_cell_length_a   6.77329800
_cell_length_b   9.83287000
_cell_length_c   19.64610979
_cell_angle_alpha   60.02290651
_cell_angle_beta   90.00000000
_cell_angle_gamma   90.00000000
_symmetry_Int_Tables_number   1
_chemical_formula_structural   Ca5P3ClO12
_chemical_formula_sum   'Ca20 P12 Cl4 O48'
_cell_volume   1133.41218480
_cell_formula_units_Z   4
loop_
 _symmetry_equiv_pos_site_id
 _symmetry_equiv_pos_as_xyz
  1  'x, y, z'
loop_
 _atom_site_type_symbol
 _atom_site_label
 _atom_site_symmetry_multiplicity
 _atom_site_fract_x
 _atom_site_fract_y
 _atom_site_fract_z
 _atom_site_occupancy
  Ca  Ca0  1  0.24814000  0.25073200  0.61686500  1
  Ca  Ca1  1  0.74746700  0.98349600  0.62520100  1
  Ca  Ca2  1  0.00406700  0.67434800  0.58013700  1
  Ca  Ca3  1  0.24746700  0.01650400  0.87479900  1
  Ca  Ca4  1  0.25137000  0.73395600  0.75774300  1
  Ca  Ca5  1  0.50406700  0.32565200  0.91986300  1
  Ca  Ca6  1  0.49593300  0.67434800  0.08013700  1
  Ca  Ca7  1  0.74814000  0.74926800  0.88313500  1
  Ca  Ca8  1  0.50427200  0.34038800  0.41344100  1
  Ca  Ca9  1  0.75253300  0.98349600  0.12520100  1
  Ca  Ca10  1  0.99572800  0.34038800  0.91344100  1
  Ca  Ca11  1  0.24863000  0.73395600  0.25774300  1
  Ca  Ca12  1  0.00427200  0.65961200  0.08655900  1
  Ca  Ca13  1  0.25253300  0.01650400  0.37479900  1
  Ca  Ca14  1  0.75186000  0.74926800  0.38313500  1
  Ca  Ca15  1  0.99593300  0.32565200  0.41986300  1
  Ca  Ca16  1  0.75137000  0.26604400  0.74225700  1
  Ca  Ca17  1  0.25186000  0.25073200  0.11686500  1
  Ca  Ca18  1  0.49572800  0.65961200  0.58655900  1
  Ca  Ca19  1  0.74863000  0.26604400  0.24225700  1
  P  P20  1  0.24798900  0.03165300  0.54571000  1
  P  P21  1  0.75201100  0.96834700  0.45429000  1
  P  P22  1  0.74798900  0.96834700  0.95429000  1
  P  P23  1  0.75327200  0.62270500  0.23386500  1
  P  P24  1  0.25327200  0.37729500  0.26613500  1
  P  P25  1  0.25201100  0.03165300  0.04571000  1
  P  P26  1  0.24597500  0.59144700  0.93850500  1
  P  P27  1  0.25402500  0.59144700  0.43850500  1
  P  P28  1  0.74672800  0.62270500  0.73386500  1
  P  P29  1  0.75402500  0.40855300  0.06149500  1
  P  P30  1  0.24672800  0.37729500  0.76613500  1
  P  P31  1  0.74597500  0.40855300  0.56149500  1
  Cl  Cl32  1  0.07524100  0.99871000  0.74939900  1
  Cl  Cl33  1  0.92475900  0.00129000  0.25060100  1
  Cl  Cl34  1  0.57524100  0.00129000  0.75060100  1
  Cl  Cl35  1  0.42475900  0.99871000  0.24939900  1
  O  O36  1  0.07200100  0.26538200  0.29041000  1
  O  O37  1  0.75710000  0.35024200  0.00151300  1
  O  O38  1  0.05538700  0.08804300  0.56721500  1
  O  O39  1  0.74328300  0.50290500  0.82297100  1
  O  O40  1  0.92799900  0.73461800  0.70959000  1
  O  O41  1  0.73600800  0.87017100  0.54624200  1
  O  O42  1  0.74771200  0.14643800  0.92502200  1
  O  O43  1  0.07656700  0.07944800  0.08036300  1
  O  O44  1  0.05600800  0.63547200  0.88726000  1
  O  O45  1  0.92343300  0.92055200  0.91963700  1
  O  O46  1  0.42395000  0.66001400  0.88120800  1
  O  O47  1  0.05937100  0.27205500  0.79425200  1
  O  O48  1  0.25564700  0.46298500  0.81536300  1
  O  O49  1  0.25228800  0.85356200  0.07497800  1
  O  O50  1  0.44399200  0.63547200  0.38726000  1
  O  O51  1  0.24771200  0.85356200  0.57497800  1
  O  O52  1  0.26083100  0.40764600  0.98143300  1
  O  O53  1  0.57200100  0.73461800  0.20959000  1
  O  O54  1  0.76083100  0.59235400  0.51856700  1
  O  O55  1  0.94062900  0.72794500  0.20574800  1
  O  O56  1  0.75671700  0.50290500  0.32297100  1
  O  O57  1  0.55937100  0.72794500  0.70574800  1
  O  O58  1  0.25671700  0.49709500  0.17702900  1
  O  O59  1  0.57605000  0.33998600  0.11879200  1
  O  O60  1  0.57656700  0.92055200  0.41963700  1
  O  O61  1  0.24290000  0.64975800  0.99848700  1
  O  O62  1  0.55538700  0.91195700  0.93278500  1
  O  O63  1  0.25710000  0.64975800  0.49848700  1
  O  O64  1  0.24435300  0.46298500  0.31536300  1
  O  O65  1  0.24328300  0.49709500  0.67702900  1
  O  O66  1  0.42343300  0.07944800  0.58036300  1
  O  O67  1  0.55600800  0.36452800  0.61274000  1
  O  O68  1  0.92395000  0.33998600  0.61879200  1
  O  O69  1  0.76399200  0.87017100  0.04624200  1
  O  O70  1  0.44461300  0.08804300  0.06721500  1
  O  O71  1  0.74290000  0.35024200  0.50151300  1
  O  O72  1  0.94399200  0.36452800  0.11274000  1
  O  O73  1  0.74435300  0.53701500  0.18463700  1
  O  O74  1  0.07605000  0.66001400  0.38120800  1
  O  O75  1  0.26399200  0.12982900  0.45375800  1
  O  O76  1  0.23600800  0.12982900  0.95375800  1
  O  O77  1  0.75564700  0.53701500  0.68463700  1
  O  O78  1  0.94461300  0.91195700  0.43278500  1
  O  O79  1  0.75228800  0.14643800  0.42502200  1
  O  O80  1  0.42799900  0.26538200  0.79041000  1
  O  O81  1  0.73916900  0.59235400  0.01856700  1
  O  O82  1  0.44062900  0.27205500  0.29425200  1
  O  O83  1  0.23916900  0.40764600  0.48143300  1
