# generated using pymatgen
data_Cs8Ta6O19
_symmetry_space_group_name_H-M   'P 1'
_cell_length_a   10.04851722
_cell_length_b   10.04851722
_cell_length_c   10.04851722
_cell_angle_alpha   119.85403967
_cell_angle_beta   119.85403967
_cell_angle_gamma   90.25299716
_symmetry_Int_Tables_number   1
_chemical_formula_structural   Cs8Ta6O19
_chemical_formula_sum   'Cs8 Ta6 O19'
_cell_volume   719.02408952
_cell_formula_units_Z   1
loop_
 _symmetry_equiv_pos_site_id
 _symmetry_equiv_pos_as_xyz
  1  'x, y, z'
loop_
 _atom_site_type_symbol
 _atom_site_label
 _atom_site_symmetry_multiplicity
 _atom_site_fract_x
 _atom_site_fract_y
 _atom_site_fract_z
 _atom_site_occupancy
  Cs  Cs0  1  0.43530700  0.06800400  0.79965700  1
  Cs  Cs1  1  0.06800400  0.26834700  0.63269600  1
  Cs  Cs2  1  0.63565100  0.43530700  0.36730400  1
  Cs  Cs3  1  0.26834700  0.63565100  0.20034300  1
  Cs  Cs4  1  0.56469300  0.93199600  0.20034300  1
  Cs  Cs5  1  0.93199600  0.73165300  0.36730400  1
  Cs  Cs6  1  0.36434900  0.56469300  0.63269600  1
  Cs  Cs7  1  0.73165300  0.36434900  0.79965700  1
  Ta  Ta8  1  0.21362900  0.10432700  0.31795600  1
  Ta  Ta9  1  0.10432700  0.78637100  0.89069800  1
  Ta  Ta10  1  0.89567300  0.21362900  0.10930200  1
  Ta  Ta11  1  0.78637100  0.89567300  0.68204400  1
  Ta  Ta12  1  0.83355100  0.83355100  0.00000000  1
  Ta  Ta13  1  0.16644900  0.16644900  0.00000000  1
  O  O14  1  0.37037000  0.19670700  0.56707700  1
  O  O15  1  0.19670700  0.62963000  0.82633800  1
  O  O16  1  0.80329300  0.37037000  0.17366200  1
  O  O17  1  0.62963000  0.80329300  0.43292300  1
  O  O18  1  0.70398300  0.70398300  0.00000000  1
  O  O19  1  0.29601700  0.29601700  0.00000000  1
  O  O20  1  0.26028700  0.91294000  0.17322700  1
  O  O21  1  0.91294000  0.73971300  0.65265200  1
  O  O22  1  0.08706000  0.26028700  0.34734800  1
  O  O23  1  0.73971300  0.08706000  0.82677300  1
  O  O24  1  0.31503500  0.22697200  0.26369200  1
  O  O25  1  0.22697200  0.96328000  0.91193700  1
  O  O26  1  0.05134300  0.31503500  0.08806300  1
  O  O27  1  0.96328000  0.05134300  0.73630800  1
  O  O28  1  0.68496500  0.77302800  0.73630800  1
  O  O29  1  0.77302800  0.03672000  0.08806300  1
  O  O30  1  0.94865700  0.68496500  0.91193700  1
  O  O31  1  0.03672000  0.94865700  0.26369200  1
  O  O32  1  0.00000000  0.00000000  0.00000000  1
