# generated using pymatgen
data_Ba2Nd2Si4O13
_symmetry_space_group_name_H-M   'P 1'
_cell_length_a   6.72460300
_cell_length_b   9.03183660
_cell_length_c   10.22836370
_cell_angle_alpha   86.48489227
_cell_angle_beta   73.58255222
_cell_angle_gamma   86.45483869
_symmetry_Int_Tables_number   1
_chemical_formula_structural   Ba2Nd2Si4O13
_chemical_formula_sum   'Ba4 Nd4 Si8 O26'
_cell_volume   594.13226936
_cell_formula_units_Z   2
loop_
 _symmetry_equiv_pos_site_id
 _symmetry_equiv_pos_as_xyz
  1  'x, y, z'
loop_
 _atom_site_type_symbol
 _atom_site_label
 _atom_site_symmetry_multiplicity
 _atom_site_fract_x
 _atom_site_fract_y
 _atom_site_fract_z
 _atom_site_occupancy
  Ba  Ba0  1  0.27078000  0.17033000  0.44399500  1
  Ba  Ba1  1  0.74455400  0.67268600  0.92551700  1
  Ba  Ba2  1  0.25544600  0.32731400  0.07448300  1
  Ba  Ba3  1  0.72922000  0.82967000  0.55600500  1
  Nd  Nd4  1  0.19403900  0.87977600  0.10165100  1
  Nd  Nd5  1  0.80596100  0.12022400  0.89834900  1
  Nd  Nd6  1  0.31069300  0.60808400  0.39577700  1
  Nd  Nd7  1  0.68930700  0.39191600  0.60422300  1
  Si  Si8  1  0.10502000  0.43983100  0.68709000  1
  Si  Si9  1  0.30161100  0.62223000  0.84488900  1
  Si  Si10  1  0.82256800  0.11395700  0.32381600  1
  Si  Si11  1  0.89498000  0.56016900  0.31291000  1
  Si  Si12  1  0.38915600  0.06690800  0.82341100  1
  Si  Si13  1  0.17743200  0.88604300  0.67618400  1
  Si  Si14  1  0.69838900  0.37777000  0.15511100  1
  Si  Si15  1  0.61084400  0.93309200  0.17658900  1
  O  O16  1  0.16804900  0.77309400  0.81174100  1
  O  O17  1  0.83809100  0.90497500  0.06473100  1
  O  O18  1  0.84992300  0.51585200  0.16566800  1
  O  O19  1  0.53053700  0.60350300  0.74020500  1
  O  O20  1  0.05339400  0.03834800  0.29647600  1
  O  O21  1  0.94660600  0.96165200  0.70352400  1
  O  O22  1  0.65197000  0.98435300  0.32163800  1
  O  O23  1  0.02892600  0.42506300  0.36851800  1
  O  O24  1  0.83195100  0.22690600  0.18825900  1
  O  O25  1  0.30400300  0.63029000  0.00197900  1
  O  O26  1  0.33080800  0.41401200  0.57430900  1
  O  O27  1  0.52840700  0.21395900  0.79577700  1
  O  O28  1  0.46946300  0.39649700  0.25979500  1
  O  O29  1  0.72065600  0.18430400  0.46975500  1
  O  O30  1  0.47159300  0.78604100  0.20422300  1
  O  O31  1  0.27934400  0.81569600  0.53024500  1
  O  O32  1  0.48314100  0.07087500  0.11950500  1
  O  O33  1  0.15007700  0.48414800  0.83433200  1
  O  O34  1  0.16190900  0.09502500  0.93526900  1
  O  O35  1  0.96835000  0.29220900  0.70843200  1
  O  O36  1  0.97107400  0.57493700  0.63148200  1
  O  O37  1  0.34803000  0.01564700  0.67836200  1
  O  O38  1  0.66919200  0.58598800  0.42569100  1
  O  O39  1  0.69599700  0.36971000  0.99802100  1
  O  O40  1  0.03165000  0.70779100  0.29156800  1
  O  O41  1  0.51685900  0.92912500  0.88049500  1
