# generated using pymatgen
data_BaFe2(SeO3)4
_symmetry_space_group_name_H-M   'P 1'
_cell_length_a   5.30942000
_cell_length_b   10.34760100
_cell_length_c   14.19222511
_cell_angle_alpha   49.20963783
_cell_angle_beta   90.00000000
_cell_angle_gamma   90.00000000
_symmetry_Int_Tables_number   1
_chemical_formula_structural   BaFe2(SeO3)4
_chemical_formula_sum   'Ba2 Fe4 Se8 O24'
_cell_volume   590.32793775
_cell_formula_units_Z   2
loop_
 _symmetry_equiv_pos_site_id
 _symmetry_equiv_pos_as_xyz
  1  'x, y, z'
loop_
 _atom_site_type_symbol
 _atom_site_label
 _atom_site_symmetry_multiplicity
 _atom_site_fract_x
 _atom_site_fract_y
 _atom_site_fract_z
 _atom_site_occupancy
  Ba  Ba0  1  0.06131400  0.00000000  0.75000000  1
  Ba  Ba1  1  0.93868600  0.00000000  0.25000000  1
  Fe  Fe2  1  0.00000000  0.50000000  0.50000000  1
  Fe  Fe3  1  0.50000000  0.00000000  0.00000000  1
  Fe  Fe4  1  0.50000000  0.00000000  0.50000000  1
  Fe  Fe5  1  0.00000000  0.50000000  0.00000000  1
  Se  Se6  1  0.49705800  0.34090200  0.18339700  1
  Se  Se7  1  0.00782000  0.74674100  0.59405500  1
  Se  Se8  1  0.00782000  0.25325900  0.90594500  1
  Se  Se9  1  0.99218000  0.25325900  0.40594500  1
  Se  Se10  1  0.50294200  0.34090200  0.68339700  1
  Se  Se11  1  0.50294200  0.65909800  0.81660300  1
  Se  Se12  1  0.49705800  0.65909800  0.31660300  1
  Se  Se13  1  0.99218000  0.74674100  0.09405500  1
  O  O14  1  0.21200400  0.70309600  0.34974900  1
  O  O15  1  0.29334800  0.81107000  0.03240400  1
  O  O16  1  0.78799600  0.70309600  0.84974900  1
  O  O17  1  0.81419600  0.91352000  0.96657100  1
  O  O18  1  0.70665200  0.81107000  0.53240400  1
  O  O19  1  0.30266200  0.34840300  0.58339200  1
  O  O20  1  0.18580400  0.08648000  0.03342900  1
  O  O21  1  0.69733800  0.34840300  0.08339200  1
  O  O22  1  0.78799600  0.29690400  0.65025100  1
  O  O23  1  0.58587200  0.13662100  0.31646300  1
  O  O24  1  0.69733800  0.65159700  0.41660800  1
  O  O25  1  0.29334800  0.18893000  0.46759600  1
  O  O26  1  0.58587200  0.86337900  0.18353700  1
  O  O27  1  0.81419600  0.08648000  0.53342900  1
  O  O28  1  0.41412800  0.13662100  0.81646300  1
  O  O29  1  0.05503100  0.41889500  0.90464900  1
  O  O30  1  0.70665200  0.18893000  0.96759600  1
  O  O31  1  0.94496900  0.41889500  0.40464900  1
  O  O32  1  0.05503100  0.58110500  0.59535100  1
  O  O33  1  0.41412800  0.86337900  0.68353700  1
  O  O34  1  0.30266200  0.65159700  0.91660800  1
  O  O35  1  0.18580400  0.91352000  0.46657100  1
  O  O36  1  0.94496900  0.58110500  0.09535100  1
  O  O37  1  0.21200400  0.29690400  0.15025100  1
