# generated using pymatgen
data_U2PN2
_symmetry_space_group_name_H-M   'P 1'
_cell_length_a   3.79725226
_cell_length_b   3.79725226
_cell_length_c   6.53767400
_cell_angle_alpha   90.00000000
_cell_angle_beta   90.00000000
_cell_angle_gamma   120.00000458
_symmetry_Int_Tables_number   1
_chemical_formula_structural   U2PN2
_chemical_formula_sum   'U2 P1 N2'
_cell_volume   81.63807800
_cell_formula_units_Z   1
loop_
 _symmetry_equiv_pos_site_id
 _symmetry_equiv_pos_as_xyz
  1  'x, y, z'
loop_
 _atom_site_type_symbol
 _atom_site_label
 _atom_site_symmetry_multiplicity
 _atom_site_fract_x
 _atom_site_fract_y
 _atom_site_fract_z
 _atom_site_occupancy
  U  U0  1  0.66666700  0.33333300  0.71931800  1
  U  U1  1  0.33333300  0.66666700  0.28068200  1
  P  P2  1  0.00000000  0.00000000  0.00000000  1
  N  N3  1  0.33333300  0.66666700  0.62880900  1
  N  N4  1  0.66666700  0.33333300  0.37119100  1
