# generated using pymatgen
data_Ba3Ho2(PS4)4
_symmetry_space_group_name_H-M   'P 1'
_cell_length_a   10.41221300
_cell_length_b   12.74290700
_cell_length_c   19.43586900
_cell_angle_alpha   90.00000000
_cell_angle_beta   90.00000000
_cell_angle_gamma   90.00000000
_symmetry_Int_Tables_number   1
_chemical_formula_structural   Ba3Ho2(PS4)4
_chemical_formula_sum   'Ba12 Ho8 P16 S64'
_cell_volume   2578.78728702
_cell_formula_units_Z   4
loop_
 _symmetry_equiv_pos_site_id
 _symmetry_equiv_pos_as_xyz
  1  'x, y, z'
loop_
 _atom_site_type_symbol
 _atom_site_label
 _atom_site_symmetry_multiplicity
 _atom_site_fract_x
 _atom_site_fract_y
 _atom_site_fract_z
 _atom_site_occupancy
  Ba  Ba0  1  0.78981600  0.10806600  0.22705400  1
  Ba  Ba1  1  0.11673200  0.25000000  0.00000000  1
  Ba  Ba2  1  0.71018400  0.89193400  0.72705400  1
  Ba  Ba3  1  0.88326800  0.75000000  0.00000000  1
  Ba  Ba4  1  0.38326800  0.75000000  0.50000000  1
  Ba  Ba5  1  0.28981600  0.39193400  0.72705400  1
  Ba  Ba6  1  0.21018400  0.89193400  0.77294600  1
  Ba  Ba7  1  0.78981600  0.39193400  0.77294600  1
  Ba  Ba8  1  0.71018400  0.60806600  0.27294600  1
  Ba  Ba9  1  0.28981600  0.10806600  0.27294600  1
  Ba  Ba10  1  0.21018400  0.60806600  0.22705400  1
  Ba  Ba11  1  0.61673200  0.25000000  0.50000000  1
  Ho  Ho12  1  0.62838800  0.38736100  0.07333500  1
  Ho  Ho13  1  0.62838800  0.11263900  0.92666500  1
  Ho  Ho14  1  0.37161200  0.61263900  0.92666500  1
  Ho  Ho15  1  0.87161200  0.88736100  0.42666500  1
  Ho  Ho16  1  0.37161200  0.88736100  0.07333500  1
  Ho  Ho17  1  0.87161200  0.61263900  0.57333500  1
  Ho  Ho18  1  0.12838800  0.38736100  0.42666500  1
  Ho  Ho19  1  0.12838800  0.11263900  0.57333500  1
  P  P20  1  0.49565300  0.36010700  0.89812200  1
  P  P21  1  0.93623900  0.45142800  0.13096000  1
  P  P22  1  0.43623900  0.45142800  0.36904000  1
  P  P23  1  0.93623900  0.04857200  0.86904000  1
  P  P24  1  0.06376100  0.54857200  0.86904000  1
  P  P25  1  0.56376100  0.95142800  0.36904000  1
  P  P26  1  0.50434700  0.86010700  0.89812200  1
  P  P27  1  0.49565300  0.13989300  0.10187800  1
  P  P28  1  0.00434700  0.86010700  0.60187800  1
  P  P29  1  0.56376100  0.54857200  0.63096000  1
  P  P30  1  0.99565300  0.36010700  0.60187800  1
  P  P31  1  0.99565300  0.13989300  0.39812200  1
  P  P32  1  0.00434700  0.63989300  0.39812200  1
  P  P33  1  0.50434700  0.63989300  0.10187800  1
  P  P34  1  0.06376100  0.95142800  0.13096000  1
  P  P35  1  0.43623900  0.04857200  0.63096000  1
  S  S36  1  0.00423400  0.48586000  0.66652900  1
  S  S37  1  0.12112200  0.58533000  0.96748400  1
  S  S38  1  0.93004600  0.61215200  0.14718600  1
  S  S39  1  0.70985800  0.61377800  0.69085400  1
  S  S40  1  0.88614800  0.89402600  0.14964200  1
  S  S41  1  0.43577900  0.27021600  0.15078100  1
  S  S42  1  0.93004600  0.88784800  0.85281400  1
  S  S43  1  0.11154800  0.59834900  0.48348800  1
  S  S44  1  0.67935400  0.16993400  0.06775200  1
  S  S45  1  0.62112200  0.91467000  0.46748400  1
  S  S46  1  0.49576600  0.98586000  0.83347100  1
  S  S47  1  0.06995400  0.11215200  0.14718600  1
  S  S48  1  0.11385200  0.10597400  0.85035800  1
  S  S49  1  0.87887800  0.41467000  0.03251600  1
  S  S50  1  0.06422100  0.77021600  0.34921900  1
  S  S51  1  0.32064600  0.83006600  0.93224800  1
  S  S52  1  0.56422100  0.77021600  0.15078100  1
  S  S53  1  0.29014200  0.38622200  0.30914600  1
  S  S54  1  0.50423400  0.01414000  0.16652900  1
  S  S55  1  0.37887800  0.41467000  0.46748400  1
  S  S56  1  0.17935400  0.16993400  0.43224800  1
  S  S57  1  0.43004600  0.88784800  0.64718600  1
  S  S58  1  0.82064600  0.66993400  0.43224800  1
  S  S59  1  0.43004600  0.61215200  0.35281400  1
  S  S60  1  0.67935400  0.33006600  0.93224800  1
  S  S61  1  0.38845200  0.40165100  0.98348800  1
  S  S62  1  0.79014200  0.11377800  0.80914600  1
  S  S63  1  0.38614800  0.89402600  0.35035800  1
  S  S64  1  0.88845200  0.09834900  0.48348800  1
  S  S65  1  0.06422100  0.72978400  0.65078100  1
  S  S66  1  0.43577900  0.22978400  0.84921900  1
  S  S67  1  0.38845200  0.09834900  0.01651200  1
  S  S68  1  0.93577900  0.27021600  0.34921900  1
  S  S69  1  0.29014200  0.11377800  0.69085400  1
  S  S70  1  0.17935400  0.33006600  0.56775200  1
  S  S71  1  0.00423400  0.01414000  0.33347100  1
  S  S72  1  0.38614800  0.60597400  0.64964200  1
  S  S73  1  0.93577900  0.22978400  0.65078100  1
  S  S74  1  0.99576600  0.51414000  0.33347100  1
  S  S75  1  0.56995400  0.11215200  0.35281400  1
  S  S76  1  0.56422100  0.72978400  0.84921900  1
  S  S77  1  0.82064600  0.83006600  0.56775200  1
  S  S78  1  0.11154800  0.90165100  0.51651200  1
  S  S79  1  0.62112200  0.58533000  0.53251600  1
  S  S80  1  0.12112200  0.91467000  0.03251600  1
  S  S81  1  0.79014200  0.38622200  0.19085400  1
  S  S82  1  0.49576600  0.51414000  0.16652900  1
  S  S83  1  0.37887800  0.08533000  0.53251600  1
  S  S84  1  0.88845200  0.40165100  0.51651200  1
  S  S85  1  0.88614800  0.60597400  0.85035800  1
  S  S86  1  0.20985800  0.88622200  0.19085400  1
  S  S87  1  0.61385200  0.10597400  0.64964200  1
  S  S88  1  0.70985800  0.88622200  0.30914600  1
  S  S89  1  0.20985800  0.61377800  0.80914600  1
  S  S90  1  0.61385200  0.39402600  0.35035800  1
  S  S91  1  0.56995400  0.38784800  0.64718600  1
  S  S92  1  0.50423400  0.48586000  0.83347100  1
  S  S93  1  0.06995400  0.38784800  0.85281400  1
  S  S94  1  0.61154800  0.90165100  0.98348800  1
  S  S95  1  0.32064600  0.66993400  0.06775200  1
  S  S96  1  0.99576600  0.98586000  0.66652900  1
  S  S97  1  0.11385200  0.39402600  0.14964200  1
  S  S98  1  0.87887800  0.08533000  0.96748400  1
  S  S99  1  0.61154800  0.59834900  0.01651200  1
