# generated using pymatgen
data_Tb3Se2ClO8
_symmetry_space_group_name_H-M   'P 1'
_cell_length_a   5.42856400
_cell_length_b   10.91710300
_cell_length_c   15.30773300
_cell_angle_alpha   90.00000000
_cell_angle_beta   90.00000000
_cell_angle_gamma   90.00000000
_symmetry_Int_Tables_number   1
_chemical_formula_structural   Tb3Se2ClO8
_chemical_formula_sum   'Tb12 Se8 Cl4 O32'
_cell_volume   907.20043265
_cell_formula_units_Z   4
loop_
 _symmetry_equiv_pos_site_id
 _symmetry_equiv_pos_as_xyz
  1  'x, y, z'
loop_
 _atom_site_type_symbol
 _atom_site_label
 _atom_site_symmetry_multiplicity
 _atom_site_fract_x
 _atom_site_fract_y
 _atom_site_fract_z
 _atom_site_occupancy
  Tb  Tb0  1  0.48092600  0.63572700  0.42497700  1
  Tb  Tb1  1  0.02958200  0.35657400  0.75000000  1
  Tb  Tb2  1  0.98092600  0.86427300  0.07502300  1
  Tb  Tb3  1  0.97041800  0.64342600  0.25000000  1
  Tb  Tb4  1  0.47041800  0.85657400  0.25000000  1
  Tb  Tb5  1  0.52958200  0.14342600  0.75000000  1
  Tb  Tb6  1  0.51907400  0.36427300  0.92497700  1
  Tb  Tb7  1  0.01907400  0.13572700  0.92497700  1
  Tb  Tb8  1  0.51907400  0.36427300  0.57502300  1
  Tb  Tb9  1  0.98092600  0.86427300  0.42497700  1
  Tb  Tb10  1  0.01907400  0.13572700  0.57502300  1
  Tb  Tb11  1  0.48092600  0.63572700  0.07502300  1
  Se  Se12  1  0.04960700  0.37512600  0.09979400  1
  Se  Se13  1  0.95039300  0.62487400  0.59979400  1
  Se  Se14  1  0.54960700  0.12487400  0.09979400  1
  Se  Se15  1  0.45039300  0.87512600  0.90020600  1
  Se  Se16  1  0.45039300  0.87512600  0.59979400  1
  Se  Se17  1  0.95039300  0.62487400  0.90020600  1
  Se  Se18  1  0.54960700  0.12487400  0.40020600  1
  Se  Se19  1  0.04960700  0.37512600  0.40020600  1
  Cl  Cl20  1  0.58284700  0.49276500  0.75000000  1
  Cl  Cl21  1  0.41715300  0.50723500  0.25000000  1
  Cl  Cl22  1  0.08284700  0.00723500  0.75000000  1
  Cl  Cl23  1  0.91715300  0.99276500  0.25000000  1
  O  O24  1  0.19277100  0.94122700  0.95123100  1
  O  O25  1  0.11677000  0.49889800  0.63103200  1
  O  O26  1  0.38596300  0.18426300  0.01116700  1
  O  O27  1  0.22642900  0.75049200  0.15738300  1
  O  O28  1  0.38323000  0.99889800  0.13103200  1
  O  O29  1  0.88323000  0.50110200  0.13103200  1
  O  O30  1  0.88596300  0.31573700  0.48883300  1
  O  O31  1  0.11403700  0.68426300  0.98883300  1
  O  O32  1  0.61403700  0.81573700  0.51116700  1
  O  O33  1  0.27357100  0.25049200  0.65738300  1
  O  O34  1  0.80722900  0.05877300  0.04876900  1
  O  O35  1  0.27357100  0.25049200  0.84261700  1
  O  O36  1  0.77357100  0.24950800  0.65738300  1
  O  O37  1  0.72642900  0.74950800  0.34261700  1
  O  O38  1  0.69277100  0.55877300  0.95123100  1
  O  O39  1  0.61677000  0.00110200  0.86896800  1
  O  O40  1  0.61677000  0.00110200  0.63103200  1
  O  O41  1  0.77357100  0.24950800  0.84261700  1
  O  O42  1  0.22642900  0.75049200  0.34261700  1
  O  O43  1  0.61403700  0.81573700  0.98883300  1
  O  O44  1  0.19277100  0.94122700  0.54876900  1
  O  O45  1  0.69277100  0.55877300  0.54876900  1
  O  O46  1  0.72642900  0.74950800  0.15738300  1
  O  O47  1  0.38323000  0.99889800  0.36896800  1
  O  O48  1  0.11677000  0.49889800  0.86896800  1
  O  O49  1  0.80722900  0.05877300  0.45123100  1
  O  O50  1  0.30722900  0.44122700  0.45123100  1
  O  O51  1  0.88596300  0.31573700  0.01116700  1
  O  O52  1  0.88323000  0.50110200  0.36896800  1
  O  O53  1  0.11403700  0.68426300  0.51116700  1
  O  O54  1  0.30722900  0.44122700  0.04876900  1
  O  O55  1  0.38596300  0.18426300  0.48883300  1
