# generated using pymatgen
data_TmAu3
_symmetry_space_group_name_H-M   'P 1'
_cell_length_a   5.03492200
_cell_length_b   5.17595800
_cell_length_c   6.08459900
_cell_angle_alpha   90.00000000
_cell_angle_beta   90.00000000
_cell_angle_gamma   90.00000000
_symmetry_Int_Tables_number   1
_chemical_formula_structural   TmAu3
_chemical_formula_sum   'Tm2 Au6'
_cell_volume   158.56796486
_cell_formula_units_Z   2
loop_
 _symmetry_equiv_pos_site_id
 _symmetry_equiv_pos_as_xyz
  1  'x, y, z'
loop_
 _atom_site_type_symbol
 _atom_site_label
 _atom_site_symmetry_multiplicity
 _atom_site_fract_x
 _atom_site_fract_y
 _atom_site_fract_z
 _atom_site_occupancy
  Tm  Tm0  1  0.75000000  0.34528300  0.75000000  1
  Tm  Tm1  1  0.25000000  0.65471700  0.25000000  1
  Au  Au2  1  0.25000000  0.65724900  0.75000000  1
  Au  Au3  1  0.25000000  0.15862200  0.50391800  1
  Au  Au4  1  0.25000000  0.15862200  0.99608200  1
  Au  Au5  1  0.75000000  0.84137800  0.00391800  1
  Au  Au6  1  0.75000000  0.34275100  0.25000000  1
  Au  Au7  1  0.75000000  0.84137800  0.49608200  1
