# generated using pymatgen
data_AlAs3S5Cl4
_symmetry_space_group_name_H-M   'P 1'
_cell_length_a   10.19334600
_cell_length_b   6.62791000
_cell_length_c   11.95371568
_cell_angle_alpha   75.75653006
_cell_angle_beta   90.00000000
_cell_angle_gamma   90.00000000
_symmetry_Int_Tables_number   1
_chemical_formula_structural   AlAs3S5Cl4
_chemical_formula_sum   'Al2 As6 S10 Cl8'
_cell_volume   782.77349847
_cell_formula_units_Z   2
loop_
 _symmetry_equiv_pos_site_id
 _symmetry_equiv_pos_as_xyz
  1  'x, y, z'
loop_
 _atom_site_type_symbol
 _atom_site_label
 _atom_site_symmetry_multiplicity
 _atom_site_fract_x
 _atom_site_fract_y
 _atom_site_fract_z
 _atom_site_occupancy
  Al  Al0  1  0.75000000  0.48086000  0.71987600  1
  Al  Al1  1  0.25000000  0.51914000  0.28012400  1
  As  As2  1  0.08225000  0.05179000  0.66960800  1
  As  As3  1  0.58225000  0.94821000  0.33039200  1
  As  As4  1  0.91775000  0.94821000  0.33039200  1
  As  As5  1  0.75000000  0.97299400  0.05193000  1
  As  As6  1  0.25000000  0.02700600  0.94807000  1
  As  As7  1  0.41775000  0.05179000  0.66960800  1
  S  S8  1  0.42913900  0.92685200  0.86238900  1
  S  S9  1  0.75000000  0.68387300  0.32530700  1
  S  S10  1  0.75000000  0.63262200  0.16750700  1
  S  S11  1  0.57086100  0.07314800  0.13761100  1
  S  S12  1  0.25000000  0.31612700  0.67469300  1
  S  S13  1  0.25000000  0.88252900  0.60488600  1
  S  S14  1  0.25000000  0.36737800  0.83249300  1
  S  S15  1  0.75000000  0.11747100  0.39511400  1
  S  S16  1  0.07086100  0.92685200  0.86238900  1
  S  S17  1  0.92913900  0.07314800  0.13761100  1
  Cl  Cl18  1  0.25000000  0.48297000  0.10608800  1
  Cl  Cl19  1  0.75000000  0.15465800  0.72186300  1
  Cl  Cl20  1  0.75000000  0.51703000  0.89391200  1
  Cl  Cl21  1  0.25000000  0.84534200  0.27813700  1
  Cl  Cl22  1  0.92454600  0.62050500  0.62795800  1
  Cl  Cl23  1  0.57545400  0.62050500  0.62795800  1
  Cl  Cl24  1  0.07545400  0.37949500  0.37204200  1
  Cl  Cl25  1  0.42454600  0.37949500  0.37204200  1
