# generated using pymatgen
data_Pr3S3N
_symmetry_space_group_name_H-M   'P 1'
_cell_length_a   4.08608500
_cell_length_b   12.26950900
_cell_length_c   13.23968100
_cell_angle_alpha   90.00000000
_cell_angle_beta   90.00000000
_cell_angle_gamma   90.00000000
_symmetry_Int_Tables_number   1
_chemical_formula_structural   Pr3S3N
_chemical_formula_sum   'Pr12 S12 N4'
_cell_volume   663.76156565
_cell_formula_units_Z   4
loop_
 _symmetry_equiv_pos_site_id
 _symmetry_equiv_pos_as_xyz
  1  'x, y, z'
loop_
 _atom_site_type_symbol
 _atom_site_label
 _atom_site_symmetry_multiplicity
 _atom_site_fract_x
 _atom_site_fract_y
 _atom_site_fract_z
 _atom_site_occupancy
  Pr  Pr0  1  0.25000000  0.08820100  0.37296600  1
  Pr  Pr1  1  0.25000000  0.03767400  0.84982700  1
  Pr  Pr2  1  0.75000000  0.96232600  0.15017300  1
  Pr  Pr3  1  0.25000000  0.72544100  0.36808900  1
  Pr  Pr4  1  0.25000000  0.58820100  0.12703400  1
  Pr  Pr5  1  0.75000000  0.77455900  0.86808900  1
  Pr  Pr6  1  0.25000000  0.53767400  0.65017300  1
  Pr  Pr7  1  0.75000000  0.46232600  0.34982700  1
  Pr  Pr8  1  0.75000000  0.41179900  0.87296600  1
  Pr  Pr9  1  0.25000000  0.22544100  0.13191100  1
  Pr  Pr10  1  0.75000000  0.27455900  0.63191100  1
  Pr  Pr11  1  0.75000000  0.91179900  0.62703400  1
  S  S12  1  0.25000000  0.85786300  0.99831000  1
  S  S13  1  0.75000000  0.64213700  0.49831000  1
  S  S14  1  0.25000000  0.35786300  0.50169000  1
  S  S15  1  0.75000000  0.73322500  0.20100500  1
  S  S16  1  0.75000000  0.42264300  0.10729200  1
  S  S17  1  0.75000000  0.14213700  0.00169000  1
  S  S18  1  0.75000000  0.92264300  0.39270800  1
  S  S19  1  0.25000000  0.26677500  0.79899500  1
  S  S20  1  0.75000000  0.23322500  0.29899500  1
  S  S21  1  0.25000000  0.76677500  0.70100500  1
  S  S22  1  0.25000000  0.57735700  0.89270800  1
  S  S23  1  0.25000000  0.07735700  0.60729200  1
  N  N24  1  0.25000000  0.04961600  0.20188100  1
  N  N25  1  0.25000000  0.54961600  0.29811900  1
  N  N26  1  0.75000000  0.95038400  0.79811900  1
  N  N27  1  0.75000000  0.45038400  0.70188100  1
