# generated using pymatgen
data_K2Cd2Te3
_symmetry_space_group_name_H-M   'P 1'
_cell_length_a   16.05139700
_cell_length_b   13.49792700
_cell_length_c   14.56759175
_cell_angle_alpha   85.50302236
_cell_angle_beta   90.00000000
_cell_angle_gamma   90.00000000
_symmetry_Int_Tables_number   1
_chemical_formula_structural   K2Cd2Te3
_chemical_formula_sum   'K24 Cd24 Te36'
_cell_volume   3146.50642684
_cell_formula_units_Z   12
loop_
 _symmetry_equiv_pos_site_id
 _symmetry_equiv_pos_as_xyz
  1  'x, y, z'
loop_
 _atom_site_type_symbol
 _atom_site_label
 _atom_site_symmetry_multiplicity
 _atom_site_fract_x
 _atom_site_fract_y
 _atom_site_fract_z
 _atom_site_occupancy
  K  K0  1  0.96134100  0.14251800  0.56064800  1
  K  K1  1  0.77028100  0.73378700  0.26799300  1
  K  K2  1  0.02457700  0.64283200  0.04645700  1
  K  K3  1  0.05491700  0.98063200  0.12258800  1
  K  K4  1  0.52649200  0.47482200  0.14523400  1
  K  K5  1  0.55491700  0.01936800  0.37741200  1
  K  K6  1  0.47350800  0.52517800  0.85476600  1
  K  K7  1  0.02649200  0.52517800  0.35476600  1
  K  K8  1  0.52457700  0.35716800  0.45354300  1
  K  K9  1  0.52961800  0.24768400  0.76683400  1
  K  K10  1  0.22971900  0.26621300  0.73200700  1
  K  K11  1  0.53865900  0.14251800  0.06064800  1
  K  K12  1  0.47542300  0.64283200  0.54645700  1
  K  K13  1  0.02961800  0.75231600  0.73316600  1
  K  K14  1  0.94508300  0.01936800  0.87741200  1
  K  K15  1  0.27028100  0.26621300  0.23200700  1
  K  K16  1  0.97038200  0.24768400  0.26683400  1
  K  K17  1  0.97542300  0.35716800  0.95354300  1
  K  K18  1  0.72971900  0.73378700  0.76799300  1
  K  K19  1  0.47038200  0.75231600  0.23316600  1
  K  K20  1  0.97350800  0.47482200  0.64523400  1
  K  K21  1  0.46134100  0.85748200  0.93935200  1
  K  K22  1  0.44508300  0.98063200  0.62258800  1
  K  K23  1  0.03865900  0.85748200  0.43935200  1
  Cd  Cd24  1  0.24627400  0.68117700  0.88652500  1
  Cd  Cd25  1  0.79130800  0.63137300  0.01933600  1
  Cd  Cd26  1  0.29130800  0.36862700  0.48066400  1
  Cd  Cd27  1  0.25372600  0.68117700  0.38652500  1
  Cd  Cd28  1  0.75022500  0.17755700  0.90453700  1
  Cd  Cd29  1  0.72984400  0.44277800  0.31868200  1
  Cd  Cd30  1  0.30944700  0.13765500  0.99087600  1
  Cd  Cd31  1  0.27015600  0.55722200  0.68131800  1
  Cd  Cd32  1  0.77015600  0.44277800  0.81868200  1
  Cd  Cd33  1  0.29070700  0.00839500  0.32283100  1
  Cd  Cd34  1  0.22984400  0.55722200  0.18131800  1
  Cd  Cd35  1  0.20929300  0.00839500  0.82283100  1
  Cd  Cd36  1  0.24977500  0.82244300  0.09546300  1
  Cd  Cd37  1  0.74977500  0.17755700  0.40453700  1
  Cd  Cd38  1  0.80944700  0.86234500  0.50912400  1
  Cd  Cd39  1  0.19055300  0.13765500  0.49087600  1
  Cd  Cd40  1  0.70929300  0.99160500  0.67716900  1
  Cd  Cd41  1  0.79070700  0.99160500  0.17716900  1
  Cd  Cd42  1  0.74627400  0.31882300  0.61347500  1
  Cd  Cd43  1  0.25022500  0.82244300  0.59546300  1
  Cd  Cd44  1  0.70869200  0.63137300  0.51933600  1
  Cd  Cd45  1  0.20869200  0.36862700  0.98066400  1
  Cd  Cd46  1  0.75372600  0.31882300  0.11347500  1
  Cd  Cd47  1  0.69055300  0.86234500  0.00912400  1
  Te  Te48  1  0.15508500  0.50994600  0.83249900  1
  Te  Te49  1  0.12262500  0.06749700  0.32530700  1
  Te  Te50  1  0.86153000  0.26224900  0.76150500  1
  Te  Te51  1  0.88896900  0.58472400  0.86232200  1
  Te  Te52  1  0.87946200  0.67027400  0.48306700  1
  Te  Te53  1  0.13988500  0.84392000  0.93290800  1
  Te  Te54  1  0.62053800  0.67027400  0.98306700  1
  Te  Te55  1  0.11103100  0.41527600  0.13767800  1
  Te  Te56  1  0.86011500  0.15608000  0.06709200  1
  Te  Te57  1  0.63439300  0.83543000  0.56005300  1
  Te  Te58  1  0.34491500  0.50994600  0.33249900  1
  Te  Te59  1  0.63847000  0.26224900  0.26150500  1
  Te  Te60  1  0.61103100  0.58472400  0.36232200  1
  Te  Te61  1  0.34761400  0.64813500  0.05044800  1
  Te  Te62  1  0.84491500  0.49005400  0.16750100  1
  Te  Te63  1  0.36560700  0.16457000  0.43994700  1
  Te  Te64  1  0.64877300  0.01357400  0.86265200  1
  Te  Te65  1  0.65508500  0.49005400  0.66750100  1
  Te  Te66  1  0.86560700  0.83543000  0.06005300  1
  Te  Te67  1  0.36153000  0.73775100  0.73849500  1
  Te  Te68  1  0.38896900  0.41527600  0.63767800  1
  Te  Te69  1  0.15238600  0.64813500  0.55044800  1
  Te  Te70  1  0.87737500  0.93250300  0.67469300  1
  Te  Te71  1  0.62262500  0.93250300  0.17469300  1
  Te  Te72  1  0.37737500  0.06749700  0.82530700  1
  Te  Te73  1  0.36011500  0.84392000  0.43290800  1
  Te  Te74  1  0.37946200  0.32972600  0.01693300  1
  Te  Te75  1  0.12053800  0.32972600  0.51693300  1
  Te  Te76  1  0.65238600  0.35186500  0.94955200  1
  Te  Te77  1  0.35122700  0.98642600  0.13734800  1
  Te  Te78  1  0.84761400  0.35186500  0.44955200  1
  Te  Te79  1  0.63988500  0.15608000  0.56709200  1
  Te  Te80  1  0.14877300  0.98642600  0.63734800  1
  Te  Te81  1  0.13439300  0.16457000  0.93994700  1
  Te  Te82  1  0.13847000  0.73775100  0.23849500  1
  Te  Te83  1  0.85122700  0.01357400  0.36265200  1
