# generated using pymatgen
data_K3LuSi2O7
_symmetry_space_group_name_H-M   'P 1'
_cell_length_a   5.76515552
_cell_length_b   5.76515552
_cell_length_c   14.06423000
_cell_angle_alpha   90.00000000
_cell_angle_beta   90.00000000
_cell_angle_gamma   119.99999451
_symmetry_Int_Tables_number   1
_chemical_formula_structural   K3LuSi2O7
_chemical_formula_sum   'K6 Lu2 Si4 O14'
_cell_volume   404.82625460
_cell_formula_units_Z   2
loop_
 _symmetry_equiv_pos_site_id
 _symmetry_equiv_pos_as_xyz
  1  'x, y, z'
loop_
 _atom_site_type_symbol
 _atom_site_label
 _atom_site_symmetry_multiplicity
 _atom_site_fract_x
 _atom_site_fract_y
 _atom_site_fract_z
 _atom_site_occupancy
  K  K0  1  0.66666700  0.33333300  0.90837800  1
  K  K1  1  0.33333300  0.66666700  0.09162200  1
  K  K2  1  0.66666700  0.33333300  0.59162200  1
  K  K3  1  0.33333300  0.66666700  0.40837800  1
  K  K4  1  0.00000000  0.00000000  0.75000000  1
  K  K5  1  0.00000000  0.00000000  0.25000000  1
  Lu  Lu6  1  0.00000000  0.00000000  0.00000000  1
  Lu  Lu7  1  0.00000000  0.00000000  0.50000000  1
  Si  Si8  1  0.66666700  0.33333300  0.36874700  1
  Si  Si9  1  0.66666700  0.33333300  0.13125300  1
  Si  Si10  1  0.33333300  0.66666700  0.86874700  1
  Si  Si11  1  0.33333300  0.66666700  0.63125300  1
  O  O12  1  0.17745900  0.35491900  0.59476800  1
  O  O13  1  0.82254100  0.17745900  0.09476800  1
  O  O14  1  0.64508100  0.82254100  0.90523200  1
  O  O15  1  0.82254100  0.64508100  0.09476800  1
  O  O16  1  0.17745900  0.82254100  0.90523200  1
  O  O17  1  0.82254100  0.64508100  0.40523200  1
  O  O18  1  0.82254100  0.17745900  0.40523200  1
  O  O19  1  0.17745900  0.82254100  0.59476800  1
  O  O20  1  0.64508100  0.82254100  0.59476800  1
  O  O21  1  0.35491900  0.17745900  0.09476800  1
  O  O22  1  0.66666700  0.33333300  0.25000000  1
  O  O23  1  0.17745900  0.35491900  0.90523200  1
  O  O24  1  0.35491900  0.17745900  0.40523200  1
  O  O25  1  0.33333300  0.66666700  0.75000000  1
