# generated using pymatgen
data_P4N3Cl11
_symmetry_space_group_name_H-M   'P 1'
_cell_length_a   11.53048700
_cell_length_b   15.22091500
_cell_length_c   15.27227274
_cell_angle_alpha   65.42844143
_cell_angle_beta   90.00000000
_cell_angle_gamma   90.00000000
_symmetry_Int_Tables_number   1
_chemical_formula_structural   P4N3Cl11
_chemical_formula_sum   'P16 N12 Cl44'
_cell_volume   2437.62779823
_cell_formula_units_Z   4
loop_
 _symmetry_equiv_pos_site_id
 _symmetry_equiv_pos_as_xyz
  1  'x, y, z'
loop_
 _atom_site_type_symbol
 _atom_site_label
 _atom_site_symmetry_multiplicity
 _atom_site_fract_x
 _atom_site_fract_y
 _atom_site_fract_z
 _atom_site_occupancy
  P  P0  1  0.09267600  0.91638300  0.19856900  1
  P  P1  1  0.71965600  0.87717100  0.63325100  1
  P  P2  1  0.90732400  0.41638300  0.19856900  1
  P  P3  1  0.28034400  0.12282900  0.36674900  1
  P  P4  1  0.69620700  0.12748700  0.88664200  1
  P  P5  1  0.71965600  0.62282900  0.36674900  1
  P  P6  1  0.30379300  0.62748700  0.88664200  1
  P  P7  1  0.90831500  0.50968600  0.33222300  1
  P  P8  1  0.69620700  0.37251300  0.11335800  1
  P  P9  1  0.09168500  0.00968600  0.33222300  1
  P  P10  1  0.30379300  0.87251300  0.11335800  1
  P  P11  1  0.90831500  0.99031400  0.66777700  1
  P  P12  1  0.09168500  0.49031400  0.66777700  1
  P  P13  1  0.90732400  0.08361700  0.80143100  1
  P  P14  1  0.28034400  0.37717100  0.63325100  1
  P  P15  1  0.09267600  0.58361700  0.80143100  1
  N  N16  1  0.84200200  0.90217800  0.66118400  1
  N  N17  1  0.84200200  0.59782200  0.33881600  1
  N  N18  1  0.17960200  0.90903800  0.12211000  1
  N  N19  1  0.82039800  0.09096200  0.87789000  1
  N  N20  1  0.86231700  0.48057100  0.25046300  1
  N  N21  1  0.13768300  0.98057100  0.25046300  1
  N  N22  1  0.15799800  0.40217800  0.66118400  1
  N  N23  1  0.86231700  0.01942900  0.74953700  1
  N  N24  1  0.15799800  0.09782200  0.33881600  1
  N  N25  1  0.82039800  0.40903800  0.12211000  1
  N  N26  1  0.13768300  0.51942900  0.74953700  1
  N  N27  1  0.17960200  0.59096200  0.87789000  1
  Cl  Cl28  1  0.58380600  0.92526100  0.68273500  1
  Cl  Cl29  1  0.29682400  0.23401000  0.68358200  1
  Cl  Cl30  1  0.33914200  0.58201700  0.02673700  1
  Cl  Cl31  1  0.70317600  0.76599000  0.31641800  1
  Cl  Cl32  1  0.66085800  0.08201700  0.02673700  1
  Cl  Cl33  1  0.56892900  0.07942200  0.82834600  1
  Cl  Cl34  1  0.95192700  0.28226600  0.29500700  1
  Cl  Cl35  1  0.43107100  0.92057800  0.17165400  1
  Cl  Cl36  1  0.07728400  0.95717600  0.68462800  1
  Cl  Cl37  1  0.33914200  0.91798300  0.97326300  1
  Cl  Cl38  1  0.36216000  0.49845800  0.25555300  1
  Cl  Cl39  1  0.58380600  0.57473900  0.31726500  1
  Cl  Cl40  1  0.95192700  0.21773400  0.70499300  1
  Cl  Cl41  1  0.29682400  0.26599000  0.31641800  1
  Cl  Cl42  1  0.09758100  0.60601700  0.53809900  1
  Cl  Cl43  1  0.90241900  0.39398300  0.46190100  1
  Cl  Cl44  1  0.05600500  0.46685600  0.12744000  1
  Cl  Cl45  1  0.30595300  0.07320200  0.50931900  1
  Cl  Cl46  1  0.90241900  0.10601700  0.53809900  1
  Cl  Cl47  1  0.63784000  0.50154200  0.74444700  1
  Cl  Cl48  1  0.07728400  0.54282400  0.31537200  1
  Cl  Cl49  1  0.68015100  0.22798600  0.17195600  1
  Cl  Cl50  1  0.63784000  0.99845800  0.25555300  1
  Cl  Cl51  1  0.04807300  0.78226600  0.29500700  1
  Cl  Cl52  1  0.04807300  0.71773400  0.70499300  1
  Cl  Cl53  1  0.94399500  0.96685600  0.12744000  1
  Cl  Cl54  1  0.92271600  0.04282400  0.31537200  1
  Cl  Cl55  1  0.43107100  0.57942200  0.82834600  1
  Cl  Cl56  1  0.05600500  0.03314400  0.87256000  1
  Cl  Cl57  1  0.31984900  0.72798600  0.17195600  1
  Cl  Cl58  1  0.31984900  0.77201400  0.82804400  1
  Cl  Cl59  1  0.09758100  0.89398300  0.46190100  1
  Cl  Cl60  1  0.70317600  0.73401000  0.68358200  1
  Cl  Cl61  1  0.69404700  0.57320200  0.50931900  1
  Cl  Cl62  1  0.92271600  0.45717600  0.68462800  1
  Cl  Cl63  1  0.30595300  0.42679800  0.49068100  1
  Cl  Cl64  1  0.41619400  0.42526100  0.68273500  1
  Cl  Cl65  1  0.41619400  0.07473900  0.31726500  1
  Cl  Cl66  1  0.56892900  0.42057800  0.17165400  1
  Cl  Cl67  1  0.68015100  0.27201400  0.82804400  1
  Cl  Cl68  1  0.36216000  0.00154200  0.74444700  1
  Cl  Cl69  1  0.66085800  0.41798300  0.97326300  1
  Cl  Cl70  1  0.94399500  0.53314400  0.87256000  1
  Cl  Cl71  1  0.69404700  0.92679800  0.49068100  1
