# generated using pymatgen
data_Zr3BiF15
_symmetry_space_group_name_H-M   'P 1'
_cell_length_a   8.29266800
_cell_length_b   8.30185722
_cell_length_c   16.60834545
_cell_angle_alpha   100.26201144
_cell_angle_beta   100.06395103
_cell_angle_gamma   100.03473100
_symmetry_Int_Tables_number   1
_chemical_formula_structural   Zr3BiF15
_chemical_formula_sum   'Zr12 Bi4 F60'
_cell_volume   1082.61707080
_cell_formula_units_Z   4
loop_
 _symmetry_equiv_pos_site_id
 _symmetry_equiv_pos_as_xyz
  1  'x, y, z'
loop_
 _atom_site_type_symbol
 _atom_site_label
 _atom_site_symmetry_multiplicity
 _atom_site_fract_x
 _atom_site_fract_y
 _atom_site_fract_z
 _atom_site_occupancy
  Zr  Zr0  1  0.32475500  0.75748000  0.08772100  1
  Zr  Zr1  1  0.25285800  0.82179000  0.33664500  1
  Zr  Zr2  1  0.75254100  0.75049100  0.37790800  1
  Zr  Zr3  1  0.24872200  0.82529300  0.84015000  1
  Zr  Zr4  1  0.82409800  0.67777500  0.62798300  1
  Zr  Zr5  1  0.74815600  0.74688300  0.87382200  1
  Zr  Zr6  1  0.25184400  0.25311700  0.12617800  1
  Zr  Zr7  1  0.17590200  0.32222500  0.37201700  1
  Zr  Zr8  1  0.75127800  0.17470700  0.15985000  1
  Zr  Zr9  1  0.24745900  0.24950900  0.62209200  1
  Zr  Zr10  1  0.74714200  0.17821000  0.66335500  1
  Zr  Zr11  1  0.67524500  0.24252000  0.91227900  1
  Bi  Bi12  1  0.82107000  0.67589500  0.12532300  1
  Bi  Bi13  1  0.32044600  0.74918500  0.58829600  1
  Bi  Bi14  1  0.67955400  0.25081500  0.41170400  1
  Bi  Bi15  1  0.17893000  0.32410500  0.87467700  1
  F  F16  1  0.23261500  0.99760100  0.11431400  1
  F  F17  1  0.53704400  0.96419900  0.11796500  1
  F  F18  1  0.21234900  0.99808400  0.60852200  1
  F  F19  1  0.85089500  0.96647600  0.16241300  1
  F  F20  1  0.34787500  0.80843100  0.21926300  1
  F  F21  1  0.05058500  0.75882100  0.23830300  1
  F  F22  1  0.54807400  0.97798200  0.63728800  1
  F  F23  1  0.06961300  0.69318600  0.07503500  1
  F  F24  1  0.77751800  0.78477900  0.99962000  1
  F  F25  1  0.00671100  0.77533300  0.38735000  1
  F  F26  1  0.31389900  0.85458800  0.46448900  1
  F  F27  1  0.84439600  0.94404800  0.65591400  1
  F  F28  1  0.53399500  0.65367100  0.09246200  1
  F  F29  1  0.71895700  0.72632200  0.25186200  1
  F  F30  1  0.49473800  0.72521200  0.36016100  1
  F  F31  1  0.34591500  0.82679100  0.73544200  1
  F  F32  1  0.03223900  0.74566700  0.73141100  1
  F  F33  1  0.03384300  0.68165700  0.57632400  1
  F  F34  1  0.77182100  0.77459500  0.50413300  1
  F  F35  1  0.00372900  0.77839200  0.88724800  1
  F  F36  1  0.31082600  0.85075200  0.97303000  1
  F  F37  1  0.19051600  0.55459000  0.32505100  1
  F  F38  1  0.27288400  0.50296800  0.13837400  1
  F  F39  1  0.56760700  0.64882000  0.59557100  1
  F  F40  1  0.72632900  0.72417500  0.74687600  1
  F  F41  1  0.49490500  0.72538500  0.86376100  1
  F  F42  1  0.74486700  0.44803700  0.01252900  1
  F  F43  1  0.24536100  0.52661600  0.47417200  1
  F  F44  1  0.72631800  0.49748600  0.35874500  1
  F  F45  1  0.81550800  0.42999900  0.17670100  1
  F  F46  1  0.18449200  0.57000100  0.82329900  1
  F  F47  1  0.27368200  0.50251400  0.64125500  1
  F  F48  1  0.75463900  0.47338400  0.52582800  1
  F  F49  1  0.25513300  0.55196300  0.98747100  1
  F  F50  1  0.50509500  0.27461500  0.13623900  1
  F  F51  1  0.27367100  0.27582500  0.25312400  1
  F  F52  1  0.43239300  0.35118000  0.40442900  1
  F  F53  1  0.72711600  0.49703200  0.86162600  1
  F  F54  1  0.80948400  0.44541000  0.67494900  1
  F  F55  1  0.68917400  0.14924800  0.02697000  1
  F  F56  1  0.99627100  0.22160800  0.11275200  1
  F  F57  1  0.22817900  0.22540500  0.49586700  1
  F  F58  1  0.96615700  0.31834300  0.42367600  1
  F  F59  1  0.96776100  0.25433300  0.26858900  1
  F  F60  1  0.65408500  0.17320900  0.26455800  1
  F  F61  1  0.50526200  0.27478800  0.63983900  1
  F  F62  1  0.28104300  0.27367800  0.74813800  1
  F  F63  1  0.46600500  0.34632900  0.90753800  1
  F  F64  1  0.15560400  0.05595200  0.34408600  1
  F  F65  1  0.68610100  0.14541200  0.53551100  1
  F  F66  1  0.99328900  0.22466700  0.61265000  1
  F  F67  1  0.22248200  0.21522100  0.00038000  1
  F  F68  1  0.93038700  0.30681400  0.92496500  1
  F  F69  1  0.45192600  0.02201800  0.36271200  1
  F  F70  1  0.94941500  0.24117900  0.76169700  1
  F  F71  1  0.65212500  0.19156900  0.78073700  1
  F  F72  1  0.14910500  0.03352400  0.83758700  1
  F  F73  1  0.78765100  0.00191600  0.39147800  1
  F  F74  1  0.46295600  0.03580100  0.88203500  1
  F  F75  1  0.76738500  0.00239900  0.88568600  1
