# generated using pymatgen
data_Fe2(SO4)3
_symmetry_space_group_name_H-M   'P 1'
_cell_length_a   8.36871031
_cell_length_b   8.36930524
_cell_length_c   8.95438791
_cell_angle_alpha   62.13650651
_cell_angle_beta   89.99839068
_cell_angle_gamma   59.99843553
_symmetry_Int_Tables_number   1
_chemical_formula_structural   Fe2(SO4)3
_chemical_formula_sum   'Fe4 S6 O24'
_cell_volume   457.25571654
_cell_formula_units_Z   2
loop_
 _symmetry_equiv_pos_site_id
 _symmetry_equiv_pos_as_xyz
  1  'x, y, z'
loop_
 _atom_site_type_symbol
 _atom_site_label
 _atom_site_symmetry_multiplicity
 _atom_site_fract_x
 _atom_site_fract_y
 _atom_site_fract_z
 _atom_site_occupancy
  Fe  Fe0  1  0.85484600  0.29033300  0.56453900  1
  Fe  Fe1  1  0.65028500  0.69937800  0.95090800  1
  Fe  Fe2  1  0.14508700  0.70980900  0.43534200  1
  Fe  Fe3  1  0.34972100  0.30054100  0.04913600  1
  S  S4  1  0.54077800  0.49667500  0.75178200  1
  S  S5  1  0.96250800  0.78902700  0.75177000  1
  S  S6  1  0.24841900  0.21077000  0.75177300  1
  S  S7  1  0.45919100  0.50331700  0.24820900  1
  S  S8  1  0.03755000  0.21094700  0.24825200  1
  S  S9  1  0.75154300  0.78926900  0.24822700  1
  O  O10  1  0.38578500  0.62656700  0.58332500  1
  O  O11  1  0.98756300  0.80253400  0.58329500  1
  O  O12  1  0.20988400  0.40430400  0.58330900  1
  O  O13  1  0.61426600  0.37336900  0.41658400  1
  O  O14  1  0.01246300  0.19761400  0.41664700  1
  O  O15  1  0.79005400  0.59571900  0.41663300  1
  O  O16  1  0.52237100  0.32590300  0.89476600  1
  O  O17  1  0.15169200  0.62755500  0.89475500  1
  O  O18  1  0.22065600  0.25694100  0.89478300  1
  O  O19  1  0.47771000  0.67389600  0.10531000  1
  O  O20  1  0.84840800  0.37239000  0.10534800  1
  O  O21  1  0.77923400  0.74307600  0.10532800  1
  O  O22  1  0.73265500  0.38356000  0.72818100  1
  O  O23  1  0.88378400  0.00447000  0.72819600  1
  O  O24  1  0.11175600  0.15554800  0.72814800  1
  O  O25  1  0.26744600  0.61643900  0.27186000  1
  O  O26  1  0.11618900  0.99554300  0.27189800  1
  O  O27  1  0.88826700  0.84432700  0.27183400  1
  O  O28  1  0.52422300  0.65109400  0.79885100  1
  O  O29  1  0.82459500  0.72546200  0.79883000  1
  O  O30  1  0.44993400  0.02586200  0.79879900  1
  O  O31  1  0.47566400  0.34907300  0.20109300  1
  O  O32  1  0.17535600  0.27455000  0.20114100  1
  O  O33  1  0.55011400  0.97413800  0.20114900  1
