# generated using pymatgen
data_CoAg(NO3)3
_symmetry_space_group_name_H-M   'P 1'
_cell_length_a   7.42284400
_cell_length_b   7.80139700
_cell_length_c   14.89911750
_cell_angle_alpha   61.46125529
_cell_angle_beta   90.00000000
_cell_angle_gamma   90.00000000
_symmetry_Int_Tables_number   1
_chemical_formula_structural   CoAg(NO3)3
_chemical_formula_sum   'Co4 Ag4 N12 O36'
_cell_volume   757.95283037
_cell_formula_units_Z   4
loop_
 _symmetry_equiv_pos_site_id
 _symmetry_equiv_pos_as_xyz
  1  'x, y, z'
loop_
 _atom_site_type_symbol
 _atom_site_label
 _atom_site_symmetry_multiplicity
 _atom_site_fract_x
 _atom_site_fract_y
 _atom_site_fract_z
 _atom_site_occupancy
  Co  Co0  1  0.88829300  0.49835800  0.82090300  1
  Co  Co1  1  0.38829300  0.50164200  0.67909700  1
  Co  Co2  1  0.11170700  0.50164200  0.17909700  1
  Co  Co3  1  0.61170700  0.49835800  0.32090300  1
  Ag  Ag4  1  0.49714200  0.80136300  0.92591300  1
  Ag  Ag5  1  0.99714200  0.19863700  0.57408700  1
  Ag  Ag6  1  0.00285800  0.80136300  0.42591300  1
  Ag  Ag7  1  0.50285800  0.19863700  0.07408700  1
  N  N8  1  0.30003600  0.13685300  0.74630900  1
  N  N9  1  0.27274100  0.49871800  0.36629500  1
  N  N10  1  0.29647700  0.86365200  0.56945900  1
  N  N11  1  0.72725900  0.50128200  0.63370500  1
  N  N12  1  0.69996400  0.86314700  0.25369100  1
  N  N13  1  0.70352300  0.13634800  0.43054100  1
  N  N14  1  0.19996400  0.13685300  0.24630900  1
  N  N15  1  0.79647700  0.13634800  0.93054100  1
  N  N16  1  0.22725900  0.49871800  0.86629500  1
  N  N17  1  0.80003600  0.86314700  0.75369100  1
  N  N18  1  0.20352300  0.86365200  0.06945900  1
  N  N19  1  0.77274100  0.50128200  0.13370500  1
  O  O20  1  0.18265300  0.49775200  0.78165400  1
  O  O21  1  0.58236100  0.80868900  0.20964100  1
  O  O22  1  0.73576500  0.27561200  0.94727500  1
  O  O23  1  0.25522600  0.96449000  0.78006400  1
  O  O24  1  0.61294700  0.50240900  0.10946100  1
  O  O25  1  0.26423500  0.72438800  0.05272500  1
  O  O26  1  0.91763900  0.80868900  0.70964100  1
  O  O27  1  0.91338700  0.19102500  0.85961500  1
  O  O28  1  0.73201900  0.72394100  0.83648500  1
  O  O29  1  0.40458200  0.50073100  0.41973900  1
  O  O30  1  0.26798100  0.27605900  0.16351500  1
  O  O31  1  0.59541800  0.49926900  0.58026100  1
  O  O32  1  0.08236100  0.19131100  0.29035900  1
  O  O33  1  0.25735700  0.03349000  0.01952600  1
  O  O34  1  0.24477400  0.96449000  0.28006400  1
  O  O35  1  0.23201900  0.27605900  0.66351500  1
  O  O36  1  0.41338700  0.80897500  0.64038500  1
  O  O37  1  0.31734700  0.49775200  0.28165400  1
  O  O38  1  0.75735700  0.96651000  0.48047400  1
  O  O39  1  0.76423500  0.27561200  0.44727500  1
  O  O40  1  0.11294700  0.49759100  0.39053900  1
  O  O41  1  0.68265300  0.50224800  0.71834600  1
  O  O42  1  0.74477400  0.03551000  0.21993600  1
  O  O43  1  0.08661300  0.80897500  0.14038500  1
  O  O44  1  0.58661300  0.19102500  0.35961500  1
  O  O45  1  0.75522600  0.03551000  0.71993600  1
  O  O46  1  0.88705300  0.50240900  0.60946100  1
  O  O47  1  0.81734700  0.50224800  0.21834600  1
  O  O48  1  0.23576500  0.72438800  0.55272500  1
  O  O49  1  0.38705300  0.49759100  0.89053900  1
  O  O50  1  0.41763900  0.19131100  0.79035900  1
  O  O51  1  0.90458200  0.49926900  0.08026100  1
  O  O52  1  0.09541800  0.50073100  0.91973900  1
  O  O53  1  0.74264300  0.96651000  0.98047400  1
  O  O54  1  0.76798100  0.72394100  0.33648500  1
  O  O55  1  0.24264300  0.03349000  0.51952600  1
