# generated using pymatgen
data_Ce3S3N
_symmetry_space_group_name_H-M   'P 1'
_cell_length_a   3.99867100
_cell_length_b   11.91841300
_cell_length_c   12.82392400
_cell_angle_alpha   90.00000000
_cell_angle_beta   90.00000000
_cell_angle_gamma   90.00000000
_symmetry_Int_Tables_number   1
_chemical_formula_structural   Ce3S3N
_chemical_formula_sum   'Ce12 S12 N4'
_cell_volume   611.16016460
_cell_formula_units_Z   4
loop_
 _symmetry_equiv_pos_site_id
 _symmetry_equiv_pos_as_xyz
  1  'x, y, z'
loop_
 _atom_site_type_symbol
 _atom_site_label
 _atom_site_symmetry_multiplicity
 _atom_site_fract_x
 _atom_site_fract_y
 _atom_site_fract_z
 _atom_site_occupancy
  Ce  Ce0  1  0.75000000  0.40701900  0.87752200  1
  Ce  Ce1  1  0.25000000  0.59298100  0.12247800  1
  Ce  Ce2  1  0.75000000  0.90701900  0.62247800  1
  Ce  Ce3  1  0.25000000  0.09298100  0.37752200  1
  Ce  Ce4  1  0.75000000  0.76637300  0.86913600  1
  Ce  Ce5  1  0.25000000  0.23362700  0.13086400  1
  Ce  Ce6  1  0.75000000  0.26637300  0.63086400  1
  Ce  Ce7  1  0.25000000  0.73362700  0.36913600  1
  Ce  Ce8  1  0.75000000  0.96403200  0.15194200  1
  Ce  Ce9  1  0.25000000  0.03596800  0.84805800  1
  Ce  Ce10  1  0.75000000  0.46403200  0.34805800  1
  Ce  Ce11  1  0.25000000  0.53596800  0.65194200  1
  S  S12  1  0.75000000  0.64267300  0.50433700  1
  S  S13  1  0.25000000  0.35732700  0.49566300  1
  S  S14  1  0.75000000  0.14267300  0.99566300  1
  S  S15  1  0.25000000  0.85732700  0.00433700  1
  S  S16  1  0.75000000  0.42405000  0.10924700  1
  S  S17  1  0.25000000  0.57595000  0.89075300  1
  S  S18  1  0.75000000  0.92405000  0.39075300  1
  S  S19  1  0.25000000  0.07595000  0.60924700  1
  S  S20  1  0.75000000  0.73250700  0.20648600  1
  S  S21  1  0.25000000  0.26749300  0.79351400  1
  S  S22  1  0.75000000  0.23250700  0.29351400  1
  S  S23  1  0.25000000  0.76749300  0.70648600  1
  N  N24  1  0.75000000  0.44795200  0.70099000  1
  N  N25  1  0.25000000  0.55204800  0.29901000  1
  N  N26  1  0.75000000  0.94795200  0.79901000  1
  N  N27  1  0.25000000  0.05204800  0.20099000  1
