# generated using pymatgen
data_Y2ReB6
_symmetry_space_group_name_H-M   'P 1'
_cell_length_a   3.68662100
_cell_length_b   9.19343800
_cell_length_c   11.58180800
_cell_angle_alpha   90.00000000
_cell_angle_beta   90.00000000
_cell_angle_gamma   90.00000000
_symmetry_Int_Tables_number   1
_chemical_formula_structural   Y2ReB6
_chemical_formula_sum   'Y8 Re4 B24'
_cell_volume   392.53899409
_cell_formula_units_Z   4
loop_
 _symmetry_equiv_pos_site_id
 _symmetry_equiv_pos_as_xyz
  1  'x, y, z'
loop_
 _atom_site_type_symbol
 _atom_site_label
 _atom_site_symmetry_multiplicity
 _atom_site_fract_x
 _atom_site_fract_y
 _atom_site_fract_z
 _atom_site_occupancy
  Y  Y0  1  0.00000000  0.82352100  0.08604600  1
  Y  Y1  1  0.00000000  0.17647900  0.91395400  1
  Y  Y2  1  0.00000000  0.32352100  0.41395400  1
  Y  Y3  1  0.00000000  0.67647900  0.58604600  1
  Y  Y4  1  0.00000000  0.44303200  0.12970400  1
  Y  Y5  1  0.00000000  0.55696800  0.87029600  1
  Y  Y6  1  0.00000000  0.94303200  0.37029600  1
  Y  Y7  1  0.00000000  0.05696800  0.62970400  1
  Re  Re8  1  0.00000000  0.13844000  0.17918000  1
  Re  Re9  1  0.00000000  0.86156000  0.82082000  1
  Re  Re10  1  0.00000000  0.63844000  0.32082000  1
  Re  Re11  1  0.00000000  0.36156000  0.67918000  1
  B  B12  1  0.50000000  0.05318400  0.06730800  1
  B  B13  1  0.50000000  0.94681600  0.93269300  1
  B  B14  1  0.50000000  0.55318400  0.43269200  1
  B  B15  1  0.50000000  0.44681600  0.56730700  1
  B  B16  1  0.50000000  0.24844100  0.08166300  1
  B  B17  1  0.50000000  0.75155900  0.91833700  1
  B  B18  1  0.50000000  0.74844100  0.41833700  1
  B  B19  1  0.50000000  0.25155900  0.58166300  1
  B  B20  1  0.50000000  0.29163500  0.23436300  1
  B  B21  1  0.50000000  0.70836500  0.76563700  1
  B  B22  1  0.50000000  0.79163500  0.26563700  1
  B  B23  1  0.50000000  0.20836500  0.73436300  1
  B  B24  1  0.50000000  0.13072700  0.31409100  1
  B  B25  1  0.50000000  0.86927300  0.68590900  1
  B  B26  1  0.50000000  0.63072700  0.18590900  1
  B  B27  1  0.50000000  0.36927300  0.81409100  1
  B  B28  1  0.50000000  0.48226700  0.28814000  1
  B  B29  1  0.50000000  0.51773300  0.71186000  1
  B  B30  1  0.50000000  0.98226700  0.21186000  1
  B  B31  1  0.50000000  0.01773300  0.78814000  1
  B  B32  1  0.50000000  0.10047800  0.47182200  1
  B  B33  1  0.50000000  0.89952200  0.52817800  1
  B  B34  1  0.50000000  0.60047800  0.02817800  1
  B  B35  1  0.50000000  0.39952200  0.97182200  1
