# generated using pymatgen
data_Cs2GaP3O10
_symmetry_space_group_name_H-M   'P 1'
_cell_length_a   9.16220300
_cell_length_b   9.68903900
_cell_length_c   12.50495578
_cell_angle_alpha   84.81765482
_cell_angle_beta   90.00000000
_cell_angle_gamma   90.00000000
_symmetry_Int_Tables_number   1
_chemical_formula_structural   Cs2GaP3O10
_chemical_formula_sum   'Cs8 Ga4 P12 O40'
_cell_volume   1105.56392963
_cell_formula_units_Z   4
loop_
 _symmetry_equiv_pos_site_id
 _symmetry_equiv_pos_as_xyz
  1  'x, y, z'
loop_
 _atom_site_type_symbol
 _atom_site_label
 _atom_site_symmetry_multiplicity
 _atom_site_fract_x
 _atom_site_fract_y
 _atom_site_fract_z
 _atom_site_occupancy
  Cs  Cs0  1  0.39641300  0.26472300  0.53937100  1
  Cs  Cs1  1  0.10358700  0.76472300  0.53937100  1
  Cs  Cs2  1  0.60358700  0.73527700  0.46062900  1
  Cs  Cs3  1  0.87966400  0.99450600  0.14757000  1
  Cs  Cs4  1  0.12033600  0.00549400  0.85243000  1
  Cs  Cs5  1  0.37966400  0.50549400  0.85243000  1
  Cs  Cs6  1  0.62033600  0.49450600  0.14757000  1
  Cs  Cs7  1  0.89641300  0.23527700  0.46062900  1
  Ga  Ga8  1  0.85147200  0.64411900  0.84727500  1
  Ga  Ga9  1  0.64852800  0.14411900  0.84727500  1
  Ga  Ga10  1  0.35147200  0.85588100  0.15272500  1
  Ga  Ga11  1  0.14852800  0.35588100  0.15272500  1
  P  P12  1  0.91727000  0.32101500  0.95194600  1
  P  P13  1  0.28535000  0.56920000  0.31094500  1
  P  P14  1  0.46650200  0.91845400  0.74104600  1
  P  P15  1  0.03349800  0.41845400  0.74104600  1
  P  P16  1  0.21465000  0.06920000  0.31094500  1
  P  P17  1  0.96650200  0.58154600  0.25895400  1
  P  P18  1  0.08273000  0.67898500  0.04805400  1
  P  P19  1  0.41727000  0.17898500  0.04805400  1
  P  P20  1  0.71465000  0.43080000  0.68905500  1
  P  P21  1  0.53349800  0.08154600  0.25895400  1
  P  P22  1  0.78535000  0.93080000  0.68905500  1
  P  P23  1  0.58273000  0.82101500  0.95194600  1
  O  O24  1  0.00333700  0.28104800  0.05449300  1
  O  O25  1  0.28093700  0.43154800  0.25832400  1
  O  O26  1  0.12806000  0.17944500  0.24074000  1
  O  O27  1  0.37194000  0.67944500  0.24074000  1
  O  O28  1  0.11462600  0.62827500  0.31262500  1
  O  O29  1  0.52250400  0.93005900  0.23519600  1
  O  O30  1  0.81633900  0.19933200  0.93365100  1
  O  O31  1  0.49666300  0.78104800  0.05449300  1
  O  O32  1  0.31633900  0.30066800  0.06634900  1
  O  O33  1  0.45940400  0.82476500  0.85559600  1
  O  O34  1  0.87194000  0.82055500  0.75926000  1
  O  O35  1  0.33281100  0.55508200  0.42640100  1
  O  O36  1  0.71906300  0.56845200  0.74167600  1
  O  O37  1  0.62806000  0.32055500  0.75926000  1
  O  O38  1  0.66718900  0.44491800  0.57359900  1
  O  O39  1  0.02250400  0.56994100  0.76480400  1
  O  O40  1  0.34270800  0.03785000  0.05559800  1
  O  O41  1  0.65729200  0.96215000  0.94440200  1
  O  O42  1  0.84270800  0.46215000  0.94440200  1
  O  O43  1  0.04059600  0.32476500  0.85559600  1
  O  O44  1  0.38537400  0.12827500  0.31262500  1
  O  O45  1  0.78093700  0.06845200  0.74167600  1
  O  O46  1  0.54059600  0.17523500  0.14440400  1
  O  O47  1  0.97749600  0.43005900  0.23519600  1
  O  O48  1  0.21906300  0.93154800  0.25832400  1
  O  O49  1  0.66107300  0.12122700  0.32318800  1
  O  O50  1  0.88537400  0.37172500  0.68737500  1
  O  O51  1  0.83281100  0.94491800  0.57359900  1
  O  O52  1  0.50333700  0.21895200  0.94550700  1
  O  O53  1  0.16107300  0.37877300  0.67681200  1
  O  O54  1  0.99666300  0.71895200  0.94550700  1
  O  O55  1  0.61462600  0.87172500  0.68737500  1
  O  O56  1  0.83892700  0.62122700  0.32318800  1
  O  O57  1  0.95940400  0.67523500  0.14440400  1
  O  O58  1  0.16718900  0.05508200  0.42640100  1
  O  O59  1  0.18366100  0.80066800  0.06634900  1
  O  O60  1  0.47749600  0.06994100  0.76480400  1
  O  O61  1  0.33892700  0.87877300  0.67681200  1
  O  O62  1  0.68366100  0.69933200  0.93365100  1
  O  O63  1  0.15729200  0.53785000  0.05559800  1
