# generated using pymatgen
data_Cs3U2Ge2O11
_symmetry_space_group_name_H-M   'P 1'
_cell_length_a   12.76625900
_cell_length_b   7.20347300
_cell_length_c   16.03954221
_cell_angle_alpha   75.09638961
_cell_angle_beta   90.00000000
_cell_angle_gamma   90.00000000
_symmetry_Int_Tables_number   1
_chemical_formula_structural   Cs3U2Ge2O11
_chemical_formula_sum   'Cs12 U8 Ge8 O44'
_cell_volume   1425.39897243
_cell_formula_units_Z   4
loop_
 _symmetry_equiv_pos_site_id
 _symmetry_equiv_pos_as_xyz
  1  'x, y, z'
loop_
 _atom_site_type_symbol
 _atom_site_label
 _atom_site_symmetry_multiplicity
 _atom_site_fract_x
 _atom_site_fract_y
 _atom_site_fract_z
 _atom_site_occupancy
  Cs  Cs0  1  0.17304500  0.00657400  0.07492600  1
  Cs  Cs1  1  0.84554500  0.51408500  0.40896200  1
  Cs  Cs2  1  0.65445500  0.51408500  0.90896200  1
  Cs  Cs3  1  0.82695500  0.99342600  0.92507400  1
  Cs  Cs4  1  0.32695500  0.00657400  0.57492600  1
  Cs  Cs5  1  0.35075800  0.55479300  0.83425300  1
  Cs  Cs6  1  0.14924200  0.55479300  0.33425300  1
  Cs  Cs7  1  0.67304500  0.99342600  0.42507400  1
  Cs  Cs8  1  0.85075800  0.44520700  0.66574700  1
  Cs  Cs9  1  0.34554500  0.48591500  0.09103800  1
  Cs  Cs10  1  0.64924200  0.44520700  0.16574700  1
  Cs  Cs11  1  0.15445500  0.48591500  0.59103800  1
  U  U12  1  0.05477100  0.84822400  0.75918300  1
  U  U13  1  0.44522900  0.84822400  0.25918300  1
  U  U14  1  0.94522900  0.15177600  0.24081700  1
  U  U15  1  0.55477100  0.15177600  0.74081700  1
  U  U16  1  0.50000000  0.00000000  0.00000000  1
  U  U17  1  0.50000000  0.50000000  0.50000000  1
  U  U18  1  0.00000000  0.00000000  0.50000000  1
  U  U19  1  0.00000000  0.50000000  0.00000000  1
  Ge  Ge20  1  0.42262400  0.30285100  0.32589300  1
  Ge  Ge21  1  0.79190600  0.95086100  0.66143900  1
  Ge  Ge22  1  0.57737600  0.69714900  0.67410700  1
  Ge  Ge23  1  0.29190600  0.04913900  0.83856100  1
  Ge  Ge24  1  0.20809400  0.04913900  0.33856100  1
  Ge  Ge25  1  0.07737600  0.30285100  0.82589300  1
  Ge  Ge26  1  0.92262400  0.69714900  0.17410700  1
  Ge  Ge27  1  0.70809400  0.95086100  0.16143900  1
  O  O28  1  0.47706500  0.76000800  0.38647300  1
  O  O29  1  0.95501000  0.74285900  0.51904000  1
  O  O30  1  0.14491700  0.46177200  0.00630300  1
  O  O31  1  0.27836000  0.90535200  0.28345700  1
  O  O32  1  0.52293500  0.23999200  0.61352700  1
  O  O33  1  0.97039400  0.84296400  0.23960700  1
  O  O34  1  0.04499000  0.25714100  0.48096000  1
  O  O35  1  0.14574400  0.91753300  0.43396700  1
  O  O36  1  0.51066100  0.30677700  0.40985100  1
  O  O37  1  0.85425600  0.08246700  0.56603300  1
  O  O38  1  0.22164000  0.90535200  0.78345700  1
  O  O39  1  0.72164000  0.09464800  0.71654300  1
  O  O40  1  0.70188300  0.78997800  0.62813800  1
  O  O41  1  0.90320400  0.45826900  0.23802400  1
  O  O42  1  0.40320400  0.54173100  0.26197600  1
  O  O43  1  0.79811700  0.78997800  0.12813800  1
  O  O44  1  0.58379600  0.07881000  0.87106000  1
  O  O45  1  0.64491700  0.53822800  0.49369700  1
  O  O46  1  0.77836000  0.09464800  0.21654300  1
  O  O47  1  0.47039400  0.15703600  0.26039300  1
  O  O48  1  0.02960600  0.15703600  0.76039300  1
  O  O49  1  0.45501000  0.25714100  0.98096000  1
  O  O50  1  0.35508300  0.46177200  0.50630300  1
  O  O51  1  0.09679600  0.54173100  0.76197600  1
  O  O52  1  0.41620400  0.92119000  0.12894000  1
  O  O53  1  0.98933900  0.30677700  0.90985100  1
  O  O54  1  0.64574400  0.08246700  0.06603300  1
  O  O55  1  0.29811700  0.21002200  0.37186200  1
  O  O56  1  0.35425600  0.91753300  0.93396700  1
  O  O57  1  0.97706500  0.23999200  0.11352700  1
  O  O58  1  0.02293500  0.76000800  0.88647300  1
  O  O59  1  0.11454100  0.18701000  0.26698300  1
  O  O60  1  0.85508300  0.53822800  0.99369700  1
  O  O61  1  0.20188300  0.21002200  0.87186200  1
  O  O62  1  0.54499000  0.74285900  0.01904000  1
  O  O63  1  0.88545900  0.81299000  0.73301700  1
  O  O64  1  0.01066100  0.69322300  0.09014900  1
  O  O65  1  0.08379600  0.92119000  0.62894000  1
  O  O66  1  0.52960600  0.84296400  0.73960700  1
  O  O67  1  0.61454100  0.81299000  0.23301700  1
  O  O68  1  0.48933900  0.69322300  0.59014900  1
  O  O69  1  0.59679600  0.45826900  0.73802400  1
  O  O70  1  0.38545900  0.18701000  0.76698300  1
  O  O71  1  0.91620400  0.07881000  0.37106000  1
