# generated using pymatgen
data_Ce5Ge2Rh
_symmetry_space_group_name_H-M   'P 1'
_cell_length_a   7.85026600
_cell_length_b   8.81276900
_cell_length_c   11.79816100
_cell_angle_alpha   90.00000000
_cell_angle_beta   90.00000000
_cell_angle_gamma   90.00000000
_symmetry_Int_Tables_number   1
_chemical_formula_structural   Ce5Ge2Rh
_chemical_formula_sum   'Ce20 Ge8 Rh4'
_cell_volume   816.22722722
_cell_formula_units_Z   4
loop_
 _symmetry_equiv_pos_site_id
 _symmetry_equiv_pos_as_xyz
  1  'x, y, z'
loop_
 _atom_site_type_symbol
 _atom_site_label
 _atom_site_symmetry_multiplicity
 _atom_site_fract_x
 _atom_site_fract_y
 _atom_site_fract_z
 _atom_site_occupancy
  Ce  Ce0  1  0.70121400  0.46132100  0.06878200  1
  Ce  Ce1  1  0.20121400  0.53867900  0.43121800  1
  Ce  Ce2  1  0.29878600  0.96132100  0.93121800  1
  Ce  Ce3  1  0.79878600  0.03867900  0.56878200  1
  Ce  Ce4  1  0.29878600  0.53867900  0.93121800  1
  Ce  Ce5  1  0.79878600  0.46132100  0.56878200  1
  Ce  Ce6  1  0.70121400  0.03867900  0.06878200  1
  Ce  Ce7  1  0.20121400  0.96132100  0.43121800  1
  Ce  Ce8  1  0.97047200  0.75000000  0.00202100  1
  Ce  Ce9  1  0.47047200  0.25000000  0.49797900  1
  Ce  Ce10  1  0.02952800  0.25000000  0.99797900  1
  Ce  Ce11  1  0.52952800  0.75000000  0.50202100  1
  Ce  Ce12  1  0.35885000  0.75000000  0.20845500  1
  Ce  Ce13  1  0.85885000  0.25000000  0.29154500  1
  Ce  Ce14  1  0.64115000  0.25000000  0.79154500  1
  Ce  Ce15  1  0.14115000  0.75000000  0.70845500  1
  Ce  Ce16  1  0.84120200  0.75000000  0.28454200  1
  Ce  Ce17  1  0.34120200  0.25000000  0.21545800  1
  Ce  Ce18  1  0.15879800  0.25000000  0.71545800  1
  Ce  Ce19  1  0.65879800  0.75000000  0.78454200  1
  Ge  Ge20  1  0.57347500  0.49578600  0.32686600  1
  Ge  Ge21  1  0.07347500  0.50421400  0.17313400  1
  Ge  Ge22  1  0.42652500  0.99578600  0.67313400  1
  Ge  Ge23  1  0.92652500  0.00421400  0.82686600  1
  Ge  Ge24  1  0.42652500  0.50421400  0.67313400  1
  Ge  Ge25  1  0.92652500  0.49578600  0.82686600  1
  Ge  Ge26  1  0.57347500  0.00421400  0.32686600  1
  Ge  Ge27  1  0.07347500  0.99578600  0.17313400  1
  Rh  Rh28  1  0.57271700  0.75000000  0.01964500  1
  Rh  Rh29  1  0.07271700  0.25000000  0.48035500  1
  Rh  Rh30  1  0.42728300  0.25000000  0.98035500  1
  Rh  Rh31  1  0.92728300  0.75000000  0.51964500  1
