# generated using pymatgen
data_Rb6U(Mo2O9)2
_symmetry_space_group_name_H-M   'P 1'
_cell_length_a   10.61650681
_cell_length_b   10.61650681
_cell_length_c   14.39448557
_cell_angle_alpha   59.36294918
_cell_angle_beta   59.36294918
_cell_angle_gamma   67.40162638
_symmetry_Int_Tables_number   1
_chemical_formula_structural   Rb6U(Mo2O9)2
_chemical_formula_sum   'Rb12 U2 Mo8 O36'
_cell_volume   1183.95474120
_cell_formula_units_Z   2
loop_
 _symmetry_equiv_pos_site_id
 _symmetry_equiv_pos_as_xyz
  1  'x, y, z'
loop_
 _atom_site_type_symbol
 _atom_site_label
 _atom_site_symmetry_multiplicity
 _atom_site_fract_x
 _atom_site_fract_y
 _atom_site_fract_z
 _atom_site_occupancy
  Rb  Rb0  1  0.31969100  0.68030900  0.25000000  1
  Rb  Rb1  1  0.92122500  0.65278900  0.66615400  1
  Rb  Rb2  1  0.46684400  0.81527700  0.66509900  1
  Rb  Rb3  1  0.34721100  0.07877500  0.83384600  1
  Rb  Rb4  1  0.18472300  0.53315600  0.83490100  1
  Rb  Rb5  1  0.81527700  0.46684400  0.16509900  1
  Rb  Rb6  1  0.68030900  0.31969100  0.75000000  1
  Rb  Rb7  1  0.53315600  0.18472300  0.33490100  1
  Rb  Rb8  1  0.65278900  0.92122500  0.16615400  1
  Rb  Rb9  1  0.07877500  0.34721100  0.33384600  1
  Rb  Rb10  1  0.99173100  0.00826900  0.25000000  1
  Rb  Rb11  1  0.00826900  0.99173100  0.75000000  1
  U  U12  1  0.50000000  0.50000000  0.00000000  1
  U  U13  1  0.50000000  0.50000000  0.50000000  1
  Mo  Mo14  1  0.67952000  0.79506600  0.92972800  1
  Mo  Mo15  1  0.87416200  0.25081300  0.95710300  1
  Mo  Mo16  1  0.32048000  0.20493400  0.07027200  1
  Mo  Mo17  1  0.20493400  0.32048000  0.57027200  1
  Mo  Mo18  1  0.25081300  0.87416200  0.45710300  1
  Mo  Mo19  1  0.79506600  0.67952000  0.42972800  1
  Mo  Mo20  1  0.12583800  0.74918700  0.04289700  1
  Mo  Mo21  1  0.74918700  0.12583800  0.54289700  1
  O  O22  1  0.13364800  0.29620000  0.12486200  1
  O  O23  1  0.81579600  0.20110300  0.11007400  1
  O  O24  1  0.86635200  0.70380000  0.87513800  1
  O  O25  1  0.18420400  0.79889700  0.88992600  1
  O  O26  1  0.13545000  0.89815300  0.06123000  1
  O  O27  1  0.46123100  0.54032200  0.62390700  1
  O  O28  1  0.54032200  0.46123100  0.12390700  1
  O  O29  1  0.44951600  0.26685100  0.08603000  1
  O  O30  1  0.70497500  0.94381600  0.62170200  1
  O  O31  1  0.29620000  0.13364800  0.62486200  1
  O  O32  1  0.58315600  0.25971800  0.59658900  1
  O  O33  1  0.62574400  0.74842200  0.08092600  1
  O  O34  1  0.94381600  0.70497500  0.12170200  1
  O  O35  1  0.25971800  0.58315600  0.09658900  1
  O  O36  1  0.86455000  0.10184700  0.93877000  1
  O  O37  1  0.10184700  0.86455000  0.43877000  1
  O  O38  1  0.98997800  0.67250800  0.35262000  1
  O  O39  1  0.55048400  0.73314900  0.91397000  1
  O  O40  1  0.32749200  0.01002200  0.14738000  1
  O  O41  1  0.26685100  0.44951600  0.58603000  1
  O  O42  1  0.74028200  0.41684400  0.90341100  1
  O  O43  1  0.25157800  0.37425600  0.41907400  1
  O  O44  1  0.41684400  0.74028200  0.40341100  1
  O  O45  1  0.37425600  0.25157800  0.91907400  1
  O  O46  1  0.79889700  0.18420400  0.38992600  1
  O  O47  1  0.05618400  0.29502500  0.87829800  1
  O  O48  1  0.74842200  0.62574400  0.58092600  1
  O  O49  1  0.67250800  0.98997800  0.85262000  1
  O  O50  1  0.29502500  0.05618400  0.37829800  1
  O  O51  1  0.01002200  0.32749200  0.64738000  1
  O  O52  1  0.89815300  0.13545000  0.56123000  1
  O  O53  1  0.70380000  0.86635200  0.37513800  1
  O  O54  1  0.53876900  0.45967800  0.37609300  1
  O  O55  1  0.45967800  0.53876900  0.87609300  1
  O  O56  1  0.73314900  0.55048400  0.41397000  1
  O  O57  1  0.20110300  0.81579600  0.61007400  1
