# generated using pymatgen
data_NiPtF6
_symmetry_space_group_name_H-M   'P 1'
_cell_length_a   5.44644958
_cell_length_b   5.44644958
_cell_length_c   5.44644957
_cell_angle_alpha   55.34189156
_cell_angle_beta   55.34189156
_cell_angle_gamma   55.34188888
_symmetry_Int_Tables_number   1
_chemical_formula_structural   NiPtF6
_chemical_formula_sum   'Ni1 Pt1 F6'
_cell_volume   101.87796962
_cell_formula_units_Z   1
loop_
 _symmetry_equiv_pos_site_id
 _symmetry_equiv_pos_as_xyz
  1  'x, y, z'
loop_
 _atom_site_type_symbol
 _atom_site_label
 _atom_site_symmetry_multiplicity
 _atom_site_fract_x
 _atom_site_fract_y
 _atom_site_fract_z
 _atom_site_occupancy
  Ni  Ni0  1  0.00000000  0.00000000  0.00000000  1
  Pt  Pt1  1  0.50000000  0.50000000  0.50000000  1
  F  F2  1  0.10794700  0.74497400  0.39930400  1
  F  F3  1  0.74497400  0.39930400  0.10794700  1
  F  F4  1  0.60069600  0.89205300  0.25502600  1
  F  F5  1  0.25502600  0.60069600  0.89205300  1
  F  F6  1  0.89205300  0.25502600  0.60069600  1
  F  F7  1  0.39930400  0.10794700  0.74497400  1
