# generated using pymatgen
data_BaMo2P3O14
_symmetry_space_group_name_H-M   'P 1'
_cell_length_a   8.33156914
_cell_length_b   8.33156914
_cell_length_c   8.79983167
_cell_angle_alpha   82.31182607
_cell_angle_beta   82.31182607
_cell_angle_gamma   72.73367091
_symmetry_Int_Tables_number   1
_chemical_formula_structural   BaMo2P3O14
_chemical_formula_sum   'Ba2 Mo4 P6 O28'
_cell_volume   575.20667728
_cell_formula_units_Z   2
loop_
 _symmetry_equiv_pos_site_id
 _symmetry_equiv_pos_as_xyz
  1  'x, y, z'
loop_
 _atom_site_type_symbol
 _atom_site_label
 _atom_site_symmetry_multiplicity
 _atom_site_fract_x
 _atom_site_fract_y
 _atom_site_fract_z
 _atom_site_occupancy
  Ba  Ba0  1  0.96202900  0.03692600  0.50543200  1
  Ba  Ba1  1  0.03692600  0.96202900  0.00543200  1
  Mo  Mo2  1  0.51010800  0.80414600  0.67396600  1
  Mo  Mo3  1  0.80414600  0.51010800  0.17396600  1
  Mo  Mo4  1  0.51156600  0.19009700  0.84695800  1
  Mo  Mo5  1  0.19009700  0.51156600  0.34695800  1
  P  P6  1  0.11306100  0.31863400  0.69755100  1
  P  P7  1  0.31863400  0.11306100  0.19755100  1
  P  P8  1  0.56577500  0.42511700  0.50611800  1
  P  P9  1  0.65678900  0.89820900  0.30737000  1
  P  P10  1  0.42511700  0.56577500  0.00611800  1
  P  P11  1  0.89820900  0.65678900  0.80737000  1
  O  O12  1  0.91559300  0.31510400  0.11348700  1
  O  O13  1  0.25135000  0.29820100  0.22832500  1
  O  O14  1  0.40979600  0.41989500  0.92550900  1
  O  O15  1  0.36704100  0.09241800  0.02313900  1
  O  O16  1  0.95808100  0.81125700  0.75242800  1
  O  O17  1  0.05294100  0.49091800  0.78031300  1
  O  O18  1  0.74882200  0.63618500  0.73759100  1
  O  O19  1  0.09241800  0.36704100  0.52313900  1
  O  O20  1  0.86527200  0.65239300  0.98673400  1
  O  O21  1  0.72105300  0.40627100  0.38179900  1
  O  O22  1  0.49091800  0.05294100  0.28031300  1
  O  O23  1  0.81125700  0.95808100  0.25242800  1
  O  O24  1  0.13551800  0.69651400  0.43386400  1
  O  O25  1  0.69651400  0.13551800  0.93386400  1
  O  O26  1  0.65239300  0.86527200  0.48673400  1
  O  O27  1  0.55936700  0.96412900  0.76389900  1
  O  O28  1  0.96412900  0.55936700  0.26389900  1
  O  O29  1  0.31510400  0.91559300  0.61348700  1
  O  O30  1  0.19786200  0.01017300  0.25927200  1
  O  O31  1  0.63618500  0.74882200  0.23759100  1
  O  O32  1  0.27581300  0.62249700  0.13095700  1
  O  O33  1  0.62249700  0.27581300  0.63095700  1
  O  O34  1  0.51471800  0.59500300  0.57598900  1
  O  O35  1  0.59500300  0.51471800  0.07598900  1
  O  O36  1  0.01017300  0.19786200  0.75927200  1
  O  O37  1  0.41989500  0.40979600  0.42550900  1
  O  O38  1  0.29820100  0.25135000  0.72832500  1
  O  O39  1  0.40627100  0.72105300  0.88179900  1
