# generated using pymatgen
data_Ta2Ni3Se8
_symmetry_space_group_name_H-M   'P 1'
_cell_length_a   3.49392100
_cell_length_b   10.63403100
_cell_length_c   14.95452900
_cell_angle_alpha   90.00000000
_cell_angle_beta   90.00000000
_cell_angle_gamma   90.00000000
_symmetry_Int_Tables_number   1
_chemical_formula_structural   Ta2Ni3Se8
_chemical_formula_sum   'Ta4 Ni6 Se16'
_cell_volume   555.62751274
_cell_formula_units_Z   2
loop_
 _symmetry_equiv_pos_site_id
 _symmetry_equiv_pos_as_xyz
  1  'x, y, z'
loop_
 _atom_site_type_symbol
 _atom_site_label
 _atom_site_symmetry_multiplicity
 _atom_site_fract_x
 _atom_site_fract_y
 _atom_site_fract_z
 _atom_site_occupancy
  Ta  Ta0  1  0.50000000  0.79877000  0.88025100  1
  Ta  Ta1  1  0.50000000  0.20123000  0.11974900  1
  Ta  Ta2  1  0.50000000  0.29877000  0.61974900  1
  Ta  Ta3  1  0.50000000  0.70123000  0.38025100  1
  Ni  Ni4  1  0.00000000  0.00000000  0.00000000  1
  Ni  Ni5  1  0.00000000  0.50000000  0.50000000  1
  Ni  Ni6  1  0.00000000  0.63440900  0.77794900  1
  Ni  Ni7  1  0.00000000  0.36559100  0.22205100  1
  Ni  Ni8  1  0.00000000  0.13440900  0.72205100  1
  Ni  Ni9  1  0.00000000  0.86559100  0.27794900  1
  Se  Se10  1  0.00000000  0.77969500  0.00859600  1
  Se  Se11  1  0.00000000  0.22030500  0.99140400  1
  Se  Se12  1  0.00000000  0.27969500  0.49140400  1
  Se  Se13  1  0.00000000  0.72030500  0.50859600  1
  Se  Se14  1  0.00000000  0.97512600  0.84385900  1
  Se  Se15  1  0.00000000  0.02487400  0.15614100  1
  Se  Se16  1  0.00000000  0.47512600  0.65614100  1
  Se  Se17  1  0.00000000  0.52487400  0.34385900  1
  Se  Se18  1  0.50000000  0.75550100  0.71305700  1
  Se  Se19  1  0.50000000  0.24449900  0.28694300  1
  Se  Se20  1  0.50000000  0.25550100  0.78694300  1
  Se  Se21  1  0.50000000  0.74449900  0.21305700  1
  Se  Se22  1  0.50000000  0.55733900  0.87068300  1
  Se  Se23  1  0.50000000  0.44266100  0.12931700  1
  Se  Se24  1  0.50000000  0.05733900  0.62931700  1
  Se  Se25  1  0.50000000  0.94266100  0.37068300  1
