# generated using pymatgen
data_SrAlH5
_symmetry_space_group_name_H-M   'P 1'
_cell_length_a   4.50800000
_cell_length_b   5.20000000
_cell_length_c   12.67900000
_cell_angle_alpha   90.00000000
_cell_angle_beta   90.00000000
_cell_angle_gamma   90.00000000
_symmetry_Int_Tables_number   1
_chemical_formula_structural   SrAlH5
_chemical_formula_sum   'Sr4 Al4 H20'
_cell_volume   297.21604640
_cell_formula_units_Z   4
loop_
 _symmetry_equiv_pos_site_id
 _symmetry_equiv_pos_as_xyz
  1  'x, y, z'
loop_
 _atom_site_type_symbol
 _atom_site_label
 _atom_site_symmetry_multiplicity
 _atom_site_fract_x
 _atom_site_fract_y
 _atom_site_fract_z
 _atom_site_occupancy
  Sr  Sr0  1  0.28600000  0.14600000  0.65800000  1
  Sr  Sr1  1  0.78600000  0.35400000  0.34200000  1
  Sr  Sr2  1  0.21400000  0.85400000  0.15800000  1
  Sr  Sr3  1  0.71400000  0.64600000  0.84200000  1
  Al  Al4  1  0.32100000  0.13300000  0.91500000  1
  Al  Al5  1  0.82100000  0.36700000  0.08500000  1
  Al  Al6  1  0.17900000  0.86700000  0.41500000  1
  Al  Al7  1  0.67900000  0.63300000  0.58500000  1
  H  H8  1  0.52800000  0.39100000  0.51300000  1
  H  H9  1  0.02800000  0.10900000  0.48700000  1
  H  H10  1  0.97200000  0.60900000  0.01300000  1
  H  H11  1  0.47200000  0.89100000  0.98700000  1
  H  H12  1  0.16800000  0.91300000  0.82800000  1
  H  H13  1  0.66800000  0.58700000  0.17200000  1
  H  H14  1  0.33200000  0.08700000  0.32800000  1
  H  H15  1  0.83200000  0.41300000  0.67200000  1
  H  H16  1  0.19500000  0.39000000  0.84300000  1
  H  H17  1  0.69500000  0.11000000  0.15700000  1
  H  H18  1  0.30500000  0.61000000  0.34300000  1
  H  H19  1  0.80500000  0.89000000  0.65700000  1
  H  H20  1  0.62400000  0.13600000  0.82900000  1
  H  H21  1  0.12400000  0.36400000  0.17100000  1
  H  H22  1  0.87600000  0.86400000  0.32900000  1
  H  H23  1  0.37600000  0.63600000  0.67100000  1
  H  H24  1  0.01800000  0.13400000  0.00400000  1
  H  H25  1  0.51800000  0.36600000  0.99600000  1
  H  H26  1  0.48200000  0.86600000  0.50400000  1
  H  H27  1  0.98200000  0.63400000  0.49600000  1
