# generated using pymatgen
data_ZrBrN
_symmetry_space_group_name_H-M   'P 1'
_cell_length_a   10.41842521
_cell_length_b   10.41842521
_cell_length_c   10.41842540
_cell_angle_alpha   20.39579451
_cell_angle_beta   20.39579451
_cell_angle_gamma   20.39579664
_symmetry_Int_Tables_number   1
_chemical_formula_structural   ZrBrN
_chemical_formula_sum   'Zr2 Br2 N2'
_cell_volume   120.20186786
_cell_formula_units_Z   2
loop_
 _symmetry_equiv_pos_site_id
 _symmetry_equiv_pos_as_xyz
  1  'x, y, z'
loop_
 _atom_site_type_symbol
 _atom_site_label
 _atom_site_symmetry_multiplicity
 _atom_site_fract_x
 _atom_site_fract_y
 _atom_site_fract_z
 _atom_site_occupancy
  Zr  Zr0  1  0.87592800  0.87592800  0.87592800  1
  Zr  Zr1  1  0.12407200  0.12407200  0.12407200  1
  Br  Br2  1  0.60768400  0.60768400  0.60768400  1
  Br  Br3  1  0.39231600  0.39231600  0.39231600  1
  N  N4  1  0.80486500  0.80486500  0.80486500  1
  N  N5  1  0.19513500  0.19513500  0.19513500  1
