# generated using pymatgen
data_SrMo2(PO4)4
_symmetry_space_group_name_H-M   'P 1'
_cell_length_a   7.87013700
_cell_length_b   8.04400900
_cell_length_c   12.48220465
_cell_angle_alpha   50.96527266
_cell_angle_beta   90.00000000
_cell_angle_gamma   90.00000000
_symmetry_Int_Tables_number   1
_chemical_formula_structural   SrMo2(PO4)4
_chemical_formula_sum   'Sr2 Mo4 P8 O32'
_cell_volume   613.81209653
_cell_formula_units_Z   2
loop_
 _symmetry_equiv_pos_site_id
 _symmetry_equiv_pos_as_xyz
  1  'x, y, z'
loop_
 _atom_site_type_symbol
 _atom_site_label
 _atom_site_symmetry_multiplicity
 _atom_site_fract_x
 _atom_site_fract_y
 _atom_site_fract_z
 _atom_site_occupancy
  Sr  Sr0  1  0.00000000  0.50000000  0.00000000  1
  Sr  Sr1  1  0.50000000  0.50000000  0.50000000  1
  Mo  Mo2  1  0.27976800  0.11207800  0.33595800  1
  Mo  Mo3  1  0.72023200  0.88792200  0.66404200  1
  Mo  Mo4  1  0.22023200  0.11207800  0.83595800  1
  Mo  Mo5  1  0.77976800  0.88792200  0.16404200  1
  P  P6  1  0.40138400  0.15468200  0.06341400  1
  P  P7  1  0.38476000  0.53679900  0.78817900  1
  P  P8  1  0.90138400  0.84531800  0.43658600  1
  P  P9  1  0.61524000  0.46320100  0.21182100  1
  P  P10  1  0.09861600  0.15468200  0.56341400  1
  P  P11  1  0.11524000  0.53679900  0.28817900  1
  P  P12  1  0.88476000  0.46320100  0.71182100  1
  P  P13  1  0.59861600  0.84531800  0.93658600  1
  O  O14  1  0.14961500  0.41693100  0.22986400  1
  O  O15  1  0.98836800  0.71744900  0.19142700  1
  O  O16  1  0.23095200  0.59698800  0.82712700  1
  O  O17  1  0.64961500  0.58306900  0.27013600  1
  O  O18  1  0.79447500  0.77899600  0.36499600  1
  O  O19  1  0.26904800  0.59698800  0.32712700  1
  O  O20  1  0.29447500  0.22100400  0.13500400  1
  O  O21  1  0.76904800  0.40301200  0.17287300  1
  O  O22  1  0.50597300  0.63743400  0.06776300  1
  O  O23  1  0.53971600  0.99746100  0.15985800  1
  O  O24  1  0.37852000  0.86929700  0.41523300  1
  O  O25  1  0.00597300  0.36256600  0.43223700  1
  O  O26  1  0.46028400  0.00253900  0.84014200  1
  O  O27  1  0.22014800  0.07201300  0.51036400  1
  O  O28  1  0.99402700  0.63743400  0.56776300  1
  O  O29  1  0.20552500  0.22100400  0.63500400  1
  O  O30  1  0.03971600  0.00253900  0.34014200  1
  O  O31  1  0.51163200  0.71744900  0.69142700  1
  O  O32  1  0.35038500  0.41693100  0.72986400  1
  O  O33  1  0.72014800  0.92798700  0.98963600  1
  O  O34  1  0.96028400  0.99746100  0.65985800  1
  O  O35  1  0.73095200  0.40301200  0.67287300  1
  O  O36  1  0.85038500  0.58306900  0.77013600  1
  O  O37  1  0.62148000  0.13070300  0.58476700  1
  O  O38  1  0.01163200  0.28255100  0.80857300  1
  O  O39  1  0.77985200  0.92798700  0.48963600  1
  O  O40  1  0.48836800  0.28255100  0.30857300  1
  O  O41  1  0.70552500  0.77899600  0.86499600  1
  O  O42  1  0.27985200  0.07201300  0.01036400  1
  O  O43  1  0.87852000  0.13070300  0.08476700  1
  O  O44  1  0.49402700  0.36256600  0.93223700  1
  O  O45  1  0.12148000  0.86929700  0.91523300  1
