# generated using pymatgen
data_Fe7(AsO4)6
_symmetry_space_group_name_H-M   'P 1'
_cell_length_a   6.69731700
_cell_length_b   8.23442865
_cell_length_c   9.83169523
_cell_angle_alpha   104.84280207
_cell_angle_beta   107.78626534
_cell_angle_gamma   101.82935067
_symmetry_Int_Tables_number   1
_chemical_formula_structural   Fe7(AsO4)6
_chemical_formula_sum   'Fe7 As6 O24'
_cell_volume   474.84240922
_cell_formula_units_Z   1
loop_
 _symmetry_equiv_pos_site_id
 _symmetry_equiv_pos_as_xyz
  1  'x, y, z'
loop_
 _atom_site_type_symbol
 _atom_site_label
 _atom_site_symmetry_multiplicity
 _atom_site_fract_x
 _atom_site_fract_y
 _atom_site_fract_z
 _atom_site_occupancy
  Fe  Fe0  1  0.04586700  0.21876800  0.02442900  1
  Fe  Fe1  1  0.95413300  0.78123200  0.97557100  1
  Fe  Fe2  1  0.27995500  0.30404100  0.78918400  1
  Fe  Fe3  1  0.72004500  0.69595900  0.21081600  1
  Fe  Fe4  1  0.62049600  0.04608700  0.38954000  1
  Fe  Fe5  1  0.37950400  0.95391300  0.61046000  1
  Fe  Fe6  1  0.00000000  0.50000000  0.50000000  1
  As  As7  1  0.09947900  0.09947100  0.33437900  1
  As  As8  1  0.90052100  0.90052900  0.66562100  1
  As  As9  1  0.22771400  0.65143400  0.26940400  1
  As  As10  1  0.77228600  0.34856600  0.73059600  1
  As  As11  1  0.60462400  0.26803900  0.12888900  1
  As  As12  1  0.39537600  0.73196100  0.87111100  1
  O  O13  1  0.00633800  0.69589300  0.15454500  1
  O  O14  1  0.99366200  0.30410700  0.84545500  1
  O  O15  1  0.06894700  0.04865100  0.14474200  1
  O  O16  1  0.93105300  0.95134900  0.85525800  1
  O  O17  1  0.12895700  0.03476600  0.65522500  1
  O  O18  1  0.87104300  0.96523400  0.34477500  1
  O  O19  1  0.13741700  0.31103300  0.42702600  1
  O  O20  1  0.86258300  0.68896700  0.57297400  1
  O  O21  1  0.21160400  0.43742400  0.19754900  1
  O  O22  1  0.78839600  0.56257600  0.80245100  1
  O  O23  1  0.22138100  0.70241600  0.45106700  1
  O  O24  1  0.77861900  0.29758400  0.54893300  1
  O  O25  1  0.32337700  0.03216800  0.41786900  1
  O  O26  1  0.67662300  0.96783200  0.58213100  1
  O  O27  1  0.52581800  0.22417100  0.72360500  1
  O  O28  1  0.47418200  0.77582900  0.27639500  1
  O  O29  1  0.55482000  0.12502900  0.22113000  1
  O  O30  1  0.44518000  0.87497100  0.77887000  1
  O  O31  1  0.64549300  0.74454200  0.00195600  1
  O  O32  1  0.35450700  0.25545800  0.99804400  1
  O  O33  1  0.73810000  0.47601800  0.26430200  1
  O  O34  1  0.26190000  0.52398200  0.73569800  1
  O  O35  1  0.75723700  0.21403600  0.02466400  1
  O  O36  1  0.24276300  0.78596400  0.97533600  1
