# generated using pymatgen
data_VAgSeO5
_symmetry_space_group_name_H-M   'P 1'
_cell_length_a   4.34565400
_cell_length_b   5.28927100
_cell_length_c   20.28161600
_cell_angle_alpha   90.00000000
_cell_angle_beta   90.00000000
_cell_angle_gamma   90.00000000
_symmetry_Int_Tables_number   1
_chemical_formula_structural   VAgSeO5
_chemical_formula_sum   'V4 Ag4 Se4 O20'
_cell_volume   466.17987355
_cell_formula_units_Z   4
loop_
 _symmetry_equiv_pos_site_id
 _symmetry_equiv_pos_as_xyz
  1  'x, y, z'
loop_
 _atom_site_type_symbol
 _atom_site_label
 _atom_site_symmetry_multiplicity
 _atom_site_fract_x
 _atom_site_fract_y
 _atom_site_fract_z
 _atom_site_occupancy
  V  V0  1  0.58392800  0.75000000  0.69157600  1
  V  V1  1  0.41607200  0.25000000  0.30842400  1
  V  V2  1  0.41607200  0.75000000  0.19157600  1
  V  V3  1  0.58392800  0.25000000  0.80842400  1
  Ag  Ag4  1  0.65619200  0.25000000  0.48531600  1
  Ag  Ag5  1  0.34380800  0.25000000  0.98531600  1
  Ag  Ag6  1  0.34380800  0.75000000  0.51468400  1
  Ag  Ag7  1  0.65619200  0.75000000  0.01468400  1
  Se  Se8  1  0.22842400  0.25000000  0.62156300  1
  Se  Se9  1  0.77157600  0.25000000  0.12156300  1
  Se  Se10  1  0.22842400  0.75000000  0.87843700  1
  Se  Se11  1  0.77157600  0.75000000  0.37843700  1
  O  O12  1  0.51196700  0.99389300  0.11828600  1
  O  O13  1  0.48803300  0.00610700  0.88171400  1
  O  O14  1  0.86094500  0.75000000  0.46060200  1
  O  O15  1  0.04095500  0.25000000  0.31368900  1
  O  O16  1  0.13905500  0.25000000  0.53939800  1
  O  O17  1  0.50631700  0.50000000  0.25000000  1
  O  O18  1  0.49368300  0.00000000  0.75000000  1
  O  O19  1  0.48803300  0.50610700  0.61828600  1
  O  O20  1  0.48803300  0.49389300  0.88171400  1
  O  O21  1  0.04095500  0.75000000  0.18631100  1
  O  O22  1  0.51196700  0.50610700  0.11828600  1
  O  O23  1  0.49368300  0.50000000  0.75000000  1
  O  O24  1  0.51196700  0.00610700  0.38171400  1
  O  O25  1  0.13905500  0.75000000  0.96060200  1
  O  O26  1  0.50631700  0.00000000  0.25000000  1
  O  O27  1  0.95904500  0.75000000  0.68631100  1
  O  O28  1  0.51196700  0.49389300  0.38171400  1
  O  O29  1  0.86094500  0.25000000  0.03939800  1
  O  O30  1  0.48803300  0.99389300  0.61828600  1
  O  O31  1  0.95904500  0.25000000  0.81368900  1
