# generated using pymatgen
data_ZnAgPS4
_symmetry_space_group_name_H-M   'P 1'
_cell_length_a   6.18035100
_cell_length_b   7.66490900
_cell_length_c   12.73057900
_cell_angle_alpha   90.00000000
_cell_angle_beta   90.00000000
_cell_angle_gamma   90.00000000
_symmetry_Int_Tables_number   1
_chemical_formula_structural   ZnAgPS4
_chemical_formula_sum   'Zn4 Ag4 P4 S16'
_cell_volume   603.07079877
_cell_formula_units_Z   4
loop_
 _symmetry_equiv_pos_site_id
 _symmetry_equiv_pos_as_xyz
  1  'x, y, z'
loop_
 _atom_site_type_symbol
 _atom_site_label
 _atom_site_symmetry_multiplicity
 _atom_site_fract_x
 _atom_site_fract_y
 _atom_site_fract_z
 _atom_site_occupancy
  Zn  Zn0  1  0.50302200  0.51299800  0.65895700  1
  Zn  Zn1  1  0.00302200  0.48700200  0.34104300  1
  Zn  Zn2  1  0.50302200  0.98700200  0.15895700  1
  Zn  Zn3  1  0.00302200  0.01299800  0.84104300  1
  Ag  Ag4  1  0.50011100  0.22044700  0.42825500  1
  Ag  Ag5  1  0.00011100  0.72044700  0.07174500  1
  Ag  Ag6  1  0.00011100  0.77955300  0.57174500  1
  Ag  Ag7  1  0.50011100  0.27955300  0.92825500  1
  P  P8  1  0.50557000  0.73113600  0.40489500  1
  P  P9  1  0.00557000  0.23113600  0.09510500  1
  P  P10  1  0.50557000  0.76886400  0.90489500  1
  P  P11  1  0.00557000  0.26886400  0.59510500  1
  S  S12  1  0.61772800  0.98991400  0.83038200  1
  S  S13  1  0.11772800  0.48991400  0.66961800  1
  S  S14  1  0.17188900  0.74945100  0.88672000  1
  S  S15  1  0.17188900  0.75054900  0.38672000  1
  S  S16  1  0.64348900  0.55309400  0.83291400  1
  S  S17  1  0.64348900  0.94690600  0.33291400  1
  S  S18  1  0.58749000  0.76560300  0.56165900  1
  S  S19  1  0.11772800  0.01008600  0.16961800  1
  S  S20  1  0.58749000  0.73439700  0.06165900  1
  S  S21  1  0.67188900  0.24945100  0.61328000  1
  S  S22  1  0.08749000  0.23439700  0.43834100  1
  S  S23  1  0.14348900  0.44690600  0.16708600  1
  S  S24  1  0.14348900  0.05309400  0.66708600  1
  S  S25  1  0.67188900  0.25054900  0.11328000  1
  S  S26  1  0.08749000  0.26560300  0.93834100  1
  S  S27  1  0.61772800  0.51008600  0.33038200  1
