# generated using pymatgen
data_UTe2PbO8
_symmetry_space_group_name_H-M   'P 1'
_cell_length_a   7.10091800
_cell_length_b   7.93168300
_cell_length_c   14.22243888
_cell_angle_alpha   84.91565106
_cell_angle_beta   90.00000000
_cell_angle_gamma   90.00000000
_symmetry_Int_Tables_number   1
_chemical_formula_structural   UTe2PbO8
_chemical_formula_sum   'U4 Te8 Pb4 O32'
_cell_volume   797.88764049
_cell_formula_units_Z   4
loop_
 _symmetry_equiv_pos_site_id
 _symmetry_equiv_pos_as_xyz
  1  'x, y, z'
loop_
 _atom_site_type_symbol
 _atom_site_label
 _atom_site_symmetry_multiplicity
 _atom_site_fract_x
 _atom_site_fract_y
 _atom_site_fract_z
 _atom_site_occupancy
  U  U0  1  0.84271100  0.05195300  0.19113400  1
  U  U1  1  0.34271100  0.94804700  0.30886600  1
  U  U2  1  0.15728900  0.94804700  0.80886600  1
  U  U3  1  0.65728900  0.05195300  0.69113400  1
  Te  Te4  1  0.31301200  0.64701800  0.54226200  1
  Te  Te5  1  0.68698800  0.35298200  0.45773800  1
  Te  Te6  1  0.66601400  0.80837300  0.91876900  1
  Te  Te7  1  0.18698800  0.64701800  0.04226200  1
  Te  Te8  1  0.83398600  0.80837300  0.41876900  1
  Te  Te9  1  0.33398600  0.19162700  0.08123100  1
  Te  Te10  1  0.16601400  0.19162700  0.58123100  1
  Te  Te11  1  0.81301200  0.35298200  0.95773800  1
  Pb  Pb12  1  0.63055500  0.57035500  0.17164100  1
  Pb  Pb13  1  0.86944500  0.57035500  0.67164100  1
  Pb  Pb14  1  0.13055500  0.42964500  0.32835900  1
  Pb  Pb15  1  0.36944500  0.42964500  0.82835900  1
  O  O16  1  0.83018900  0.26559000  0.23851900  1
  O  O17  1  0.34446100  0.39293100  0.14309200  1
  O  O18  1  0.33018900  0.73441000  0.26148100  1
  O  O19  1  0.34894200  0.16379300  0.35197100  1
  O  O20  1  0.82415400  0.52287800  0.04391700  1
  O  O21  1  0.65105800  0.83620700  0.64802900  1
  O  O22  1  0.16621400  0.07215700  0.18179400  1
  O  O23  1  0.04830300  0.70864000  0.53221600  1
  O  O24  1  0.38517800  0.83123400  0.45257700  1
  O  O25  1  0.15105800  0.16379300  0.85197100  1
  O  O26  1  0.67584600  0.52287800  0.54391700  1
  O  O27  1  0.02866700  0.92852000  0.34580300  1
  O  O28  1  0.61482200  0.16876600  0.54742300  1
  O  O29  1  0.97133300  0.07148000  0.65419700  1
  O  O30  1  0.15553900  0.39293100  0.64309200  1
  O  O31  1  0.52866700  0.07148000  0.15419700  1
  O  O32  1  0.32415400  0.47712200  0.45608300  1
  O  O33  1  0.83378600  0.92784300  0.81820600  1
  O  O34  1  0.11482200  0.83123400  0.95257700  1
  O  O35  1  0.65553900  0.60706900  0.85690800  1
  O  O36  1  0.17584600  0.47712200  0.95608300  1
  O  O37  1  0.84446100  0.60706900  0.35690800  1
  O  O38  1  0.88517800  0.16876600  0.04742300  1
  O  O39  1  0.84894200  0.83620700  0.14802900  1
  O  O40  1  0.16981100  0.73441000  0.76148100  1
  O  O41  1  0.47133300  0.92852000  0.84580300  1
  O  O42  1  0.66621400  0.92784300  0.31820600  1
  O  O43  1  0.66981100  0.26559000  0.73851900  1
  O  O44  1  0.45169700  0.70864000  0.03221600  1
  O  O45  1  0.33378600  0.07215700  0.68179400  1
  O  O46  1  0.95169700  0.29136000  0.46778400  1
  O  O47  1  0.54830300  0.29136000  0.96778400  1
