# generated using pymatgen
data_SrLi4Ca(SiO4)2
_symmetry_space_group_name_H-M   'P 1'
_cell_length_a   5.03492800
_cell_length_b   10.03938200
_cell_length_c   14.22997000
_cell_angle_alpha   90.00000000
_cell_angle_beta   90.00000000
_cell_angle_gamma   90.00000000
_symmetry_Int_Tables_number   1
_chemical_formula_structural   SrLi4Ca(SiO4)2
_chemical_formula_sum   'Sr4 Li16 Ca4 Si8 O32'
_cell_volume   719.29034113
_cell_formula_units_Z   4
loop_
 _symmetry_equiv_pos_site_id
 _symmetry_equiv_pos_as_xyz
  1  'x, y, z'
loop_
 _atom_site_type_symbol
 _atom_site_label
 _atom_site_symmetry_multiplicity
 _atom_site_fract_x
 _atom_site_fract_y
 _atom_site_fract_z
 _atom_site_occupancy
  Sr  Sr0  1  0.05540700  0.26826600  0.25000000  1
  Sr  Sr1  1  0.94459300  0.73173400  0.75000000  1
  Sr  Sr2  1  0.05540700  0.23173400  0.75000000  1
  Sr  Sr3  1  0.94459300  0.76826600  0.25000000  1
  Li  Li4  1  0.51746000  0.22460200  0.87228100  1
  Li  Li5  1  0.95883300  0.99674400  0.62759000  1
  Li  Li6  1  0.04116700  0.00325600  0.12759000  1
  Li  Li7  1  0.48254000  0.72460200  0.87228100  1
  Li  Li8  1  0.04116700  0.00325600  0.37241000  1
  Li  Li9  1  0.51746000  0.27539800  0.12771900  1
  Li  Li10  1  0.95883300  0.50325600  0.37241000  1
  Li  Li11  1  0.95883300  0.99674400  0.87241000  1
  Li  Li12  1  0.51746000  0.22460200  0.62771900  1
  Li  Li13  1  0.95883300  0.50325600  0.12759000  1
  Li  Li14  1  0.48254000  0.72460200  0.62771900  1
  Li  Li15  1  0.04116700  0.49674400  0.87241000  1
  Li  Li16  1  0.51746000  0.27539800  0.37228100  1
  Li  Li17  1  0.48254000  0.77539800  0.37228100  1
  Li  Li18  1  0.48254000  0.77539800  0.12771900  1
  Li  Li19  1  0.04116700  0.49674400  0.62759000  1
  Ca  Ca20  1  0.50000000  0.00000000  0.50000000  1
  Ca  Ca21  1  0.50000000  0.50000000  0.00000000  1
  Ca  Ca22  1  0.50000000  0.00000000  0.00000000  1
  Ca  Ca23  1  0.50000000  0.50000000  0.50000000  1
  Si  Si24  1  0.47405900  0.97576700  0.75000000  1
  Si  Si25  1  0.52594100  0.47576700  0.75000000  1
  Si  Si26  1  0.47405900  0.52423300  0.25000000  1
  Si  Si27  1  0.52594100  0.02423300  0.25000000  1
  Si  Si28  1  0.98259900  0.75000000  0.00000000  1
  Si  Si29  1  0.01740100  0.25000000  0.50000000  1
  Si  Si30  1  0.98259900  0.75000000  0.50000000  1
  Si  Si31  1  0.01740100  0.25000000  0.00000000  1
  O  O32  1  0.66525700  0.54505300  0.65557500  1
  O  O33  1  0.58149500  0.31237600  0.75000000  1
  O  O34  1  0.21046300  0.33516500  0.57284900  1
  O  O35  1  0.21046300  0.16483500  0.07284900  1
  O  O36  1  0.33474300  0.04505300  0.65557500  1
  O  O37  1  0.33474300  0.45494700  0.34442500  1
  O  O38  1  0.66525700  0.95494700  0.15557500  1
  O  O39  1  0.78953700  0.83516500  0.57284900  1
  O  O40  1  0.17858600  0.65036900  0.56090400  1
  O  O41  1  0.79747300  0.49991900  0.25000000  1
  O  O42  1  0.79747300  0.00008100  0.75000000  1
  O  O43  1  0.82141400  0.15036900  0.56090400  1
  O  O44  1  0.17858600  0.84963100  0.06090400  1
  O  O45  1  0.66525700  0.54505300  0.84442500  1
  O  O46  1  0.58149500  0.18762400  0.25000000  1
  O  O47  1  0.66525700  0.95494700  0.34442500  1
  O  O48  1  0.17858600  0.84963100  0.43909600  1
  O  O49  1  0.20252700  0.50008100  0.75000000  1
  O  O50  1  0.82141400  0.34963100  0.06090400  1
  O  O51  1  0.82141400  0.15036900  0.93909600  1
  O  O52  1  0.20252700  0.99991900  0.25000000  1
  O  O53  1  0.17858600  0.65036900  0.93909600  1
  O  O54  1  0.21046300  0.16483500  0.42715100  1
  O  O55  1  0.78953700  0.83516500  0.92715100  1
  O  O56  1  0.33474300  0.04505300  0.84442500  1
  O  O57  1  0.33474300  0.45494700  0.15557500  1
  O  O58  1  0.41850500  0.68762400  0.25000000  1
  O  O59  1  0.21046300  0.33516500  0.92715100  1
  O  O60  1  0.41850500  0.81237600  0.75000000  1
  O  O61  1  0.78953700  0.66483500  0.42715100  1
  O  O62  1  0.78953700  0.66483500  0.07284900  1
  O  O63  1  0.82141400  0.34963100  0.43909600  1
