# generated using pymatgen
data_Li2PtO3
_symmetry_space_group_name_H-M   'P 1'
_cell_length_a   5.26993494
_cell_length_b   5.26993494
_cell_length_c   29.02091571
_cell_angle_alpha   89.99016386
_cell_angle_beta   89.99016386
_cell_angle_gamma   119.93208227
_symmetry_Int_Tables_number   1
_chemical_formula_structural   Li2PtO3
_chemical_formula_sum   'Li24 Pt12 O36'
_cell_volume   698.47206626
_cell_formula_units_Z   12
loop_
 _symmetry_equiv_pos_site_id
 _symmetry_equiv_pos_as_xyz
  1  'x, y, z'
loop_
 _atom_site_type_symbol
 _atom_site_label
 _atom_site_symmetry_multiplicity
 _atom_site_fract_x
 _atom_site_fract_y
 _atom_site_fract_z
 _atom_site_occupancy
  Li  Li0  1  0.33326800  0.66673200  0.00000000  1
  Li  Li1  1  0.00512100  0.33710200  0.08317600  1
  Li  Li2  1  0.66244500  0.66452900  0.08343600  1
  Li  Li3  1  0.33432500  0.99999400  0.08313000  1
  Li  Li4  1  0.33295500  0.33259700  0.16658300  1
  Li  Li5  1  0.33577900  0.66463800  0.24999800  1
  Li  Li6  1  0.00064800  0.00045000  0.24990000  1
  Li  Li7  1  0.66403300  0.33546100  0.24995300  1
  Li  Li8  1  0.66668900  0.66666900  0.33332300  1
  Li  Li9  1  0.66922100  0.99744900  0.41666600  1
  Li  Li10  1  0.33332100  0.33329800  0.41666500  1
  Li  Li11  1  0.99747200  0.66921800  0.41666700  1
  Li  Li12  1  0.00000700  0.99999300  0.50000000  1
  Li  Li13  1  0.33078200  0.00252800  0.58333300  1
  Li  Li14  1  0.66670200  0.66667900  0.58333500  1
  Li  Li15  1  0.00255100  0.33077900  0.58333400  1
  Li  Li16  1  0.33333100  0.33331100  0.66667700  1
  Li  Li17  1  0.66453900  0.33596700  0.75004700  1
  Li  Li18  1  0.99955000  0.99935200  0.75010000  1
  Li  Li19  1  0.33536200  0.66422100  0.75000200  1
  Li  Li20  1  0.66740300  0.66704500  0.83341700  1
  Li  Li21  1  0.33547100  0.33755500  0.91656400  1
  Li  Li22  1  0.66289800  0.99487900  0.91682400  1
  Li  Li23  1  0.00000600  0.66567500  0.91687000  1
  Pt  Pt24  1  0.66658000  0.33342000  0.00000000  1
  Pt  Pt25  1  0.00006700  0.99993300  0.00000000  1
  Pt  Pt26  1  0.66680700  0.00022500  0.16662400  1
  Pt  Pt27  1  0.00023300  0.66697200  0.16662300  1
  Pt  Pt28  1  0.00001000  0.33326800  0.33332000  1
  Pt  Pt29  1  0.33328000  0.00000600  0.33332000  1
  Pt  Pt30  1  0.33336700  0.66663300  0.50000000  1
  Pt  Pt31  1  0.66665000  0.33335000  0.50000000  1
  Pt  Pt32  1  0.66673200  0.99999000  0.66668000  1
  Pt  Pt33  1  0.99999400  0.66672000  0.66668000  1
  Pt  Pt34  1  0.99977500  0.33319300  0.83337600  1
  Pt  Pt35  1  0.33302800  0.99976700  0.83337700  1
  O  O36  1  0.33255200  0.31859100  0.03919300  1
  O  O37  1  0.67997500  0.01370900  0.03866700  1
  O  O38  1  0.98589600  0.66624600  0.03873700  1
  O  O39  1  0.33327300  0.68117700  0.12741000  1
  O  O40  1  0.68071100  0.33347300  0.12791300  1
  O  O41  1  0.98610800  0.98634300  0.12782100  1
  O  O42  1  0.68159200  0.68114600  0.20586800  1
  O  O43  1  0.98580700  0.33292500  0.20533200  1
  O  O44  1  0.33334800  0.98618400  0.20538900  1
  O  O45  1  0.66624100  0.01378500  0.29460900  1
  O  O46  1  0.01383800  0.66621300  0.29460500  1
  O  O47  1  0.31903300  0.31905100  0.29401100  1
  O  O48  1  0.01438500  0.01437300  0.37264400  1
  O  O49  1  0.31938400  0.66701600  0.37203400  1
  O  O50  1  0.66701600  0.31937700  0.37203500  1
  O  O51  1  0.99962100  0.34720900  0.46129000  1
  O  O52  1  0.34722400  0.99960400  0.46129100  1
  O  O53  1  0.65228900  0.65227100  0.46068300  1
  O  O54  1  0.34772900  0.34771100  0.53931700  1
  O  O55  1  0.65279100  0.00037900  0.53871000  1
  O  O56  1  0.00039600  0.65277600  0.53870900  1
  O  O57  1  0.68062300  0.33298400  0.62796500  1
  O  O58  1  0.33298400  0.68061600  0.62796600  1
  O  O59  1  0.98562700  0.98561500  0.62735600  1
  O  O60  1  0.68094900  0.68096700  0.70598900  1
  O  O61  1  0.33378700  0.98616200  0.70539500  1
  O  O62  1  0.98621500  0.33375900  0.70539100  1
  O  O63  1  0.01381600  0.66665200  0.79461100  1
  O  O64  1  0.66707500  0.01419300  0.79466800  1
  O  O65  1  0.31885400  0.31840800  0.79413200  1
  O  O66  1  0.01365700  0.01389200  0.87217900  1
  O  O67  1  0.31882300  0.66672700  0.87259000  1
  O  O68  1  0.66652700  0.31928900  0.87208700  1
  O  O69  1  0.98629100  0.32002500  0.96133300  1
  O  O70  1  0.33375400  0.01410400  0.96126300  1
  O  O71  1  0.68140900  0.66744800  0.96080700  1
