# generated using pymatgen
data_AsS
_symmetry_space_group_name_H-M   'P 1'
_cell_length_a   14.70253100
_cell_length_b   7.12719800
_cell_length_c   10.38767617
_cell_angle_alpha   65.13882533
_cell_angle_beta   90.00000000
_cell_angle_gamma   90.00000000
_symmetry_Int_Tables_number   1
_chemical_formula_structural   AsS
_chemical_formula_sum   'As16 S16'
_cell_volume   987.62977820
_cell_formula_units_Z   16
loop_
 _symmetry_equiv_pos_site_id
 _symmetry_equiv_pos_as_xyz
  1  'x, y, z'
loop_
 _atom_site_type_symbol
 _atom_site_label
 _atom_site_symmetry_multiplicity
 _atom_site_fract_x
 _atom_site_fract_y
 _atom_site_fract_z
 _atom_site_occupancy
  As  As0  1  0.51453700  0.34839900  0.37687700  1
  As  As1  1  0.12634500  0.15277800  0.68881600  1
  As  As2  1  0.65657000  0.68419900  0.53973600  1
  As  As3  1  0.34343000  0.31580100  0.46026400  1
  As  As4  1  0.62634500  0.84722200  0.81118400  1
  As  As5  1  0.98546300  0.34839900  0.87687700  1
  As  As6  1  0.15657000  0.31580100  0.96026400  1
  As  As7  1  0.84343000  0.68419900  0.03973600  1
  As  As8  1  0.48546300  0.65160100  0.62312300  1
  As  As9  1  0.36246200  0.55806200  0.08995400  1
  As  As10  1  0.37365500  0.15277800  0.18881600  1
  As  As11  1  0.86246200  0.44193800  0.41004600  1
  As  As12  1  0.63753800  0.44193800  0.91004600  1
  As  As13  1  0.13753800  0.55806200  0.58995400  1
  As  As14  1  0.87365500  0.84722200  0.31118400  1
  As  As15  1  0.01453700  0.65160100  0.12312300  1
  S  S16  1  0.78341200  0.42123000  0.23004400  1
  S  S17  1  0.98593200  0.10968800  0.78695600  1
  S  S18  1  0.49908900  0.62118400  0.16372100  1
  S  S19  1  0.20178500  0.06597000  0.89518200  1
  S  S20  1  0.01406800  0.89031200  0.21304400  1
  S  S21  1  0.99908900  0.37881600  0.33627900  1
  S  S22  1  0.00091100  0.62118400  0.66372100  1
  S  S23  1  0.51406800  0.10968800  0.28695600  1
  S  S24  1  0.71658800  0.42123000  0.73004400  1
  S  S25  1  0.79821500  0.93403000  0.10481800  1
  S  S26  1  0.28341200  0.57877000  0.26995600  1
  S  S27  1  0.29821500  0.06597000  0.39518200  1
  S  S28  1  0.70178500  0.93403000  0.60481800  1
  S  S29  1  0.50091100  0.37881600  0.83627900  1
  S  S30  1  0.48593200  0.89031200  0.71304400  1
  S  S31  1  0.21658800  0.57877000  0.76995600  1
