# generated using pymatgen
data_K4Fe2O5
_symmetry_space_group_name_H-M   'P 1'
_cell_length_a   6.03190400
_cell_length_b   6.52259200
_cell_length_c   10.15559247
_cell_angle_alpha   76.33699758
_cell_angle_beta   90.00000000
_cell_angle_gamma   90.00000000
_symmetry_Int_Tables_number   1
_chemical_formula_structural   K4Fe2O5
_chemical_formula_sum   'K8 Fe4 O10'
_cell_volume   388.25130959
_cell_formula_units_Z   2
loop_
 _symmetry_equiv_pos_site_id
 _symmetry_equiv_pos_as_xyz
  1  'x, y, z'
loop_
 _atom_site_type_symbol
 _atom_site_label
 _atom_site_symmetry_multiplicity
 _atom_site_fract_x
 _atom_site_fract_y
 _atom_site_fract_z
 _atom_site_occupancy
  K  K0  1  0.87856200  0.73312000  0.51718800  1
  K  K1  1  0.08983100  0.90305900  0.83794700  1
  K  K2  1  0.12143800  0.26688000  0.48281200  1
  K  K3  1  0.41016900  0.90305900  0.33794700  1
  K  K4  1  0.91016900  0.09694100  0.16205300  1
  K  K5  1  0.37856200  0.26688000  0.98281200  1
  K  K6  1  0.62143800  0.73312000  0.01718800  1
  K  K7  1  0.58983100  0.09694100  0.66205300  1
  Fe  Fe8  1  0.11422800  0.59301800  0.15544100  1
  Fe  Fe9  1  0.38577200  0.59301800  0.65544100  1
  Fe  Fe10  1  0.61422800  0.40698200  0.34455900  1
  Fe  Fe11  1  0.88577200  0.40698200  0.84455900  1
  O  O12  1  0.14620100  0.39688700  0.72998300  1
  O  O13  1  0.85379900  0.60311300  0.27001700  1
  O  O14  1  0.26560800  0.86149000  0.59889700  1
  O  O15  1  0.35379900  0.39688700  0.22998300  1
  O  O16  1  0.76560800  0.13851000  0.90110300  1
  O  O17  1  0.50000000  0.50000000  0.50000000  1
  O  O18  1  0.73439200  0.13851000  0.40110300  1
  O  O19  1  0.64620100  0.60311300  0.77001700  1
  O  O20  1  0.00000000  0.50000000  0.00000000  1
  O  O21  1  0.23439200  0.86149000  0.09889700  1
