# generated using pymatgen
data_Ba5Mn3ClO12
_symmetry_space_group_name_H-M   'P 1'
_cell_length_a   10.66688355
_cell_length_b   10.66688355
_cell_length_c   7.85264600
_cell_angle_alpha   90.00000000
_cell_angle_beta   90.00000000
_cell_angle_gamma   119.99999719
_symmetry_Int_Tables_number   1
_chemical_formula_structural   Ba5Mn3ClO12
_chemical_formula_sum   'Ba10 Mn6 Cl2 O24'
_cell_volume   773.78760984
_cell_formula_units_Z   2
loop_
 _symmetry_equiv_pos_site_id
 _symmetry_equiv_pos_as_xyz
  1  'x, y, z'
loop_
 _atom_site_type_symbol
 _atom_site_label
 _atom_site_symmetry_multiplicity
 _atom_site_fract_x
 _atom_site_fract_y
 _atom_site_fract_z
 _atom_site_occupancy
  Ba  Ba0  1  0.24824400  0.25711700  0.75000000  1
  Ba  Ba1  1  0.33333300  0.66666700  0.49830900  1
  Ba  Ba2  1  0.66666700  0.33333300  0.50169100  1
  Ba  Ba3  1  0.74288300  0.99112700  0.75000000  1
  Ba  Ba4  1  0.00887300  0.75175600  0.75000000  1
  Ba  Ba5  1  0.33333300  0.66666700  0.00169100  1
  Ba  Ba6  1  0.25711700  0.00887300  0.25000000  1
  Ba  Ba7  1  0.75175600  0.74288300  0.25000000  1
  Ba  Ba8  1  0.66666700  0.33333300  0.99830900  1
  Ba  Ba9  1  0.99112700  0.24824400  0.25000000  1
  Mn  Mn10  1  0.40388400  0.03333600  0.75000000  1
  Mn  Mn11  1  0.62945200  0.59611600  0.75000000  1
  Mn  Mn12  1  0.96666400  0.37054800  0.75000000  1
  Mn  Mn13  1  0.37054800  0.40388400  0.25000000  1
  Mn  Mn14  1  0.59611600  0.96666400  0.25000000  1
  Mn  Mn15  1  0.03333600  0.62945200  0.25000000  1
  Cl  Cl16  1  0.00000000  0.00000000  0.50000000  1
  Cl  Cl17  1  0.00000000  0.00000000  0.00000000  1
  O  O18  1  0.87704300  0.46799600  0.75000000  1
  O  O19  1  0.53200400  0.40904700  0.75000000  1
  O  O20  1  0.25921300  0.35592400  0.42447400  1
  O  O21  1  0.67307300  0.15194000  0.25000000  1
  O  O22  1  0.90328900  0.25921300  0.57552600  1
  O  O23  1  0.59095300  0.12295700  0.75000000  1
  O  O24  1  0.35592400  0.09671100  0.57552600  1
  O  O25  1  0.15194000  0.47886700  0.75000000  1
  O  O26  1  0.46799600  0.59095300  0.25000000  1
  O  O27  1  0.40904700  0.87704300  0.25000000  1
  O  O28  1  0.09671100  0.74078700  0.07552600  1
  O  O29  1  0.25921300  0.35592400  0.07552600  1
  O  O30  1  0.35592400  0.09671100  0.92447400  1
  O  O31  1  0.09671100  0.74078700  0.42447400  1
  O  O32  1  0.32692700  0.84806000  0.75000000  1
  O  O33  1  0.74078700  0.64407600  0.57552600  1
  O  O34  1  0.52113300  0.67307300  0.75000000  1
  O  O35  1  0.74078700  0.64407600  0.92447400  1
  O  O36  1  0.84806000  0.52113300  0.25000000  1
  O  O37  1  0.90328900  0.25921300  0.92447400  1
  O  O38  1  0.47886700  0.32692700  0.25000000  1
  O  O39  1  0.12295700  0.53200400  0.25000000  1
  O  O40  1  0.64407600  0.90328900  0.42447400  1
  O  O41  1  0.64407600  0.90328900  0.07552600  1
