# generated using pymatgen
data_Dy2B4C
_symmetry_space_group_name_H-M   'P 1'
_cell_length_a   5.26314338
_cell_length_b   5.26314338
_cell_length_c   5.26314338
_cell_angle_alpha   143.69231624
_cell_angle_beta   102.86461219
_cell_angle_gamma   88.36702626
_symmetry_Int_Tables_number   1
_chemical_formula_structural   Dy2B4C
_chemical_formula_sum   'Dy2 B4 C1'
_cell_volume   81.23270183
_cell_formula_units_Z   1
loop_
 _symmetry_equiv_pos_site_id
 _symmetry_equiv_pos_as_xyz
  1  'x, y, z'
loop_
 _atom_site_type_symbol
 _atom_site_label
 _atom_site_symmetry_multiplicity
 _atom_site_fract_x
 _atom_site_fract_y
 _atom_site_fract_z
 _atom_site_occupancy
  Dy  Dy0  1  0.23435300  0.23435300  0.00000000  1
  Dy  Dy1  1  0.76564700  0.76564700  0.00000000  1
  B  B2  1  0.36512000  0.00000000  0.36512000  1
  B  B3  1  0.77254900  0.50000000  0.27254900  1
  B  B4  1  0.63488000  0.00000000  0.63488000  1
  B  B5  1  0.22745100  0.50000000  0.72745100  1
  C  C6  1  0.00000000  0.50000000  0.50000000  1
