# generated using pymatgen
data_Ba2AlCu2F11
_symmetry_space_group_name_H-M   'P 1'
_cell_length_a   7.41391771
_cell_length_b   7.41391771
_cell_length_c   14.37655300
_cell_angle_alpha   90.00000000
_cell_angle_beta   90.00000000
_cell_angle_gamma   119.99999745
_symmetry_Int_Tables_number   1
_chemical_formula_structural   Ba2AlCu2F11
_chemical_formula_sum   'Ba6 Al3 Cu6 F33'
_cell_volume   684.35419812
_cell_formula_units_Z   3
loop_
 _symmetry_equiv_pos_site_id
 _symmetry_equiv_pos_as_xyz
  1  'x, y, z'
loop_
 _atom_site_type_symbol
 _atom_site_label
 _atom_site_symmetry_multiplicity
 _atom_site_fract_x
 _atom_site_fract_y
 _atom_site_fract_z
 _atom_site_occupancy
  Ba  Ba0  1  0.53647200  0.18790400  0.66660300  1
  Ba  Ba1  1  0.17272600  0.49491400  0.80055200  1
  Ba  Ba2  1  0.65143200  0.46352800  0.99993600  1
  Ba  Ba3  1  0.50508600  0.67781100  0.46721800  1
  Ba  Ba4  1  0.32218900  0.82727400  0.13388500  1
  Ba  Ba5  1  0.81209600  0.34856800  0.33326900  1
  Al  Al6  1  0.16806600  0.00768100  0.87190300  1
  Al  Al7  1  0.83961600  0.83193400  0.20523600  1
  Al  Al8  1  0.99231900  0.16038400  0.53856900  1
  Cu  Cu9  1  0.64653900  0.99523300  0.89047900  1
  Cu  Cu10  1  0.79203200  0.76878000  0.72222300  1
  Cu  Cu11  1  0.23122000  0.02325200  0.38889000  1
  Cu  Cu12  1  0.34869400  0.35346100  0.22381300  1
  Cu  Cu13  1  0.97674800  0.20796800  0.05555600  1
  Cu  Cu14  1  0.00476700  0.65130600  0.55714600  1
  F  F15  1  0.68173000  0.09116600  0.02189200  1
  F  F16  1  0.50509500  0.71078700  0.92864300  1
  F  F17  1  0.40943600  0.31827000  0.35522500  1
  F  F18  1  0.09046900  0.41497800  0.48374200  1
  F  F19  1  0.52197100  0.24534600  0.18167200  1
  F  F20  1  0.90461400  0.62695600  0.17817800  1
  F  F21  1  0.58502200  0.67549100  0.15040900  1
  F  F22  1  0.37304400  0.27765800  0.84484400  1
  F  F23  1  0.72337400  0.47802900  0.51500500  1
  F  F24  1  0.26156800  0.34002900  0.09353400  1
  F  F25  1  0.32450900  0.90953100  0.81707600  1
  F  F26  1  0.90883400  0.59056400  0.68855900  1
  F  F27  1  0.29126800  0.02586100  0.98176600  1
  F  F28  1  0.02898100  0.47888400  0.02104300  1
  F  F29  1  0.73459300  0.70873200  0.31509900  1
  F  F30  1  0.28921300  0.79430800  0.59531000  1
  F  F31  1  0.01264800  0.12302600  0.90931600  1
  F  F32  1  0.07846100  0.73843200  0.42686700  1
  F  F33  1  0.99978600  0.06746600  0.41841800  1
  F  F34  1  0.97413900  0.26540700  0.64843300  1
  F  F35  1  0.06768000  0.00021400  0.75175200  1
  F  F36  1  0.52111600  0.55009700  0.68771000  1
  F  F37  1  0.44990300  0.97101900  0.35437600  1
  F  F38  1  0.11037800  0.98735200  0.24264900  1
  F  F39  1  0.65997100  0.92153900  0.76020100  1
  F  F40  1  0.75465400  0.27662600  0.84833900  1
  F  F41  1  0.20569200  0.49490500  0.26197600  1
  F  F42  1  0.95441700  0.74468300  0.88800600  1
  F  F43  1  0.79026600  0.04558300  0.22133900  1
  F  F44  1  0.93253400  0.93232000  0.08508500  1
  F  F45  1  0.72234200  0.09538600  0.51151100  1
  F  F46  1  0.87697400  0.88962200  0.57598200  1
  F  F47  1  0.25531700  0.20973400  0.55467300  1
