# generated using pymatgen
data_CsSmZnSe3
_symmetry_space_group_name_H-M   'P 1'
_cell_length_a   8.40428658
_cell_length_b   8.40428658
_cell_length_c   11.23331400
_cell_angle_alpha   90.00000000
_cell_angle_beta   90.00000000
_cell_angle_gamma   150.74043984
_symmetry_Int_Tables_number   1
_chemical_formula_structural   CsSmZnSe3
_chemical_formula_sum   'Cs2 Sm2 Zn2 Se6'
_cell_volume   387.80313648
_cell_formula_units_Z   2
loop_
 _symmetry_equiv_pos_site_id
 _symmetry_equiv_pos_as_xyz
  1  'x, y, z'
loop_
 _atom_site_type_symbol
 _atom_site_label
 _atom_site_symmetry_multiplicity
 _atom_site_fract_x
 _atom_site_fract_y
 _atom_site_fract_z
 _atom_site_occupancy
  Cs  Cs0  1  0.74159800  0.25840200  0.25000000  1
  Cs  Cs1  1  0.25840200  0.74159800  0.75000000  1
  Sm  Sm2  1  0.00000000  0.00000000  0.00000000  1
  Sm  Sm3  1  0.00000000  0.00000000  0.50000000  1
  Zn  Zn4  1  0.46045300  0.53954700  0.25000000  1
  Zn  Zn5  1  0.53954700  0.46045300  0.75000000  1
  Se  Se6  1  0.94595400  0.05404600  0.75000000  1
  Se  Se7  1  0.61781900  0.38218100  0.56313900  1
  Se  Se8  1  0.38218100  0.61781900  0.43686100  1
  Se  Se9  1  0.38218100  0.61781900  0.06313900  1
  Se  Se10  1  0.05404600  0.94595400  0.25000000  1
  Se  Se11  1  0.61781900  0.38218100  0.93686100  1
