# generated using pymatgen
data_K2Sn(HO)6
_symmetry_space_group_name_H-M   'P 1'
_cell_length_a   5.72521208
_cell_length_b   5.72521208
_cell_length_c   5.72521161
_cell_angle_alpha   71.38042968
_cell_angle_beta   71.38042968
_cell_angle_gamma   71.38042691
_symmetry_Int_Tables_number   1
_chemical_formula_structural   K2Sn(HO)6
_chemical_formula_sum   'K2 Sn1 H6 O6'
_cell_volume   163.52089499
_cell_formula_units_Z   1
loop_
 _symmetry_equiv_pos_site_id
 _symmetry_equiv_pos_as_xyz
  1  'x, y, z'
loop_
 _atom_site_type_symbol
 _atom_site_label
 _atom_site_symmetry_multiplicity
 _atom_site_fract_x
 _atom_site_fract_y
 _atom_site_fract_z
 _atom_site_occupancy
  K  K0  1  0.29076400  0.29076400  0.29076400  1
  K  K1  1  0.70923600  0.70923600  0.70923600  1
  Sn  Sn2  1  0.00000000  0.00000000  0.00000000  1
  H  H3  1  0.81091100  0.36061500  0.24146500  1
  H  H4  1  0.36061500  0.24146500  0.81091100  1
  H  H5  1  0.24146500  0.81091100  0.36061500  1
  H  H6  1  0.18908900  0.63938500  0.75853500  1
  H  H7  1  0.63938500  0.75853500  0.18908900  1
  H  H8  1  0.75853500  0.18908900  0.63938500  1
  O  O9  1  0.80147500  0.18062100  0.29938700  1
  O  O10  1  0.18062100  0.29938700  0.80147500  1
  O  O11  1  0.29938700  0.80147500  0.18062100  1
  O  O12  1  0.19852500  0.81937900  0.70061300  1
  O  O13  1  0.81937900  0.70061300  0.19852500  1
  O  O14  1  0.70061300  0.19852500  0.81937900  1
