# generated using pymatgen
data_KLi2BO3
_symmetry_space_group_name_H-M   'P 1'
_cell_length_a   6.50745700
_cell_length_b   6.52197200
_cell_length_c   8.08736500
_cell_angle_alpha   90.00000000
_cell_angle_beta   90.00000000
_cell_angle_gamma   90.00000000
_symmetry_Int_Tables_number   1
_chemical_formula_structural   KLi2BO3
_chemical_formula_sum   'K4 Li8 B4 O12'
_cell_volume   343.23951625
_cell_formula_units_Z   4
loop_
 _symmetry_equiv_pos_site_id
 _symmetry_equiv_pos_as_xyz
  1  'x, y, z'
loop_
 _atom_site_type_symbol
 _atom_site_label
 _atom_site_symmetry_multiplicity
 _atom_site_fract_x
 _atom_site_fract_y
 _atom_site_fract_z
 _atom_site_occupancy
  K  K0  1  0.75000000  0.39384800  0.98984100  1
  K  K1  1  0.75000000  0.10615200  0.48984100  1
  K  K2  1  0.25000000  0.89384800  0.51015900  1
  K  K3  1  0.25000000  0.60615200  0.01015900  1
  Li  Li4  1  0.54054200  0.96195100  0.86035200  1
  Li  Li5  1  0.45945800  0.03804900  0.13964800  1
  Li  Li6  1  0.04054200  0.46195100  0.63964800  1
  Li  Li7  1  0.95945800  0.96195100  0.86035200  1
  Li  Li8  1  0.95945800  0.53804900  0.36035200  1
  Li  Li9  1  0.45945800  0.46195100  0.63964800  1
  Li  Li10  1  0.04054200  0.03804900  0.13964800  1
  Li  Li11  1  0.54054200  0.53804900  0.36035200  1
  B  B12  1  0.25000000  0.16775700  0.84485300  1
  B  B13  1  0.75000000  0.83224300  0.15514700  1
  B  B14  1  0.25000000  0.33224300  0.34485300  1
  B  B15  1  0.75000000  0.66775700  0.65514700  1
  O  O16  1  0.43823300  0.23842000  0.78831500  1
  O  O17  1  0.43823300  0.26158000  0.28831500  1
  O  O18  1  0.93823300  0.73842000  0.71168500  1
  O  O19  1  0.75000000  0.50699500  0.53800100  1
  O  O20  1  0.25000000  0.49300500  0.46199900  1
  O  O21  1  0.06176700  0.23842000  0.78831500  1
  O  O22  1  0.93823300  0.76158000  0.21168500  1
  O  O23  1  0.56176700  0.76158000  0.21168500  1
  O  O24  1  0.75000000  0.99300500  0.03800100  1
  O  O25  1  0.06176700  0.26158000  0.28831500  1
  O  O26  1  0.25000000  0.00699500  0.96199900  1
  O  O27  1  0.56176700  0.73842000  0.71168500  1
