# generated using pymatgen
data_ThZn4
_symmetry_space_group_name_H-M   'P 1'
_cell_length_a   5.97993243
_cell_length_b   5.97993243
_cell_length_c   5.97993243
_cell_angle_alpha   137.88706752
_cell_angle_beta   137.88706752
_cell_angle_gamma   61.07600394
_symmetry_Int_Tables_number   1
_chemical_formula_structural   ThZn4
_chemical_formula_sum   'Th1 Zn4'
_cell_volume   95.10085948
_cell_formula_units_Z   1
loop_
 _symmetry_equiv_pos_site_id
 _symmetry_equiv_pos_as_xyz
  1  'x, y, z'
loop_
 _atom_site_type_symbol
 _atom_site_label
 _atom_site_symmetry_multiplicity
 _atom_site_fract_x
 _atom_site_fract_y
 _atom_site_fract_z
 _atom_site_occupancy
  Th  Th0  1  0.00000000  0.00000000  0.00000000  1
  Zn  Zn1  1  0.61794200  0.61794200  0.00000000  1
  Zn  Zn2  1  0.75000000  0.25000000  0.50000000  1
  Zn  Zn3  1  0.25000000  0.75000000  0.50000000  1
  Zn  Zn4  1  0.38205800  0.38205800  0.00000000  1
