# generated using pymatgen
data_Rb2Zn3(P2O7)2
_symmetry_space_group_name_H-M   'P 1'
_cell_length_a   7.34317400
_cell_length_b   7.30905600
_cell_length_c   13.43130584
_cell_angle_alpha   87.77010572
_cell_angle_beta   90.00000000
_cell_angle_gamma   90.00000000
_symmetry_Int_Tables_number   1
_chemical_formula_structural   Rb2Zn3(P2O7)2
_chemical_formula_sum   'Rb4 Zn6 P8 O28'
_cell_volume   720.33472853
_cell_formula_units_Z   2
loop_
 _symmetry_equiv_pos_site_id
 _symmetry_equiv_pos_as_xyz
  1  'x, y, z'
loop_
 _atom_site_type_symbol
 _atom_site_label
 _atom_site_symmetry_multiplicity
 _atom_site_fract_x
 _atom_site_fract_y
 _atom_site_fract_z
 _atom_site_occupancy
  Rb  Rb0  1  0.75049200  0.05368600  0.41661000  1
  Rb  Rb1  1  0.25049200  0.94631400  0.58339000  1
  Rb  Rb2  1  0.99329200  0.61111400  0.09333700  1
  Rb  Rb3  1  0.49329200  0.38888600  0.90666300  1
  Zn  Zn4  1  0.62040800  0.79180200  0.73681400  1
  Zn  Zn5  1  0.99991900  0.20955300  0.90152600  1
  Zn  Zn6  1  0.08919100  0.45163900  0.61327200  1
  Zn  Zn7  1  0.12040800  0.20819800  0.26318600  1
  Zn  Zn8  1  0.49991900  0.79044700  0.09847400  1
  Zn  Zn9  1  0.58919100  0.54836100  0.38672800  1
  P  P10  1  0.51223300  0.43290600  0.61194200  1
  P  P11  1  0.98638500  0.63563700  0.81620500  1
  P  P12  1  0.48638500  0.36436300  0.18379500  1
  P  P13  1  0.28793600  0.83476200  0.31006800  1
  P  P14  1  0.78793600  0.16523800  0.68993200  1
  P  P15  1  0.27569500  0.88841700  0.89205500  1
  P  P16  1  0.01223300  0.56709400  0.38805800  1
  P  P17  1  0.77569500  0.11158300  0.10794500  1
  O  O18  1  0.34645300  0.76626300  0.97912100  1
  O  O19  1  0.27969100  0.34261700  0.16838900  1
  O  O20  1  0.77969100  0.65738300  0.83161100  1
  O  O21  1  0.14986800  0.66110200  0.30547000  1
  O  O22  1  0.64986800  0.33889800  0.69453000  1
  O  O23  1  0.06623600  0.47060700  0.87532000  1
  O  O24  1  0.44665300  0.77676300  0.37853800  1
  O  O25  1  0.89049600  0.12285000  0.20182800  1
  O  O26  1  0.68564500  0.00294100  0.64650300  1
  O  O27  1  0.04060600  0.64786800  0.70625300  1
  O  O28  1  0.82958900  0.66271700  0.36725600  1
  O  O29  1  0.01104300  0.36409200  0.36524600  1
  O  O30  1  0.57166900  0.18697100  0.13164000  1
  O  O31  1  0.73606800  0.91351900  0.07958600  1
  O  O32  1  0.54060600  0.35213200  0.29374700  1
  O  O33  1  0.56623600  0.52939300  0.12468000  1
  O  O34  1  0.39049600  0.87715000  0.79817200  1
  O  O35  1  0.32958900  0.33728300  0.63274400  1
  O  O36  1  0.23606800  0.08648100  0.92041400  1
  O  O37  1  0.08928600  0.60740300  0.49083600  1
  O  O38  1  0.51104300  0.63590800  0.63475400  1
  O  O39  1  0.94665300  0.22323700  0.62146200  1
  O  O40  1  0.18564500  0.99705900  0.35349700  1
  O  O41  1  0.33534600  0.87319700  0.20080700  1
  O  O42  1  0.58928600  0.39259700  0.50916400  1
  O  O43  1  0.07166900  0.81302900  0.86836000  1
  O  O44  1  0.84645300  0.23373700  0.02087900  1
  O  O45  1  0.83534600  0.12680300  0.79919300  1
