# generated using pymatgen
data_MgAs2(XeF5)4
_symmetry_space_group_name_H-M   'P 1'
_cell_length_a   8.96733300
_cell_length_b   15.00782100
_cell_length_c   15.84148200
_cell_angle_alpha   90.00000000
_cell_angle_beta   90.00000000
_cell_angle_gamma   90.00000000
_symmetry_Int_Tables_number   1
_chemical_formula_structural   MgAs2(XeF5)4
_chemical_formula_sum   'Mg4 As8 Xe16 F80'
_cell_volume   2131.94868337
_cell_formula_units_Z   4
loop_
 _symmetry_equiv_pos_site_id
 _symmetry_equiv_pos_as_xyz
  1  'x, y, z'
loop_
 _atom_site_type_symbol
 _atom_site_label
 _atom_site_symmetry_multiplicity
 _atom_site_fract_x
 _atom_site_fract_y
 _atom_site_fract_z
 _atom_site_occupancy
  Mg  Mg0  1  0.14766300  0.47987800  0.12644600  1
  Mg  Mg1  1  0.35233700  0.52012200  0.62644600  1
  Mg  Mg2  1  0.85233700  0.97987800  0.37355400  1
  Mg  Mg3  1  0.64766300  0.02012200  0.87355400  1
  As  As4  1  0.00130900  0.96568600  0.98437600  1
  As  As5  1  0.99869100  0.46568600  0.51562400  1
  As  As6  1  0.31776300  0.73130200  0.75016800  1
  As  As7  1  0.50130900  0.53431400  0.01562400  1
  As  As8  1  0.81776300  0.76869800  0.24983200  1
  As  As9  1  0.18223700  0.26869800  0.25016800  1
  As  As10  1  0.49869100  0.03431400  0.48437600  1
  As  As11  1  0.68223700  0.23130200  0.74983200  1
  Xe  Xe12  1  0.49781300  0.83835300  0.01702800  1
  Xe  Xe13  1  0.00218700  0.16164700  0.51702800  1
  Xe  Xe14  1  0.28724300  0.65949700  0.27686100  1
  Xe  Xe15  1  0.99781300  0.66164700  0.98297200  1
  Xe  Xe16  1  0.40518600  0.17812400  0.98956300  1
  Xe  Xe17  1  0.71275700  0.15949700  0.22313900  1
  Xe  Xe18  1  0.90518600  0.32187600  0.01043700  1
  Xe  Xe19  1  0.09481400  0.82187600  0.48956300  1
  Xe  Xe20  1  0.59481400  0.67812400  0.51043700  1
  Xe  Xe21  1  0.21275700  0.34050300  0.77686100  1
  Xe  Xe22  1  0.78724300  0.84050300  0.72313900  1
  Xe  Xe23  1  0.23671700  0.98810700  0.23516500  1
  Xe  Xe24  1  0.26328300  0.01189300  0.73516500  1
  Xe  Xe25  1  0.76328300  0.48810700  0.26483500  1
  Xe  Xe26  1  0.73671700  0.51189300  0.76483500  1
  Xe  Xe27  1  0.50218700  0.33835300  0.48297200  1
  F  F28  1  0.98109400  0.81853600  0.20984000  1
  F  F29  1  0.02733000  0.53111000  0.42477300  1
  F  F30  1  0.92928200  0.70129200  0.31679200  1
  F  F31  1  0.09599900  0.99377100  0.64995700  1
  F  F32  1  0.76093900  0.02791200  0.26767400  1
  F  F33  1  0.32796600  0.78357400  0.32309500  1
  F  F34  1  0.12616300  0.38562800  0.47820900  1
  F  F35  1  0.61317700  0.28965800  0.38149700  1
  F  F36  1  0.68155000  0.14662200  0.83521100  1
  F  F37  1  0.02109200  0.90491900  0.88952700  1
  F  F38  1  0.65804700  0.72119700  0.29749600  1
  F  F39  1  0.23215600  0.71459800  0.49513200  1
  F  F40  1  0.05127300  0.43508600  0.01795500  1
  F  F41  1  0.93553200  0.47181400  0.17272300  1
  F  F42  1  0.44872700  0.56491400  0.51795500  1
  F  F43  1  0.42928200  0.79870800  0.68320800  1
  F  F44  1  0.11317700  0.21034200  0.61850300  1
  F  F45  1  0.31901100  0.81284700  0.83003800  1
  F  F46  1  0.38949800  0.39283900  0.59166800  1
  F  F47  1  0.29487900  0.34068900  0.30937500  1
  F  F48  1  0.43553200  0.02818600  0.82727700  1
  F  F49  1  0.88949800  0.10716100  0.40833200  1
  F  F50  1  0.87959300  0.54888500  0.55684100  1
  F  F51  1  0.81845000  0.85337800  0.33521100  1
  F  F52  1  0.47267000  0.46889000  0.92477300  1
  F  F53  1  0.97267000  0.03111000  0.07522700  1
  F  F54  1  0.06446800  0.97181400  0.32727700  1
  F  F55  1  0.52733000  0.96889000  0.57522700  1
  F  F56  1  0.51890600  0.18146400  0.70984000  1
  F  F57  1  0.65610500  0.97469200  0.43449300  1
  F  F58  1  0.12040700  0.04888500  0.94315900  1
  F  F59  1  0.67203400  0.28357400  0.17690500  1
  F  F60  1  0.84742500  0.40934100  0.46858400  1
  F  F61  1  0.65257500  0.59065900  0.96858400  1
  F  F62  1  0.59599900  0.50622900  0.35004300  1
  F  F63  1  0.84195300  0.27880300  0.79749600  1
  F  F64  1  0.55127300  0.06491400  0.98204500  1
  F  F65  1  0.15257500  0.90934100  0.03141600  1
  F  F66  1  0.37959300  0.95111500  0.44315900  1
  F  F67  1  0.81901100  0.68715300  0.16996200  1
  F  F68  1  0.70512100  0.84068900  0.19062500  1
  F  F69  1  0.40400100  0.00622900  0.14995700  1
  F  F70  1  0.79487900  0.15931100  0.69062500  1
  F  F71  1  0.68098900  0.31284700  0.66996200  1
  F  F72  1  0.38682300  0.78965800  0.11850300  1
  F  F73  1  0.87383700  0.88562800  0.02179100  1
  F  F74  1  0.94872700  0.93508600  0.48204500  1
  F  F75  1  0.20512100  0.65931100  0.80937500  1
  F  F76  1  0.61050200  0.89283900  0.90833200  1
  F  F77  1  0.76784400  0.21459800  0.00486800  1
  F  F78  1  0.01890600  0.31853600  0.29016000  1
  F  F79  1  0.90400100  0.49377100  0.85004300  1
  F  F80  1  0.34389500  0.47469200  0.06550700  1
  F  F81  1  0.34742500  0.09065900  0.53141600  1
  F  F82  1  0.52109200  0.59508100  0.11047300  1
  F  F83  1  0.88682300  0.71034200  0.88149700  1
  F  F84  1  0.11050200  0.60716100  0.09166800  1
  F  F85  1  0.23906100  0.52791200  0.23232600  1
  F  F86  1  0.34195300  0.22119700  0.20250400  1
  F  F87  1  0.97890800  0.40491900  0.61047300  1
  F  F88  1  0.18098900  0.18715300  0.33003800  1
  F  F89  1  0.62616300  0.11437200  0.52179100  1
  F  F90  1  0.26093900  0.47208800  0.73232600  1
  F  F91  1  0.37383700  0.61437200  0.97820900  1
  F  F92  1  0.84389500  0.02530800  0.93449300  1
  F  F93  1  0.57071800  0.29870800  0.81679200  1
  F  F94  1  0.56446800  0.52818600  0.67272300  1
  F  F95  1  0.73906100  0.97208800  0.76767400  1
  F  F96  1  0.15610500  0.52530800  0.56550700  1
  F  F97  1  0.17203400  0.21642600  0.82309500  1
  F  F98  1  0.62040700  0.45111500  0.05684100  1
  F  F99  1  0.31845000  0.64662200  0.66478900  1
  F  F100  1  0.26784400  0.28540200  0.99513200  1
  F  F101  1  0.07071800  0.20129200  0.18320800  1
  F  F102  1  0.18155000  0.35337800  0.16478900  1
  F  F103  1  0.73215600  0.78540200  0.50486800  1
  F  F104  1  0.15804700  0.77880300  0.70250400  1
  F  F105  1  0.48109400  0.68146400  0.79016000  1
  F  F106  1  0.47890800  0.09508100  0.38952700  1
  F  F107  1  0.82796600  0.71642600  0.67690500  1
