# generated using pymatgen
data_SnHg7(P2Br3)2
_symmetry_space_group_name_H-M   'P 1'
_cell_length_a   12.80616600
_cell_length_b   12.80616600
_cell_length_c   12.80616600
_cell_angle_alpha   90.00000000
_cell_angle_beta   90.00000000
_cell_angle_gamma   90.00000000
_symmetry_Int_Tables_number   1
_chemical_formula_structural   SnHg7(P2Br3)2
_chemical_formula_sum   'Sn4 Hg28 P16 Br24'
_cell_volume   2100.18417251
_cell_formula_units_Z   4
loop_
 _symmetry_equiv_pos_site_id
 _symmetry_equiv_pos_as_xyz
  1  'x, y, z'
loop_
 _atom_site_type_symbol
 _atom_site_label
 _atom_site_symmetry_multiplicity
 _atom_site_fract_x
 _atom_site_fract_y
 _atom_site_fract_z
 _atom_site_occupancy
  Sn  Sn0  1  0.74002500  0.75997500  0.24002500  1
  Sn  Sn1  1  0.25997500  0.25997500  0.25997500  1
  Sn  Sn2  1  0.75997500  0.24002500  0.74002500  1
  Sn  Sn3  1  0.24002500  0.74002500  0.75997500  1
  Hg  Hg4  1  0.67814000  0.39932400  0.07744400  1
  Hg  Hg5  1  0.25105100  0.42892900  0.50307900  1
  Hg  Hg6  1  0.53807700  0.53807700  0.53807700  1
  Hg  Hg7  1  0.24894900  0.57107100  0.00307900  1
  Hg  Hg8  1  0.74894900  0.92892900  0.99692100  1
  Hg  Hg9  1  0.60067600  0.57744400  0.82186000  1
  Hg  Hg10  1  0.75105100  0.07107100  0.49692100  1
  Hg  Hg11  1  0.99692100  0.74894900  0.92892900  1
  Hg  Hg12  1  0.92892900  0.99692100  0.74894900  1
  Hg  Hg13  1  0.03807700  0.96192300  0.46192300  1
  Hg  Hg14  1  0.42892900  0.50307900  0.25105100  1
  Hg  Hg15  1  0.57107100  0.00307900  0.24894900  1
  Hg  Hg16  1  0.42255600  0.32186000  0.89932400  1
  Hg  Hg17  1  0.32186000  0.89932400  0.42255600  1
  Hg  Hg18  1  0.00307900  0.24894900  0.57107100  1
  Hg  Hg19  1  0.39932400  0.07744400  0.67814000  1
  Hg  Hg20  1  0.17814000  0.10067600  0.92255600  1
  Hg  Hg21  1  0.07107100  0.49692100  0.75105100  1
  Hg  Hg22  1  0.82186000  0.60067600  0.57744400  1
  Hg  Hg23  1  0.10067600  0.92255600  0.17814000  1
  Hg  Hg24  1  0.07744400  0.67814000  0.39932400  1
  Hg  Hg25  1  0.46192300  0.03807700  0.96192300  1
  Hg  Hg26  1  0.49692100  0.75105100  0.07107100  1
  Hg  Hg27  1  0.57744400  0.82186000  0.60067600  1
  Hg  Hg28  1  0.96192300  0.46192300  0.03807700  1
  Hg  Hg29  1  0.50307900  0.25105100  0.42892900  1
  Hg  Hg30  1  0.89932400  0.42255600  0.32186000  1
  Hg  Hg31  1  0.92255600  0.17814000  0.10067600  1
  P  P32  1  0.14729500  0.85270500  0.35270500  1
  P  P33  1  0.35270500  0.14729500  0.85270500  1
  P  P34  1  0.92876900  0.07123100  0.57123100  1
  P  P35  1  0.57123100  0.92876900  0.07123100  1
  P  P36  1  0.03089700  0.03089700  0.03089700  1
  P  P37  1  0.64729500  0.64729500  0.64729500  1
  P  P38  1  0.42876900  0.42876900  0.42876900  1
  P  P39  1  0.46910300  0.96910300  0.53089700  1
  P  P40  1  0.53089700  0.46910300  0.96910300  1
  P  P41  1  0.93145900  0.93145900  0.93145900  1
  P  P42  1  0.06854100  0.43145900  0.56854100  1
  P  P43  1  0.85270500  0.35270500  0.14729500  1
  P  P44  1  0.07123100  0.57123100  0.92876900  1
  P  P45  1  0.96910300  0.53089700  0.46910300  1
  P  P46  1  0.43145900  0.56854100  0.06854100  1
  P  P47  1  0.56854100  0.06854100  0.43145900  1
  Br  Br48  1  0.80878500  0.44266400  0.79487900  1
  Br  Br49  1  0.31543300  0.47781000  0.75981400  1
  Br  Br50  1  0.20512100  0.30878500  0.05733600  1
  Br  Br51  1  0.25981400  0.18456700  0.52219000  1
  Br  Br52  1  0.94266400  0.70512100  0.19121500  1
  Br  Br53  1  0.24018600  0.81543300  0.02219000  1
  Br  Br54  1  0.30878500  0.05733600  0.20512100  1
  Br  Br55  1  0.02219000  0.24018600  0.81543300  1
  Br  Br56  1  0.70512100  0.19121500  0.94266400  1
  Br  Br57  1  0.74018600  0.68456700  0.97781000  1
  Br  Br58  1  0.52219000  0.25981400  0.18456700  1
  Br  Br59  1  0.29487900  0.69121500  0.55733600  1
  Br  Br60  1  0.55733600  0.29487900  0.69121500  1
  Br  Br61  1  0.47781000  0.75981400  0.31543300  1
  Br  Br62  1  0.05733600  0.20512100  0.30878500  1
  Br  Br63  1  0.68456700  0.97781000  0.74018600  1
  Br  Br64  1  0.79487900  0.80878500  0.44266400  1
  Br  Br65  1  0.44266400  0.79487900  0.80878500  1
  Br  Br66  1  0.19121500  0.94266400  0.70512100  1
  Br  Br67  1  0.81543300  0.02219000  0.24018600  1
  Br  Br68  1  0.75981400  0.31543300  0.47781000  1
  Br  Br69  1  0.18456700  0.52219000  0.25981400  1
  Br  Br70  1  0.97781000  0.74018600  0.68456700  1
  Br  Br71  1  0.69121500  0.55733600  0.29487900  1
