# generated using pymatgen
data_La2SnS3O2
_symmetry_space_group_name_H-M   'P 1'
_cell_length_a   5.89103400
_cell_length_b   5.90440500
_cell_length_c   19.27261800
_cell_angle_alpha   90.00000000
_cell_angle_beta   90.00000000
_cell_angle_gamma   90.00000000
_symmetry_Int_Tables_number   1
_chemical_formula_structural   La2SnS3O2
_chemical_formula_sum   'La8 Sn4 S12 O8'
_cell_volume   670.36044718
_cell_formula_units_Z   4
loop_
 _symmetry_equiv_pos_site_id
 _symmetry_equiv_pos_as_xyz
  1  'x, y, z'
loop_
 _atom_site_type_symbol
 _atom_site_label
 _atom_site_symmetry_multiplicity
 _atom_site_fract_x
 _atom_site_fract_y
 _atom_site_fract_z
 _atom_site_occupancy
  La  La0  1  0.50201000  0.24785000  0.56289000  1
  La  La1  1  0.49799000  0.75215000  0.06289000  1
  La  La2  1  0.00201000  0.25215000  0.43711000  1
  La  La3  1  0.99799000  0.74785000  0.93711000  1
  La  La4  1  0.49799000  0.75215000  0.43711000  1
  La  La5  1  0.99799000  0.74785000  0.56289000  1
  La  La6  1  0.00201000  0.25215000  0.06289000  1
  La  La7  1  0.50201000  0.24785000  0.93711000  1
  Sn  Sn8  1  0.93027000  0.34760100  0.75000000  1
  Sn  Sn9  1  0.43027000  0.15239900  0.25000000  1
  Sn  Sn10  1  0.56973000  0.84760100  0.75000000  1
  Sn  Sn11  1  0.06973000  0.65239900  0.25000000  1
  S  S12  1  0.48339100  0.73918800  0.25000000  1
  S  S13  1  0.51321200  0.25633600  0.36654400  1
  S  S14  1  0.01321200  0.24366400  0.63345600  1
  S  S15  1  0.01660900  0.23918800  0.25000000  1
  S  S16  1  0.48678800  0.74366400  0.63345600  1
  S  S17  1  0.98339100  0.76081200  0.75000000  1
  S  S18  1  0.48678800  0.74366400  0.86654400  1
  S  S19  1  0.98678800  0.75633600  0.13345600  1
  S  S20  1  0.51660900  0.26081200  0.75000000  1
  S  S21  1  0.01321200  0.24366400  0.86654400  1
  S  S22  1  0.98678800  0.75633600  0.36654400  1
  S  S23  1  0.51321200  0.25633600  0.13345600  1
  O  O24  1  0.74876100  0.49943500  0.49959100  1
  O  O25  1  0.75123900  0.99943500  0.00040900  1
  O  O26  1  0.24876100  0.00056500  0.99959100  1
  O  O27  1  0.74876100  0.49943500  0.00040900  1
  O  O28  1  0.25123900  0.50056500  0.99959100  1
  O  O29  1  0.75123900  0.99943500  0.49959100  1
  O  O30  1  0.25123900  0.50056500  0.50040900  1
  O  O31  1  0.24876100  0.00056500  0.50040900  1
