# generated using pymatgen
data_U11Ni16
_symmetry_space_group_name_H-M   'P 1'
_cell_length_a   9.61821306
_cell_length_b   9.61821411
_cell_length_c   9.61821321
_cell_angle_alpha   74.97168818
_cell_angle_beta   74.97168871
_cell_angle_gamma   74.97169352
_symmetry_Int_Tables_number   1
_chemical_formula_structural   U11Ni16
_chemical_formula_sum   'U22 Ni32'
_cell_volume   812.17271337
_cell_formula_units_Z   2
loop_
 _symmetry_equiv_pos_site_id
 _symmetry_equiv_pos_as_xyz
  1  'x, y, z'
loop_
 _atom_site_type_symbol
 _atom_site_label
 _atom_site_symmetry_multiplicity
 _atom_site_fract_x
 _atom_site_fract_y
 _atom_site_fract_z
 _atom_site_occupancy
  U  U0  1  0.88468200  0.41356700  0.57724500  1
  U  U1  1  0.58643300  0.42275500  0.11531800  1
  U  U2  1  0.42798900  0.42798900  0.42798900  1
  U  U3  1  0.41304300  0.94755000  0.12569900  1
  U  U4  1  0.57201100  0.57201100  0.57201100  1
  U  U5  1  0.58695700  0.05245000  0.87430100  1
  U  U6  1  0.72103200  0.14588300  0.05699000  1
  U  U7  1  0.42275500  0.11531800  0.58643300  1
  U  U8  1  0.94755000  0.12569900  0.41304300  1
  U  U9  1  0.87430100  0.58695700  0.05245000  1
  U  U10  1  0.19381600  0.19381600  0.19381600  1
  U  U11  1  0.41356700  0.57724500  0.88468200  1
  U  U12  1  0.12569900  0.41304300  0.94755000  1
  U  U13  1  0.14588300  0.05699000  0.72103200  1
  U  U14  1  0.11531800  0.58643300  0.42275500  1
  U  U15  1  0.05245000  0.87430100  0.58695700  1
  U  U16  1  0.57724500  0.88468200  0.41356700  1
  U  U17  1  0.80618400  0.80618400  0.80618400  1
  U  U18  1  0.85411700  0.94301000  0.27896800  1
  U  U19  1  0.05699000  0.72103200  0.14588300  1
  U  U20  1  0.27896800  0.85411700  0.94301000  1
  U  U21  1  0.94301000  0.27896800  0.85411700  1
  Ni  Ni22  1  0.84519600  0.11239000  0.72101300  1
  Ni  Ni23  1  0.99212700  0.57408900  0.72734200  1
  Ni  Ni24  1  0.64852300  0.33400600  0.81359800  1
  Ni  Ni25  1  0.18640200  0.35147700  0.66599400  1
  Ni  Ni26  1  0.55871000  0.81728400  0.72488400  1
  Ni  Ni27  1  0.88761000  0.27898700  0.15480400  1
  Ni  Ni28  1  0.72488400  0.55871000  0.81728400  1
  Ni  Ni29  1  0.81359800  0.64852300  0.33400600  1
  Ni  Ni30  1  0.74310200  0.41463700  0.34801400  1
  Ni  Ni31  1  0.66599400  0.18640200  0.35147700  1
  Ni  Ni32  1  0.41463700  0.34801400  0.74310200  1
  Ni  Ni33  1  0.42591100  0.27265800  0.00787300  1
  Ni  Ni34  1  0.72101300  0.84519600  0.11239000  1
  Ni  Ni35  1  0.06163600  0.06163600  0.06163600  1
  Ni  Ni36  1  0.72734200  0.99212700  0.57408900  1
  Ni  Ni37  1  0.27265800  0.00787300  0.42591100  1
  Ni  Ni38  1  0.00787300  0.42591100  0.27265800  1
  Ni  Ni39  1  0.93836400  0.93836400  0.93836400  1
  Ni  Ni40  1  0.57408900  0.72734200  0.99212700  1
  Ni  Ni41  1  0.33400600  0.81359800  0.64852300  1
  Ni  Ni42  1  0.81728400  0.72488400  0.55871000  1
  Ni  Ni43  1  0.44129000  0.18271600  0.27511600  1
  Ni  Ni44  1  0.35147700  0.66599400  0.18640200  1
  Ni  Ni45  1  0.18271600  0.27511600  0.44129000  1
  Ni  Ni46  1  0.34801400  0.74310200  0.41463700  1
  Ni  Ni47  1  0.58536300  0.65198600  0.25689800  1
  Ni  Ni48  1  0.27511600  0.44129000  0.18271600  1
  Ni  Ni49  1  0.25689800  0.58536300  0.65198600  1
  Ni  Ni50  1  0.11239000  0.72101300  0.84519600  1
  Ni  Ni51  1  0.15480400  0.88761000  0.27898700  1
  Ni  Ni52  1  0.65198600  0.25689800  0.58536300  1
  Ni  Ni53  1  0.27898700  0.15480400  0.88761000  1
