# generated using pymatgen
data_Ba(FeAs)2
_symmetry_space_group_name_H-M   'P 1'
_cell_length_a   5.60042500
_cell_length_b   7.04583560
_cell_length_c   5.69344303
_cell_angle_alpha   66.15820104
_cell_angle_beta   90.00036528
_cell_angle_gamma   89.99991211
_symmetry_Int_Tables_number   1
_chemical_formula_structural   Ba(FeAs)2
_chemical_formula_sum   'Ba2 Fe4 As4'
_cell_volume   205.48992979
_cell_formula_units_Z   2
loop_
 _symmetry_equiv_pos_site_id
 _symmetry_equiv_pos_as_xyz
  1  'x, y, z'
loop_
 _atom_site_type_symbol
 _atom_site_label
 _atom_site_symmetry_multiplicity
 _atom_site_fract_x
 _atom_site_fract_y
 _atom_site_fract_z
 _atom_site_occupancy
  Ba  Ba0  1  0.99996700  0.00000100  0.99999900  1
  Ba  Ba1  1  0.50003400  0.99999900  0.50000100  1
  Fe  Fe2  1  0.24994200  0.49999800  0.00000000  1
  Fe  Fe3  1  0.75006000  0.50000300  0.99999900  1
  Fe  Fe4  1  0.74993900  0.49999700  0.49999900  1
  Fe  Fe5  1  0.25005900  0.50000100  0.50000100  1
  As  As6  1  0.50006800  0.70132900  0.14924200  1
  As  As7  1  0.99992700  0.70132700  0.64927000  1
  As  As8  1  0.99993200  0.29867300  0.35073000  1
  As  As9  1  0.50007300  0.29867100  0.85075900  1
