# generated using pymatgen
data_Cs2MnF5
_symmetry_space_group_name_H-M   'P 1'
_cell_length_a   6.51257000
_cell_length_b   6.51257000
_cell_length_c   4.30648600
_cell_angle_alpha   90.00000000
_cell_angle_beta   90.00000000
_cell_angle_gamma   90.00000000
_symmetry_Int_Tables_number   1
_chemical_formula_structural   Cs2MnF5
_chemical_formula_sum   'Cs2 Mn1 F5'
_cell_volume   182.65343682
_cell_formula_units_Z   1
loop_
 _symmetry_equiv_pos_site_id
 _symmetry_equiv_pos_as_xyz
  1  'x, y, z'
loop_
 _atom_site_type_symbol
 _atom_site_label
 _atom_site_symmetry_multiplicity
 _atom_site_fract_x
 _atom_site_fract_y
 _atom_site_fract_z
 _atom_site_occupancy
  Cs  Cs0  1  0.50000000  0.00000000  0.50000000  1
  Cs  Cs1  1  0.00000000  0.50000000  0.50000000  1
  Mn  Mn2  1  0.00000000  0.00000000  0.00000000  1
  F  F3  1  0.79322200  0.79322200  0.00000000  1
  F  F4  1  0.79322200  0.20677800  0.00000000  1
  F  F5  1  0.20677800  0.79322200  0.00000000  1
  F  F6  1  0.00000000  0.00000000  0.50000000  1
  F  F7  1  0.20677800  0.20677800  0.00000000  1
