# generated using pymatgen
data_CdP2Xe5F22
_symmetry_space_group_name_H-M   'P 1'
_cell_length_a   8.77162400
_cell_length_b   14.82101500
_cell_length_c   17.70345500
_cell_angle_alpha   90.00000000
_cell_angle_beta   90.00000000
_cell_angle_gamma   90.00000000
_symmetry_Int_Tables_number   1
_chemical_formula_structural   CdP2Xe5F22
_chemical_formula_sum   'Cd4 P8 Xe20 F88'
_cell_volume   2301.52652965
_cell_formula_units_Z   4
loop_
 _symmetry_equiv_pos_site_id
 _symmetry_equiv_pos_as_xyz
  1  'x, y, z'
loop_
 _atom_site_type_symbol
 _atom_site_label
 _atom_site_symmetry_multiplicity
 _atom_site_fract_x
 _atom_site_fract_y
 _atom_site_fract_z
 _atom_site_occupancy
  Cd  Cd0  1  0.90679400  0.17606000  0.73967300  1
  Cd  Cd1  1  0.40679400  0.32394000  0.23967300  1
  Cd  Cd2  1  0.40679400  0.82394000  0.26032700  1
  Cd  Cd3  1  0.90679400  0.67606000  0.76032700  1
  P  P4  1  0.63028900  0.03559800  0.87298600  1
  P  P5  1  0.63028900  0.53559800  0.62701400  1
  P  P6  1  0.14060600  0.51949600  0.87729500  1
  P  P7  1  0.13028900  0.46440200  0.37298600  1
  P  P8  1  0.64060600  0.98050400  0.37729500  1
  P  P9  1  0.64060600  0.48050400  0.12270500  1
  P  P10  1  0.14060600  0.01949600  0.62270500  1
  P  P11  1  0.13028900  0.96440200  0.12701400  1
  Xe  Xe12  1  0.13919300  0.48389100  0.63096100  1
  Xe  Xe13  1  0.84917000  0.28717200  0.53493800  1
  Xe  Xe14  1  0.64517200  0.48960600  0.87505000  1
  Xe  Xe15  1  0.87736200  0.74139600  0.25333800  1
  Xe  Xe16  1  0.14517200  0.51039400  0.12495000  1
  Xe  Xe17  1  0.37736200  0.75860400  0.75333800  1
  Xe  Xe18  1  0.84917000  0.78717200  0.96506200  1
  Xe  Xe19  1  0.87736200  0.24139600  0.24666200  1
  Xe  Xe20  1  0.64517200  0.98960600  0.62495000  1
  Xe  Xe21  1  0.37736200  0.25860400  0.74666200  1
  Xe  Xe22  1  0.41196900  0.23249000  0.45427200  1
  Xe  Xe23  1  0.91196900  0.76751000  0.54572800  1
  Xe  Xe24  1  0.34917000  0.21282800  0.03493800  1
  Xe  Xe25  1  0.14517200  0.01039400  0.37505000  1
  Xe  Xe26  1  0.13919300  0.98389100  0.86903900  1
  Xe  Xe27  1  0.34917000  0.71282800  0.46506200  1
  Xe  Xe28  1  0.63919300  0.51610900  0.36903900  1
  Xe  Xe29  1  0.91196900  0.26751000  0.95427200  1
  Xe  Xe30  1  0.63919300  0.01610900  0.13096100  1
  Xe  Xe31  1  0.41196900  0.73249000  0.04572800  1
  F  F32  1  0.07078200  0.61140900  0.67467800  1
  F  F33  1  0.77074300  0.97985000  0.31156300  1
  F  F34  1  0.68553200  0.58247300  0.09863800  1
  F  F35  1  0.09215100  0.62626200  0.85145900  1
  F  F36  1  0.40461500  0.21095800  0.15173300  1
  F  F37  1  0.97647500  0.26861000  0.06515200  1
  F  F38  1  0.25834400  0.43708800  0.30398400  1
  F  F39  1  0.13947300  0.77406700  0.74554800  1
  F  F40  1  0.75269400  0.61601600  0.85310000  1
  F  F41  1  0.62373800  0.14167300  0.89707100  1
  F  F42  1  0.20683200  0.86295000  0.91299500  1
  F  F43  1  0.63947300  0.22593300  0.25445200  1
  F  F44  1  0.51514500  0.01734700  0.31555200  1
  F  F45  1  0.77360100  0.52039000  0.56930000  1
  F  F46  1  0.61125400  0.74827400  0.76174900  1
  F  F47  1  0.12373800  0.85832700  0.10292900  1
  F  F48  1  0.76182700  0.93755400  0.43695100  1
  F  F49  1  0.78829700  0.29137500  0.42371200  1
  F  F50  1  0.50754800  0.47708500  0.05833200  1
  F  F51  1  0.04565000  0.63149900  0.10125000  1
  F  F52  1  0.27074300  0.52015000  0.81156300  1
  F  F53  1  0.68553200  0.08247300  0.40136200  1
  F  F54  1  0.64265100  0.43112800  0.65392900  1
  F  F55  1  0.49357100  0.55223500  0.68778100  1
  F  F56  1  0.78829700  0.79137500  0.07628800  1
  F  F57  1  0.77074300  0.47985000  0.18843700  1
  F  F58  1  0.51514500  0.51734700  0.18444800  1
  F  F59  1  0.47647500  0.73139000  0.93484800  1
  F  F60  1  0.18553200  0.91752700  0.59863800  1
  F  F61  1  0.54565000  0.36850100  0.89875000  1
  F  F62  1  0.35418500  0.22883000  0.33766300  1
  F  F63  1  0.28829700  0.20862500  0.92371200  1
  F  F64  1  0.07078200  0.11140900  0.82532200  1
  F  F65  1  0.59215100  0.87373800  0.35145900  1
  F  F66  1  0.97647500  0.76861000  0.43484800  1
  F  F67  1  0.25834400  0.93708800  0.19601600  1
  F  F68  1  0.00878600  0.99061000  0.06099200  1
  F  F69  1  0.76182700  0.43755400  0.06304900  1
  F  F70  1  0.00878600  0.49061000  0.43900800  1
  F  F71  1  0.12373800  0.35832700  0.39707100  1
  F  F72  1  0.75834400  0.06291200  0.80398400  1
  F  F73  1  0.14265100  0.06887200  0.15392900  1
  F  F74  1  0.90461500  0.28904200  0.65173300  1
  F  F75  1  0.27360100  0.97961000  0.06930000  1
  F  F76  1  0.27360100  0.47961000  0.43070000  1
  F  F77  1  0.26182700  0.56244600  0.93695100  1
  F  F78  1  0.28829700  0.70862500  0.57628800  1
  F  F79  1  0.09215100  0.12626200  0.64854100  1
  F  F80  1  0.54565000  0.86850100  0.60125000  1
  F  F81  1  0.04565000  0.13149900  0.39875000  1
  F  F82  1  0.25269400  0.88398400  0.35310000  1
  F  F83  1  0.40461500  0.71095800  0.34826700  1
  F  F84  1  0.61125400  0.24827400  0.73825100  1
  F  F85  1  0.00754800  0.52291500  0.94166800  1
  F  F86  1  0.01514500  0.48265300  0.81555200  1
  F  F87  1  0.26182700  0.06244600  0.56304900  1
  F  F88  1  0.70683200  0.63705000  0.41299500  1
  F  F89  1  0.70683200  0.13705000  0.08700500  1
  F  F90  1  0.75834400  0.56291200  0.69601600  1
  F  F91  1  0.99357100  0.94776500  0.18778100  1
  F  F92  1  0.27074300  0.02015000  0.68843700  1
  F  F93  1  0.77360100  0.02039000  0.93070000  1
  F  F94  1  0.13947300  0.27406700  0.75445200  1
  F  F95  1  0.85418500  0.27117000  0.83766300  1
  F  F96  1  0.50878600  0.50939000  0.56099200  1
  F  F97  1  0.57078200  0.88859100  0.17467800  1
  F  F98  1  0.50754800  0.97708500  0.44166800  1
  F  F99  1  0.49357100  0.05223500  0.81221900  1
  F  F100  1  0.62373800  0.64167300  0.60292900  1
  F  F101  1  0.14265100  0.56887200  0.34607100  1
  F  F102  1  0.11125400  0.75172600  0.26174900  1
  F  F103  1  0.11125400  0.25172600  0.23825100  1
  F  F104  1  0.25269400  0.38398400  0.14690000  1
  F  F105  1  0.63947300  0.72593300  0.24554800  1
  F  F106  1  0.00754800  0.02291500  0.55833200  1
  F  F107  1  0.75269400  0.11601600  0.64690000  1
  F  F108  1  0.47647500  0.23139000  0.56515200  1
  F  F109  1  0.90461500  0.78904200  0.84826700  1
  F  F110  1  0.57078200  0.38859100  0.32532200  1
  F  F111  1  0.99357100  0.44776500  0.31221900  1
  F  F112  1  0.64265100  0.93112800  0.84607100  1
  F  F113  1  0.50878600  0.00939000  0.93900800  1
  F  F114  1  0.01514500  0.98265300  0.68444800  1
  F  F115  1  0.18553200  0.41752700  0.90136200  1
  F  F116  1  0.85418500  0.77117000  0.66233700  1
  F  F117  1  0.20683200  0.36295000  0.58700500  1
  F  F118  1  0.35418500  0.72883000  0.16233700  1
  F  F119  1  0.59215100  0.37373800  0.14854100  1
