# generated using pymatgen
data_Ba3NaOs2O9
_symmetry_space_group_name_H-M   'P 1'
_cell_length_a   5.98391130
_cell_length_b   5.98391130
_cell_length_c   14.48351900
_cell_angle_alpha   90.00000000
_cell_angle_beta   90.00000000
_cell_angle_gamma   119.99999228
_symmetry_Int_Tables_number   1
_chemical_formula_structural   Ba3NaOs2O9
_chemical_formula_sum   'Ba6 Na2 Os4 O18'
_cell_volume   449.13309082
_cell_formula_units_Z   2
loop_
 _symmetry_equiv_pos_site_id
 _symmetry_equiv_pos_as_xyz
  1  'x, y, z'
loop_
 _atom_site_type_symbol
 _atom_site_label
 _atom_site_symmetry_multiplicity
 _atom_site_fract_x
 _atom_site_fract_y
 _atom_site_fract_z
 _atom_site_occupancy
  Ba  Ba0  1  0.66666700  0.33333300  0.08836000  1
  Ba  Ba1  1  0.33333300  0.66666700  0.58836000  1
  Ba  Ba2  1  0.33333300  0.66666700  0.91164000  1
  Ba  Ba3  1  0.66666700  0.33333300  0.41164000  1
  Ba  Ba4  1  0.00000000  0.00000000  0.25000000  1
  Ba  Ba5  1  0.00000000  0.00000000  0.75000000  1
  Na  Na6  1  0.00000000  0.00000000  0.00000000  1
  Na  Na7  1  0.00000000  0.00000000  0.50000000  1
  Os  Os8  1  0.33333300  0.66666700  0.16228400  1
  Os  Os9  1  0.66666700  0.33333300  0.66228400  1
  Os  Os10  1  0.66666700  0.33333300  0.83771600  1
  Os  Os11  1  0.33333300  0.66666700  0.33771600  1
  O  O12  1  0.18019200  0.36038400  0.09114600  1
  O  O13  1  0.81980800  0.18019200  0.59114600  1
  O  O14  1  0.36038400  0.18019200  0.59114600  1
  O  O15  1  0.63961600  0.81980800  0.09114600  1
  O  O16  1  0.18019200  0.81980800  0.09114600  1
  O  O17  1  0.81980800  0.63961600  0.90885400  1
  O  O18  1  0.81980800  0.18019200  0.90885400  1
  O  O19  1  0.81980800  0.63961600  0.59114600  1
  O  O20  1  0.36038400  0.18019200  0.90885400  1
  O  O21  1  0.63961600  0.81980800  0.40885400  1
  O  O22  1  0.18019200  0.36038400  0.40885400  1
  O  O23  1  0.18019200  0.81980800  0.40885400  1
  O  O24  1  0.01719800  0.50859900  0.25000000  1
  O  O25  1  0.50859900  0.01719800  0.75000000  1
  O  O26  1  0.50859900  0.49140100  0.75000000  1
  O  O27  1  0.49140100  0.50859900  0.25000000  1
  O  O28  1  0.49140100  0.98280200  0.25000000  1
  O  O29  1  0.98280200  0.49140100  0.75000000  1
