# generated using pymatgen
data_Ga2PbSe4
_symmetry_space_group_name_H-M   'P 1'
_cell_length_a   15.41176780
_cell_length_b   12.74360261
_cell_length_c   12.58330267
_cell_angle_alpha   74.96122326
_cell_angle_beta   52.99230856
_cell_angle_gamma   52.04646818
_symmetry_Int_Tables_number   1
_chemical_formula_structural   Ga2PbSe4
_chemical_formula_sum   'Ga16 Pb8 Se32'
_cell_volume   1531.90112786
_cell_formula_units_Z   8
loop_
 _symmetry_equiv_pos_site_id
 _symmetry_equiv_pos_as_xyz
  1  'x, y, z'
loop_
 _atom_site_type_symbol
 _atom_site_label
 _atom_site_symmetry_multiplicity
 _atom_site_fract_x
 _atom_site_fract_y
 _atom_site_fract_z
 _atom_site_occupancy
  Ga  Ga0  1  0.49024600  0.75873100  0.73728600  1
  Ga  Ga1  1  0.26361000  0.98755800  0.59496600  1
  Ga  Ga2  1  0.23626300  0.51271400  0.49126900  1
  Ga  Ga3  1  0.26244200  0.98639000  0.09613400  1
  Ga  Ga4  1  0.49126900  0.75975400  0.23626300  1
  Ga  Ga5  1  0.15386600  0.59496600  0.98755800  1
  Ga  Ga6  1  0.65503400  0.09613400  0.98639000  1
  Ga  Ga7  1  0.75975400  0.49126900  0.51271400  1
  Ga  Ga8  1  0.09613400  0.65503400  0.26244200  1
  Ga  Ga9  1  0.59496600  0.15386600  0.26361000  1
  Ga  Ga10  1  0.98639000  0.26244200  0.65503400  1
  Ga  Ga11  1  0.73728600  0.01373700  0.49024600  1
  Ga  Ga12  1  0.51271400  0.23626300  0.75975400  1
  Ga  Ga13  1  0.75873100  0.49024600  0.01373700  1
  Ga  Ga14  1  0.98755800  0.26361000  0.15386600  1
  Ga  Ga15  1  0.01373700  0.73728600  0.75873100  1
  Pb  Pb16  1  0.24737700  0.24737700  0.75262300  1
  Pb  Pb17  1  0.25000000  0.25000000  0.25000000  1
  Pb  Pb18  1  0.00000000  0.00000000  0.00000000  1
  Pb  Pb19  1  0.75262300  0.75262300  0.24737700  1
  Pb  Pb20  1  0.00262300  0.00262300  0.49737700  1
  Pb  Pb21  1  0.49737700  0.49737700  0.00262300  1
  Pb  Pb22  1  0.50000000  0.50000000  0.50000000  1
  Pb  Pb23  1  0.75000000  0.75000000  0.75000000  1
  Se  Se24  1  0.78042300  0.96794400  0.28233800  1
  Se  Se25  1  0.21123800  0.70781700  0.54074200  1
  Se  Se26  1  0.30712400  0.43786500  0.78048100  1
  Se  Se27  1  0.20754900  0.21190900  0.53937600  1
  Se  Se28  1  0.04116600  0.53937600  0.21190900  1
  Se  Se29  1  0.54020300  0.54074200  0.70781700  1
  Se  Se30  1  0.54218300  0.03876200  0.70979700  1
  Se  Se31  1  0.04245100  0.03809100  0.71062400  1
  Se  Se32  1  0.43786500  0.30712400  0.47453000  1
  Se  Se33  1  0.70979700  0.70925800  0.54218300  1
  Se  Se34  1  0.70925800  0.70979700  0.03876200  1
  Se  Se35  1  0.78048100  0.47453000  0.30712400  1
  Se  Se36  1  0.54074200  0.54020300  0.21123800  1
  Se  Se37  1  0.81213500  0.94287600  0.77547000  1
  Se  Se38  1  0.96794400  0.78042300  0.96929600  1
  Se  Se39  1  0.46957700  0.28205600  0.96766200  1
  Se  Se40  1  0.46951900  0.77547000  0.94287600  1
  Se  Se41  1  0.28205600  0.46957700  0.28070400  1
  Se  Se42  1  0.71062400  0.20883400  0.04245100  1
  Se  Se43  1  0.96766200  0.28070400  0.46957700  1
  Se  Se44  1  0.03876200  0.54218300  0.70925800  1
  Se  Se45  1  0.21190900  0.20754900  0.04116600  1
  Se  Se46  1  0.47453000  0.78048100  0.43786500  1
  Se  Se47  1  0.77547000  0.46951900  0.81213500  1
  Se  Se48  1  0.70781700  0.21123800  0.54020300  1
  Se  Se49  1  0.20883400  0.71062400  0.03809100  1
  Se  Se50  1  0.94287600  0.81213500  0.46951900  1
  Se  Se51  1  0.53937600  0.04116600  0.20754900  1
  Se  Se52  1  0.28233800  0.96929600  0.78042300  1
  Se  Se53  1  0.03809100  0.04245100  0.20883400  1
  Se  Se54  1  0.28070400  0.96766200  0.28205600  1
  Se  Se55  1  0.96929600  0.28233800  0.96794400  1
