# generated using pymatgen
data_In2Pt3
_symmetry_space_group_name_H-M   'P 1'
_cell_length_a   5.66502203
_cell_length_b   5.66502203
_cell_length_c   13.96711900
_cell_angle_alpha   90.00000000
_cell_angle_beta   90.00000000
_cell_angle_gamma   120.00000035
_symmetry_Int_Tables_number   1
_chemical_formula_structural   In2Pt3
_chemical_formula_sum   'In8 Pt12'
_cell_volume   388.18671621
_cell_formula_units_Z   4
loop_
 _symmetry_equiv_pos_site_id
 _symmetry_equiv_pos_as_xyz
  1  'x, y, z'
loop_
 _atom_site_type_symbol
 _atom_site_label
 _atom_site_symmetry_multiplicity
 _atom_site_fract_x
 _atom_site_fract_y
 _atom_site_fract_z
 _atom_site_occupancy
  In  In0  1  0.00000000  0.00000000  0.25000000  1
  In  In1  1  0.00000000  0.00000000  0.75000000  1
  In  In2  1  0.33333300  0.66666700  0.25000000  1
  In  In3  1  0.66666700  0.33333300  0.75000000  1
  In  In4  1  0.33333300  0.66666700  0.58682000  1
  In  In5  1  0.66666700  0.33333300  0.08682000  1
  In  In6  1  0.66666700  0.33333300  0.41318000  1
  In  In7  1  0.33333300  0.66666700  0.91318000  1
  Pt  Pt8  1  0.16569300  0.33138600  0.41041600  1
  Pt  Pt9  1  0.16569300  0.83430700  0.41041600  1
  Pt  Pt10  1  0.66861400  0.83430700  0.41041600  1
  Pt  Pt11  1  0.83430700  0.16569300  0.91041600  1
  Pt  Pt12  1  0.33138600  0.16569300  0.91041600  1
  Pt  Pt13  1  0.83430700  0.66861400  0.91041600  1
  Pt  Pt14  1  0.83430700  0.66861400  0.58958400  1
  Pt  Pt15  1  0.83430700  0.16569300  0.58958400  1
  Pt  Pt16  1  0.33138600  0.16569300  0.58958400  1
  Pt  Pt17  1  0.16569300  0.83430700  0.08958400  1
  Pt  Pt18  1  0.66861400  0.83430700  0.08958400  1
  Pt  Pt19  1  0.16569300  0.33138600  0.08958400  1
