# generated using pymatgen
data_BaTaF7
_symmetry_space_group_name_H-M   'P 1'
_cell_length_a   10.11344900
_cell_length_b   10.11344900
_cell_length_c   10.11344900
_cell_angle_alpha   90.00000000
_cell_angle_beta   90.00000000
_cell_angle_gamma   90.00000000
_symmetry_Int_Tables_number   1
_chemical_formula_structural   BaTaF7
_chemical_formula_sum   'Ba8 Ta8 F56'
_cell_volume   1034.42228043
_cell_formula_units_Z   8
loop_
 _symmetry_equiv_pos_site_id
 _symmetry_equiv_pos_as_xyz
  1  'x, y, z'
loop_
 _atom_site_type_symbol
 _atom_site_label
 _atom_site_symmetry_multiplicity
 _atom_site_fract_x
 _atom_site_fract_y
 _atom_site_fract_z
 _atom_site_occupancy
  Ba  Ba0  1  0.50000000  0.50000000  0.50000000  1
  Ba  Ba1  1  0.50000000  0.00000000  0.50000000  1
  Ba  Ba2  1  0.00000000  0.50000000  0.50000000  1
  Ba  Ba3  1  0.50000000  0.00000000  0.00000000  1
  Ba  Ba4  1  0.00000000  0.00000000  0.00000000  1
  Ba  Ba5  1  0.00000000  0.00000000  0.50000000  1
  Ba  Ba6  1  0.50000000  0.50000000  0.00000000  1
  Ba  Ba7  1  0.00000000  0.50000000  0.00000000  1
  Ta  Ta8  1  0.22416100  0.22416100  0.22416100  1
  Ta  Ta9  1  0.27583900  0.77583900  0.72416100  1
  Ta  Ta10  1  0.72416100  0.22416100  0.27583900  1
  Ta  Ta11  1  0.77583900  0.72416100  0.27583900  1
  Ta  Ta12  1  0.27583900  0.72416100  0.22416100  1
  Ta  Ta13  1  0.77583900  0.77583900  0.77583900  1
  Ta  Ta14  1  0.22416100  0.27583900  0.72416100  1
  Ta  Ta15  1  0.72416100  0.27583900  0.77583900  1
  F  F16  1  0.10253800  0.36314500  0.27865000  1
  F  F17  1  0.94262900  0.88307300  0.74187900  1
  F  F18  1  0.24187900  0.55737100  0.11692700  1
  F  F19  1  0.72135000  0.89746200  0.63685500  1
  F  F20  1  0.66431400  0.83568600  0.16431400  1
  F  F21  1  0.88307300  0.75812100  0.44262900  1
  F  F22  1  0.38307300  0.74187900  0.55737100  1
  F  F23  1  0.61692700  0.24187900  0.94262900  1
  F  F24  1  0.22135000  0.89746200  0.86314500  1
  F  F25  1  0.61692700  0.25812100  0.44262900  1
  F  F26  1  0.05737100  0.11692700  0.25812100  1
  F  F27  1  0.36314500  0.27865000  0.10253800  1
  F  F28  1  0.89746200  0.86314500  0.22135000  1
  F  F29  1  0.13685500  0.72135000  0.60253800  1
  F  F30  1  0.36314500  0.22135000  0.60253800  1
  F  F31  1  0.33568600  0.33568600  0.33568600  1
  F  F32  1  0.25812100  0.44262900  0.61692700  1
  F  F33  1  0.83568600  0.16431400  0.66431400  1
  F  F34  1  0.11692700  0.24187900  0.55737100  1
  F  F35  1  0.74187900  0.55737100  0.38307300  1
  F  F36  1  0.27865000  0.39746200  0.86314500  1
  F  F37  1  0.75812100  0.05737100  0.38307300  1
  F  F38  1  0.60253800  0.36314500  0.22135000  1
  F  F39  1  0.74187900  0.94262900  0.88307300  1
  F  F40  1  0.75812100  0.44262900  0.88307300  1
  F  F41  1  0.72135000  0.60253800  0.13685500  1
  F  F42  1  0.44262900  0.61692700  0.25812100  1
  F  F43  1  0.10253800  0.13685500  0.77865000  1
  F  F44  1  0.16431400  0.83568600  0.33568600  1
  F  F45  1  0.86314500  0.27865000  0.39746200  1
  F  F46  1  0.22135000  0.60253800  0.36314500  1
  F  F47  1  0.16431400  0.66431400  0.83568600  1
  F  F48  1  0.38307300  0.75812100  0.05737100  1
  F  F49  1  0.88307300  0.74187900  0.94262900  1
  F  F50  1  0.24187900  0.94262900  0.61692700  1
  F  F51  1  0.60253800  0.13685500  0.72135000  1
  F  F52  1  0.89746200  0.63685500  0.72135000  1
  F  F53  1  0.63685500  0.77865000  0.39746200  1
  F  F54  1  0.55737100  0.11692700  0.24187900  1
  F  F55  1  0.77865000  0.39746200  0.63685500  1
  F  F56  1  0.83568600  0.33568600  0.16431400  1
  F  F57  1  0.63685500  0.72135000  0.89746200  1
  F  F58  1  0.39746200  0.86314500  0.27865000  1
  F  F59  1  0.66431400  0.66431400  0.66431400  1
  F  F60  1  0.39746200  0.63685500  0.77865000  1
  F  F61  1  0.05737100  0.38307300  0.75812100  1
  F  F62  1  0.27865000  0.10253800  0.36314500  1
  F  F63  1  0.44262900  0.88307300  0.75812100  1
  F  F64  1  0.86314500  0.22135000  0.89746200  1
  F  F65  1  0.55737100  0.38307300  0.74187900  1
  F  F66  1  0.33568600  0.16431400  0.83568600  1
  F  F67  1  0.25812100  0.05737100  0.11692700  1
  F  F68  1  0.77865000  0.10253800  0.13685500  1
  F  F69  1  0.94262900  0.61692700  0.24187900  1
  F  F70  1  0.11692700  0.25812100  0.05737100  1
  F  F71  1  0.13685500  0.77865000  0.10253800  1
