# generated using pymatgen
data_LaCo8P5
_symmetry_space_group_name_H-M   'P 1'
_cell_length_a   3.57012700
_cell_length_b   9.28172300
_cell_length_c   10.45438800
_cell_angle_alpha   90.00000000
_cell_angle_beta   90.00000000
_cell_angle_gamma   90.00000000
_symmetry_Int_Tables_number   1
_chemical_formula_structural   LaCo8P5
_chemical_formula_sum   'La2 Co16 P10'
_cell_volume   346.42632219
_cell_formula_units_Z   2
loop_
 _symmetry_equiv_pos_site_id
 _symmetry_equiv_pos_as_xyz
  1  'x, y, z'
loop_
 _atom_site_type_symbol
 _atom_site_label
 _atom_site_symmetry_multiplicity
 _atom_site_fract_x
 _atom_site_fract_y
 _atom_site_fract_z
 _atom_site_occupancy
  La  La0  1  0.00000000  0.82265000  0.00000000  1
  La  La1  1  0.50000000  0.17735000  0.50000000  1
  Co  Co2  1  0.00000000  0.52081400  0.16706500  1
  Co  Co3  1  0.50000000  0.47918600  0.33293500  1
  Co  Co4  1  0.00000000  0.52081400  0.83293500  1
  Co  Co5  1  0.50000000  0.47918600  0.66706500  1
  Co  Co6  1  0.00000000  0.11076300  0.24577800  1
  Co  Co7  1  0.50000000  0.88923700  0.25422200  1
  Co  Co8  1  0.00000000  0.11076300  0.75422200  1
  Co  Co9  1  0.50000000  0.88923700  0.74577800  1
  Co  Co10  1  0.00000000  0.69625300  0.35931600  1
  Co  Co11  1  0.50000000  0.30374700  0.14068400  1
  Co  Co12  1  0.00000000  0.69625300  0.64068400  1
  Co  Co13  1  0.50000000  0.30374700  0.85931600  1
  Co  Co14  1  0.00000000  0.15109200  0.00000000  1
  Co  Co15  1  0.50000000  0.84890800  0.50000000  1
  Co  Co16  1  0.50000000  0.54599900  0.00000000  1
  Co  Co17  1  0.00000000  0.45400100  0.50000000  1
  P  P18  1  0.00000000  0.93153200  0.37941400  1
  P  P19  1  0.50000000  0.06846800  0.12058600  1
  P  P20  1  0.00000000  0.93153200  0.62058600  1
  P  P21  1  0.50000000  0.06846800  0.87941400  1
  P  P22  1  0.00000000  0.33981500  0.30678100  1
  P  P23  1  0.50000000  0.66018500  0.19321900  1
  P  P24  1  0.00000000  0.33981500  0.69321900  1
  P  P25  1  0.50000000  0.66018500  0.80678100  1
  P  P26  1  0.00000000  0.38531800  0.00000000  1
  P  P27  1  0.50000000  0.61468200  0.50000000  1
