# generated using pymatgen
data_Yb(AlCl4)2
_symmetry_space_group_name_H-M   'P 1'
_cell_length_a   12.85057118
_cell_length_b   12.85057118
_cell_length_c   12.85057118
_cell_angle_alpha   126.53604694
_cell_angle_beta   126.53604694
_cell_angle_gamma   79.00888256
_symmetry_Int_Tables_number   1
_chemical_formula_structural   Yb(AlCl4)2
_chemical_formula_sum   'Yb4 Al8 Cl32'
_cell_volume   1325.19049864
_cell_formula_units_Z   4
loop_
 _symmetry_equiv_pos_site_id
 _symmetry_equiv_pos_as_xyz
  1  'x, y, z'
loop_
 _atom_site_type_symbol
 _atom_site_label
 _atom_site_symmetry_multiplicity
 _atom_site_fract_x
 _atom_site_fract_y
 _atom_site_fract_z
 _atom_site_occupancy
  Yb  Yb0  1  0.25000000  0.75000000  0.50000000  1
  Yb  Yb1  1  0.50000000  0.50000000  0.00000000  1
  Yb  Yb2  1  0.00000000  0.00000000  0.00000000  1
  Yb  Yb3  1  0.75000000  0.25000000  0.50000000  1
  Al  Al4  1  0.62500000  0.84963500  0.72463500  1
  Al  Al5  1  0.12500000  0.40036500  0.77536500  1
  Al  Al6  1  0.09963500  0.37500000  0.22463500  1
  Al  Al7  1  0.12500000  0.90036500  0.27536500  1
  Al  Al8  1  0.15036500  0.87500000  0.77536500  1
  Al  Al9  1  0.62500000  0.34963500  0.22463500  1
  Al  Al10  1  0.59963500  0.37500000  0.72463500  1
  Al  Al11  1  0.65036500  0.87500000  0.27536500  1
  Cl  Cl12  1  0.99765500  0.52933400  0.28297200  1
  Cl  Cl13  1  0.13166500  0.93343800  0.63853500  1
  Cl  Cl14  1  0.77933400  0.74765500  0.78297200  1
  Cl  Cl15  1  0.49765500  0.21468400  0.46832100  1
  Cl  Cl16  1  0.79490300  0.43343800  0.80177300  1
  Cl  Cl17  1  0.63166500  0.99313000  0.19822700  1
  Cl  Cl18  1  0.24313000  0.38166500  0.69822700  1
  Cl  Cl19  1  0.00687000  0.20509700  0.63853500  1
  Cl  Cl20  1  0.75234500  0.72066600  0.21702800  1
  Cl  Cl21  1  0.24636300  0.71468400  0.71702800  1
  Cl  Cl22  1  0.27933400  0.49636300  0.03167900  1
  Cl  Cl23  1  0.11833500  0.25687000  0.30177300  1
  Cl  Cl24  1  0.45509700  0.75687000  0.13853500  1
  Cl  Cl25  1  0.97066600  0.50234500  0.71702800  1
  Cl  Cl26  1  0.78531600  0.25363700  0.28297200  1
  Cl  Cl27  1  0.29490300  0.49313000  0.36146500  1
  Cl  Cl28  1  0.46468400  0.24765500  0.96832100  1
  Cl  Cl29  1  0.18343800  0.88166500  0.13853500  1
  Cl  Cl30  1  0.74313000  0.04490300  0.86146500  1
  Cl  Cl31  1  0.06656200  0.70509700  0.19822700  1
  Cl  Cl32  1  0.68343800  0.54490300  0.30177300  1
  Cl  Cl33  1  0.61833500  0.31656200  0.86146500  1
  Cl  Cl34  1  0.74636300  0.02933400  0.53167900  1
  Cl  Cl35  1  0.50687000  0.86833500  0.80177300  1
  Cl  Cl36  1  0.47066600  0.75363700  0.46832100  1
  Cl  Cl37  1  0.00363700  0.22066600  0.96832100  1
  Cl  Cl38  1  0.28531600  0.00234500  0.53167900  1
  Cl  Cl39  1  0.56656200  0.36833500  0.36146500  1
  Cl  Cl40  1  0.96468400  0.99636300  0.21702800  1
  Cl  Cl41  1  0.25234500  0.03531600  0.03167900  1
  Cl  Cl42  1  0.50363700  0.53531600  0.78297200  1
  Cl  Cl43  1  0.95509700  0.81656200  0.69822700  1
