# generated using pymatgen
data_Ba2CaMgAl2F14
_symmetry_space_group_name_H-M   'P 1'
_cell_length_a   7.38764420
_cell_length_b   7.38764420
_cell_length_c   14.81682458
_cell_angle_alpha   88.20076789
_cell_angle_beta   88.20076789
_cell_angle_gamma   41.90909928
_symmetry_Int_Tables_number   1
_chemical_formula_structural   Ba2CaMgAl2F14
_chemical_formula_sum   'Ba4 Ca2 Mg2 Al4 F28'
_cell_volume   539.84108080
_cell_formula_units_Z   2
loop_
 _symmetry_equiv_pos_site_id
 _symmetry_equiv_pos_as_xyz
  1  'x, y, z'
loop_
 _atom_site_type_symbol
 _atom_site_label
 _atom_site_symmetry_multiplicity
 _atom_site_fract_x
 _atom_site_fract_y
 _atom_site_fract_z
 _atom_site_occupancy
  Ba  Ba0  1  0.23175400  0.15082800  0.38196800  1
  Ba  Ba1  1  0.84917200  0.76824600  0.11803200  1
  Ba  Ba2  1  0.76824600  0.84917200  0.61803200  1
  Ba  Ba3  1  0.15082800  0.23175400  0.88196800  1
  Ca  Ca4  1  0.56059700  0.43940300  0.25000000  1
  Ca  Ca5  1  0.43940300  0.56059700  0.75000000  1
  Mg  Mg6  1  0.50000000  0.50000000  0.00000000  1
  Mg  Mg7  1  0.50000000  0.50000000  0.50000000  1
  Al  Al8  1  0.12127000  0.11094900  0.12174400  1
  Al  Al9  1  0.88905100  0.87873000  0.37825600  1
  Al  Al10  1  0.87873000  0.88905100  0.87825600  1
  Al  Al11  1  0.11094900  0.12127000  0.62174400  1
  F  F12  1  0.28294000  0.19719200  0.07890300  1
  F  F13  1  0.80280800  0.71706000  0.42109700  1
  F  F14  1  0.71706000  0.80280800  0.92109700  1
  F  F15  1  0.19719200  0.28294000  0.57890300  1
  F  F16  1  0.73317700  0.10986400  0.97572600  1
  F  F17  1  0.89013600  0.26682300  0.52427400  1
  F  F18  1  0.26682300  0.89013600  0.02427400  1
  F  F19  1  0.10986400  0.73317700  0.47572600  1
  F  F20  1  0.39993600  0.82592500  0.55055000  1
  F  F21  1  0.17407500  0.60006400  0.94945000  1
  F  F22  1  0.60006400  0.17407500  0.44945000  1
  F  F23  1  0.82592500  0.39993600  0.05055000  1
  F  F24  1  0.93077700  0.05624100  0.15883400  1
  F  F25  1  0.94375900  0.06922300  0.34116600  1
  F  F26  1  0.06922300  0.94375900  0.84116600  1
  F  F27  1  0.05624100  0.93077700  0.65883400  1
  F  F28  1  0.35772000  0.96119600  0.71500900  1
  F  F29  1  0.03880400  0.64228000  0.78499100  1
  F  F30  1  0.64228000  0.03880400  0.28499100  1
  F  F31  1  0.96119600  0.35772000  0.21500900  1
  F  F32  1  0.59401200  0.15345200  0.80550400  1
  F  F33  1  0.84654800  0.40598800  0.69449600  1
  F  F34  1  0.40598800  0.84654800  0.19449600  1
  F  F35  1  0.15345200  0.59401200  0.30550400  1
  F  F36  1  0.51211400  0.61900500  0.38073900  1
  F  F37  1  0.38099500  0.48788600  0.11926100  1
  F  F38  1  0.48788600  0.38099500  0.61926100  1
  F  F39  1  0.61900500  0.51211400  0.88073900  1
