# generated using pymatgen
data_K3Li3TeO6
_symmetry_space_group_name_H-M   'P 1'
_cell_length_a   6.07384100
_cell_length_b   9.83397400
_cell_length_c   11.85758500
_cell_angle_alpha   90.00000000
_cell_angle_beta   90.00000000
_cell_angle_gamma   90.00000000
_symmetry_Int_Tables_number   1
_chemical_formula_structural   K3Li3TeO6
_chemical_formula_sum   'K12 Li12 Te4 O24'
_cell_volume   708.25348653
_cell_formula_units_Z   4
loop_
 _symmetry_equiv_pos_site_id
 _symmetry_equiv_pos_as_xyz
  1  'x, y, z'
loop_
 _atom_site_type_symbol
 _atom_site_label
 _atom_site_symmetry_multiplicity
 _atom_site_fract_x
 _atom_site_fract_y
 _atom_site_fract_z
 _atom_site_occupancy
  K  K0  1  0.75000000  0.70746300  0.00645400  1
  K  K1  1  0.75000000  0.79253700  0.50645400  1
  K  K2  1  0.75000000  0.04089900  0.96217600  1
  K  K3  1  0.75000000  0.45910100  0.46217600  1
  K  K4  1  0.25000000  0.87194700  0.47210500  1
  K  K5  1  0.25000000  0.20746300  0.49354600  1
  K  K6  1  0.25000000  0.62805300  0.97210500  1
  K  K7  1  0.75000000  0.37194700  0.02789500  1
  K  K8  1  0.75000000  0.12805300  0.52789500  1
  K  K9  1  0.25000000  0.54089900  0.53782400  1
  K  K10  1  0.25000000  0.95910100  0.03782400  1
  K  K11  1  0.25000000  0.29253700  0.99354600  1
  Li  Li12  1  0.25000000  0.09066900  0.25112300  1
  Li  Li13  1  0.50617700  0.83562900  0.25662600  1
  Li  Li14  1  0.25000000  0.40933100  0.75112300  1
  Li  Li15  1  0.49382300  0.16437100  0.74337400  1
  Li  Li16  1  0.99382300  0.66437100  0.75662600  1
  Li  Li17  1  0.50617700  0.66437100  0.75662600  1
  Li  Li18  1  0.49382300  0.33562900  0.24337400  1
  Li  Li19  1  0.00617700  0.33562900  0.24337400  1
  Li  Li20  1  0.75000000  0.90933100  0.74887700  1
  Li  Li21  1  0.99382300  0.83562900  0.25662600  1
  Li  Li22  1  0.75000000  0.59066900  0.24887700  1
  Li  Li23  1  0.00617700  0.16437100  0.74337400  1
  Te  Te24  1  0.25000000  0.91310300  0.75561000  1
  Te  Te25  1  0.75000000  0.08689700  0.24439000  1
  Te  Te26  1  0.25000000  0.58689700  0.25561000  1
  Te  Te27  1  0.75000000  0.41310300  0.74439000  1
  O  O28  1  0.51202800  0.16114800  0.14707300  1
  O  O29  1  0.98797200  0.16114800  0.14707300  1
  O  O30  1  0.48639700  0.51455800  0.15789300  1
  O  O31  1  0.25000000  0.73791800  0.67607900  1
  O  O32  1  0.25000000  0.09063200  0.83551600  1
  O  O33  1  0.25000000  0.76208200  0.17607900  1
  O  O34  1  0.98639700  0.01455800  0.34210700  1
  O  O35  1  0.75000000  0.59063200  0.66448400  1
  O  O36  1  0.51360300  0.48544200  0.84210700  1
  O  O37  1  0.98639700  0.48544200  0.84210700  1
  O  O38  1  0.75000000  0.23791800  0.82392100  1
  O  O39  1  0.48639700  0.98544200  0.65789300  1
  O  O40  1  0.98797200  0.33885200  0.64707300  1
  O  O41  1  0.51360300  0.01455800  0.34210700  1
  O  O42  1  0.01202800  0.66114800  0.35292700  1
  O  O43  1  0.25000000  0.40936800  0.33551600  1
  O  O44  1  0.48797200  0.66114800  0.35292700  1
  O  O45  1  0.75000000  0.26208200  0.32392100  1
  O  O46  1  0.48797200  0.83885200  0.85292700  1
  O  O47  1  0.75000000  0.90936800  0.16448400  1
  O  O48  1  0.01202800  0.83885200  0.85292700  1
  O  O49  1  0.01360300  0.51455800  0.15789300  1
  O  O50  1  0.01360300  0.98544200  0.65789300  1
  O  O51  1  0.51202800  0.33885200  0.64707300  1
