# generated using pymatgen
data_Li2Nd2Si3
_symmetry_space_group_name_H-M   'P 1'
_cell_length_a   9.51475671
_cell_length_b   9.51475671
_cell_length_c   6.82810300
_cell_angle_alpha   90.00000000
_cell_angle_beta   90.00000000
_cell_angle_gamma   153.22246929
_symmetry_Int_Tables_number   1
_chemical_formula_structural   Li2Nd2Si3
_chemical_formula_sum   'Li4 Nd4 Si6'
_cell_volume   278.49455776
_cell_formula_units_Z   2
loop_
 _symmetry_equiv_pos_site_id
 _symmetry_equiv_pos_as_xyz
  1  'x, y, z'
loop_
 _atom_site_type_symbol
 _atom_site_label
 _atom_site_symmetry_multiplicity
 _atom_site_fract_x
 _atom_site_fract_y
 _atom_site_fract_z
 _atom_site_occupancy
  Li  Li0  1  0.18845300  0.81154700  0.06067900  1
  Li  Li1  1  0.18845300  0.81154700  0.43932100  1
  Li  Li2  1  0.81154700  0.18845300  0.93932100  1
  Li  Li3  1  0.81154700  0.18845300  0.56067900  1
  Nd  Nd4  1  0.34199700  0.65800300  0.25000000  1
  Nd  Nd5  1  0.65800300  0.34199700  0.75000000  1
  Nd  Nd6  1  0.55254800  0.44745200  0.25000000  1
  Nd  Nd7  1  0.44745200  0.55254800  0.75000000  1
  Si  Si8  1  0.71967600  0.28032400  0.25000000  1
  Si  Si9  1  0.28032400  0.71967600  0.75000000  1
  Si  Si10  1  0.05809500  0.94190500  0.92542100  1
  Si  Si11  1  0.94190500  0.05809500  0.07457900  1
  Si  Si12  1  0.94190500  0.05809500  0.42542100  1
  Si  Si13  1  0.05809500  0.94190500  0.57457900  1
