# generated using pymatgen
data_RbAu(SO4)2
_symmetry_space_group_name_H-M   'P 1'
_cell_length_a   4.35617100
_cell_length_b   5.16817699
_cell_length_c   9.03767060
_cell_angle_alpha   103.04377396
_cell_angle_beta   88.30908708
_cell_angle_gamma   105.68841534
_symmetry_Int_Tables_number   1
_chemical_formula_structural   RbAu(SO4)2
_chemical_formula_sum   'Rb1 Au1 S2 O8'
_cell_volume   190.72714634
_cell_formula_units_Z   1
loop_
 _symmetry_equiv_pos_site_id
 _symmetry_equiv_pos_as_xyz
  1  'x, y, z'
loop_
 _atom_site_type_symbol
 _atom_site_label
 _atom_site_symmetry_multiplicity
 _atom_site_fract_x
 _atom_site_fract_y
 _atom_site_fract_z
 _atom_site_occupancy
  Rb  Rb0  1  0.00000000  0.50000000  0.00000000  1
  Au  Au1  1  0.00000000  0.00000000  0.50000000  1
  S  S2  1  0.55064200  0.12347400  0.26886800  1
  S  S3  1  0.44935800  0.87652600  0.73113200  1
  O  O4  1  0.52338000  0.63333900  0.75751500  1
  O  O5  1  0.32002400  0.03814500  0.85778100  1
  O  O6  1  0.67997600  0.96185500  0.14221900  1
  O  O7  1  0.22095900  0.76512400  0.58921300  1
  O  O8  1  0.77904100  0.23487600  0.41078700  1
  O  O9  1  0.25184400  0.91126200  0.31027300  1
  O  O10  1  0.74815600  0.08873800  0.68972700  1
  O  O11  1  0.47662000  0.36666100  0.24248500  1
