# generated using pymatgen
data_Rb3AgO2
_symmetry_space_group_name_H-M   'P 1'
_cell_length_a   12.99647300
_cell_length_b   13.03424700
_cell_length_c   14.75043500
_cell_angle_alpha   90.00000000
_cell_angle_beta   90.00000000
_cell_angle_gamma   90.00000000
_symmetry_Int_Tables_number   1
_chemical_formula_structural   Rb3AgO2
_chemical_formula_sum   'Rb48 Ag16 O32'
_cell_volume   2498.71246703
_cell_formula_units_Z   16
loop_
 _symmetry_equiv_pos_site_id
 _symmetry_equiv_pos_as_xyz
  1  'x, y, z'
loop_
 _atom_site_type_symbol
 _atom_site_label
 _atom_site_symmetry_multiplicity
 _atom_site_fract_x
 _atom_site_fract_y
 _atom_site_fract_z
 _atom_site_occupancy
  Rb  Rb0  1  0.79334100  0.51166700  0.48960500  1
  Rb  Rb1  1  0.20336700  0.30162000  0.14435800  1
  Rb  Rb2  1  0.71678300  0.02120700  0.50884100  1
  Rb  Rb3  1  0.51493800  0.79954600  0.50596400  1
  Rb  Rb4  1  0.25500000  0.04364800  0.76316000  1
  Rb  Rb5  1  0.56222300  0.57736900  0.36907700  1
  Rb  Rb6  1  0.48506200  0.29954600  0.99403600  1
  Rb  Rb7  1  0.02187100  0.78338500  0.00463000  1
  Rb  Rb8  1  0.51062100  0.99606000  0.92490400  1
  Rb  Rb9  1  0.26409400  0.54397100  0.25419200  1
  Rb  Rb10  1  0.78321700  0.97879300  0.00884100  1
  Rb  Rb11  1  0.69849900  0.29956700  0.63944900  1
  Rb  Rb12  1  0.76409400  0.95602900  0.74580800  1
  Rb  Rb13  1  0.73590600  0.04397100  0.24580800  1
  Rb  Rb14  1  0.99581400  0.71104200  0.77467400  1
  Rb  Rb15  1  0.48937900  0.49606000  0.57509600  1
  Rb  Rb16  1  0.29334100  0.98833300  0.51039500  1
  Rb  Rb17  1  0.24500000  0.95635200  0.26316000  1
  Rb  Rb18  1  0.50418600  0.28895800  0.27467400  1
  Rb  Rb19  1  0.00418600  0.21104200  0.72532600  1
  Rb  Rb20  1  0.93777700  0.42263100  0.86907700  1
  Rb  Rb21  1  0.23590600  0.45602900  0.75419200  1
  Rb  Rb22  1  0.01493800  0.70045400  0.49403600  1
  Rb  Rb23  1  0.05273200  0.74863100  0.25530100  1
  Rb  Rb24  1  0.19849900  0.20043300  0.36055100  1
  Rb  Rb25  1  0.70665900  0.48833300  0.98960500  1
  Rb  Rb26  1  0.28321700  0.52120700  0.99115900  1
  Rb  Rb27  1  0.20665900  0.01166700  0.01039500  1
  Rb  Rb28  1  0.21678300  0.47879300  0.49115900  1
  Rb  Rb29  1  0.44726800  0.25136900  0.75530100  1
  Rb  Rb30  1  0.74500000  0.54364800  0.73684000  1
  Rb  Rb31  1  0.29663300  0.69838000  0.64435800  1
  Rb  Rb32  1  0.79663300  0.80162000  0.35564200  1
  Rb  Rb33  1  0.49581400  0.78895800  0.22532600  1
  Rb  Rb34  1  0.80150100  0.70043300  0.13944900  1
  Rb  Rb35  1  0.47812900  0.21661500  0.50463000  1
  Rb  Rb36  1  0.75500000  0.45635200  0.23684000  1
  Rb  Rb37  1  0.94726800  0.24863100  0.24469900  1
  Rb  Rb38  1  0.06222300  0.92263100  0.63092300  1
  Rb  Rb39  1  0.52187100  0.71661500  0.99537000  1
  Rb  Rb40  1  0.43777700  0.07736900  0.13092300  1
  Rb  Rb41  1  0.55273200  0.75136900  0.74469900  1
  Rb  Rb42  1  0.98937900  0.00394000  0.42490400  1
  Rb  Rb43  1  0.97812900  0.28338500  0.49537000  1
  Rb  Rb44  1  0.70336700  0.19838000  0.85564200  1
  Rb  Rb45  1  0.01062100  0.50394000  0.07509600  1
  Rb  Rb46  1  0.30150100  0.79956700  0.86055100  1
  Rb  Rb47  1  0.98506200  0.20045400  0.00596400  1
  Ag  Ag48  1  0.27182200  0.76640900  0.09219200  1
  Ag  Ag49  1  0.72817800  0.26640900  0.40780800  1
  Ag  Ag50  1  0.49918800  0.50298600  0.82420700  1
  Ag  Ag51  1  0.99932100  0.98980000  0.85015700  1
  Ag  Ag52  1  0.26669800  0.74313300  0.42053400  1
  Ag  Ag53  1  0.00067900  0.48980000  0.64984300  1
  Ag  Ag54  1  0.76669800  0.75686700  0.57946600  1
  Ag  Ag55  1  0.50067900  0.01020000  0.35015700  1
  Ag  Ag56  1  0.99918800  0.99701400  0.17579300  1
  Ag  Ag57  1  0.50081200  0.00298600  0.67579300  1
  Ag  Ag58  1  0.73330200  0.24313300  0.07946600  1
  Ag  Ag59  1  0.49932100  0.51020000  0.14984300  1
  Ag  Ag60  1  0.23330200  0.25686700  0.92053400  1
  Ag  Ag61  1  0.22817800  0.23359100  0.59219200  1
  Ag  Ag62  1  0.00081200  0.49701400  0.32420700  1
  Ag  Ag63  1  0.77182200  0.73359100  0.90780800  1
  O  O64  1  0.11949500  0.12029900  0.56881700  1
  O  O65  1  0.66081800  0.84396600  0.89351500  1
  O  O66  1  0.83918200  0.15603400  0.39351500  1
  O  O67  1  0.61405800  0.90186100  0.35647900  1
  O  O68  1  0.11117500  0.10923800  0.17752200  1
  O  O69  1  0.61949500  0.37970100  0.43118300  1
  O  O70  1  0.16081800  0.65603400  0.10648500  1
  O  O71  1  0.88594200  0.09813900  0.85647900  1
  O  O72  1  0.38050500  0.87970100  0.06881700  1
  O  O73  1  0.38569600  0.11667500  0.33778500  1
  O  O74  1  0.38882500  0.89076200  0.67752200  1
  O  O75  1  0.38594200  0.40186100  0.14352100  1
  O  O76  1  0.87670800  0.86805000  0.55758700  1
  O  O77  1  0.15326300  0.85393500  0.41468600  1
  O  O78  1  0.34673700  0.14606500  0.91468600  1
  O  O79  1  0.65326300  0.64606500  0.58531400  1
  O  O80  1  0.38888600  0.61545000  0.82292900  1
  O  O81  1  0.37670800  0.63195000  0.44241300  1
  O  O82  1  0.84673700  0.35393500  0.08531400  1
  O  O83  1  0.11430400  0.88332500  0.83778500  1
  O  O84  1  0.61430400  0.61667500  0.16221500  1
  O  O85  1  0.88888600  0.88455000  0.17707100  1
  O  O86  1  0.33918200  0.34396600  0.60648500  1
  O  O87  1  0.11405800  0.59813900  0.64352100  1
  O  O88  1  0.88050500  0.62029900  0.93118300  1
  O  O89  1  0.11111400  0.38455000  0.32292900  1
  O  O90  1  0.12329200  0.36805000  0.94241300  1
  O  O91  1  0.61111400  0.11545000  0.67707100  1
  O  O92  1  0.88569600  0.38332500  0.66221500  1
  O  O93  1  0.61117500  0.39076200  0.82247800  1
  O  O94  1  0.62329200  0.13195000  0.05758700  1
  O  O95  1  0.88882500  0.60923800  0.32247800  1
