# generated using pymatgen
data_CsIn3O5
_symmetry_space_group_name_H-M   'P 1'
_cell_length_a   3.40073800
_cell_length_b   10.29738000
_cell_length_c   16.79366000
_cell_angle_alpha   90.00000000
_cell_angle_beta   90.00000000
_cell_angle_gamma   90.00000000
_symmetry_Int_Tables_number   1
_chemical_formula_structural   CsIn3O5
_chemical_formula_sum   'Cs4 In12 O20'
_cell_volume   588.09199813
_cell_formula_units_Z   4
loop_
 _symmetry_equiv_pos_site_id
 _symmetry_equiv_pos_as_xyz
  1  'x, y, z'
loop_
 _atom_site_type_symbol
 _atom_site_label
 _atom_site_symmetry_multiplicity
 _atom_site_fract_x
 _atom_site_fract_y
 _atom_site_fract_z
 _atom_site_occupancy
  Cs  Cs0  1  0.75000000  0.53036500  0.12097600  1
  Cs  Cs1  1  0.25000000  0.96963500  0.62097600  1
  Cs  Cs2  1  0.75000000  0.03036500  0.37902400  1
  Cs  Cs3  1  0.25000000  0.46963500  0.87902400  1
  In  In4  1  0.75000000  0.18036000  0.18107400  1
  In  In5  1  0.75000000  0.68036000  0.31892600  1
  In  In6  1  0.25000000  0.64418600  0.48885800  1
  In  In7  1  0.25000000  0.14418600  0.01114200  1
  In  In8  1  0.25000000  0.89013300  0.16382800  1
  In  In9  1  0.75000000  0.35581400  0.51114200  1
  In  In10  1  0.25000000  0.31964000  0.68107400  1
  In  In11  1  0.25000000  0.81964000  0.81892600  1
  In  In12  1  0.75000000  0.60986700  0.66382800  1
  In  In13  1  0.75000000  0.10986700  0.83617200  1
  In  In14  1  0.75000000  0.85581400  0.98885800  1
  In  In15  1  0.25000000  0.39013300  0.33617200  1
  O  O16  1  0.25000000  0.69539900  0.71693100  1
  O  O17  1  0.25000000  0.26854200  0.11306200  1
  O  O18  1  0.25000000  0.77892700  0.05538100  1
  O  O19  1  0.75000000  0.23145800  0.61306200  1
  O  O20  1  0.25000000  0.97709600  0.92375700  1
  O  O21  1  0.75000000  0.22107300  0.94461900  1
  O  O22  1  0.75000000  0.30460100  0.28306900  1
  O  O23  1  0.25000000  0.56572000  0.27139200  1
  O  O24  1  0.75000000  0.80460100  0.21693100  1
  O  O25  1  0.75000000  0.43428000  0.72860800  1
  O  O26  1  0.25000000  0.76854200  0.38693800  1
  O  O27  1  0.75000000  0.93428000  0.77139200  1
  O  O28  1  0.25000000  0.47709600  0.57624300  1
  O  O29  1  0.25000000  0.19539900  0.78306900  1
  O  O30  1  0.75000000  0.73145800  0.88693800  1
  O  O31  1  0.75000000  0.02290400  0.07624300  1
  O  O32  1  0.25000000  0.27892700  0.44461900  1
  O  O33  1  0.75000000  0.52290400  0.42375700  1
  O  O34  1  0.75000000  0.72107300  0.55538100  1
  O  O35  1  0.25000000  0.06572000  0.22860800  1
