# generated using pymatgen
data_KV(SO4)2
_symmetry_space_group_name_H-M   'P 1'
_cell_length_a   4.88930814
_cell_length_b   13.07442732
_cell_length_c   11.09591816
_cell_angle_alpha   88.58154650
_cell_angle_beta   102.71700196
_cell_angle_gamma   100.76906150
_symmetry_Int_Tables_number   1
_chemical_formula_structural   KV(SO4)2
_chemical_formula_sum   'K4 V4 S8 O32'
_cell_volume   679.62078847
_cell_formula_units_Z   4
loop_
 _symmetry_equiv_pos_site_id
 _symmetry_equiv_pos_as_xyz
  1  'x, y, z'
loop_
 _atom_site_type_symbol
 _atom_site_label
 _atom_site_symmetry_multiplicity
 _atom_site_fract_x
 _atom_site_fract_y
 _atom_site_fract_z
 _atom_site_occupancy
  K  K0  1  0.00000300  0.99999400  0.00001100  1
  K  K1  1  0.50000600  0.24999500  0.75001600  1
  K  K2  1  0.00000900  0.49999600  0.50002100  1
  K  K3  1  0.50000600  0.74999500  0.25001600  1
  V  V4  1  0.74998100  0.12500300  0.37499400  1
  V  V5  1  0.24998700  0.37498600  0.12499600  1
  V  V6  1  0.74997800  0.62497600  0.87500200  1
  V  V7  1  0.24999000  0.87501300  0.62498900  1
  S  S8  1  0.35477000  0.29569900  0.41400400  1
  S  S9  1  0.85475600  0.54568600  0.16400800  1
  S  S10  1  0.35476800  0.79570300  0.91400900  1
  S  S11  1  0.85477100  0.04572100  0.66400500  1
  S  S12  1  0.14524400  0.95432200  0.33599800  1
  S  S13  1  0.64523000  0.20430800  0.08600200  1
  S  S14  1  0.14523000  0.45428600  0.83600100  1
  S  S15  1  0.64523200  0.70430500  0.58599600  1
  O  O16  1  0.44376100  0.36988100  0.51783400  1
  O  O17  1  0.94376200  0.61988600  0.26783300  1
  O  O18  1  0.44375400  0.86987200  0.01782600  1
  O  O19  1  0.94375400  0.11986600  0.76783000  1
  O  O20  1  0.05626500  0.88010800  0.23216800  1
  O  O21  1  0.55626500  0.13011300  0.98216700  1
  O  O22  1  0.05627200  0.38012800  0.73217100  1
  O  O23  1  0.55627300  0.63012200  0.48217500  1
  O  O24  1  0.46311400  0.48854600  0.86354900  1
  O  O25  1  0.96309000  0.73853200  0.61355200  1
  O  O26  1  0.46309300  0.98853200  0.36355200  1
  O  O27  1  0.96311500  0.23854300  0.11355600  1
  O  O28  1  0.94191700  0.59590900  0.05193800  1
  O  O29  1  0.44191500  0.84589600  0.80194700  1
  O  O30  1  0.94190400  0.09589200  0.55194600  1
  O  O31  1  0.44190900  0.34589800  0.30193800  1
  O  O32  1  0.00719200  0.54758000  0.80453800  1
  O  O33  1  0.50720600  0.79756500  0.55454400  1
  O  O34  1  0.00721000  0.04756000  0.30454500  1
  O  O35  1  0.50720000  0.29757000  0.05454700  1
  O  O36  1  0.03690500  0.76148100  0.88643800  1
  O  O37  1  0.53688100  0.01146800  0.63644100  1
  O  O38  1  0.03688000  0.26147100  0.38643400  1
  O  O39  1  0.53690300  0.51148100  0.13643800  1
  O  O40  1  0.49275200  0.70242700  0.94544700  1
  O  O41  1  0.99276600  0.95241100  0.69545300  1
  O  O42  1  0.49275800  0.20242100  0.44544500  1
  O  O43  1  0.99274800  0.45243100  0.19544600  1
  O  O44  1  0.55811300  0.65410900  0.69805400  1
  O  O45  1  0.05811100  0.90409600  0.44806300  1
  O  O46  1  0.55811900  0.15410600  0.19806300  1
  O  O47  1  0.05812400  0.40411300  0.94805500  1
