# generated using pymatgen
data_Ho5CoSb2
_symmetry_space_group_name_H-M   'P 1'
_cell_length_a   7.84253400
_cell_length_b   8.74688600
_cell_length_c   12.14723800
_cell_angle_alpha   90.00000000
_cell_angle_beta   90.00000000
_cell_angle_gamma   90.00000000
_symmetry_Int_Tables_number   1
_chemical_formula_structural   Ho5CoSb2
_chemical_formula_sum   'Ho20 Co4 Sb8'
_cell_volume   833.27320583
_cell_formula_units_Z   4
loop_
 _symmetry_equiv_pos_site_id
 _symmetry_equiv_pos_as_xyz
  1  'x, y, z'
loop_
 _atom_site_type_symbol
 _atom_site_label
 _atom_site_symmetry_multiplicity
 _atom_site_fract_x
 _atom_site_fract_y
 _atom_site_fract_z
 _atom_site_occupancy
  Ho  Ho0  1  0.15708900  0.75000000  0.20433100  1
  Ho  Ho1  1  0.65708900  0.25000000  0.29566900  1
  Ho  Ho2  1  0.84291100  0.25000000  0.79566900  1
  Ho  Ho3  1  0.34291100  0.75000000  0.70433100  1
  Ho  Ho4  1  0.45161700  0.75000000  0.99806500  1
  Ho  Ho5  1  0.95161700  0.25000000  0.50193500  1
  Ho  Ho6  1  0.54838300  0.25000000  0.00193500  1
  Ho  Ho7  1  0.04838300  0.75000000  0.49806500  1
  Ho  Ho8  1  0.62283300  0.75000000  0.30722300  1
  Ho  Ho9  1  0.12283300  0.25000000  0.19277700  1
  Ho  Ho10  1  0.37716700  0.25000000  0.69277700  1
  Ho  Ho11  1  0.87716700  0.75000000  0.80722300  1
  Ho  Ho12  1  0.82328900  0.96223800  0.06548100  1
  Ho  Ho13  1  0.32328900  0.03776200  0.43451900  1
  Ho  Ho14  1  0.17671100  0.46223800  0.93451900  1
  Ho  Ho15  1  0.67671100  0.53776200  0.56548100  1
  Ho  Ho16  1  0.17671100  0.03776200  0.93451900  1
  Ho  Ho17  1  0.67671100  0.96223800  0.56548100  1
  Ho  Ho18  1  0.82328900  0.53776200  0.06548100  1
  Ho  Ho19  1  0.32328900  0.46223800  0.43451900  1
  Co  Co20  1  0.42961300  0.75000000  0.48988800  1
  Co  Co21  1  0.92961300  0.25000000  0.01011200  1
  Co  Co22  1  0.57038700  0.25000000  0.51011200  1
  Co  Co23  1  0.07038700  0.75000000  0.98988800  1
  Sb  Sb24  1  0.93077400  0.99172100  0.32714300  1
  Sb  Sb25  1  0.43077400  0.00827900  0.17285700  1
  Sb  Sb26  1  0.06922600  0.49172100  0.67285700  1
  Sb  Sb27  1  0.56922600  0.50827900  0.82714300  1
  Sb  Sb28  1  0.06922600  0.00827900  0.67285700  1
  Sb  Sb29  1  0.56922600  0.99172100  0.82714300  1
  Sb  Sb30  1  0.93077400  0.50827900  0.32714300  1
  Sb  Sb31  1  0.43077400  0.49172100  0.17285700  1
