# generated using pymatgen
data_Cs2Al(NO3)5
_symmetry_space_group_name_H-M   'P 1'
_cell_length_a   11.29777735
_cell_length_b   11.29777735
_cell_length_c   10.17580300
_cell_angle_alpha   90.00000000
_cell_angle_beta   90.00000000
_cell_angle_gamma   119.99999617
_symmetry_Int_Tables_number   1
_chemical_formula_structural   Cs2Al(NO3)5
_chemical_formula_sum   'Cs6 Al3 N15 O45'
_cell_volume   1124.82604075
_cell_formula_units_Z   3
loop_
 _symmetry_equiv_pos_site_id
 _symmetry_equiv_pos_as_xyz
  1  'x, y, z'
loop_
 _atom_site_type_symbol
 _atom_site_label
 _atom_site_symmetry_multiplicity
 _atom_site_fract_x
 _atom_site_fract_y
 _atom_site_fract_z
 _atom_site_occupancy
  Cs  Cs0  1  0.00000000  0.70500600  0.66666700  1
  Cs  Cs1  1  0.45799600  0.45799600  0.50000000  1
  Cs  Cs2  1  0.00000000  0.54200400  0.16666700  1
  Cs  Cs3  1  0.70500600  0.00000000  0.33333300  1
  Cs  Cs4  1  0.54200400  0.00000000  0.83333300  1
  Cs  Cs5  1  0.29499400  0.29499400  0.00000000  1
  Al  Al6  1  0.68609100  0.68609100  0.00000000  1
  Al  Al7  1  0.31390900  0.00000000  0.33333300  1
  Al  Al8  1  0.00000000  0.31390900  0.66666700  1
  N  N9  1  0.74737900  0.65467100  0.27315600  1
  N  N10  1  0.25262100  0.90729200  0.06017800  1
  N  N11  1  0.75732000  0.31638300  0.57881300  1
  N  N12  1  0.90030400  0.90030400  0.00000000  1
  N  N13  1  0.31638300  0.75732000  0.42118700  1
  N  N14  1  0.09969600  0.00000000  0.33333300  1
  N  N15  1  0.24268000  0.55906200  0.75452100  1
  N  N16  1  0.34532900  0.09270800  0.60648900  1
  N  N17  1  0.44093800  0.68361700  0.08785400  1
  N  N18  1  0.09270800  0.34532900  0.39351100  1
  N  N19  1  0.65467100  0.74737900  0.72684400  1
  N  N20  1  0.68361700  0.44093800  0.91214600  1
  N  N21  1  0.00000000  0.09969600  0.66666700  1
  N  N22  1  0.90729200  0.25262100  0.93982200  1
  N  N23  1  0.55906200  0.24268000  0.24547900  1
  O  O24  1  0.18883700  0.37724100  0.31623300  1
  O  O25  1  0.12401400  0.36207800  0.52076800  1
  O  O26  1  0.48962800  0.10780800  0.26369900  1
  O  O27  1  0.00809200  0.00809200  0.00000000  1
  O  O28  1  0.20797200  0.08848500  0.26977900  1
  O  O29  1  0.61074900  0.31582800  0.90107900  1
  O  O30  1  0.08848500  0.20797200  0.73022100  1
  O  O31  1  0.30061100  0.97190200  0.64083900  1
  O  O32  1  0.32870900  0.02809800  0.02582800  1
  O  O33  1  0.36207800  0.12401400  0.47923200  1
  O  O34  1  0.31582800  0.61074900  0.09892100  1
  O  O35  1  0.89219200  0.38182000  0.59703200  1
  O  O36  1  0.63792200  0.76193600  0.85410100  1
  O  O37  1  0.61818000  0.51037200  0.93036600  1
  O  O38  1  0.81159700  0.62275900  0.35043400  1
  O  O39  1  0.37724100  0.18883700  0.68376700  1
  O  O40  1  0.38182000  0.89219200  0.40296800  1
  O  O41  1  0.10780800  0.48962800  0.73630100  1
  O  O42  1  0.97190200  0.30061100  0.35916100  1
  O  O43  1  0.11948700  0.91151500  0.39688800  1
  O  O44  1  0.76193600  0.63792200  0.14589900  1
  O  O45  1  0.81070200  0.50473900  0.90614100  1
  O  O46  1  0.69403700  0.18929800  0.57280800  1
  O  O47  1  0.18929800  0.69403700  0.42719200  1
  O  O48  1  0.69938900  0.67129100  0.69249400  1
  O  O49  1  0.88051300  0.79202800  0.93644500  1
  O  O50  1  0.23806400  0.87598600  0.18743500  1
  O  O51  1  0.29492200  0.68417200  0.76558800  1
  O  O52  1  0.67129100  0.69938900  0.30750600  1
  O  O53  1  0.70507800  0.38925100  0.56774500  1
  O  O54  1  0.51037200  0.61818000  0.06963400  1
  O  O55  1  0.62275900  0.81159700  0.64956600  1
  O  O56  1  0.81116300  0.18840300  0.01710000  1
  O  O57  1  0.00000000  0.99190800  0.66666700  1
  O  O58  1  0.38925100  0.70507800  0.43225500  1
  O  O59  1  0.50473900  0.81070200  0.09385900  1
  O  O60  1  0.87598600  0.23806400  0.81256500  1
  O  O61  1  0.30596300  0.49526100  0.76052500  1
  O  O62  1  0.79202800  0.88051300  0.06355500  1
  O  O63  1  0.18840300  0.81116300  0.98290000  1
  O  O64  1  0.91151500  0.11948700  0.60311200  1
  O  O65  1  0.49526100  0.30596300  0.23947500  1
  O  O66  1  0.68417200  0.29492200  0.23441200  1
  O  O67  1  0.99190800  0.00000000  0.33333300  1
  O  O68  1  0.02809800  0.32870900  0.97417200  1
