# generated using pymatgen
data_Si4Mo2P4O23
_symmetry_space_group_name_H-M   'P 1'
_cell_length_a   5.29923300
_cell_length_b   8.56795484
_cell_length_c   11.37398168
_cell_angle_alpha   77.80355776
_cell_angle_beta   77.71424872
_cell_angle_gamma   73.02879794
_symmetry_Int_Tables_number   1
_chemical_formula_structural   Si4Mo2P4O23
_chemical_formula_sum   'Si4 Mo2 P4 O23'
_cell_volume   476.43231629
_cell_formula_units_Z   1
loop_
 _symmetry_equiv_pos_site_id
 _symmetry_equiv_pos_as_xyz
  1  'x, y, z'
loop_
 _atom_site_type_symbol
 _atom_site_label
 _atom_site_symmetry_multiplicity
 _atom_site_fract_x
 _atom_site_fract_y
 _atom_site_fract_z
 _atom_site_occupancy
  Si  Si0  1  0.05846500  0.18667400  0.71218700  1
  Si  Si1  1  0.44153500  0.68701600  0.42859600  1
  Si  Si2  1  0.55846500  0.31298400  0.57140400  1
  Si  Si3  1  0.94153500  0.81332600  0.28781300  1
  Mo  Mo4  1  0.29086200  0.25534100  0.14731400  1
  Mo  Mo5  1  0.70913800  0.74465900  0.85268600  1
  P  P6  1  0.15830200  0.68534600  0.05379900  1
  P  P7  1  0.24896400  0.81177900  0.66868100  1
  P  P8  1  0.75103600  0.18822100  0.33131900  1
  P  P9  1  0.84169800  0.31465400  0.94620100  1
  O  O10  1  0.41208700  0.04501300  0.16947300  1
  O  O11  1  0.97250800  0.17771000  0.85934700  1
  O  O12  1  0.85488000  0.48147500  0.86941500  1
  O  O13  1  0.14512000  0.51852500  0.13058500  1
  O  O14  1  0.35985500  0.81654500  0.52822400  1
  O  O15  1  0.46832400  0.71235200  0.74119300  1
  O  O16  1  0.55218600  0.30321500  0.99215300  1
  O  O17  1  0.70693500  0.71926300  0.33850100  1
  O  O18  1  0.99715900  0.73593700  0.94919700  1
  O  O19  1  0.64014500  0.18345500  0.47177600  1
  O  O20  1  0.58791300  0.95498700  0.83052700  1
  O  O21  1  0.00239300  0.74517700  0.69616000  1
  O  O22  1  0.17091500  0.99769900  0.68257900  1
  O  O23  1  0.80394000  0.27906700  0.64402800  1
  O  O24  1  0.99760700  0.25482300  0.30384000  1
  O  O25  1  0.50000000  0.50000000  0.50000000  1
  O  O26  1  0.00284100  0.26406300  0.05080300  1
  O  O27  1  0.44781400  0.69678500  0.00784700  1
  O  O28  1  0.19606000  0.72093300  0.35597200  1
  O  O29  1  0.29306500  0.28073700  0.66149900  1
  O  O30  1  0.53167600  0.28764800  0.25880700  1
  O  O31  1  0.02749200  0.82229000  0.14065300  1
  O  O32  1  0.82908500  0.00230100  0.31742100  1
