# generated using pymatgen
data_KPrTe2
_symmetry_space_group_name_H-M   'P 1'
_cell_length_a   8.69158865
_cell_length_b   8.69158865
_cell_length_c   8.69158889
_cell_angle_alpha   31.06537616
_cell_angle_beta   31.06537616
_cell_angle_gamma   31.06537626
_symmetry_Int_Tables_number   1
_chemical_formula_structural   KPrTe2
_chemical_formula_sum   'K1 Pr1 Te2'
_cell_volume   155.11278504
_cell_formula_units_Z   1
loop_
 _symmetry_equiv_pos_site_id
 _symmetry_equiv_pos_as_xyz
  1  'x, y, z'
loop_
 _atom_site_type_symbol
 _atom_site_label
 _atom_site_symmetry_multiplicity
 _atom_site_fract_x
 _atom_site_fract_y
 _atom_site_fract_z
 _atom_site_occupancy
  K  K0  1  0.50000000  0.50000000  0.50000000  1
  Pr  Pr1  1  0.00000000  0.00000000  0.00000000  1
  Te  Te2  1  0.26143400  0.26143400  0.26143400  1
  Te  Te3  1  0.73856600  0.73856600  0.73856600  1
