# generated using pymatgen
data_FeP2PbO7
_symmetry_space_group_name_H-M   'P 1'
_cell_length_a   8.44761400
_cell_length_b   5.46259600
_cell_length_c   14.05632891
_cell_angle_alpha   67.84828889
_cell_angle_beta   90.00000000
_cell_angle_gamma   90.00000000
_symmetry_Int_Tables_number   1
_chemical_formula_structural   FeP2PbO7
_chemical_formula_sum   'Fe4 P8 Pb4 O28'
_cell_volume   600.76487466
_cell_formula_units_Z   4
loop_
 _symmetry_equiv_pos_site_id
 _symmetry_equiv_pos_as_xyz
  1  'x, y, z'
loop_
 _atom_site_type_symbol
 _atom_site_label
 _atom_site_symmetry_multiplicity
 _atom_site_fract_x
 _atom_site_fract_y
 _atom_site_fract_z
 _atom_site_occupancy
  Fe  Fe0  1  0.34991700  0.92553700  0.89426700  1
  Fe  Fe1  1  0.84991700  0.07446300  0.60573300  1
  Fe  Fe2  1  0.65008300  0.07446300  0.10573300  1
  Fe  Fe3  1  0.15008300  0.92553700  0.39426700  1
  P  P4  1  0.53926700  0.91457700  0.33596600  1
  P  P5  1  0.30028500  0.29624500  0.01827600  1
  P  P6  1  0.19971500  0.29624500  0.51827600  1
  P  P7  1  0.46073300  0.08542300  0.66403400  1
  P  P8  1  0.96073300  0.91457700  0.83596600  1
  P  P9  1  0.69971500  0.70375500  0.98172400  1
  P  P10  1  0.03926700  0.08542300  0.16403400  1
  P  P11  1  0.80028500  0.70375500  0.48172400  1
  Pb  Pb12  1  0.67531200  0.43404800  0.77836900  1
  Pb  Pb13  1  0.82468800  0.43404800  0.27836900  1
  Pb  Pb14  1  0.32468800  0.56595200  0.22163100  1
  Pb  Pb15  1  0.17531200  0.56595200  0.72163100  1
  O  O16  1  0.56335500  0.21441100  0.29825900  1
  O  O17  1  0.59582500  0.92110200  0.90425400  1
  O  O18  1  0.12122600  0.20592000  0.23449000  1
  O  O19  1  0.09582500  0.07889800  0.59574600  1
  O  O20  1  0.86489100  0.16637700  0.15104700  1
  O  O21  1  0.06335500  0.78558900  0.20174100  1
  O  O22  1  0.63510900  0.16637700  0.65104700  1
  O  O23  1  0.62122600  0.79408000  0.26551000  1
  O  O24  1  0.90417500  0.92110200  0.40425400  1
  O  O25  1  0.36489100  0.83362300  0.34895300  1
  O  O26  1  0.11715700  0.21570500  0.05099800  1
  O  O27  1  0.67141300  0.43299100  0.97514600  1
  O  O28  1  0.18845800  0.29453500  0.40943200  1
  O  O29  1  0.61715700  0.78429500  0.44900200  1
  O  O30  1  0.43664500  0.78558900  0.70174100  1
  O  O31  1  0.87877400  0.79408000  0.76551000  1
  O  O32  1  0.81154200  0.70546500  0.59056800  1
  O  O33  1  0.37877400  0.20592000  0.73449000  1
  O  O34  1  0.82858700  0.43299100  0.47514600  1
  O  O35  1  0.17141300  0.56700900  0.52485400  1
  O  O36  1  0.93664500  0.21441100  0.79825900  1
  O  O37  1  0.88284300  0.78429500  0.94900200  1
  O  O38  1  0.40417500  0.07889800  0.09574600  1
  O  O39  1  0.32858700  0.56700900  0.02485400  1
  O  O40  1  0.68845800  0.70546500  0.09056800  1
  O  O41  1  0.31154200  0.29453500  0.90943200  1
  O  O42  1  0.38284300  0.21570500  0.55099800  1
  O  O43  1  0.13510900  0.83362300  0.84895300  1
