# generated using pymatgen
data_Cs2ZnO2
_symmetry_space_group_name_H-M   'P 1'
_cell_length_a   6.72713700
_cell_length_b   10.03086200
_cell_length_c   16.62387411
_cell_angle_alpha   62.80530257
_cell_angle_beta   90.00000000
_cell_angle_gamma   90.00000000
_symmetry_Int_Tables_number   1
_chemical_formula_structural   Cs2ZnO2
_chemical_formula_sum   'Cs16 Zn8 O16'
_cell_volume   997.76104346
_cell_formula_units_Z   8
loop_
 _symmetry_equiv_pos_site_id
 _symmetry_equiv_pos_as_xyz
  1  'x, y, z'
loop_
 _atom_site_type_symbol
 _atom_site_label
 _atom_site_symmetry_multiplicity
 _atom_site_fract_x
 _atom_site_fract_y
 _atom_site_fract_z
 _atom_site_occupancy
  Cs  Cs0  1  0.17494100  0.14654500  0.52354500  1
  Cs  Cs1  1  0.13767700  0.92549100  0.83864800  1
  Cs  Cs2  1  0.07702700  0.57154800  0.37907200  1
  Cs  Cs3  1  0.57702700  0.42845200  0.12092800  1
  Cs  Cs4  1  0.36232300  0.92549100  0.33864800  1
  Cs  Cs5  1  0.82505900  0.85345500  0.47645500  1
  Cs  Cs6  1  0.32505900  0.14654500  0.02354500  1
  Cs  Cs7  1  0.63767700  0.07450900  0.66135200  1
  Cs  Cs8  1  0.91044900  0.67632800  0.74177500  1
  Cs  Cs9  1  0.92297300  0.42845200  0.62092800  1
  Cs  Cs10  1  0.41044900  0.32367200  0.75822500  1
  Cs  Cs11  1  0.86232300  0.07450900  0.16135200  1
  Cs  Cs12  1  0.42297300  0.57154800  0.87907200  1
  Cs  Cs13  1  0.67494100  0.85345500  0.97645500  1
  Cs  Cs14  1  0.08955100  0.32367200  0.25822500  1
  Cs  Cs15  1  0.58955100  0.67632800  0.24177500  1
  Zn  Zn16  1  0.13467900  0.75496600  0.12768500  1
  Zn  Zn17  1  0.86532100  0.24503400  0.87231500  1
  Zn  Zn18  1  0.44455700  0.58542400  0.54015000  1
  Zn  Zn19  1  0.63467900  0.24503400  0.37231500  1
  Zn  Zn20  1  0.94455700  0.41457600  0.95985000  1
  Zn  Zn21  1  0.55544300  0.41457600  0.45985000  1
  Zn  Zn22  1  0.05544300  0.58542400  0.04015000  1
  Zn  Zn23  1  0.36532100  0.75496600  0.62768500  1
  O  O24  1  0.69437900  0.14119300  0.30621100  1
  O  O25  1  0.88043000  0.63011900  0.93114800  1
  O  O26  1  0.72230600  0.27078800  0.96854700  1
  O  O27  1  0.91355400  0.61874900  0.13986900  1
  O  O28  1  0.27769400  0.72921200  0.03145300  1
  O  O29  1  0.19437900  0.85880700  0.19378900  1
  O  O30  1  0.80562100  0.14119300  0.80621100  1
  O  O31  1  0.22230600  0.72921200  0.53145300  1
  O  O32  1  0.30562100  0.85880700  0.69378900  1
  O  O33  1  0.61957000  0.63011900  0.43114800  1
  O  O34  1  0.38043000  0.36988100  0.56885200  1
  O  O35  1  0.58644600  0.61874900  0.63986900  1
  O  O36  1  0.77769400  0.27078800  0.46854700  1
  O  O37  1  0.11957000  0.36988100  0.06885200  1
  O  O38  1  0.08644600  0.38125100  0.86013100  1
  O  O39  1  0.41355400  0.38125100  0.36013100  1
