# generated using pymatgen
data_SrZn2
_symmetry_space_group_name_H-M   'P 1'
_cell_length_a   6.02489812
_cell_length_b   6.02489812
_cell_length_c   6.02489812
_cell_angle_alpha   133.25384783
_cell_angle_beta   99.31110369
_cell_angle_gamma   98.79925746
_symmetry_Int_Tables_number   1
_chemical_formula_structural   SrZn2
_chemical_formula_sum   'Sr2 Zn4'
_cell_volume   146.21206115
_cell_formula_units_Z   2
loop_
 _symmetry_equiv_pos_site_id
 _symmetry_equiv_pos_as_xyz
  1  'x, y, z'
loop_
 _atom_site_type_symbol
 _atom_site_label
 _atom_site_symmetry_multiplicity
 _atom_site_fract_x
 _atom_site_fract_y
 _atom_site_fract_z
 _atom_site_occupancy
  Sr  Sr0  1  0.29890000  0.04890000  0.25000000  1
  Sr  Sr1  1  0.70110000  0.95110000  0.75000000  1
  Zn  Zn2  1  0.72814400  0.66498000  0.06316400  1
  Zn  Zn3  1  0.27185600  0.33502000  0.93683600  1
  Zn  Zn4  1  0.10181600  0.66498000  0.43683600  1
  Zn  Zn5  1  0.89818400  0.33502000  0.56316400  1
