# generated using pymatgen
data_CsAgCl2
_symmetry_space_group_name_H-M   'P 1'
_cell_length_a   5.13585400
_cell_length_b   5.13585400
_cell_length_c   10.00523100
_cell_angle_alpha   90.00000000
_cell_angle_beta   90.00000000
_cell_angle_gamma   90.00000000
_symmetry_Int_Tables_number   1
_chemical_formula_structural   CsAgCl2
_chemical_formula_sum   'Cs2 Ag2 Cl4'
_cell_volume   263.90794116
_cell_formula_units_Z   2
loop_
 _symmetry_equiv_pos_site_id
 _symmetry_equiv_pos_as_xyz
  1  'x, y, z'
loop_
 _atom_site_type_symbol
 _atom_site_label
 _atom_site_symmetry_multiplicity
 _atom_site_fract_x
 _atom_site_fract_y
 _atom_site_fract_z
 _atom_site_occupancy
  Cs  Cs0  1  0.50000000  0.00000000  0.70113300  1
  Cs  Cs1  1  0.00000000  0.50000000  0.29886700  1
  Ag  Ag2  1  0.00000000  0.50000000  0.90144400  1
  Ag  Ag3  1  0.50000000  0.00000000  0.09855600  1
  Cl  Cl4  1  0.00000000  0.50000000  0.64674400  1
  Cl  Cl5  1  0.50000000  0.00000000  0.35325600  1
  Cl  Cl6  1  0.50000000  0.50000000  0.00000000  1
  Cl  Cl7  1  0.00000000  0.00000000  0.00000000  1
