# generated using pymatgen
data_Pb13(Cl3O5)2
_symmetry_space_group_name_H-M   'P 1'
_cell_length_a   8.91626592
_cell_length_b   8.91626592
_cell_length_c   23.79500535
_cell_angle_alpha   82.75094823
_cell_angle_beta   82.75094823
_cell_angle_gamma   46.83216562
_symmetry_Int_Tables_number   1
_chemical_formula_structural   Pb13(Cl3O5)2
_chemical_formula_sum   'Pb26 Cl12 O20'
_cell_volume   1366.60910690
_cell_formula_units_Z   2
loop_
 _symmetry_equiv_pos_site_id
 _symmetry_equiv_pos_as_xyz
  1  'x, y, z'
loop_
 _atom_site_type_symbol
 _atom_site_label
 _atom_site_symmetry_multiplicity
 _atom_site_fract_x
 _atom_site_fract_y
 _atom_site_fract_z
 _atom_site_occupancy
  Pb  Pb0  1  0.67445000  0.11695400  0.79068000  1
  Pb  Pb1  1  0.61802600  0.73338100  0.84676200  1
  Pb  Pb2  1  0.00629200  0.15970100  0.86658600  1
  Pb  Pb3  1  0.84029900  0.99370800  0.63341400  1
  Pb  Pb4  1  0.94996300  0.77790900  0.91678900  1
  Pb  Pb5  1  0.11695400  0.67445000  0.29068000  1
  Pb  Pb6  1  0.29224300  0.80292700  0.98856300  1
  Pb  Pb7  1  0.16608300  0.36641100  0.43737100  1
  Pb  Pb8  1  0.99370800  0.84029900  0.13341400  1
  Pb  Pb9  1  0.23642300  0.76357700  0.75000000  1
  Pb  Pb10  1  0.80292700  0.29224300  0.48856300  1
  Pb  Pb11  1  0.77790900  0.94996300  0.41678900  1
  Pb  Pb12  1  0.83391700  0.63358900  0.56262900  1
  Pb  Pb13  1  0.36641100  0.16608300  0.93737100  1
  Pb  Pb14  1  0.15970100  0.00629200  0.36658600  1
  Pb  Pb15  1  0.63358900  0.83391700  0.06262900  1
  Pb  Pb16  1  0.32555000  0.88304600  0.20932000  1
  Pb  Pb17  1  0.88304600  0.32555000  0.70932000  1
  Pb  Pb18  1  0.19707300  0.70775700  0.51143700  1
  Pb  Pb19  1  0.73338100  0.61802600  0.34676200  1
  Pb  Pb20  1  0.70775700  0.19707300  0.01143700  1
  Pb  Pb21  1  0.22209100  0.05003700  0.58321100  1
  Pb  Pb22  1  0.05003700  0.22209100  0.08321100  1
  Pb  Pb23  1  0.26661900  0.38197400  0.65323800  1
  Pb  Pb24  1  0.38197400  0.26661900  0.15323800  1
  Pb  Pb25  1  0.76357700  0.23642300  0.25000000  1
  Cl  Cl26  1  0.49425000  0.18098500  0.54368400  1
  Cl  Cl27  1  0.00932700  0.35008500  0.25259800  1
  Cl  Cl28  1  0.42913500  0.50555400  0.36460200  1
  Cl  Cl29  1  0.49444600  0.57086500  0.13539800  1
  Cl  Cl30  1  0.35008500  0.00932700  0.75259800  1
  Cl  Cl31  1  0.57086500  0.49444600  0.63539800  1
  Cl  Cl32  1  0.50575000  0.81901500  0.45631600  1
  Cl  Cl33  1  0.64991500  0.99067300  0.24740200  1
  Cl  Cl34  1  0.50555400  0.42913500  0.86460200  1
  Cl  Cl35  1  0.99067300  0.64991500  0.74740200  1
  Cl  Cl36  1  0.18098500  0.49425000  0.04368400  1
  Cl  Cl37  1  0.81901500  0.50575000  0.95631600  1
  O  O38  1  0.98528900  0.96765100  0.81706900  1
  O  O39  1  0.98223500  0.67383600  0.48172600  1
  O  O40  1  0.00215700  0.01801300  0.55807200  1
  O  O41  1  0.95025400  0.33053000  0.40153400  1
  O  O42  1  0.96765100  0.98528900  0.31706900  1
  O  O43  1  0.99784300  0.98198700  0.44192800  1
  O  O44  1  0.03234900  0.01471100  0.68293100  1
  O  O45  1  0.32616400  0.01776500  0.01827400  1
  O  O46  1  0.33053000  0.95025400  0.90153400  1
  O  O47  1  0.01801300  0.00215700  0.05807200  1
  O  O48  1  0.66076700  0.94766600  0.86359700  1
  O  O49  1  0.94766600  0.66076700  0.36359700  1
  O  O50  1  0.67383600  0.98223500  0.98172600  1
  O  O51  1  0.05233400  0.33923300  0.63640300  1
  O  O52  1  0.98198700  0.99784300  0.94192800  1
  O  O53  1  0.66946900  0.04974600  0.09846600  1
  O  O54  1  0.01471100  0.03234900  0.18293100  1
  O  O55  1  0.04974600  0.66946900  0.59846600  1
  O  O56  1  0.33923300  0.05233400  0.13640300  1
  O  O57  1  0.01776500  0.32616400  0.51827400  1
