# generated using pymatgen
data_Y2WO6
_symmetry_space_group_name_H-M   'P 1'
_cell_length_a   5.41262700
_cell_length_b   7.72644300
_cell_length_c   11.51074932
_cell_angle_alpha   75.60118172
_cell_angle_beta   90.00000000
_cell_angle_gamma   90.00000000
_symmetry_Int_Tables_number   1
_chemical_formula_structural   Y2WO6
_chemical_formula_sum   'Y8 W4 O24'
_cell_volume   466.26252890
_cell_formula_units_Z   4
loop_
 _symmetry_equiv_pos_site_id
 _symmetry_equiv_pos_as_xyz
  1  'x, y, z'
loop_
 _atom_site_type_symbol
 _atom_site_label
 _atom_site_symmetry_multiplicity
 _atom_site_fract_x
 _atom_site_fract_y
 _atom_site_fract_z
 _atom_site_occupancy
  Y  Y0  1  0.18643900  0.79482400  0.07771500  1
  Y  Y1  1  0.26109100  0.00000000  0.75000000  1
  Y  Y2  1  0.73890900  0.00000000  0.25000000  1
  Y  Y3  1  0.31624500  0.50000000  0.75000000  1
  Y  Y4  1  0.18643900  0.20517600  0.42228500  1
  Y  Y5  1  0.68375500  0.50000000  0.25000000  1
  Y  Y6  1  0.81356100  0.20517600  0.92228500  1
  Y  Y7  1  0.81356100  0.79482400  0.57771500  1
  W  W8  1  0.74554300  0.72334700  0.88538300  1
  W  W9  1  0.25445700  0.72334700  0.38538300  1
  W  W10  1  0.74554300  0.27665300  0.61461700  1
  W  W11  1  0.25445700  0.27665300  0.11461700  1
  O  O12  1  0.84956700  0.36443400  0.45253200  1
  O  O13  1  0.47009300  0.84845600  0.93068500  1
  O  O14  1  0.84956700  0.63556600  0.04746800  1
  O  O15  1  0.01868600  0.29103400  0.72755600  1
  O  O16  1  0.98131400  0.29103400  0.22755600  1
  O  O17  1  0.15043300  0.36443400  0.95253200  1
  O  O18  1  0.63754400  0.49093300  0.88619000  1
  O  O19  1  0.52990700  0.15154400  0.06931500  1
  O  O20  1  0.15043300  0.63556600  0.54746800  1
  O  O21  1  0.01868600  0.70896600  0.77244400  1
  O  O22  1  0.45763100  0.21022500  0.27187200  1
  O  O23  1  0.04294600  0.93949800  0.39498600  1
  O  O24  1  0.47009300  0.15154400  0.56931500  1
  O  O25  1  0.98131400  0.70896600  0.27244400  1
  O  O26  1  0.95705400  0.06050200  0.60501400  1
  O  O27  1  0.54236900  0.21022500  0.77187200  1
  O  O28  1  0.54236900  0.78977500  0.72812800  1
  O  O29  1  0.04294600  0.06050200  0.10501400  1
  O  O30  1  0.63754400  0.50906700  0.61381000  1
  O  O31  1  0.36245600  0.50906700  0.11381000  1
  O  O32  1  0.45763100  0.78977500  0.22812800  1
  O  O33  1  0.36245600  0.49093300  0.38619000  1
  O  O34  1  0.52990700  0.84845600  0.43068500  1
  O  O35  1  0.95705400  0.93949800  0.89498600  1
