# generated using pymatgen
data_La7(RuO6)3
_symmetry_space_group_name_H-M   'P 1'
_cell_length_a   19.75908802
_cell_length_b   19.75908819
_cell_length_c   19.75908843
_cell_angle_alpha   29.05831891
_cell_angle_beta   29.05831802
_cell_angle_gamma   29.05831887
_symmetry_Int_Tables_number   1
_chemical_formula_structural   La7(RuO6)3
_chemical_formula_sum   'La28 Ru12 O72'
_cell_volume   1609.77693914
_cell_formula_units_Z   4
loop_
 _symmetry_equiv_pos_site_id
 _symmetry_equiv_pos_as_xyz
  1  'x, y, z'
loop_
 _atom_site_type_symbol
 _atom_site_label
 _atom_site_symmetry_multiplicity
 _atom_site_fract_x
 _atom_site_fract_y
 _atom_site_fract_z
 _atom_site_occupancy
  La  La0  1  0.99426003  0.43571058  0.72169773  1
  La  La1  1  0.39657767  0.39657767  0.39657767  1
  La  La2  1  0.56428942  0.27830227  0.00573997  1
  La  La3  1  0.06428942  0.50573997  0.77830227  1
  La  La4  1  0.55134742  0.81349376  0.19787600  1
  La  La5  1  0.80212400  0.44865258  0.18650624  1
  La  La6  1  0.94865258  0.30212400  0.68650624  1
  La  La7  1  0.27830227  0.00573997  0.56428942  1
  La  La8  1  0.10342233  0.10342233  0.10342233  1
  La  La9  1  0.89657767  0.89657767  0.89657767  1
  La  La10  1  0.77830227  0.06428942  0.50573997  1
  La  La11  1  0.69787600  0.31349376  0.05134742  1
  La  La12  1  0.44865258  0.18650624  0.80212400  1
  La  La13  1  0.18650624  0.80212400  0.44865258  1
  La  La14  1  0.31349376  0.05134742  0.69787600  1
  La  La15  1  0.19787600  0.55134742  0.81349376  1
  La  La16  1  0.43571058  0.72169773  0.99426003  1
  La  La17  1  0.22169773  0.93571058  0.49426003  1
  La  La18  1  0.30212400  0.68650624  0.94865258  1
  La  La19  1  0.68650624  0.94865258  0.30212400  1
  La  La20  1  0.93571058  0.49426003  0.22169773  1
  La  La21  1  0.60342233  0.60342233  0.60342233  1
  La  La22  1  0.05134742  0.69787600  0.31349376  1
  La  La23  1  0.49426003  0.22169773  0.93571058  1
  La  La24  1  0.50573997  0.77830227  0.06428942  1
  La  La25  1  0.81349376  0.19787600  0.55134742  1
  La  La26  1  0.00573997  0.56428942  0.27830227  1
  La  La27  1  0.72169773  0.99426003  0.43571058  1
  Ru  Ru28  1  0.08006140  0.75000000  0.41993860  1
  Ru  Ru29  1  0.41993860  0.08006140  0.75000000  1
  Ru  Ru30  1  0.25000000  0.58006140  0.91993860  1
  Ru  Ru31  1  0.16143155  0.16143155  0.16143155  1
  Ru  Ru32  1  0.75000000  0.41993860  0.08006140  1
  Ru  Ru33  1  0.58006140  0.91993860  0.25000000  1
  Ru  Ru34  1  0.50000000  0.50000000  0.50000000  1
  Ru  Ru35  1  0.66143155  0.66143155  0.66143155  1
  Ru  Ru36  1  0.91993860  0.25000000  0.58006140  1
  Ru  Ru37  1  0.33856845  0.33856845  0.33856845  1
  Ru  Ru38  1  0.00000000  0.00000000  0.00000000  1
  Ru  Ru39  1  0.83856845  0.83856845  0.83856845  1
  O  O40  1  0.79165778  0.29877163  0.73299308  1
  O  O41  1  0.07504472  0.32701599  0.01724051  1
  O  O42  1  0.21943398  0.42696752  0.02073976  1
  O  O43  1  0.66907350  0.06143047  0.02104410  1
  O  O44  1  0.78056602  0.57303248  0.97926024  1
  O  O45  1  0.70834222  0.76700692  0.20122837  1
  O  O46  1  0.19567163  0.51438603  0.25444702  1
  O  O47  1  0.71943398  0.52073976  0.92696752  1
  O  O48  1  0.28056602  0.47926024  0.07303248  1
  O  O49  1  0.83092650  0.47895590  0.43856953  1
  O  O50  1  0.29165778  0.23299308  0.79877163  1
  O  O51  1  0.33092650  0.93856953  0.97895590  1
  O  O52  1  0.57303248  0.97926024  0.78056602  1
  O  O53  1  0.92696752  0.71943398  0.52073976  1
  O  O54  1  0.29877163  0.73299308  0.79165778  1
  O  O55  1  0.80432837  0.48561397  0.74555298  1
  O  O56  1  0.43856953  0.83092650  0.47895590  1
  O  O57  1  0.74555298  0.80432837  0.48561397  1
  O  O58  1  0.76700692  0.20122837  0.70834222  1
  O  O59  1  0.01869041  0.18779366  0.85137816  1
  O  O60  1  0.51724051  0.82701599  0.57504472  1
  O  O61  1  0.47895590  0.43856953  0.83092650  1
  O  O62  1  0.01724051  0.07504472  0.32701599  1
  O  O63  1  0.02073976  0.21943398  0.42696752  1
  O  O64  1  0.20122837  0.70834222  0.76700692  1
  O  O65  1  0.92495528  0.67298401  0.98275949  1
  O  O66  1  0.24555298  0.98561397  0.30432837  1
  O  O67  1  0.32701599  0.01724051  0.07504472  1
  O  O68  1  0.26700692  0.20834222  0.70122837  1
  O  O69  1  0.85137816  0.01869041  0.18779366  1
  O  O70  1  0.97895590  0.33092650  0.93856953  1
  O  O71  1  0.82701599  0.57504472  0.51724051  1
  O  O72  1  0.48275949  0.17298401  0.42495528  1
  O  O73  1  0.67298401  0.98275949  0.92495528  1
  O  O74  1  0.52104410  0.56143047  0.16907350  1
  O  O75  1  0.07303248  0.28056602  0.47926024  1
  O  O76  1  0.20834222  0.70122837  0.26700692  1
  O  O77  1  0.23299308  0.79877163  0.29165778  1
  O  O78  1  0.70122837  0.26700692  0.20834222  1
  O  O79  1  0.18779366  0.85137816  0.01869041  1
  O  O80  1  0.17298401  0.42495528  0.48275949  1
  O  O81  1  0.14862184  0.98130959  0.81220634  1
  O  O82  1  0.42696752  0.02073976  0.21943398  1
  O  O83  1  0.98561397  0.30432837  0.24555298  1
  O  O84  1  0.42495528  0.48275949  0.17298401  1
  O  O85  1  0.69567163  0.75444702  0.01438603  1
  O  O86  1  0.79877163  0.29165778  0.23299308  1
  O  O87  1  0.16907350  0.52104410  0.56143047  1
  O  O88  1  0.48130959  0.64862184  0.31220634  1
  O  O89  1  0.51869041  0.35137816  0.68779366  1
  O  O90  1  0.52073976  0.92696752  0.71943398  1
  O  O91  1  0.06143047  0.02104410  0.66907350  1
  O  O92  1  0.25444702  0.19567163  0.51438603  1
  O  O93  1  0.02104410  0.66907350  0.06143047  1
  O  O94  1  0.97926024  0.78056602  0.57303248  1
  O  O95  1  0.51438603  0.25444702  0.19567163  1
  O  O96  1  0.93856953  0.97895590  0.33092650  1
  O  O97  1  0.30432837  0.24555298  0.98561397  1
  O  O98  1  0.98275949  0.92495528  0.67298401  1
  O  O99  1  0.64862184  0.31220634  0.48130959  1
  O  O100  1  0.56143047  0.16907350  0.52104410  1
  O  O101  1  0.35137816  0.68779366  0.51869041  1
  O  O102  1  0.47926024  0.07303248  0.28056602  1
  O  O103  1  0.01438603  0.69567163  0.75444702  1
  O  O104  1  0.81220634  0.14862184  0.98130959  1
  O  O105  1  0.48561397  0.74555298  0.80432837  1
  O  O106  1  0.31220634  0.48130959  0.64862184  1
  O  O107  1  0.73299308  0.79165778  0.29877163  1
  O  O108  1  0.75444702  0.01438603  0.69567163  1
  O  O109  1  0.98130959  0.81220634  0.14862184  1
  O  O110  1  0.68779366  0.51869041  0.35137816  1
  O  O111  1  0.57504472  0.51724051  0.82701599  1
