# generated using pymatgen
data_HgINO3
_symmetry_space_group_name_H-M   'P 1'
_cell_length_a   5.48516500
_cell_length_b   7.62655500
_cell_length_c   12.94684900
_cell_angle_alpha   90.00000000
_cell_angle_beta   90.00000000
_cell_angle_gamma   90.00000000
_symmetry_Int_Tables_number   1
_chemical_formula_structural   HgINO3
_chemical_formula_sum   'Hg4 I4 N4 O12'
_cell_volume   541.60440210
_cell_formula_units_Z   4
loop_
 _symmetry_equiv_pos_site_id
 _symmetry_equiv_pos_as_xyz
  1  'x, y, z'
loop_
 _atom_site_type_symbol
 _atom_site_label
 _atom_site_symmetry_multiplicity
 _atom_site_fract_x
 _atom_site_fract_y
 _atom_site_fract_z
 _atom_site_occupancy
  Hg  Hg0  1  0.75000000  0.07777600  0.78640300  1
  Hg  Hg1  1  0.25000000  0.42222400  0.28640300  1
  Hg  Hg2  1  0.25000000  0.92222400  0.21359700  1
  Hg  Hg3  1  0.75000000  0.57777600  0.71359700  1
  I  I4  1  0.75000000  0.38691400  0.89340800  1
  I  I5  1  0.25000000  0.11308600  0.39340800  1
  I  I6  1  0.75000000  0.88691400  0.60659200  1
  I  I7  1  0.25000000  0.61308600  0.10659200  1
  N  N8  1  0.25000000  0.93754300  0.85665100  1
  N  N9  1  0.25000000  0.43754300  0.64334900  1
  N  N10  1  0.75000000  0.56245700  0.35665100  1
  N  N11  1  0.75000000  0.06245700  0.14334900  1
  O  O12  1  0.04904200  0.87249700  0.88681400  1
  O  O13  1  0.54904200  0.12750300  0.11318600  1
  O  O14  1  0.95095800  0.62750300  0.38681400  1
  O  O15  1  0.75000000  0.93114800  0.20426100  1
  O  O16  1  0.45095800  0.37249700  0.61318600  1
  O  O17  1  0.95095800  0.12750300  0.11318600  1
  O  O18  1  0.54904200  0.62750300  0.38681400  1
  O  O19  1  0.25000000  0.56885200  0.70426100  1
  O  O20  1  0.04904200  0.37249700  0.61318600  1
  O  O21  1  0.45095800  0.87249700  0.88681400  1
  O  O22  1  0.75000000  0.43114800  0.29573900  1
  O  O23  1  0.25000000  0.06885200  0.79573900  1
