# generated using pymatgen
data_BaSi6N8O
_symmetry_space_group_name_H-M   'P 1'
_cell_length_a   6.82911417
_cell_length_b   6.82911417
_cell_length_c   6.82911417
_cell_angle_alpha   138.21066050
_cell_angle_beta   106.49901585
_cell_angle_gamma   88.30386151
_symmetry_Int_Tables_number   1
_chemical_formula_structural   BaSi6N8O
_chemical_formula_sum   'Ba1 Si6 N8 O1'
_cell_volume   195.05520832
_cell_formula_units_Z   1
loop_
 _symmetry_equiv_pos_site_id
 _symmetry_equiv_pos_as_xyz
  1  'x, y, z'
loop_
 _atom_site_type_symbol
 _atom_site_label
 _atom_site_symmetry_multiplicity
 _atom_site_fract_x
 _atom_site_fract_y
 _atom_site_fract_z
 _atom_site_occupancy
  Ba  Ba0  1  0.50000000  0.49654300  0.99654300  1
  Si  Si1  1  0.35524500  0.17980400  0.21757900  1
  Si  Si2  1  0.16071100  0.68558100  0.52487000  1
  Si  Si3  1  0.96222500  0.17980400  0.82455900  1
  Si  Si4  1  0.83928900  0.36415800  0.52487000  1
  Si  Si5  1  0.03777500  0.86233400  0.21757900  1
  Si  Si6  1  0.64475500  0.86233400  0.82455900  1
  N  N7  1  0.27406500  0.05229000  0.32635500  1
  N  N8  1  0.04610700  0.90334900  0.50630000  1
  N  N9  1  0.72593500  0.05229000  0.77822500  1
  N  N10  1  0.81294800  0.98772700  0.17477900  1
  N  N11  1  0.39704800  0.90334900  0.85724100  1
  N  N12  1  0.18705200  0.36183100  0.17477900  1
  N  N13  1  0.60295200  0.46019300  0.50630000  1
  N  N14  1  0.95389300  0.46019300  0.85724100  1
  O  O15  1  0.00000000  0.61172300  0.61172300  1
