# generated using pymatgen
data_BaSc3AgS6
_symmetry_space_group_name_H-M   'P 1'
_cell_length_a   11.02160200
_cell_length_b   11.23221000
_cell_length_c   16.32738700
_cell_angle_alpha   90.00000000
_cell_angle_beta   90.00000000
_cell_angle_gamma   90.00000000
_symmetry_Int_Tables_number   1
_chemical_formula_structural   BaSc3AgS6
_chemical_formula_sum   'Ba8 Sc24 Ag8 S48'
_cell_volume   2021.28068269
_cell_formula_units_Z   8
loop_
 _symmetry_equiv_pos_site_id
 _symmetry_equiv_pos_as_xyz
  1  'x, y, z'
loop_
 _atom_site_type_symbol
 _atom_site_label
 _atom_site_symmetry_multiplicity
 _atom_site_fract_x
 _atom_site_fract_y
 _atom_site_fract_z
 _atom_site_occupancy
  Ba  Ba0  1  0.73418400  0.94426000  0.79633900  1
  Ba  Ba1  1  0.76581600  0.55574000  0.29633900  1
  Ba  Ba2  1  0.76581600  0.94426000  0.29633900  1
  Ba  Ba3  1  0.23418400  0.44426000  0.70366100  1
  Ba  Ba4  1  0.73418400  0.55574000  0.79633900  1
  Ba  Ba5  1  0.26581600  0.44426000  0.20366100  1
  Ba  Ba6  1  0.26581600  0.05574000  0.20366100  1
  Ba  Ba7  1  0.23418400  0.05574000  0.70366100  1
  Sc  Sc8  1  0.92171500  0.08561600  0.58626200  1
  Sc  Sc9  1  0.86057200  0.25000000  0.02493800  1
  Sc  Sc10  1  0.57828500  0.08561600  0.08626200  1
  Sc  Sc11  1  0.07828500  0.91438400  0.41373800  1
  Sc  Sc12  1  0.14110500  0.41671500  0.96575500  1
  Sc  Sc13  1  0.07828500  0.58561600  0.41373800  1
  Sc  Sc14  1  0.35889500  0.41671500  0.46575500  1
  Sc  Sc15  1  0.57828500  0.41438400  0.08626200  1
  Sc  Sc16  1  0.63942800  0.25000000  0.52493800  1
  Sc  Sc17  1  0.64110500  0.91671500  0.53424500  1
  Sc  Sc18  1  0.85889500  0.91671500  0.03424500  1
  Sc  Sc19  1  0.36057200  0.75000000  0.47506200  1
  Sc  Sc20  1  0.93012400  0.75000000  0.59314600  1
  Sc  Sc21  1  0.42171500  0.58561600  0.91373800  1
  Sc  Sc22  1  0.13942800  0.75000000  0.97506200  1
  Sc  Sc23  1  0.06987600  0.25000000  0.40685400  1
  Sc  Sc24  1  0.85889500  0.58328500  0.03424500  1
  Sc  Sc25  1  0.43012400  0.25000000  0.90685400  1
  Sc  Sc26  1  0.92171500  0.41438400  0.58626200  1
  Sc  Sc27  1  0.56987600  0.75000000  0.09314600  1
  Sc  Sc28  1  0.14110500  0.08328500  0.96575500  1
  Sc  Sc29  1  0.64110500  0.58328500  0.53424500  1
  Sc  Sc30  1  0.35889500  0.08328500  0.46575500  1
  Sc  Sc31  1  0.42171500  0.91438400  0.91373800  1
  Ag  Ag32  1  0.95681600  0.25000000  0.21174200  1
  Ag  Ag33  1  0.04920900  0.75000000  0.17681700  1
  Ag  Ag34  1  0.95079200  0.25000000  0.82318300  1
  Ag  Ag35  1  0.45079200  0.75000000  0.67681700  1
  Ag  Ag36  1  0.04318400  0.75000000  0.78825800  1
  Ag  Ag37  1  0.45681600  0.75000000  0.28825800  1
  Ag  Ag38  1  0.54920800  0.25000000  0.32318300  1
  Ag  Ag39  1  0.54318400  0.25000000  0.71174200  1
  S  S40  1  0.36487300  0.08374700  0.01447800  1
  S  S41  1  0.59075900  0.75000000  0.42734600  1
  S  S42  1  0.13512700  0.41625300  0.51447800  1
  S  S43  1  0.29645900  0.25000000  0.36291200  1
  S  S44  1  0.40924100  0.25000000  0.57265400  1
  S  S45  1  0.20354100  0.25000000  0.86291200  1
  S  S46  1  0.02090400  0.07809100  0.31062700  1
  S  S47  1  0.08576200  0.57865400  0.07532200  1
  S  S48  1  0.36344400  0.75000000  0.01913600  1
  S  S49  1  0.80108700  0.41181400  0.13107600  1
  S  S50  1  0.91423800  0.07865400  0.92467800  1
  S  S51  1  0.63512700  0.91625300  0.98552200  1
  S  S52  1  0.63655600  0.25000000  0.98086400  1
  S  S53  1  0.41423800  0.92134600  0.57532200  1
  S  S54  1  0.51009200  0.75000000  0.82111700  1
  S  S55  1  0.08576200  0.92134600  0.07532200  1
  S  S56  1  0.97909600  0.92190900  0.68937300  1
  S  S57  1  0.86487300  0.91625300  0.48552200  1
  S  S58  1  0.98990800  0.75000000  0.32111700  1
  S  S59  1  0.19891300  0.58818600  0.86892400  1
  S  S60  1  0.47909600  0.07809100  0.81062700  1
  S  S61  1  0.47909600  0.42190900  0.81062700  1
  S  S62  1  0.30108700  0.58818600  0.36892400  1
  S  S63  1  0.86344400  0.25000000  0.48086400  1
  S  S64  1  0.48990800  0.25000000  0.17888300  1
  S  S65  1  0.13512700  0.08374700  0.51447800  1
  S  S66  1  0.63512700  0.58374700  0.98552200  1
  S  S67  1  0.80108700  0.08818600  0.13107600  1
  S  S68  1  0.58576200  0.42134600  0.42467800  1
  S  S69  1  0.86487300  0.58374700  0.48552200  1
  S  S70  1  0.13655600  0.75000000  0.51913600  1
  S  S71  1  0.69891300  0.41181400  0.63107600  1
  S  S72  1  0.01009200  0.25000000  0.67888300  1
  S  S73  1  0.90924100  0.75000000  0.92734600  1
  S  S74  1  0.52090400  0.92190900  0.18937300  1
  S  S75  1  0.58576200  0.07865400  0.42467800  1
  S  S76  1  0.36487300  0.41625300  0.01447800  1
  S  S77  1  0.09075900  0.25000000  0.07265400  1
  S  S78  1  0.79645900  0.75000000  0.13708800  1
  S  S79  1  0.30108700  0.91181400  0.36892400  1
  S  S80  1  0.19891300  0.91181400  0.86892400  1
  S  S81  1  0.52090400  0.57809100  0.18937300  1
  S  S82  1  0.97909600  0.57809100  0.68937300  1
  S  S83  1  0.91423800  0.42134600  0.92467800  1
  S  S84  1  0.41423800  0.57865400  0.57532200  1
  S  S85  1  0.70354100  0.75000000  0.63708800  1
  S  S86  1  0.02090400  0.42190900  0.31062700  1
  S  S87  1  0.69891300  0.08818600  0.63107600  1
