# generated using pymatgen
data_NaLaH2S2O9
_symmetry_space_group_name_H-M   'P 1'
_cell_length_a   7.14952228
_cell_length_b   7.14952228
_cell_length_c   13.05880000
_cell_angle_alpha   90.00000000
_cell_angle_beta   90.00000000
_cell_angle_gamma   120.00000259
_symmetry_Int_Tables_number   1
_chemical_formula_structural   NaLaH2S2O9
_chemical_formula_sum   'Na3 La3 H6 S6 O27'
_cell_volume   578.07999261
_cell_formula_units_Z   3
loop_
 _symmetry_equiv_pos_site_id
 _symmetry_equiv_pos_as_xyz
  1  'x, y, z'
loop_
 _atom_site_type_symbol
 _atom_site_label
 _atom_site_symmetry_multiplicity
 _atom_site_fract_x
 _atom_site_fract_y
 _atom_site_fract_z
 _atom_site_occupancy
  Na  Na0  1  0.52783400  0.52783400  0.50000000  1
  Na  Na1  1  0.47216600  0.00000000  0.83333300  1
  Na  Na2  1  0.00000000  0.47216600  0.16666700  1
  La  La3  1  0.56430800  0.56430800  0.00000000  1
  La  La4  1  0.00000000  0.43569200  0.66666700  1
  La  La5  1  0.43569200  0.00000000  0.33333300  1
  H  H6  1  0.04678500  0.09588200  0.37229900  1
  H  H7  1  0.04909700  0.95321500  0.03896600  1
  H  H8  1  0.95090300  0.90411800  0.29436800  1
  H  H9  1  0.95321500  0.04909700  0.96103400  1
  H  H10  1  0.09588200  0.04678500  0.62770100  1
  H  H11  1  0.90411800  0.95090300  0.70563200  1
  S  S12  1  0.45279400  0.01217900  0.08732400  1
  S  S13  1  0.98782100  0.44061500  0.42065800  1
  S  S14  1  0.54720600  0.55938500  0.24600900  1
  S  S15  1  0.55938500  0.54720600  0.75399100  1
  S  S16  1  0.44061500  0.98782100  0.57934200  1
  S  S17  1  0.01217900  0.45279400  0.91267600  1
  O  O18  1  0.88000500  0.49588500  0.98621000  1
  O  O19  1  0.87275000  0.25973200  0.84739200  1
  O  O20  1  0.13125000  0.63702000  0.84030800  1
  O  O21  1  0.74026800  0.61301800  0.18072500  1
  O  O22  1  0.83664300  0.24643400  0.36023200  1
  O  O23  1  0.38698200  0.12725000  0.51405800  1
  O  O24  1  0.12725000  0.38698200  0.48594200  1
  O  O25  1  0.36298000  0.49423000  0.17364200  1
  O  O26  1  0.75356600  0.59020900  0.69356600  1
  O  O27  1  0.50577000  0.86875000  0.50697500  1
  O  O28  1  0.16335700  0.40979100  0.97310100  1
  O  O29  1  0.59020900  0.75356600  0.30643400  1
  O  O30  1  0.00000000  0.08072500  0.66666700  1
  O  O31  1  0.38412000  0.50411500  0.68045700  1
  O  O32  1  0.11999500  0.61588000  0.34712400  1
  O  O33  1  0.50411500  0.38412000  0.31954300  1
  O  O34  1  0.24643400  0.83664300  0.63976800  1
  O  O35  1  0.08072500  0.00000000  0.33333300  1
  O  O36  1  0.49423000  0.36298000  0.82635800  1
  O  O37  1  0.86875000  0.50577000  0.49302500  1
  O  O38  1  0.91927500  0.91927500  0.00000000  1
  O  O39  1  0.49588500  0.88000500  0.01379000  1
  O  O40  1  0.61301800  0.74026800  0.81927500  1
  O  O41  1  0.25973200  0.87275000  0.15260800  1
  O  O42  1  0.40979100  0.16335700  0.02689900  1
  O  O43  1  0.61588000  0.11999500  0.65287600  1
  O  O44  1  0.63702000  0.13125000  0.15969200  1
