# generated using pymatgen
data_Sb8Cl2O11
_symmetry_space_group_name_H-M   'P 1'
_cell_length_a   10.69974200
_cell_length_b   11.55225413
_cell_length_c   14.24612079
_cell_angle_alpha   78.35051260
_cell_angle_beta   76.41378263
_cell_angle_gamma   72.83365363
_symmetry_Int_Tables_number   1
_chemical_formula_structural   Sb8Cl2O11
_chemical_formula_sum   'Sb32 Cl8 O44'
_cell_volume   1618.63068910
_cell_formula_units_Z   4
loop_
 _symmetry_equiv_pos_site_id
 _symmetry_equiv_pos_as_xyz
  1  'x, y, z'
loop_
 _atom_site_type_symbol
 _atom_site_label
 _atom_site_symmetry_multiplicity
 _atom_site_fract_x
 _atom_site_fract_y
 _atom_site_fract_z
 _atom_site_occupancy
  Sb  Sb0  1  0.36238900  0.88845700  0.72929700  1
  Sb  Sb1  1  0.29661000  0.62717800  0.39143600  1
  Sb  Sb2  1  0.99317100  0.37933700  0.81284000  1
  Sb  Sb3  1  0.30947400  0.86054000  0.13449400  1
  Sb  Sb4  1  0.83976500  0.85033100  0.68330700  1
  Sb  Sb5  1  0.30948700  0.12697500  0.85994900  1
  Sb  Sb6  1  0.27587800  0.37690700  0.63868000  1
  Sb  Sb7  1  0.36934600  0.65028700  0.97432500  1
  Sb  Sb8  1  0.01837900  0.61361700  0.55831500  1
  Sb  Sb9  1  0.69052600  0.13946000  0.86550600  1
  Sb  Sb10  1  0.17529000  0.91159300  0.55852400  1
  Sb  Sb11  1  0.84179400  0.57900000  0.96846700  1
  Sb  Sb12  1  0.15820600  0.42100000  0.03153300  1
  Sb  Sb13  1  0.01151400  0.10070800  0.06811200  1
  Sb  Sb14  1  0.96857700  0.14899200  0.68930300  1
  Sb  Sb15  1  0.66039400  0.85703800  0.50543100  1
  Sb  Sb16  1  0.66512600  0.59760600  0.75384500  1
  Sb  Sb17  1  0.00682900  0.62066300  0.18716000  1
  Sb  Sb18  1  0.98848600  0.89929200  0.93188800  1
  Sb  Sb19  1  0.33960600  0.14296200  0.49456900  1
  Sb  Sb20  1  0.69051300  0.87302500  0.14005100  1
  Sb  Sb21  1  0.70339000  0.37282200  0.60856400  1
  Sb  Sb22  1  0.63065400  0.34971300  0.02567500  1
  Sb  Sb23  1  0.98162100  0.38638300  0.44168500  1
  Sb  Sb24  1  0.18790200  0.66623900  0.79795200  1
  Sb  Sb25  1  0.72412200  0.62309300  0.36132000  1
  Sb  Sb26  1  0.03142300  0.85100800  0.31069700  1
  Sb  Sb27  1  0.33487400  0.40239400  0.24615500  1
  Sb  Sb28  1  0.82471000  0.08840700  0.44147600  1
  Sb  Sb29  1  0.81209800  0.33376100  0.20204800  1
  Sb  Sb30  1  0.63761100  0.11154300  0.27070300  1
  Sb  Sb31  1  0.16023500  0.14966900  0.31669300  1
  Cl  Cl32  1  0.53008100  0.81617900  0.91299400  1
  Cl  Cl33  1  0.49201300  0.89436400  0.35103100  1
  Cl  Cl34  1  0.50798700  0.10563600  0.64896900  1
  Cl  Cl35  1  0.49936300  0.63843300  0.16796900  1
  Cl  Cl36  1  0.49114900  0.36952200  0.40306200  1
  Cl  Cl37  1  0.50063700  0.36156700  0.83203100  1
  Cl  Cl38  1  0.46991900  0.18382100  0.08700600  1
  Cl  Cl39  1  0.50885100  0.63047800  0.59693800  1
  O  O40  1  0.21516600  0.27077000  0.57215500  1
  O  O41  1  0.99041800  0.23960300  0.14080200  1
  O  O42  1  0.78792000  0.17300200  0.29900500  1
  O  O43  1  0.23848900  0.01272400  0.81025900  1
  O  O44  1  0.76151100  0.98727600  0.18974100  1
  O  O45  1  0.22252400  0.53559500  0.32244600  1
  O  O46  1  0.18478300  0.09363500  0.45688200  1
  O  O47  1  0.98200100  0.26401200  0.35778800  1
  O  O48  1  0.21689300  0.57293600  0.96345000  1
  O  O49  1  0.82685700  0.86273200  0.01792700  1
  O  O50  1  0.77747600  0.46440500  0.67755400  1
  O  O51  1  0.79561400  0.71821000  0.21051800  1
  O  O52  1  0.90214400  0.27224800  0.56822700  1
  O  O53  1  0.00958200  0.76039700  0.85919800  1
  O  O54  1  0.97396900  0.52852800  0.08892000  1
  O  O55  1  0.78310700  0.42706400  0.03655000  1
  O  O56  1  0.00913300  0.99648700  0.37850300  1
  O  O57  1  0.78483400  0.72923000  0.42784500  1
  O  O58  1  0.92175200  0.53168500  0.31163200  1
  O  O59  1  0.25695600  0.27179800  0.33500300  1
  O  O60  1  0.76710100  0.20260700  0.72691800  1
  O  O61  1  0.74304400  0.72820200  0.66499700  1
  O  O62  1  0.69500400  0.25734500  0.14970500  1
  O  O63  1  0.10999400  0.97101700  0.16121800  1
  O  O64  1  0.24330900  0.76733100  0.06052000  1
  O  O65  1  0.23289900  0.79739300  0.27308200  1
  O  O66  1  0.09785600  0.72775200  0.43177300  1
  O  O67  1  0.20438600  0.28179000  0.78948200  1
  O  O68  1  0.78147600  0.46069500  0.46783000  1
  O  O69  1  0.99086700  0.00351300  0.62149700  1
  O  O70  1  0.21208000  0.82699800  0.70099500  1
  O  O71  1  0.30499600  0.74265500  0.85029500  1
  O  O72  1  0.07824800  0.46831500  0.68836800  1
  O  O73  1  0.18111700  0.45511700  0.16807200  1
  O  O74  1  0.75669100  0.23266900  0.93948000  1
  O  O75  1  0.81521700  0.90636500  0.54311800  1
  O  O76  1  0.81888300  0.54488300  0.83192800  1
  O  O77  1  0.70860100  0.99982500  0.40004700  1
  O  O78  1  0.29139900  0.00017500  0.59995300  1
  O  O79  1  0.01799900  0.73598800  0.64221200  1
  O  O80  1  0.02603100  0.47147200  0.91108000  1
  O  O81  1  0.17314300  0.13726800  0.98207300  1
  O  O82  1  0.21852400  0.53930500  0.53217000  1
  O  O83  1  0.89000600  0.02898300  0.83878200  1
