# generated using pymatgen
data_In2(SO4)3
_symmetry_space_group_name_H-M   'P 1'
_cell_length_a   9.26271177
_cell_length_b   9.26271177
_cell_length_c   9.26271194
_cell_angle_alpha   55.18624893
_cell_angle_beta   55.18624893
_cell_angle_gamma   55.18625506
_symmetry_Int_Tables_number   1
_chemical_formula_structural   In2(SO4)3
_chemical_formula_sum   'In4 S6 O24'
_cell_volume   499.06125162
_cell_formula_units_Z   2
loop_
 _symmetry_equiv_pos_site_id
 _symmetry_equiv_pos_as_xyz
  1  'x, y, z'
loop_
 _atom_site_type_symbol
 _atom_site_label
 _atom_site_symmetry_multiplicity
 _atom_site_fract_x
 _atom_site_fract_y
 _atom_site_fract_z
 _atom_site_occupancy
  In  In0  1  0.85544200  0.85544200  0.85544200  1
  In  In1  1  0.14455800  0.14455800  0.14455800  1
  In  In2  1  0.65130700  0.65130700  0.65130700  1
  In  In3  1  0.34869300  0.34869300  0.34869300  1
  S  S4  1  0.54368700  0.24880000  0.95851600  1
  S  S5  1  0.95851600  0.54368700  0.24880000  1
  S  S6  1  0.24880000  0.95851600  0.54368700  1
  S  S7  1  0.45631300  0.75120000  0.04148400  1
  S  S8  1  0.04148400  0.45631300  0.75120000  1
  S  S9  1  0.75120000  0.04148400  0.45631300  1
  O  O10  1  0.40183000  0.20229900  0.98056600  1
  O  O11  1  0.98056600  0.40183000  0.20229900  1
  O  O12  1  0.20229900  0.98056600  0.40183000  1
  O  O13  1  0.59817000  0.79770100  0.01943400  1
  O  O14  1  0.01943400  0.59817000  0.79770100  1
  O  O15  1  0.79770100  0.01943400  0.59817000  1
  O  O16  1  0.52901200  0.21034200  0.14502600  1
  O  O17  1  0.14502600  0.52901200  0.21034200  1
  O  O18  1  0.21034200  0.14502600  0.52901200  1
  O  O19  1  0.47098800  0.78965800  0.85497400  1
  O  O20  1  0.85497400  0.47098800  0.78965800  1
  O  O21  1  0.78965800  0.85497400  0.47098800  1
  O  O22  1  0.73641300  0.13038800  0.86697500  1
  O  O23  1  0.86697500  0.73641300  0.13038800  1
  O  O24  1  0.13038800  0.86697500  0.73641300  1
  O  O25  1  0.26358700  0.86961200  0.13302500  1
  O  O26  1  0.13302500  0.26358700  0.86961200  1
  O  O27  1  0.86961200  0.13302500  0.26358700  1
  O  O28  1  0.51123000  0.45111000  0.83629000  1
  O  O29  1  0.83629000  0.51123000  0.45111000  1
  O  O30  1  0.45111000  0.83629000  0.51123000  1
  O  O31  1  0.48877000  0.54889000  0.16371000  1
  O  O32  1  0.16371000  0.48877000  0.54889000  1
  O  O33  1  0.54889000  0.16371000  0.48877000  1
