# generated using pymatgen
data_BaBi2(B2O5)2
_symmetry_space_group_name_H-M   'P 1'
_cell_length_a   6.48026700
_cell_length_b   10.27732200
_cell_length_c   12.60511197
_cell_angle_alpha   76.89781172
_cell_angle_beta   90.00000000
_cell_angle_gamma   90.00000000
_symmetry_Int_Tables_number   1
_chemical_formula_structural   BaBi2(B2O5)2
_chemical_formula_sum   'Ba4 Bi8 B16 O40'
_cell_volume   817.64343146
_cell_formula_units_Z   4
loop_
 _symmetry_equiv_pos_site_id
 _symmetry_equiv_pos_as_xyz
  1  'x, y, z'
loop_
 _atom_site_type_symbol
 _atom_site_label
 _atom_site_symmetry_multiplicity
 _atom_site_fract_x
 _atom_site_fract_y
 _atom_site_fract_z
 _atom_site_occupancy
  Ba  Ba0  1  0.40614500  0.87207700  0.37708200  1
  Ba  Ba1  1  0.09385500  0.87207700  0.87708200  1
  Ba  Ba2  1  0.59385500  0.12792300  0.62291800  1
  Ba  Ba3  1  0.90614500  0.12792300  0.12291800  1
  Bi  Bi4  1  0.85010100  0.72778400  0.62858300  1
  Bi  Bi5  1  0.32590500  0.51745400  0.61793700  1
  Bi  Bi6  1  0.14989900  0.27221600  0.37141700  1
  Bi  Bi7  1  0.17409500  0.51745400  0.11793700  1
  Bi  Bi8  1  0.64989900  0.72778400  0.12858300  1
  Bi  Bi9  1  0.67409500  0.48254600  0.38206300  1
  Bi  Bi10  1  0.82590500  0.48254600  0.88206300  1
  Bi  Bi11  1  0.35010100  0.27221600  0.87141700  1
  B  B12  1  0.08506100  0.21638000  0.67192700  1
  B  B13  1  0.79824400  0.38811600  0.66893200  1
  B  B14  1  0.87220000  0.19717900  0.84062000  1
  B  B15  1  0.62780000  0.19717900  0.34062000  1
  B  B16  1  0.11046400  0.99382400  0.60440200  1
  B  B17  1  0.41493900  0.21638000  0.17192700  1
  B  B18  1  0.58506100  0.78362000  0.82807300  1
  B  B19  1  0.70175600  0.38811600  0.16893200  1
  B  B20  1  0.91493900  0.78362000  0.32807300  1
  B  B21  1  0.20175600  0.61188400  0.33106800  1
  B  B22  1  0.29824400  0.61188400  0.83106800  1
  B  B23  1  0.12780000  0.80282100  0.15938000  1
  B  B24  1  0.38953600  0.99382400  0.10440200  1
  B  B25  1  0.88953600  0.00617600  0.39559800  1
  B  B26  1  0.61046400  0.00617600  0.89559800  1
  B  B27  1  0.37220000  0.80282100  0.65938000  1
  O  O28  1  0.09271400  0.50312300  0.29323400  1
  O  O29  1  0.33510800  0.12630800  0.10021200  1
  O  O30  1  0.78388400  0.29044500  0.27425300  1
  O  O31  1  0.23403100  0.91106800  0.07783200  1
  O  O32  1  0.41938400  0.05420200  0.86455400  1
  O  O33  1  0.08061600  0.05420200  0.36455400  1
  O  O34  1  0.59271400  0.49687700  0.20676600  1
  O  O35  1  0.73403100  0.08893200  0.42216800  1
  O  O36  1  0.28388400  0.70955500  0.22574700  1
  O  O37  1  0.37166700  0.56239000  0.40694400  1
  O  O38  1  0.87166700  0.43761000  0.09305600  1
  O  O39  1  0.77362200  0.71298400  0.79970800  1
  O  O40  1  0.83510800  0.87369200  0.39978800  1
  O  O41  1  0.06392400  0.68786900  0.38903900  1
  O  O42  1  0.91938400  0.94579800  0.63544600  1
  O  O43  1  0.72637800  0.71298400  0.29970800  1
  O  O44  1  0.90728600  0.49687700  0.70676600  1
  O  O45  1  0.50276000  0.72787100  0.59565100  1
  O  O46  1  0.16489200  0.12630800  0.60021200  1
  O  O47  1  0.27362200  0.28701600  0.70029200  1
  O  O48  1  0.71611600  0.29044500  0.77425300  1
  O  O49  1  0.99347100  0.13281100  0.76993800  1
  O  O50  1  0.21611600  0.70955500  0.72574700  1
  O  O51  1  0.99724000  0.72787100  0.09565100  1
  O  O52  1  0.62833300  0.43761000  0.59305600  1
  O  O53  1  0.66489200  0.87369200  0.89978800  1
  O  O54  1  0.12833300  0.56239000  0.90694400  1
  O  O55  1  0.26596900  0.91106800  0.57783200  1
  O  O56  1  0.49347100  0.86718900  0.73006200  1
  O  O57  1  0.22637800  0.28701600  0.20029200  1
  O  O58  1  0.76596900  0.08893200  0.92216800  1
  O  O59  1  0.49724000  0.27212900  0.40434900  1
  O  O60  1  0.00652900  0.86718900  0.23006200  1
  O  O61  1  0.58061600  0.94579800  0.13544600  1
  O  O62  1  0.43607600  0.68786900  0.88903900  1
  O  O63  1  0.40728600  0.50312300  0.79323400  1
  O  O64  1  0.56392400  0.31213100  0.11096100  1
  O  O65  1  0.93607600  0.31213100  0.61096100  1
  O  O66  1  0.50652900  0.13281100  0.26993800  1
  O  O67  1  0.00276000  0.27212900  0.90434900  1
