# generated using pymatgen
data_K2Sr(NbCl3)6
_symmetry_space_group_name_H-M   'P 1'
_cell_length_a   10.41062797
_cell_length_b   10.41062797
_cell_length_c   10.41062844
_cell_angle_alpha   54.47104216
_cell_angle_beta   54.47104216
_cell_angle_gamma   54.47104224
_symmetry_Int_Tables_number   1
_chemical_formula_structural   K2Sr(NbCl3)6
_chemical_formula_sum   'K2 Sr1 Nb6 Cl18'
_cell_volume   694.98767509
_cell_formula_units_Z   1
loop_
 _symmetry_equiv_pos_site_id
 _symmetry_equiv_pos_as_xyz
  1  'x, y, z'
loop_
 _atom_site_type_symbol
 _atom_site_label
 _atom_site_symmetry_multiplicity
 _atom_site_fract_x
 _atom_site_fract_y
 _atom_site_fract_z
 _atom_site_occupancy
  K  K0  1  0.22170000  0.22170000  0.22170000  1
  K  K1  1  0.77830000  0.77830000  0.77830000  1
  Sr  Sr2  1  0.50000000  0.50000000  0.50000000  1
  Nb  Nb3  1  0.92633100  0.79227300  0.14584400  1
  Nb  Nb4  1  0.07366900  0.20772700  0.85415600  1
  Nb  Nb5  1  0.14584400  0.92633100  0.79227300  1
  Nb  Nb6  1  0.85415600  0.07366900  0.20772700  1
  Nb  Nb7  1  0.79227300  0.14584400  0.92633100  1
  Nb  Nb8  1  0.20772700  0.85415600  0.07366900  1
  Cl  Cl9  1  0.16089800  0.47713000  0.67236000  1
  Cl  Cl10  1  0.92599700  0.08276600  0.66953000  1
  Cl  Cl11  1  0.33047000  0.07400300  0.91723400  1
  Cl  Cl12  1  0.66953000  0.92599700  0.08276600  1
  Cl  Cl13  1  0.58473600  0.25802800  0.15737100  1
  Cl  Cl14  1  0.08276600  0.66953000  0.92599700  1
  Cl  Cl15  1  0.67236000  0.16089800  0.47713000  1
  Cl  Cl16  1  0.74197200  0.84262900  0.41526400  1
  Cl  Cl17  1  0.41526400  0.74197200  0.84262900  1
  Cl  Cl18  1  0.32764000  0.83910200  0.52287000  1
  Cl  Cl19  1  0.25802800  0.15737100  0.58473600  1
  Cl  Cl20  1  0.84262900  0.41526400  0.74197200  1
  Cl  Cl21  1  0.07400300  0.91723400  0.33047000  1
  Cl  Cl22  1  0.52287000  0.32764000  0.83910200  1
  Cl  Cl23  1  0.15737100  0.58473600  0.25802800  1
  Cl  Cl24  1  0.91723400  0.33047000  0.07400300  1
  Cl  Cl25  1  0.83910200  0.52287000  0.32764000  1
  Cl  Cl26  1  0.47713000  0.67236000  0.16089800  1
