# generated using pymatgen
data_EuTa2O6
_symmetry_space_group_name_H-M   'P 1'
_cell_length_a   5.56073200
_cell_length_b   7.70077100
_cell_length_c   11.21738300
_cell_angle_alpha   90.00000000
_cell_angle_beta   90.00000000
_cell_angle_gamma   90.00000000
_symmetry_Int_Tables_number   1
_chemical_formula_structural   EuTa2O6
_chemical_formula_sum   'Eu4 Ta8 O24'
_cell_volume   480.34991921
_cell_formula_units_Z   4
loop_
 _symmetry_equiv_pos_site_id
 _symmetry_equiv_pos_as_xyz
  1  'x, y, z'
loop_
 _atom_site_type_symbol
 _atom_site_label
 _atom_site_symmetry_multiplicity
 _atom_site_fract_x
 _atom_site_fract_y
 _atom_site_fract_z
 _atom_site_occupancy
  Eu  Eu0  1  0.45628000  0.75000000  0.04222300  1
  Eu  Eu1  1  0.95628000  0.25000000  0.45777700  1
  Eu  Eu2  1  0.54372000  0.25000000  0.95777700  1
  Eu  Eu3  1  0.04372000  0.75000000  0.54222300  1
  Ta  Ta4  1  0.96029200  0.00374800  0.14133000  1
  Ta  Ta5  1  0.46029200  0.99625200  0.35867000  1
  Ta  Ta6  1  0.03970800  0.50374800  0.85867000  1
  Ta  Ta7  1  0.53970800  0.49625200  0.64133000  1
  Ta  Ta8  1  0.03970800  0.99625200  0.85867000  1
  Ta  Ta9  1  0.53970800  0.00374800  0.64133000  1
  Ta  Ta10  1  0.96029200  0.49625200  0.14133000  1
  Ta  Ta11  1  0.46029200  0.50374800  0.35867000  1
  O  O12  1  0.77625700  0.96329000  0.97647100  1
  O  O13  1  0.27625700  0.03671000  0.52352900  1
  O  O14  1  0.22374300  0.46329000  0.02352900  1
  O  O15  1  0.72374300  0.53671000  0.47647100  1
  O  O16  1  0.22374300  0.03671000  0.02352900  1
  O  O17  1  0.72374300  0.96329000  0.47647100  1
  O  O18  1  0.77625700  0.53671000  0.97647100  1
  O  O19  1  0.27625700  0.46329000  0.52352900  1
  O  O20  1  0.63481700  0.94878800  0.21302200  1
  O  O21  1  0.13481700  0.05121200  0.28697800  1
  O  O22  1  0.36518300  0.44878800  0.78697800  1
  O  O23  1  0.86518300  0.55121200  0.71302200  1
  O  O24  1  0.36518300  0.05121200  0.78697800  1
  O  O25  1  0.86518300  0.94878800  0.71302200  1
  O  O26  1  0.63481700  0.55121200  0.21302200  1
  O  O27  1  0.13481700  0.44878800  0.28697800  1
  O  O28  1  0.03889000  0.75000000  0.14511100  1
  O  O29  1  0.53889000  0.25000000  0.35488900  1
  O  O30  1  0.96111000  0.25000000  0.85488900  1
  O  O31  1  0.46111000  0.75000000  0.64511100  1
  O  O32  1  0.35847000  0.75000000  0.37355700  1
  O  O33  1  0.85847000  0.25000000  0.12644300  1
  O  O34  1  0.64153000  0.25000000  0.62644300  1
  O  O35  1  0.14153000  0.75000000  0.87355700  1
