# generated using pymatgen
data_Ba3GeI2
_symmetry_space_group_name_H-M   'P 1'
_cell_length_a   16.58254802
_cell_length_b   15.81744093
_cell_length_c   8.77739306
_cell_angle_alpha   79.15322301
_cell_angle_beta   69.52402822
_cell_angle_gamma   31.32274878
_symmetry_Int_Tables_number   1
_chemical_formula_structural   Ba3GeI2
_chemical_formula_sum   'Ba12 Ge4 I8'
_cell_volume   1091.90664846
_cell_formula_units_Z   4
loop_
 _symmetry_equiv_pos_site_id
 _symmetry_equiv_pos_as_xyz
  1  'x, y, z'
loop_
 _atom_site_type_symbol
 _atom_site_label
 _atom_site_symmetry_multiplicity
 _atom_site_fract_x
 _atom_site_fract_y
 _atom_site_fract_z
 _atom_site_occupancy
  Ba  Ba0  1  0.04125900  0.45874100  0.45874100  1
  Ba  Ba1  1  0.79125900  0.20874100  0.20874100  1
  Ba  Ba2  1  0.09407300  0.58810300  0.94371000  1
  Ba  Ba3  1  0.87588500  0.30629000  0.66189700  1
  Ba  Ba4  1  0.58810300  0.09407300  0.37411500  1
  Ba  Ba5  1  0.15592700  0.66189700  0.30629000  1
  Ba  Ba6  1  0.30629000  0.87588500  0.15592700  1
  Ba  Ba7  1  0.37411500  0.94371000  0.58810300  1
  Ba  Ba8  1  0.20874100  0.79125900  0.79125900  1
  Ba  Ba9  1  0.45874100  0.04125900  0.04125900  1
  Ba  Ba10  1  0.94371000  0.37411500  0.09407300  1
  Ba  Ba11  1  0.66189700  0.15592700  0.87588500  1
  Ge  Ge12  1  0.33410500  0.33410500  0.16589500  1
  Ge  Ge13  1  0.16589500  0.16589500  0.33410500  1
  Ge  Ge14  1  0.08410500  0.08410500  0.91589500  1
  Ge  Ge15  1  0.91589500  0.91589500  0.08410500  1
  I  I16  1  0.57731400  0.57731400  0.42268600  1
  I  I17  1  0.67268600  0.67268600  0.82731400  1
  I  I18  1  0.25404100  0.25404100  0.74595900  1
  I  I19  1  0.42268600  0.42268600  0.57731400  1
  I  I20  1  0.99595900  0.99595900  0.50404100  1
  I  I21  1  0.74595900  0.74595900  0.25404100  1
  I  I22  1  0.82731400  0.82731400  0.67268600  1
  I  I23  1  0.50404100  0.50404100  0.99595900  1
