# generated using pymatgen
data_Sr11InSb9
_symmetry_space_group_name_H-M   'P 1'
_cell_length_a   12.71774061
_cell_length_b   12.71774061
_cell_length_c   12.71774061
_cell_angle_alpha   120.90199085
_cell_angle_beta   117.15435259
_cell_angle_gamma   91.72140969
_symmetry_Int_Tables_number   1
_chemical_formula_structural   Sr11InSb9
_chemical_formula_sum   'Sr22 In2 Sb18'
_cell_volume   1473.24711477
_cell_formula_units_Z   2
loop_
 _symmetry_equiv_pos_site_id
 _symmetry_equiv_pos_as_xyz
  1  'x, y, z'
loop_
 _atom_site_type_symbol
 _atom_site_label
 _atom_site_symmetry_multiplicity
 _atom_site_fract_x
 _atom_site_fract_y
 _atom_site_fract_z
 _atom_site_occupancy
  Sr  Sr0  1  0.32141600  0.32141600  0.00000000  1
  Sr  Sr1  1  0.82657700  0.84061700  0.66703500  1
  Sr  Sr2  1  0.43151000  0.06865700  0.18354700  1
  Sr  Sr3  1  0.82141600  0.82141600  0.00000000  1
  Sr  Sr4  1  0.68903000  0.94470600  0.37258400  1
  Sr  Sr5  1  0.42560800  0.68810100  0.37037100  1
  Sr  Sr6  1  0.32657700  0.65954200  0.98596000  1
  Sr  Sr7  1  0.81773000  0.18810100  0.26249300  1
  Sr  Sr8  1  0.62047700  0.41571900  0.35119700  1
  Sr  Sr9  1  0.88511000  0.24796300  0.81645300  1
  Sr  Sr10  1  0.12047700  0.76928000  0.20475800  1
  Sr  Sr11  1  0.18903000  0.81644600  0.74432400  1
  Sr  Sr12  1  0.92560800  0.55523700  0.73750700  1
  Sr  Sr13  1  0.38511000  0.56865700  0.63714800  1
  Sr  Sr14  1  0.06452200  0.26928000  0.64880300  1
  Sr  Sr15  1  0.56452200  0.91571900  0.79524200  1
  Sr  Sr16  1  0.93151000  0.74796300  0.36285200  1
  Sr  Sr17  1  0.67358200  0.34061700  0.01404000  1
  Sr  Sr18  1  0.57212300  0.31644600  0.62741600  1
  Sr  Sr19  1  0.17358200  0.15954200  0.33296500  1
  Sr  Sr20  1  0.07212300  0.44470600  0.25567600  1
  Sr  Sr21  1  0.31773000  0.05523700  0.62962900  1
  In  In22  1  0.60734400  0.60734400  0.00000000  1
  In  In23  1  0.10734400  0.10734400  0.00000000  1
  Sb  Sb24  1  0.63913400  0.64026600  0.64495100  1
  Sb  Sb25  1  0.39856900  0.96938000  0.36169500  1
  Sb  Sb26  1  0.99531400  0.99418300  0.35504900  1
  Sb  Sb27  1  0.61378100  0.62585100  0.24593500  1
  Sb  Sb28  1  0.05023300  0.04222700  0.71354100  1
  Sb  Sb29  1  0.24899300  0.74899300  0.50000000  1
  Sb  Sb30  1  0.55023300  0.83669200  0.00800600  1
  Sb  Sb31  1  0.74899300  0.24899300  0.50000000  1
  Sb  Sb32  1  0.87991700  0.12585100  0.01207100  1
  Sb  Sb33  1  0.49531400  0.14026600  0.00113200  1
  Sb  Sb34  1  0.13913400  0.49418300  0.99886800  1
  Sb  Sb35  1  0.37991700  0.36784600  0.75406500  1
  Sb  Sb36  1  0.32868600  0.33669200  0.28645900  1
  Sb  Sb37  1  0.89856900  0.53687500  0.42919000  1
  Sb  Sb38  1  0.10768500  0.46938000  0.57081000  1
  Sb  Sb39  1  0.82868600  0.54222700  0.99199400  1
  Sb  Sb40  1  0.60768500  0.03687500  0.63830500  1
  Sb  Sb41  1  0.11378100  0.86784600  0.98792900  1
