# generated using pymatgen
data_Ca2Cu(BrO)2
_symmetry_space_group_name_H-M   'P 1'
_cell_length_a   9.26575389
_cell_length_b   9.26575389
_cell_length_c   9.26575389
_cell_angle_alpha   155.79779939
_cell_angle_beta   155.79779939
_cell_angle_gamma   34.49164824
_symmetry_Int_Tables_number   1
_chemical_formula_structural   Ca2Cu(BrO)2
_chemical_formula_sum   'Ca2 Cu1 Br2 O2'
_cell_volume   133.55551406
_cell_formula_units_Z   1
loop_
 _symmetry_equiv_pos_site_id
 _symmetry_equiv_pos_as_xyz
  1  'x, y, z'
loop_
 _atom_site_type_symbol
 _atom_site_label
 _atom_site_symmetry_multiplicity
 _atom_site_fract_x
 _atom_site_fract_y
 _atom_site_fract_z
 _atom_site_occupancy
  Ca  Ca0  1  0.41112300  0.41112300  0.00000000  1
  Ca  Ca1  1  0.58887700  0.58887700  0.00000000  1
  Cu  Cu2  1  0.00000000  0.00000000  0.00000000  1
  Br  Br3  1  0.82966400  0.82966400  0.00000000  1
  Br  Br4  1  0.17033600  0.17033600  0.00000000  1
  O  O5  1  0.00000000  0.50000000  0.50000000  1
  O  O6  1  0.50000000  0.00000000  0.50000000  1
