# generated using pymatgen
data_DyTlSe2
_symmetry_space_group_name_H-M   'P 1'
_cell_length_a   8.14102124
_cell_length_b   8.14102124
_cell_length_c   8.14102116
_cell_angle_alpha   29.80527066
_cell_angle_beta   29.80527066
_cell_angle_gamma   29.80526504
_symmetry_Int_Tables_number   1
_chemical_formula_structural   DyTlSe2
_chemical_formula_sum   'Dy1 Tl1 Se2'
_cell_volume   118.04435561
_cell_formula_units_Z   1
loop_
 _symmetry_equiv_pos_site_id
 _symmetry_equiv_pos_as_xyz
  1  'x, y, z'
loop_
 _atom_site_type_symbol
 _atom_site_label
 _atom_site_symmetry_multiplicity
 _atom_site_fract_x
 _atom_site_fract_y
 _atom_site_fract_z
 _atom_site_occupancy
  Dy  Dy0  1  0.00000000  0.00000000  0.00000000  1
  Tl  Tl1  1  0.50000000  0.50000000  0.50000000  1
  Se  Se2  1  0.73480200  0.73480200  0.73480200  1
  Se  Se3  1  0.26519800  0.26519800  0.26519800  1
