# generated using pymatgen
data_CsCa2Nb3O10
_symmetry_space_group_name_H-M   'P 1'
_cell_length_a   7.82522500
_cell_length_b   7.83452300
_cell_length_c   31.03140600
_cell_angle_alpha   90.00000000
_cell_angle_beta   90.00000000
_cell_angle_gamma   90.00000000
_symmetry_Int_Tables_number   1
_chemical_formula_structural   CsCa2Nb3O10
_chemical_formula_sum   'Cs8 Ca16 Nb24 O80'
_cell_volume   1902.43946719
_cell_formula_units_Z   8
loop_
 _symmetry_equiv_pos_site_id
 _symmetry_equiv_pos_as_xyz
  1  'x, y, z'
loop_
 _atom_site_type_symbol
 _atom_site_label
 _atom_site_symmetry_multiplicity
 _atom_site_fract_x
 _atom_site_fract_y
 _atom_site_fract_z
 _atom_site_occupancy
  Cs  Cs0  1  0.73738200  0.75000000  0.74575400  1
  Cs  Cs1  1  0.25336500  0.75000000  0.25484500  1
  Cs  Cs2  1  0.23738200  0.25000000  0.75424600  1
  Cs  Cs3  1  0.24663500  0.75000000  0.75484500  1
  Cs  Cs4  1  0.26261800  0.25000000  0.25424600  1
  Cs  Cs5  1  0.76261800  0.75000000  0.24575400  1
  Cs  Cs6  1  0.75336500  0.25000000  0.24515500  1
  Cs  Cs7  1  0.74663500  0.25000000  0.74515500  1
  Ca  Ca8  1  0.26199100  0.75000000  0.42423500  1
  Ca  Ca9  1  0.76199100  0.25000000  0.07576500  1
  Ca  Ca10  1  0.27612100  0.75000000  0.56945100  1
  Ca  Ca11  1  0.25736800  0.25000000  0.93184700  1
  Ca  Ca12  1  0.71597400  0.75000000  0.92666600  1
  Ca  Ca13  1  0.74263200  0.75000000  0.06815300  1
  Ca  Ca14  1  0.28402600  0.25000000  0.07333400  1
  Ca  Ca15  1  0.23800900  0.75000000  0.92423500  1
  Ca  Ca16  1  0.78402600  0.75000000  0.42666600  1
  Ca  Ca17  1  0.75736800  0.75000000  0.56815300  1
  Ca  Ca18  1  0.72387900  0.25000000  0.43054900  1
  Ca  Ca19  1  0.21597400  0.25000000  0.57333400  1
  Ca  Ca20  1  0.24263200  0.25000000  0.43184700  1
  Ca  Ca21  1  0.77612100  0.25000000  0.93054900  1
  Ca  Ca22  1  0.22387900  0.75000000  0.06945100  1
  Ca  Ca23  1  0.73800900  0.25000000  0.57576500  1
  Nb  Nb24  1  0.50000000  0.50000000  0.50000000  1
  Nb  Nb25  1  0.48889400  0.49709100  0.63939800  1
  Nb  Nb26  1  0.49671900  0.00412200  0.86048600  1
  Nb  Nb27  1  0.51110600  0.50290900  0.36060200  1
  Nb  Nb28  1  0.50000000  0.50000000  0.00000000  1
  Nb  Nb29  1  0.98889400  0.50290900  0.86060200  1
  Nb  Nb30  1  0.01110600  0.49709100  0.13939800  1
  Nb  Nb31  1  0.50328100  0.99587800  0.13951400  1
  Nb  Nb32  1  0.01110600  0.00290900  0.13939800  1
  Nb  Nb33  1  0.00000000  0.00000000  0.50000000  1
  Nb  Nb34  1  0.51110600  0.99709100  0.36060200  1
  Nb  Nb35  1  0.00000000  0.50000000  0.50000000  1
  Nb  Nb36  1  0.00000000  0.50000000  0.00000000  1
  Nb  Nb37  1  0.99671900  0.99587800  0.63951400  1
  Nb  Nb38  1  0.00328100  0.49587800  0.36048600  1
  Nb  Nb39  1  0.48889400  0.00290900  0.63939800  1
  Nb  Nb40  1  0.98889400  0.99709100  0.86060200  1
  Nb  Nb41  1  0.50328100  0.50412200  0.13951400  1
  Nb  Nb42  1  0.50000000  0.00000000  0.00000000  1
  Nb  Nb43  1  0.00000000  0.00000000  0.00000000  1
  Nb  Nb44  1  0.49671900  0.49587800  0.86048600  1
  Nb  Nb45  1  0.99671900  0.50412200  0.63951400  1
  Nb  Nb46  1  0.00328100  0.00412200  0.36048600  1
  Nb  Nb47  1  0.50000000  0.00000000  0.50000000  1
  O  O48  1  0.98268400  0.02678200  0.30317500  1
  O  O49  1  0.25741800  0.98890400  0.11710700  1
  O  O50  1  0.74258200  0.48890400  0.88289300  1
  O  O51  1  0.25704200  0.98300500  0.36692800  1
  O  O52  1  0.74979800  0.56018100  0.48894400  1
  O  O53  1  0.45247000  0.54748700  0.93893500  1
  O  O54  1  0.07125600  0.75000000  0.99090800  1
  O  O55  1  0.96879700  0.54792000  0.06171400  1
  O  O56  1  0.02193900  0.25000000  0.11716900  1
  O  O57  1  0.04753000  0.95251300  0.43893500  1
  O  O58  1  0.25020200  0.43981900  0.51105600  1
  O  O59  1  0.04753000  0.54748700  0.43893500  1
  O  O60  1  0.51731600  0.02678200  0.80317500  1
  O  O61  1  0.46549400  0.02664300  0.69665200  1
  O  O62  1  0.99674400  0.25000000  0.86547600  1
  O  O63  1  0.25741800  0.51109600  0.11710700  1
  O  O64  1  0.95247000  0.45251300  0.56106500  1
  O  O65  1  0.74295800  0.48300500  0.63307200  1
  O  O66  1  0.01781700  0.25000000  0.38140700  1
  O  O67  1  0.48464500  0.25000000  0.13357600  1
  O  O68  1  0.24979800  0.43981900  0.01105600  1
  O  O69  1  0.01731600  0.97321800  0.69682500  1
  O  O70  1  0.92874400  0.25000000  0.00909200  1
  O  O71  1  0.03450600  0.47335700  0.19665200  1
  O  O72  1  0.54753000  0.04748700  0.06106500  1
  O  O73  1  0.53120300  0.95208000  0.56171400  1
  O  O74  1  0.47806100  0.25000000  0.61716900  1
  O  O75  1  0.96549400  0.97335700  0.80334800  1
  O  O76  1  0.95247000  0.04748700  0.56106500  1
  O  O77  1  0.75704200  0.01699500  0.13307200  1
  O  O78  1  0.03450600  0.02664300  0.19665200  1
  O  O79  1  0.75020200  0.93981900  0.98894400  1
  O  O80  1  0.50325600  0.25000000  0.36547600  1
  O  O81  1  0.49674400  0.75000000  0.63452400  1
  O  O82  1  0.48218300  0.25000000  0.88140700  1
  O  O83  1  0.74258200  0.01109600  0.88289300  1
  O  O84  1  0.75704200  0.48300500  0.13307200  1
  O  O85  1  0.54753000  0.45251300  0.06106500  1
  O  O86  1  0.45767400  0.75000000  0.01669300  1
  O  O87  1  0.46549400  0.47335700  0.69665200  1
  O  O88  1  0.54232600  0.25000000  0.98330700  1
  O  O89  1  0.00325600  0.75000000  0.13452400  1
  O  O90  1  0.98464500  0.75000000  0.36642400  1
  O  O91  1  0.24295800  0.98300500  0.86692800  1
  O  O92  1  0.01731600  0.52678200  0.69682500  1
  O  O93  1  0.75741800  0.48890400  0.38289300  1
  O  O94  1  0.01535500  0.25000000  0.63357600  1
  O  O95  1  0.97806100  0.75000000  0.88283100  1
  O  O96  1  0.53450600  0.52664300  0.30334800  1
  O  O97  1  0.98218300  0.75000000  0.61859300  1
  O  O98  1  0.24258200  0.51109600  0.61710700  1
  O  O99  1  0.48268400  0.52678200  0.19682500  1
  O  O100  1  0.03120300  0.04792000  0.93828600  1
  O  O101  1  0.74979800  0.93981900  0.48894400  1
  O  O102  1  0.46879700  0.04792000  0.43828600  1
  O  O103  1  0.24979800  0.06018100  0.01105600  1
  O  O104  1  0.51535500  0.75000000  0.86642400  1
  O  O105  1  0.74295800  0.01699500  0.63307200  1
  O  O106  1  0.25704200  0.51699500  0.36692800  1
  O  O107  1  0.46879700  0.45208000  0.43828600  1
  O  O108  1  0.04232600  0.75000000  0.51669300  1
  O  O109  1  0.48268400  0.97321800  0.19682500  1
  O  O110  1  0.24295800  0.51699500  0.86692800  1
  O  O111  1  0.52193900  0.75000000  0.38283100  1
  O  O112  1  0.75741800  0.01109600  0.38289300  1
  O  O113  1  0.95767400  0.25000000  0.48330700  1
  O  O114  1  0.98268400  0.47321800  0.30317500  1
  O  O115  1  0.25020200  0.06018100  0.51105600  1
  O  O116  1  0.57125600  0.25000000  0.50909200  1
  O  O117  1  0.51731600  0.47321800  0.80317500  1
  O  O118  1  0.96879700  0.95208000  0.06171400  1
  O  O119  1  0.53120300  0.54792000  0.56171400  1
  O  O120  1  0.51781700  0.75000000  0.11859300  1
  O  O121  1  0.75020200  0.56018100  0.98894400  1
  O  O122  1  0.53450600  0.97335700  0.30334800  1
  O  O123  1  0.45247000  0.95251300  0.93893500  1
  O  O124  1  0.24258200  0.98890400  0.61710700  1
  O  O125  1  0.96549400  0.52664300  0.80334800  1
  O  O126  1  0.42874400  0.75000000  0.49090800  1
  O  O127  1  0.03120300  0.45208000  0.93828600  1
