# generated using pymatgen
data_Co5Se4(BrO6)2
_symmetry_space_group_name_H-M   'P 1'
_cell_length_a   7.97099082
_cell_length_b   9.46782124
_cell_length_c   10.21882365
_cell_angle_alpha   84.97821452
_cell_angle_beta   106.79458719
_cell_angle_gamma   81.92507489
_symmetry_Int_Tables_number   1
_chemical_formula_structural   Co5Se4(BrO6)2
_chemical_formula_sum   'Co10 Se8 Br4 O24'
_cell_volume   724.27077403
_cell_formula_units_Z   2
loop_
 _symmetry_equiv_pos_site_id
 _symmetry_equiv_pos_as_xyz
  1  'x, y, z'
loop_
 _atom_site_type_symbol
 _atom_site_label
 _atom_site_symmetry_multiplicity
 _atom_site_fract_x
 _atom_site_fract_y
 _atom_site_fract_z
 _atom_site_occupancy
  Co  Co0  1  0.50000100  0.49999800  0.50000400  1
  Co  Co1  1  0.74790400  0.72386600  0.40046800  1
  Co  Co2  1  0.24779100  0.22434400  0.90024700  1
  Co  Co3  1  0.25209000  0.27611400  0.59953000  1
  Co  Co4  1  0.75221100  0.77565300  0.09975600  1
  Co  Co5  1  0.00000200  0.00000200  0.00000200  1
  Co  Co6  1  0.16416000  0.71090600  0.59303100  1
  Co  Co7  1  0.66435200  0.21081800  0.09329600  1
  Co  Co8  1  0.83584200  0.28910200  0.40695700  1
  Co  Co9  1  0.33565100  0.78918500  0.90670000  1
  Se  Se10  1  0.41009200  0.97988800  0.18515900  1
  Se  Se11  1  0.90949700  0.48011600  0.68498000  1
  Se  Se12  1  0.58990800  0.02011600  0.81484300  1
  Se  Se13  1  0.09051500  0.51988400  0.31502600  1
  Se  Se14  1  0.00680900  0.97896300  0.32649100  1
  Se  Se15  1  0.50670500  0.47903900  0.82668600  1
  Se  Se16  1  0.99318900  0.02104400  0.67350500  1
  Se  Se17  1  0.49328800  0.52095400  0.17330700  1
  Br  Br18  1  0.45499900  0.23534600  0.43229300  1
  Br  Br19  1  0.95447800  0.73545200  0.93223700  1
  Br  Br20  1  0.54499000  0.76466700  0.56769500  1
  Br  Br21  1  0.04552100  0.26455100  0.06776200  1
  O  O22  1  0.95037900  0.90794400  0.17097200  1
  O  O23  1  0.45093600  0.40795700  0.67137500  1
  O  O24  1  0.04961700  0.09205400  0.82902700  1
  O  O25  1  0.54905300  0.59203200  0.32862200  1
  O  O26  1  0.61620600  0.87060400  0.22845900  1
  O  O27  1  0.11530800  0.37105800  0.72790700  1
  O  O28  1  0.38380100  0.12939100  0.77155400  1
  O  O29  1  0.88470500  0.62895500  0.27209600  1
  O  O30  1  0.82834300  0.12173900  0.28950000  1
  O  O31  1  0.32811500  0.62171400  0.78945000  1
  O  O32  1  0.17164700  0.87825900  0.71050100  1
  O  O33  1  0.67187600  0.37829100  0.21054400  1
  O  O34  1  0.94303300  0.62011100  0.57818000  1
  O  O35  1  0.44348500  0.11973300  0.07839200  1
  O  O36  1  0.05696200  0.37989200  0.42181200  1
  O  O37  1  0.55651800  0.88026400  0.92161200  1
  O  O38  1  0.95385500  0.85808400  0.43944000  1
  O  O39  1  0.45348200  0.35801600  0.93957500  1
  O  O40  1  0.04615300  0.14191300  0.56056100  1
  O  O41  1  0.54651800  0.64198900  0.06042400  1
  O  O42  1  0.23064900  0.60104900  0.44102400  1
  O  O43  1  0.73002100  0.10140500  0.94051800  1
  O  O44  1  0.76935600  0.39895000  0.55899400  1
  O  O45  1  0.26998700  0.89858900  0.05948500  1
