# generated using pymatgen
data_Ti2SbP
_symmetry_space_group_name_H-M   'P 1'
_cell_length_a   3.63798301
_cell_length_b   3.63798301
_cell_length_c   12.66618300
_cell_angle_alpha   90.00000000
_cell_angle_beta   90.00000000
_cell_angle_gamma   120.00001842
_symmetry_Int_Tables_number   1
_chemical_formula_structural   Ti2SbP
_chemical_formula_sum   'Ti4 Sb2 P2'
_cell_volume   145.17694165
_cell_formula_units_Z   2
loop_
 _symmetry_equiv_pos_site_id
 _symmetry_equiv_pos_as_xyz
  1  'x, y, z'
loop_
 _atom_site_type_symbol
 _atom_site_label
 _atom_site_symmetry_multiplicity
 _atom_site_fract_x
 _atom_site_fract_y
 _atom_site_fract_z
 _atom_site_occupancy
  Ti  Ti0  1  0.66666700  0.33333300  0.60000000  1
  Ti  Ti1  1  0.33333300  0.66666700  0.40000000  1
  Ti  Ti2  1  0.33333300  0.66666700  0.10000000  1
  Ti  Ti3  1  0.66666700  0.33333300  0.90000000  1
  Sb  Sb4  1  0.66666700  0.33333300  0.25000000  1
  Sb  Sb5  1  0.33333300  0.66666700  0.75000000  1
  P  P6  1  0.00000000  0.00000000  0.50000000  1
  P  P7  1  0.00000000  0.00000000  0.00000000  1
