# generated using pymatgen
data_Cs4Mg3F10
_symmetry_space_group_name_H-M   'P 1'
_cell_length_a   8.01340661
_cell_length_b   8.01340661
_cell_length_c   13.89973500
_cell_angle_alpha   90.00000000
_cell_angle_beta   90.00000000
_cell_angle_gamma   134.22535539
_symmetry_Int_Tables_number   1
_chemical_formula_structural   Cs4Mg3F10
_chemical_formula_sum   'Cs8 Mg6 F20'
_cell_volume   639.61539366
_cell_formula_units_Z   2
loop_
 _symmetry_equiv_pos_site_id
 _symmetry_equiv_pos_as_xyz
  1  'x, y, z'
loop_
 _atom_site_type_symbol
 _atom_site_label
 _atom_site_symmetry_multiplicity
 _atom_site_fract_x
 _atom_site_fract_y
 _atom_site_fract_z
 _atom_site_occupancy
  Cs  Cs0  1  0.25295200  0.74704800  0.60781700  1
  Cs  Cs1  1  0.74704800  0.25295200  0.39218300  1
  Cs  Cs2  1  0.24704800  0.75295200  0.10781700  1
  Cs  Cs3  1  0.75295200  0.24704800  0.89218300  1
  Cs  Cs4  1  0.94904200  0.05095800  0.63861900  1
  Cs  Cs5  1  0.05095800  0.94904200  0.36138100  1
  Cs  Cs6  1  0.55095800  0.44904200  0.13861900  1
  Cs  Cs7  1  0.44904200  0.55095800  0.86138100  1
  Mg  Mg8  1  0.61678000  0.38322000  0.65757000  1
  Mg  Mg9  1  0.38322000  0.61678000  0.34243000  1
  Mg  Mg10  1  0.88322000  0.11678000  0.15757000  1
  Mg  Mg11  1  0.11678000  0.88322000  0.84243000  1
  Mg  Mg12  1  0.50000000  0.50000000  0.50000000  1
  Mg  Mg13  1  0.00000000  0.00000000  0.00000000  1
  F  F14  1  0.61323000  0.80571800  0.45971600  1
  F  F15  1  0.80571800  0.61323000  0.54028400  1
  F  F16  1  0.88677000  0.69428200  0.95971600  1
  F  F17  1  0.69428200  0.88677000  0.04028400  1
  F  F18  1  0.38677000  0.19428200  0.54028400  1
  F  F19  1  0.19428200  0.38677000  0.45971600  1
  F  F20  1  0.11323000  0.30571800  0.04028400  1
  F  F21  1  0.30571800  0.11323000  0.95971600  1
  F  F22  1  0.47403700  0.52596300  0.64272700  1
  F  F23  1  0.52596300  0.47403700  0.35727300  1
  F  F24  1  0.02596300  0.97403700  0.14272700  1
  F  F25  1  0.97403700  0.02596300  0.85727300  1
  F  F26  1  0.74817700  0.25182300  0.64983200  1
  F  F27  1  0.25182300  0.74817700  0.35016800  1
  F  F28  1  0.35966000  0.14034000  0.75000000  1
  F  F29  1  0.14034000  0.35966000  0.25000000  1
  F  F30  1  0.64034000  0.85966000  0.25000000  1
  F  F31  1  0.85966000  0.64034000  0.75000000  1
  F  F32  1  0.24817700  0.75182300  0.85016800  1
  F  F33  1  0.75182300  0.24817700  0.14983200  1
