# generated using pymatgen
data_Li3ScN2
_symmetry_space_group_name_H-M   'P 1'
_cell_length_a   8.71520508
_cell_length_b   8.71520508
_cell_length_c   8.71520508
_cell_angle_alpha   109.47122063
_cell_angle_beta   109.47122063
_cell_angle_gamma   109.47122063
_symmetry_Int_Tables_number   1
_chemical_formula_structural   Li3ScN2
_chemical_formula_sum   'Li24 Sc8 N16'
_cell_volume   509.57832008
_cell_formula_units_Z   8
loop_
 _symmetry_equiv_pos_site_id
 _symmetry_equiv_pos_as_xyz
  1  'x, y, z'
loop_
 _atom_site_type_symbol
 _atom_site_label
 _atom_site_symmetry_multiplicity
 _atom_site_fract_x
 _atom_site_fract_y
 _atom_site_fract_z
 _atom_site_occupancy
  Li  Li0  1  0.53985100  0.27404900  0.54171600  1
  Li  Li1  1  0.76580200  0.26766700  0.22595100  1
  Li  Li2  1  0.99813500  0.95828400  0.23233300  1
  Li  Li3  1  0.95828400  0.23233300  0.99813500  1
  Li  Li4  1  0.50186500  0.73419800  0.96014900  1
  Li  Li5  1  0.54171600  0.53985100  0.27404900  1
  Li  Li6  1  0.27404900  0.54171600  0.53985100  1
  Li  Li7  1  0.22595100  0.76580200  0.26766700  1
  Li  Li8  1  0.73419800  0.96014900  0.50186500  1
  Li  Li9  1  0.23233300  0.99813500  0.95828400  1
  Li  Li10  1  0.96014900  0.50186500  0.73419800  1
  Li  Li11  1  0.26766700  0.22595100  0.76580200  1
  Li  Li12  1  0.46014900  0.72595100  0.45828400  1
  Li  Li13  1  0.23419800  0.73233300  0.77404900  1
  Li  Li14  1  0.00186500  0.04171600  0.76766700  1
  Li  Li15  1  0.04171600  0.76766700  0.00186500  1
  Li  Li16  1  0.49813500  0.26580200  0.03985100  1
  Li  Li17  1  0.45828400  0.46014900  0.72595100  1
  Li  Li18  1  0.72595100  0.45828400  0.46014900  1
  Li  Li19  1  0.77404900  0.23419800  0.73233300  1
  Li  Li20  1  0.26580200  0.03985100  0.49813500  1
  Li  Li21  1  0.76766700  0.00186500  0.04171600  1
  Li  Li22  1  0.03985100  0.49813500  0.26580200  1
  Li  Li23  1  0.73233300  0.77404900  0.23419800  1
  Sc  Sc24  1  0.50000000  0.00000000  0.24240700  1
  Sc  Sc25  1  0.00000000  0.24240700  0.50000000  1
  Sc  Sc26  1  0.25759300  0.25759300  0.25759300  1
  Sc  Sc27  1  0.24240700  0.50000000  0.00000000  1
  Sc  Sc28  1  0.50000000  0.00000000  0.75759300  1
  Sc  Sc29  1  0.00000000  0.75759300  0.50000000  1
  Sc  Sc30  1  0.74240700  0.74240700  0.74240700  1
  Sc  Sc31  1  0.75759300  0.50000000  0.00000000  1
  N  N32  1  0.50000000  0.00000000  0.00000000  1
  N  N33  1  0.00000000  0.00000000  0.50000000  1
  N  N34  1  0.50000000  0.50000000  0.50000000  1
  N  N35  1  0.00000000  0.50000000  0.00000000  1
  N  N36  1  0.48600100  0.75000000  0.23600100  1
  N  N37  1  0.23600100  0.48600100  0.75000000  1
  N  N38  1  0.25000000  0.26399900  0.01399900  1
  N  N39  1  0.26399900  0.01399900  0.25000000  1
  N  N40  1  0.75000000  0.23600100  0.48600100  1
  N  N41  1  0.01399900  0.25000000  0.26399900  1
  N  N42  1  0.51399900  0.25000000  0.76399900  1
  N  N43  1  0.76399900  0.51399900  0.25000000  1
  N  N44  1  0.75000000  0.73600100  0.98600100  1
  N  N45  1  0.73600100  0.98600100  0.75000000  1
  N  N46  1  0.25000000  0.76399900  0.51399900  1
  N  N47  1  0.98600100  0.75000000  0.73600100  1
