# generated using pymatgen
data_Bi2CO5
_symmetry_space_group_name_H-M   'P 1'
_cell_length_a   5.53552100
_cell_length_b   5.55540600
_cell_length_c   28.02601700
_cell_angle_alpha   90.00000000
_cell_angle_beta   90.00000000
_cell_angle_gamma   90.00000000
_symmetry_Int_Tables_number   1
_chemical_formula_structural   Bi2CO5
_chemical_formula_sum   'Bi16 C8 O40'
_cell_volume   861.85794066
_cell_formula_units_Z   8
loop_
 _symmetry_equiv_pos_site_id
 _symmetry_equiv_pos_as_xyz
  1  'x, y, z'
loop_
 _atom_site_type_symbol
 _atom_site_label
 _atom_site_symmetry_multiplicity
 _atom_site_fract_x
 _atom_site_fract_y
 _atom_site_fract_z
 _atom_site_occupancy
  Bi  Bi0  1  0.98401500  0.48943200  0.45435600  1
  Bi  Bi1  1  0.49613500  0.53893500  0.20479600  1
  Bi  Bi2  1  0.97304100  0.49746000  0.95482000  1
  Bi  Bi3  1  0.49805600  0.98226700  0.79515900  1
  Bi  Bi4  1  0.99805600  0.01773300  0.20484100  1
  Bi  Bi5  1  0.49613500  0.03893500  0.29520400  1
  Bi  Bi6  1  0.48401500  0.51056800  0.54564400  1
  Bi  Bi7  1  0.48401500  0.01056800  0.95435600  1
  Bi  Bi8  1  0.97304100  0.99746000  0.54518000  1
  Bi  Bi9  1  0.98401500  0.98943200  0.04564400  1
  Bi  Bi10  1  0.47304100  0.00254000  0.45482000  1
  Bi  Bi11  1  0.99613500  0.96106500  0.70479600  1
  Bi  Bi12  1  0.99613500  0.46106500  0.79520400  1
  Bi  Bi13  1  0.47304100  0.50254000  0.04518000  1
  Bi  Bi14  1  0.49805600  0.48226700  0.70484100  1
  Bi  Bi15  1  0.99805600  0.51773300  0.29515900  1
  C  C16  1  0.49035000  0.99202500  0.62525200  1
  C  C17  1  0.98049700  0.00963800  0.87415000  1
  C  C18  1  0.48049700  0.99036200  0.12585000  1
  C  C19  1  0.48049700  0.49036200  0.37415000  1
  C  C20  1  0.99035000  0.00797500  0.37474800  1
  C  C21  1  0.49035000  0.49202500  0.87474800  1
  C  C22  1  0.98049700  0.50963800  0.62585000  1
  C  C23  1  0.99035000  0.50797500  0.12525200  1
  O  O24  1  0.54963700  0.94183900  0.58111600  1
  O  O25  1  0.82366900  0.35270300  0.13366100  1
  O  O26  1  0.32534100  0.63838000  0.39186400  1
  O  O27  1  0.32366900  0.64729700  0.86633900  1
  O  O28  1  0.82366900  0.85270300  0.36633900  1
  O  O29  1  0.75726500  0.26843200  0.25005700  1
  O  O30  1  0.54963700  0.44183900  0.91888400  1
  O  O31  1  0.73994100  0.74093200  0.50007300  1
  O  O32  1  0.61299300  0.35340900  0.40106300  1
  O  O33  1  0.24950100  0.27723300  0.24844200  1
  O  O34  1  0.32366900  0.14729700  0.63366100  1
  O  O35  1  0.04963700  0.05816100  0.41888400  1
  O  O36  1  0.24950100  0.77723300  0.25155800  1
  O  O37  1  0.82534100  0.36162000  0.60813600  1
  O  O38  1  0.00346200  0.02502800  0.82767600  1
  O  O39  1  0.23994100  0.25906800  0.49992700  1
  O  O40  1  0.25726500  0.73156800  0.74994300  1
  O  O41  1  0.74950100  0.22276700  0.74844200  1
  O  O42  1  0.11299300  0.64659100  0.59893700  1
  O  O43  1  0.23994100  0.75906800  0.00007300  1
  O  O44  1  0.61299300  0.85340900  0.09893700  1
  O  O45  1  0.75726500  0.76843200  0.24994300  1
  O  O46  1  0.73714700  0.24705000  0.49998200  1
  O  O47  1  0.82534100  0.86162000  0.89186400  1
  O  O48  1  0.11299300  0.14659100  0.90106300  1
  O  O49  1  0.00346200  0.52502800  0.67232400  1
  O  O50  1  0.50346200  0.97497200  0.17232400  1
  O  O51  1  0.04963700  0.55816100  0.08111600  1
  O  O52  1  0.23714700  0.25295000  0.99998200  1
  O  O53  1  0.23714700  0.75295000  0.50001800  1
  O  O54  1  0.25726500  0.23156800  0.75005700  1
  O  O55  1  0.50346200  0.47497200  0.32767600  1
  O  O56  1  0.74950100  0.72276700  0.75155800  1
  O  O57  1  0.59895100  0.88214100  0.66042600  1
  O  O58  1  0.73714700  0.74705000  0.00001800  1
  O  O59  1  0.59895100  0.38214100  0.83957400  1
  O  O60  1  0.09895100  0.11785900  0.33957400  1
  O  O61  1  0.09895100  0.61785900  0.16042600  1
  O  O62  1  0.73994100  0.24093200  0.99992700  1
  O  O63  1  0.32534100  0.13838000  0.10813600  1
