# generated using pymatgen
data_RbNdTe2
_symmetry_space_group_name_H-M   'P 1'
_cell_length_a   8.99239758
_cell_length_b   8.99239758
_cell_length_c   8.99239767
_cell_angle_alpha   29.99724593
_cell_angle_beta   29.99724593
_cell_angle_gamma   29.99724596
_symmetry_Int_Tables_number   1
_chemical_formula_structural   RbNdTe2
_chemical_formula_sum   'Rb1 Nd1 Te2'
_cell_volume   160.99754580
_cell_formula_units_Z   1
loop_
 _symmetry_equiv_pos_site_id
 _symmetry_equiv_pos_as_xyz
  1  'x, y, z'
loop_
 _atom_site_type_symbol
 _atom_site_label
 _atom_site_symmetry_multiplicity
 _atom_site_fract_x
 _atom_site_fract_y
 _atom_site_fract_z
 _atom_site_occupancy
  Rb  Rb0  1  0.50000000  0.50000000  0.50000000  1
  Nd  Nd1  1  0.00000000  0.00000000  0.00000000  1
  Te  Te2  1  0.26504700  0.26504700  0.26504700  1
  Te  Te3  1  0.73495300  0.73495300  0.73495300  1
