# generated using pymatgen
data_Tl3Hg2S3ClO12
_symmetry_space_group_name_H-M   'P 1'
_cell_length_a   9.98962100
_cell_length_b   8.11573900
_cell_length_c   10.18244060
_cell_angle_alpha   69.43688491
_cell_angle_beta   90.00000000
_cell_angle_gamma   90.00000000
_symmetry_Int_Tables_number   1
_chemical_formula_structural   Tl3Hg2S3ClO12
_chemical_formula_sum   'Tl6 Hg4 S6 Cl2 O24'
_cell_volume   772.92512763
_cell_formula_units_Z   2
loop_
 _symmetry_equiv_pos_site_id
 _symmetry_equiv_pos_as_xyz
  1  'x, y, z'
loop_
 _atom_site_type_symbol
 _atom_site_label
 _atom_site_symmetry_multiplicity
 _atom_site_fract_x
 _atom_site_fract_y
 _atom_site_fract_z
 _atom_site_occupancy
  Tl  Tl0  1  0.74339100  0.09129800  0.72877900  1
  Tl  Tl1  1  0.87670800  0.69006900  0.13940400  1
  Tl  Tl2  1  0.37670800  0.30993100  0.86059600  1
  Tl  Tl3  1  0.55454000  0.32233300  0.29233400  1
  Tl  Tl4  1  0.24339100  0.90870200  0.27122100  1
  Tl  Tl5  1  0.05454000  0.67766700  0.70766600  1
  Hg  Hg6  1  0.42166900  0.75682400  0.95852300  1
  Hg  Hg7  1  0.13824300  0.26795500  0.50082500  1
  Hg  Hg8  1  0.92166900  0.24317600  0.04147700  1
  Hg  Hg9  1  0.63824300  0.73204500  0.49917500  1
  S  S10  1  0.08662400  0.01719600  0.89229900  1
  S  S11  1  0.20255500  0.44449700  0.13782300  1
  S  S12  1  0.58662400  0.98280400  0.10770100  1
  S  S13  1  0.88566300  0.08916000  0.38944600  1
  S  S14  1  0.70255500  0.55550300  0.86217700  1
  S  S15  1  0.38566300  0.91084000  0.61055400  1
  Cl  Cl16  1  0.29280800  0.47972700  0.51547400  1
  Cl  Cl17  1  0.79280800  0.52027300  0.48452600  1
  O  O18  1  0.34916500  0.49413300  0.09367200  1
  O  O19  1  0.95360500  0.12837100  0.51180000  1
  O  O20  1  0.45977700  0.04713700  0.64306300  1
  O  O21  1  0.54006800  0.98485500  0.96149300  1
  O  O22  1  0.63279400  0.57293700  0.98645200  1
  O  O23  1  0.95977700  0.95286300  0.35693700  1
  O  O24  1  0.21090300  0.27061300  0.25385700  1
  O  O25  1  0.00755400  0.87926600  0.86252900  1
  O  O26  1  0.13279400  0.42706300  0.01354800  1
  O  O27  1  0.45360500  0.87162900  0.48820000  1
  O  O28  1  0.73213100  0.02300300  0.09463100  1
  O  O29  1  0.04006800  0.01514500  0.03850700  1
  O  O30  1  0.74774000  0.03400500  0.44291600  1
  O  O31  1  0.64142200  0.42030100  0.81576000  1
  O  O32  1  0.14142200  0.57969900  0.18424000  1
  O  O33  1  0.71090300  0.72938700  0.74614300  1
  O  O34  1  0.50755400  0.12073400  0.13747100  1
  O  O35  1  0.23213100  0.97699700  0.90536900  1
  O  O36  1  0.84916500  0.50586700  0.90632800  1
  O  O37  1  0.06103000  0.19431700  0.78766300  1
  O  O38  1  0.87811100  0.25917400  0.26644600  1
  O  O39  1  0.37811100  0.74082600  0.73355400  1
  O  O40  1  0.56103000  0.80568300  0.21233700  1
  O  O41  1  0.24774000  0.96599500  0.55708400  1
