# generated using pymatgen
data_AsIF12
_symmetry_space_group_name_H-M   'P 1'
_cell_length_a   9.62576800
_cell_length_b   9.62576800
_cell_length_c   9.62576800
_cell_angle_alpha   90.00000000
_cell_angle_beta   90.00000000
_cell_angle_gamma   90.00000000
_symmetry_Int_Tables_number   1
_chemical_formula_structural   AsIF12
_chemical_formula_sum   'As4 I4 F48'
_cell_volume   891.87947666
_cell_formula_units_Z   4
loop_
 _symmetry_equiv_pos_site_id
 _symmetry_equiv_pos_as_xyz
  1  'x, y, z'
loop_
 _atom_site_type_symbol
 _atom_site_label
 _atom_site_symmetry_multiplicity
 _atom_site_fract_x
 _atom_site_fract_y
 _atom_site_fract_z
 _atom_site_occupancy
  As  As0  1  0.00000000  0.00000000  0.50000000  1
  As  As1  1  0.00000000  0.50000000  0.00000000  1
  As  As2  1  0.50000000  0.00000000  0.00000000  1
  As  As3  1  0.50000000  0.50000000  0.50000000  1
  I  I4  1  0.00000000  0.00000000  0.00000000  1
  I  I5  1  0.50000000  0.00000000  0.50000000  1
  I  I6  1  0.50000000  0.50000000  0.00000000  1
  I  I7  1  0.00000000  0.50000000  0.50000000  1
  F  F8  1  0.88397700  0.63681500  0.56204400  1
  F  F9  1  0.44043100  0.60254400  0.64154900  1
  F  F10  1  0.89745600  0.35845100  0.94043100  1
  F  F11  1  0.11602300  0.13681500  0.93795600  1
  F  F12  1  0.36318500  0.43795600  0.11602300  1
  F  F13  1  0.38397700  0.86318500  0.43795600  1
  F  F14  1  0.35845100  0.94043100  0.89745600  1
  F  F15  1  0.05956900  0.39745600  0.14154900  1
  F  F16  1  0.36318500  0.06204400  0.61602300  1
  F  F17  1  0.88397700  0.86318500  0.06204400  1
  F  F18  1  0.05956900  0.10254400  0.64154900  1
  F  F19  1  0.55956900  0.39745600  0.35845100  1
  F  F20  1  0.86318500  0.06204400  0.88397700  1
  F  F21  1  0.43795600  0.11602300  0.36318500  1
  F  F22  1  0.14154900  0.44043100  0.89745600  1
  F  F23  1  0.63681500  0.56204400  0.88397700  1
  F  F24  1  0.63681500  0.93795600  0.38397700  1
  F  F25  1  0.64154900  0.05956900  0.10254400  1
  F  F26  1  0.61602300  0.36318500  0.06204400  1
  F  F27  1  0.85845100  0.94043100  0.60254400  1
  F  F28  1  0.93795600  0.11602300  0.13681500  1
  F  F29  1  0.06204400  0.61602300  0.36318500  1
  F  F30  1  0.10254400  0.64154900  0.05956900  1
  F  F31  1  0.55956900  0.10254400  0.85845100  1
  F  F32  1  0.64154900  0.44043100  0.60254400  1
  F  F33  1  0.13681500  0.56204400  0.61602300  1
  F  F34  1  0.39745600  0.14154900  0.05956900  1
  F  F35  1  0.14154900  0.05956900  0.39745600  1
  F  F36  1  0.06204400  0.88397700  0.86318500  1
  F  F37  1  0.44043100  0.89745600  0.14154900  1
  F  F38  1  0.13681500  0.93795600  0.11602300  1
  F  F39  1  0.38397700  0.63681500  0.93795600  1
  F  F40  1  0.85845100  0.55956900  0.10254400  1
  F  F41  1  0.89745600  0.14154900  0.44043100  1
  F  F42  1  0.86318500  0.43795600  0.38397700  1
  F  F43  1  0.60254400  0.64154900  0.44043100  1
  F  F44  1  0.60254400  0.85845100  0.94043100  1
  F  F45  1  0.11602300  0.36318500  0.43795600  1
  F  F46  1  0.56204400  0.61602300  0.13681500  1
  F  F47  1  0.43795600  0.38397700  0.86318500  1
  F  F48  1  0.35845100  0.55956900  0.39745600  1
  F  F49  1  0.94043100  0.60254400  0.85845100  1
  F  F50  1  0.61602300  0.13681500  0.56204400  1
  F  F51  1  0.93795600  0.38397700  0.63681500  1
  F  F52  1  0.94043100  0.89745600  0.35845100  1
  F  F53  1  0.39745600  0.35845100  0.55956900  1
  F  F54  1  0.10254400  0.85845100  0.55956900  1
  F  F55  1  0.56204400  0.88397700  0.63681500  1
