# generated using pymatgen
data_Sb2Te2O9
_symmetry_space_group_name_H-M   'P 1'
_cell_length_a   4.96184800
_cell_length_b   14.80402200
_cell_length_c   22.47514919
_cell_angle_alpha   70.80762292
_cell_angle_beta   90.00000000
_cell_angle_gamma   90.00000000
_symmetry_Int_Tables_number   1
_chemical_formula_structural   Sb2Te2O9
_chemical_formula_sum   'Sb16 Te16 O72'
_cell_volume   1559.16109664
_cell_formula_units_Z   8
loop_
 _symmetry_equiv_pos_site_id
 _symmetry_equiv_pos_as_xyz
  1  'x, y, z'
loop_
 _atom_site_type_symbol
 _atom_site_label
 _atom_site_symmetry_multiplicity
 _atom_site_fract_x
 _atom_site_fract_y
 _atom_site_fract_z
 _atom_site_occupancy
  Sb  Sb0  1  0.30545200  0.48895000  0.34724400  1
  Sb  Sb1  1  0.28395900  0.16589900  0.84400700  1
  Sb  Sb2  1  0.21604100  0.66589900  0.84400700  1
  Sb  Sb3  1  0.69454800  0.51105000  0.65275600  1
  Sb  Sb4  1  0.19454800  0.98895000  0.34724400  1
  Sb  Sb5  1  0.80545200  0.01105000  0.65275600  1
  Sb  Sb6  1  0.71604100  0.83410100  0.15599300  1
  Sb  Sb7  1  0.69876500  0.83200200  0.44765100  1
  Sb  Sb8  1  0.19876500  0.66799800  0.55234900  1
  Sb  Sb9  1  0.78522700  0.21975800  0.94589400  1
  Sb  Sb10  1  0.78395900  0.33410100  0.15599300  1
  Sb  Sb11  1  0.28522700  0.28024200  0.05410600  1
  Sb  Sb12  1  0.71477300  0.71975800  0.94589400  1
  Sb  Sb13  1  0.30123500  0.16799800  0.55234900  1
  Sb  Sb14  1  0.21477300  0.78024200  0.05410600  1
  Sb  Sb15  1  0.80123500  0.33200200  0.44765100  1
  Te  Te16  1  0.16225000  0.55349900  0.06054600  1
  Te  Te17  1  0.33526000  0.31212800  0.27490800  1
  Te  Te18  1  0.83526000  0.18787200  0.72509200  1
  Te  Te19  1  0.66474000  0.68787200  0.72509200  1
  Te  Te20  1  0.83775000  0.44650100  0.93945400  1
  Te  Te21  1  0.66225000  0.94650100  0.93945400  1
  Te  Te22  1  0.15148300  0.88852400  0.55710500  1
  Te  Te23  1  0.34851700  0.38852400  0.55710500  1
  Te  Te24  1  0.84851700  0.11147600  0.44289500  1
  Te  Te25  1  0.65148300  0.61147600  0.44289500  1
  Te  Te26  1  0.33775000  0.05349900  0.06054600  1
  Te  Te27  1  0.15783000  0.42064100  0.76548600  1
  Te  Te28  1  0.34217000  0.92064100  0.76548600  1
  Te  Te29  1  0.16474000  0.81212800  0.27490800  1
  Te  Te30  1  0.84217000  0.57935900  0.23451400  1
  Te  Te31  1  0.65783000  0.07935900  0.23451400  1
  O  O32  1  0.62305800  0.41840600  0.49156500  1
  O  O33  1  0.65394700  0.08391200  0.70726900  1
  O  O34  1  0.01954500  0.07209600  0.26333200  1
  O  O35  1  0.93200100  0.46564500  0.12306900  1
  O  O36  1  0.50172200  0.63734100  0.90941700  1
  O  O37  1  0.04478000  0.75689300  0.59537100  1
  O  O38  1  0.91479500  0.71480700  0.20846000  1
  O  O39  1  0.00283700  0.74390500  0.88216700  1
  O  O40  1  0.51789300  0.22917500  0.47352900  1
  O  O41  1  0.49716300  0.24390500  0.88216700  1
  O  O42  1  0.08658500  0.09058100  0.38186900  1
  O  O43  1  0.51402700  0.07389800  0.31470000  1
  O  O44  1  0.45522000  0.25689300  0.59537100  1
  O  O45  1  0.48045500  0.57209600  0.26333200  1
  O  O46  1  0.56799900  0.96564500  0.12306900  1
  O  O47  1  0.61673900  0.09088700  0.99720100  1
  O  O48  1  0.52935400  0.20821900  0.76756500  1
  O  O49  1  0.97064600  0.70821900  0.76756500  1
  O  O50  1  0.91341500  0.90941900  0.61813100  1
  O  O51  1  0.99716300  0.25609500  0.11783300  1
  O  O52  1  0.34605300  0.91608800  0.29273100  1
  O  O53  1  0.98597300  0.57389800  0.31470000  1
  O  O54  1  0.43090900  0.14625800  0.10112600  1
  O  O55  1  0.10964600  0.10108400  0.63314100  1
  O  O56  1  0.39883500  0.92522400  0.42545200  1
  O  O57  1  0.50283700  0.75609500  0.11783300  1
  O  O58  1  0.60964600  0.39891600  0.36685900  1
  O  O59  1  0.89883500  0.57477600  0.57454800  1
  O  O60  1  0.01789300  0.27082500  0.52647100  1
  O  O61  1  0.38326100  0.90911300  0.00279900  1
  O  O62  1  0.99827800  0.13734100  0.90941700  1
  O  O63  1  0.58658500  0.40941900  0.61813100  1
  O  O64  1  0.41341500  0.59058100  0.38186900  1
  O  O65  1  0.11673900  0.40911300  0.00279900  1
  O  O66  1  0.58800100  0.29997400  0.99025300  1
  O  O67  1  0.06799900  0.53435500  0.87693100  1
  O  O68  1  0.41479500  0.78519300  0.79154000  1
  O  O69  1  0.12305800  0.08159400  0.50843500  1
  O  O70  1  0.89035400  0.89891600  0.36685900  1
  O  O71  1  0.54478000  0.74310700  0.40462900  1
  O  O72  1  0.15394700  0.41608800  0.29273100  1
  O  O73  1  0.08800100  0.20002600  0.00974700  1
  O  O74  1  0.47064600  0.79178100  0.23243500  1
  O  O75  1  0.48597300  0.92610200  0.68530000  1
  O  O76  1  0.06909100  0.64625800  0.10112600  1
  O  O77  1  0.88326100  0.59088700  0.99720100  1
  O  O78  1  0.54356000  0.39582400  0.20661100  1
  O  O79  1  0.04356000  0.10417600  0.79338900  1
  O  O80  1  0.56909100  0.85374200  0.89887400  1
  O  O81  1  0.43200100  0.03435500  0.87693100  1
  O  O82  1  0.98045500  0.92790400  0.73666800  1
  O  O83  1  0.60116500  0.07477600  0.57454800  1
  O  O84  1  0.95644000  0.89582400  0.20661100  1
  O  O85  1  0.91199900  0.79997400  0.99025300  1
  O  O86  1  0.41199900  0.70002600  0.00974700  1
  O  O87  1  0.51954500  0.42790400  0.73666800  1
  O  O88  1  0.10116500  0.42522400  0.42545200  1
  O  O89  1  0.37694200  0.58159400  0.50843500  1
  O  O90  1  0.00172200  0.86265900  0.09058300  1
  O  O91  1  0.39035400  0.60108400  0.63314100  1
  O  O92  1  0.01402700  0.42610200  0.68530000  1
  O  O93  1  0.87694200  0.91840600  0.49156500  1
  O  O94  1  0.93090900  0.35374200  0.89887400  1
  O  O95  1  0.84605300  0.58391200  0.70726900  1
  O  O96  1  0.48210700  0.77082500  0.52647100  1
  O  O97  1  0.02935400  0.29178100  0.23243500  1
  O  O98  1  0.45644000  0.60417600  0.79338900  1
  O  O99  1  0.49827800  0.36265900  0.09058300  1
  O  O100  1  0.58520500  0.21480700  0.20846000  1
  O  O101  1  0.08520500  0.28519300  0.79154000  1
  O  O102  1  0.98210700  0.72917500  0.47352900  1
  O  O103  1  0.95522000  0.24310700  0.40462900  1
