# generated using pymatgen
data_CsFeS2
_symmetry_space_group_name_H-M   'P 1'
_cell_length_a   7.48089601
_cell_length_b   7.48089601
_cell_length_c   7.48089601
_cell_angle_alpha   137.49370967
_cell_angle_beta   123.26931669
_cell_angle_gamma   73.39462276
_symmetry_Int_Tables_number   1
_chemical_formula_structural   CsFeS2
_chemical_formula_sum   'Cs2 Fe2 S4'
_cell_volume   231.23932857
_cell_formula_units_Z   2
loop_
 _symmetry_equiv_pos_site_id
 _symmetry_equiv_pos_as_xyz
  1  'x, y, z'
loop_
 _atom_site_type_symbol
 _atom_site_label
 _atom_site_symmetry_multiplicity
 _atom_site_fract_x
 _atom_site_fract_y
 _atom_site_fract_z
 _atom_site_occupancy
  Cs  Cs0  1  0.32777700  0.82777700  0.50000000  1
  Cs  Cs1  1  0.67222300  0.17222300  0.50000000  1
  Fe  Fe2  1  0.00000000  0.74664800  0.74664800  1
  Fe  Fe3  1  0.00000000  0.25335200  0.25335200  1
  S  S4  1  0.24287200  0.50000000  0.74287200  1
  S  S5  1  0.75712800  0.50000000  0.25712800  1
  S  S6  1  0.14193700  0.14193700  0.00000000  1
  S  S7  1  0.85806300  0.85806300  0.00000000  1
