# generated using pymatgen
data_KMgPO4
_symmetry_space_group_name_H-M   'P 1'
_cell_length_a   5.14746900
_cell_length_b   8.66519300
_cell_length_c   19.26251231
_cell_angle_alpha   88.30460767
_cell_angle_beta   90.00000000
_cell_angle_gamma   90.00000000
_symmetry_Int_Tables_number   1
_chemical_formula_structural   KMgPO4
_chemical_formula_sum   'K8 Mg8 P8 O32'
_cell_volume   858.80537122
_cell_formula_units_Z   8
loop_
 _symmetry_equiv_pos_site_id
 _symmetry_equiv_pos_as_xyz
  1  'x, y, z'
loop_
 _atom_site_type_symbol
 _atom_site_label
 _atom_site_symmetry_multiplicity
 _atom_site_fract_x
 _atom_site_fract_y
 _atom_site_fract_z
 _atom_site_occupancy
  K  K0  1  0.26556700  0.51825900  0.84042800  1
  K  K1  1  0.72455000  0.99562800  0.09315700  1
  K  K2  1  0.23443300  0.51825900  0.34042800  1
  K  K3  1  0.22455000  0.00437200  0.40684300  1
  K  K4  1  0.27545000  0.00437200  0.90684300  1
  K  K5  1  0.77545000  0.99562800  0.59315700  1
  K  K6  1  0.73443300  0.48174100  0.15957200  1
  K  K7  1  0.76556700  0.48174100  0.65957200  1
  Mg  Mg8  1  0.27881000  0.67807600  0.03050400  1
  Mg  Mg9  1  0.77549600  0.84387600  0.26894400  1
  Mg  Mg10  1  0.72119000  0.32192400  0.96949600  1
  Mg  Mg11  1  0.22119000  0.67807600  0.53050400  1
  Mg  Mg12  1  0.22450400  0.15612400  0.73105600  1
  Mg  Mg13  1  0.72450400  0.84387600  0.76894400  1
  Mg  Mg14  1  0.77881000  0.32192400  0.46949600  1
  Mg  Mg15  1  0.27549600  0.15612400  0.23105600  1
  P  P16  1  0.74652700  0.70503300  0.43706600  1
  P  P17  1  0.70549400  0.20736000  0.31019100  1
  P  P18  1  0.79450600  0.20736000  0.81019100  1
  P  P19  1  0.75347300  0.70503300  0.93706600  1
  P  P20  1  0.24652700  0.29496700  0.06293400  1
  P  P21  1  0.25347300  0.29496700  0.56293400  1
  P  P22  1  0.20549400  0.79264000  0.18980900  1
  P  P23  1  0.29450600  0.79264000  0.68980900  1
  O  O24  1  0.03754600  0.67064400  0.22934100  1
  O  O25  1  0.46245400  0.67064400  0.72934100  1
  O  O26  1  0.31795300  0.21265000  0.13254000  1
  O  O27  1  0.18204700  0.21265000  0.63254000  1
  O  O28  1  0.55052400  0.28143800  0.54978800  1
  O  O29  1  0.32454300  0.46776300  0.06612200  1
  O  O30  1  0.81795300  0.78735000  0.36746000  1
  O  O31  1  0.59408400  0.05062200  0.28219000  1
  O  O32  1  0.89985900  0.78081400  0.49702400  1
  O  O33  1  0.10014100  0.21918600  0.50297600  1
  O  O34  1  0.05052400  0.71856200  0.95021200  1
  O  O35  1  0.44947600  0.71856200  0.45021200  1
  O  O36  1  0.82454300  0.53223700  0.43387800  1
  O  O37  1  0.49838000  0.77337100  0.20543400  1
  O  O38  1  0.99838000  0.22662900  0.29456600  1
  O  O39  1  0.96245400  0.32935600  0.77065900  1
  O  O40  1  0.39985900  0.21918600  0.00297600  1
  O  O41  1  0.53754600  0.32935600  0.27065900  1
  O  O42  1  0.67545700  0.53223700  0.93387800  1
  O  O43  1  0.09408400  0.94937800  0.21781000  1
  O  O44  1  0.00162000  0.77337100  0.70543400  1
  O  O45  1  0.33952300  0.79297200  0.61030800  1
  O  O46  1  0.94947600  0.28143800  0.04978800  1
  O  O47  1  0.66047700  0.20702800  0.38969200  1
  O  O48  1  0.60014100  0.78081400  0.99702400  1
  O  O49  1  0.83952300  0.20702800  0.88969200  1
  O  O50  1  0.50162000  0.22662900  0.79456600  1
  O  O51  1  0.90591600  0.05062200  0.78219000  1
  O  O52  1  0.16047700  0.79297200  0.11030800  1
  O  O53  1  0.17545700  0.46776300  0.56612200  1
  O  O54  1  0.68204700  0.78735000  0.86746000  1
  O  O55  1  0.40591600  0.94937800  0.71781000  1
