# generated using pymatgen
data_Rb3Mo12PO40
_symmetry_space_group_name_H-M   'P 1'
_cell_length_a   12.03358100
_cell_length_b   12.03358100
_cell_length_c   12.03358100
_cell_angle_alpha   90.00000000
_cell_angle_beta   90.00000000
_cell_angle_gamma   90.00000000
_symmetry_Int_Tables_number   1
_chemical_formula_structural   Rb3Mo12PO40
_chemical_formula_sum   'Rb6 Mo24 P2 O80'
_cell_volume   1742.54762648
_cell_formula_units_Z   2
loop_
 _symmetry_equiv_pos_site_id
 _symmetry_equiv_pos_as_xyz
  1  'x, y, z'
loop_
 _atom_site_type_symbol
 _atom_site_label
 _atom_site_symmetry_multiplicity
 _atom_site_fract_x
 _atom_site_fract_y
 _atom_site_fract_z
 _atom_site_occupancy
  Rb  Rb0  1  0.00000000  0.50000000  0.50000000  1
  Rb  Rb1  1  0.50000000  0.50000000  0.00000000  1
  Rb  Rb2  1  0.50000000  0.00000000  0.00000000  1
  Rb  Rb3  1  0.50000000  0.00000000  0.50000000  1
  Rb  Rb4  1  0.00000000  0.50000000  0.00000000  1
  Rb  Rb5  1  0.00000000  0.00000000  0.50000000  1
  Mo  Mo6  1  0.78765700  0.78765700  0.99206000  1
  Mo  Mo7  1  0.50794000  0.28765700  0.28765700  1
  Mo  Mo8  1  0.99206000  0.21234300  0.21234300  1
  Mo  Mo9  1  0.49206000  0.71234300  0.28765700  1
  Mo  Mo10  1  0.28765700  0.50794000  0.28765700  1
  Mo  Mo11  1  0.50794000  0.71234300  0.71234300  1
  Mo  Mo12  1  0.71234300  0.49206000  0.28765700  1
  Mo  Mo13  1  0.99206000  0.78765700  0.78765700  1
  Mo  Mo14  1  0.49206000  0.28765700  0.71234300  1
  Mo  Mo15  1  0.00794000  0.21234300  0.78765700  1
  Mo  Mo16  1  0.78765700  0.99206000  0.78765700  1
  Mo  Mo17  1  0.28765700  0.49206000  0.71234300  1
  Mo  Mo18  1  0.78765700  0.00794000  0.21234300  1
  Mo  Mo19  1  0.21234300  0.78765700  0.00794000  1
  Mo  Mo20  1  0.00794000  0.78765700  0.21234300  1
  Mo  Mo21  1  0.71234300  0.71234300  0.50794000  1
  Mo  Mo22  1  0.71234300  0.50794000  0.71234300  1
  Mo  Mo23  1  0.21234300  0.99206000  0.21234300  1
  Mo  Mo24  1  0.78765700  0.21234300  0.00794000  1
  Mo  Mo25  1  0.28765700  0.71234300  0.49206000  1
  Mo  Mo26  1  0.28765700  0.28765700  0.50794000  1
  Mo  Mo27  1  0.21234300  0.00794000  0.78765700  1
  Mo  Mo28  1  0.21234300  0.21234300  0.99206000  1
  Mo  Mo29  1  0.71234300  0.28765700  0.49206000  1
  P  P30  1  0.50000000  0.50000000  0.50000000  1
  P  P31  1  0.00000000  0.00000000  0.00000000  1
  O  O32  1  0.71791300  0.12358300  0.12358300  1
  O  O33  1  0.57423600  0.57423600  0.57423600  1
  O  O34  1  0.51578600  0.81165700  0.18834300  1
  O  O35  1  0.12358300  0.71791300  0.12358300  1
  O  O36  1  0.42576400  0.42576400  0.57423600  1
  O  O37  1  0.59735400  0.59735400  0.24765400  1
  O  O38  1  0.28208700  0.12358300  0.87641700  1
  O  O39  1  0.62358300  0.62358300  0.78208700  1
  O  O40  1  0.37641700  0.62358300  0.21791300  1
  O  O41  1  0.12358300  0.12358300  0.71791300  1
  O  O42  1  0.09735400  0.09735400  0.25234600  1
  O  O43  1  0.12358300  0.28208700  0.87641700  1
  O  O44  1  0.98421400  0.68834300  0.31165700  1
  O  O45  1  0.48421400  0.81165700  0.81165700  1
  O  O46  1  0.81165700  0.18834300  0.51578600  1
  O  O47  1  0.09735400  0.90264600  0.74765400  1
  O  O48  1  0.25234600  0.09735400  0.09735400  1
  O  O49  1  0.81165700  0.48421400  0.81165700  1
  O  O50  1  0.09735400  0.74765400  0.90264600  1
  O  O51  1  0.18834300  0.18834300  0.48421400  1
  O  O52  1  0.31165700  0.68834300  0.98421400  1
  O  O53  1  0.31165700  0.98421400  0.68834300  1
  O  O54  1  0.59735400  0.24765400  0.59735400  1
  O  O55  1  0.28208700  0.87641700  0.12358300  1
  O  O56  1  0.21791300  0.62358300  0.37641700  1
  O  O57  1  0.07423600  0.92576400  0.07423600  1
  O  O58  1  0.78208700  0.37641700  0.37641700  1
  O  O59  1  0.62358300  0.78208700  0.62358300  1
  O  O60  1  0.51578600  0.18834300  0.81165700  1
  O  O61  1  0.40264600  0.40264600  0.24765400  1
  O  O62  1  0.68834300  0.68834300  0.01578600  1
  O  O63  1  0.98421400  0.31165700  0.68834300  1
  O  O64  1  0.90264600  0.09735400  0.74765400  1
  O  O65  1  0.68834300  0.98421400  0.31165700  1
  O  O66  1  0.59735400  0.40264600  0.75234600  1
  O  O67  1  0.59735400  0.75234600  0.40264600  1
  O  O68  1  0.24765400  0.59735400  0.59735400  1
  O  O69  1  0.90264600  0.90264600  0.25234600  1
  O  O70  1  0.92576400  0.92576400  0.92576400  1
  O  O71  1  0.18834300  0.81165700  0.51578600  1
  O  O72  1  0.71791300  0.87641700  0.87641700  1
  O  O73  1  0.87641700  0.12358300  0.28208700  1
  O  O74  1  0.37641700  0.78208700  0.37641700  1
  O  O75  1  0.92576400  0.07423600  0.07423600  1
  O  O76  1  0.40264600  0.59735400  0.75234600  1
  O  O77  1  0.87641700  0.87641700  0.71791300  1
  O  O78  1  0.75234600  0.40264600  0.59735400  1
  O  O79  1  0.07423600  0.07423600  0.92576400  1
  O  O80  1  0.24765400  0.40264600  0.40264600  1
  O  O81  1  0.21791300  0.37641700  0.62358300  1
  O  O82  1  0.37641700  0.37641700  0.78208700  1
  O  O83  1  0.57423600  0.42576400  0.42576400  1
  O  O84  1  0.68834300  0.31165700  0.98421400  1
  O  O85  1  0.81165700  0.81165700  0.48421400  1
  O  O86  1  0.31165700  0.01578600  0.31165700  1
  O  O87  1  0.81165700  0.51578600  0.18834300  1
  O  O88  1  0.62358300  0.37641700  0.21791300  1
  O  O89  1  0.25234600  0.90264600  0.90264600  1
  O  O90  1  0.40264600  0.75234600  0.59735400  1
  O  O91  1  0.74765400  0.90264600  0.09735400  1
  O  O92  1  0.87641700  0.71791300  0.87641700  1
  O  O93  1  0.78208700  0.62358300  0.62358300  1
  O  O94  1  0.37641700  0.21791300  0.62358300  1
  O  O95  1  0.75234600  0.59735400  0.40264600  1
  O  O96  1  0.31165700  0.31165700  0.01578600  1
  O  O97  1  0.68834300  0.01578600  0.68834300  1
  O  O98  1  0.48421400  0.18834300  0.18834300  1
  O  O99  1  0.01578600  0.31165700  0.31165700  1
  O  O100  1  0.74765400  0.09735400  0.90264600  1
  O  O101  1  0.62358300  0.21791300  0.37641700  1
  O  O102  1  0.09735400  0.25234600  0.09735400  1
  O  O103  1  0.87641700  0.28208700  0.12358300  1
  O  O104  1  0.18834300  0.48421400  0.18834300  1
  O  O105  1  0.01578600  0.68834300  0.68834300  1
  O  O106  1  0.42576400  0.57423600  0.42576400  1
  O  O107  1  0.90264600  0.74765400  0.09735400  1
  O  O108  1  0.40264600  0.24765400  0.40264600  1
  O  O109  1  0.90264600  0.25234600  0.90264600  1
  O  O110  1  0.12358300  0.87641700  0.28208700  1
  O  O111  1  0.18834300  0.51578600  0.81165700  1
