# generated using pymatgen
data_K4H6C2O9
_symmetry_space_group_name_H-M   'P 1'
_cell_length_a   9.21079976
_cell_length_b   9.21079976
_cell_length_c   7.21738095
_cell_angle_alpha   70.37797996
_cell_angle_beta   70.37797996
_cell_angle_gamma   97.66289504
_symmetry_Int_Tables_number   1
_chemical_formula_structural   K4H6C2O9
_chemical_formula_sum   'K8 H12 C4 O18'
_cell_volume   521.94280116
_cell_formula_units_Z   2
loop_
 _symmetry_equiv_pos_site_id
 _symmetry_equiv_pos_as_xyz
  1  'x, y, z'
loop_
 _atom_site_type_symbol
 _atom_site_label
 _atom_site_symmetry_multiplicity
 _atom_site_fract_x
 _atom_site_fract_y
 _atom_site_fract_z
 _atom_site_occupancy
  K  K0  1  0.61685400  0.38314600  0.25000000  1
  K  K1  1  0.38314600  0.61685400  0.75000000  1
  K  K2  1  0.31450400  0.68549600  0.25000000  1
  K  K3  1  0.68549600  0.31450400  0.75000000  1
  K  K4  1  0.29306900  0.99499300  0.45969000  1
  K  K5  1  0.00500700  0.70693100  0.04031000  1
  K  K6  1  0.70693100  0.00500700  0.54031000  1
  K  K7  1  0.99499300  0.29306900  0.95969000  1
  H  H8  1  0.11481800  0.02315000  0.15468400  1
  H  H9  1  0.97685000  0.88518200  0.34531600  1
  H  H10  1  0.88518200  0.97685000  0.84531600  1
  H  H11  1  0.02315000  0.11481800  0.65468400  1
  H  H12  1  0.29954000  0.35368900  0.13084900  1
  H  H13  1  0.64631100  0.70046000  0.36915100  1
  H  H14  1  0.70046000  0.64631100  0.86915100  1
  H  H15  1  0.35368900  0.29954000  0.63084900  1
  H  H16  1  0.35906000  0.21980800  0.04947700  1
  H  H17  1  0.78019200  0.64094000  0.45052300  1
  H  H18  1  0.64094000  0.78019200  0.95052300  1
  H  H19  1  0.21980800  0.35906000  0.54947700  1
  C  C20  1  0.63705900  0.97634300  0.15010200  1
  C  C21  1  0.02365700  0.36294100  0.34989800  1
  C  C22  1  0.36294100  0.02365700  0.84989800  1
  C  C23  1  0.97634300  0.63705900  0.65010200  1
  O  O24  1  0.66915100  0.11772800  0.14843100  1
  O  O25  1  0.88227200  0.33084900  0.35156900  1
  O  O26  1  0.33084900  0.88227200  0.85156900  1
  O  O27  1  0.11772800  0.66915100  0.64843100  1
  O  O28  1  0.55386200  0.85117400  0.33296200  1
  O  O29  1  0.14882600  0.44613800  0.16703800  1
  O  O30  1  0.44613800  0.14882600  0.66703800  1
  O  O31  1  0.85117400  0.55386200  0.83296200  1
  O  O32  1  0.68597000  0.95674100  0.96957800  1
  O  O33  1  0.04325900  0.31403000  0.53042200  1
  O  O34  1  0.31403000  0.04325900  0.03042200  1
  O  O35  1  0.95674100  0.68597000  0.46957800  1
  O  O36  1  0.99960200  0.00039800  0.25000000  1
  O  O37  1  0.00039800  0.99960200  0.75000000  1
  O  O38  1  0.39393100  0.31102500  0.08595100  1
  O  O39  1  0.68897500  0.60606900  0.41404900  1
  O  O40  1  0.60606900  0.68897500  0.91404900  1
  O  O41  1  0.31102500  0.39393100  0.58595100  1
