# generated using pymatgen
data_Ni2Hg2OF6
_symmetry_space_group_name_H-M   'P 1'
_cell_length_a   7.43571079
_cell_length_b   7.43571029
_cell_length_c   7.43571108
_cell_angle_alpha   120.00000031
_cell_angle_beta   89.99999831
_cell_angle_gamma   119.99999591
_symmetry_Int_Tables_number   1
_chemical_formula_structural   Ni2Hg2OF6
_chemical_formula_sum   'Ni4 Hg4 O2 F12'
_cell_volume   290.70499228
_cell_formula_units_Z   2
loop_
 _symmetry_equiv_pos_site_id
 _symmetry_equiv_pos_as_xyz
  1  'x, y, z'
loop_
 _atom_site_type_symbol
 _atom_site_label
 _atom_site_symmetry_multiplicity
 _atom_site_fract_x
 _atom_site_fract_y
 _atom_site_fract_z
 _atom_site_occupancy
  Ni  Ni0  1  0.50000000  0.50000000  0.50000000  1
  Ni  Ni1  1  0.50000000  0.00000000  0.00000000  1
  Ni  Ni2  1  0.00000000  0.00000000  0.00000000  1
  Ni  Ni3  1  0.50000000  0.50000000  0.00000000  1
  Hg  Hg4  1  0.50000000  0.00000000  0.50000000  1
  Hg  Hg5  1  0.00000000  0.50000000  0.50000000  1
  Hg  Hg6  1  0.00000000  0.50000000  0.00000000  1
  Hg  Hg7  1  0.00000000  0.00000000  0.50000000  1
  O  O8  1  0.12500000  0.75000000  0.37500000  1
  O  O9  1  0.87500000  0.25000000  0.62500000  1
  F  F10  1  0.57292600  0.25000000  0.92707400  1
  F  F11  1  0.42707400  0.75000000  0.67707400  1
  F  F12  1  0.82292600  0.75000000  0.07292600  1
  F  F13  1  0.82292600  0.75000000  0.67707400  1
  F  F14  1  0.42707400  0.35414900  0.67707400  1
  F  F15  1  0.82292600  0.14585100  0.07292600  1
  F  F16  1  0.57292600  0.64585100  0.32292600  1
  F  F17  1  0.57292600  0.25000000  0.32292600  1
  F  F18  1  0.17707400  0.25000000  0.92707400  1
  F  F19  1  0.17707400  0.85414900  0.92707400  1
  F  F20  1  0.42707400  0.75000000  0.07292600  1
  F  F21  1  0.17707400  0.25000000  0.32292600  1
