# generated using pymatgen
data_Nb2Hg3S(O2F5)2
_symmetry_space_group_name_H-M   'P 1'
_cell_length_a   12.31350464
_cell_length_b   10.48363108
_cell_length_c   9.31479681
_cell_angle_alpha   76.66396845
_cell_angle_beta   55.93823691
_cell_angle_gamma   47.39779465
_symmetry_Int_Tables_number   1
_chemical_formula_structural   Nb2Hg3S(O2F5)2
_chemical_formula_sum   'Nb4 Hg6 S2 O8 F20'
_cell_volume   711.17359352
_cell_formula_units_Z   2
loop_
 _symmetry_equiv_pos_site_id
 _symmetry_equiv_pos_as_xyz
  1  'x, y, z'
loop_
 _atom_site_type_symbol
 _atom_site_label
 _atom_site_symmetry_multiplicity
 _atom_site_fract_x
 _atom_site_fract_y
 _atom_site_fract_z
 _atom_site_occupancy
  Nb  Nb0  1  0.00998500  0.87590800  0.61017500  1
  Nb  Nb1  1  0.50393200  0.61017500  0.87590800  1
  Nb  Nb2  1  0.63982500  0.74606800  0.24001500  1
  Nb  Nb3  1  0.37409200  0.24001500  0.74606800  1
  Hg  Hg4  1  0.99851200  0.50148800  0.50148800  1
  Hg  Hg5  1  0.74851200  0.25148800  0.25148800  1
  Hg  Hg6  1  0.02018000  0.67908800  0.24925900  1
  Hg  Hg7  1  0.05147300  0.24925900  0.67908800  1
  Hg  Hg8  1  0.00074100  0.19852700  0.22982000  1
  Hg  Hg9  1  0.57091200  0.22982000  0.19852700  1
  S  S10  1  0.14510600  0.85489400  0.85489400  1
  S  S11  1  0.39510600  0.10489400  0.10489400  1
  O  O12  1  0.14514100  0.78410700  0.73120000  1
  O  O13  1  0.33955200  0.73120000  0.78410700  1
  O  O14  1  0.51880000  0.91044800  0.10485900  1
  O  O15  1  0.46589300  0.10485900  0.91044800  1
  O  O16  1  0.04251400  0.84990600  0.03900100  1
  O  O17  1  0.06857800  0.03900100  0.84990600  1
  O  O18  1  0.21099900  0.18142200  0.20748600  1
  O  O19  1  0.40009400  0.20748600  0.18142200  1
  F  F20  1  0.89357400  0.96886300  0.49019600  1
  F  F21  1  0.64736800  0.49019600  0.96886300  1
  F  F22  1  0.75980400  0.60263200  0.35642600  1
  F  F23  1  0.28113700  0.35642600  0.60263200  1
  F  F24  1  0.22779700  0.66426600  0.42104300  1
  F  F25  1  0.68689300  0.42104300  0.66426600  1
  F  F26  1  0.82895700  0.56310700  0.02220300  1
  F  F27  1  0.58573400  0.02220300  0.56310700  1
  F  F28  1  0.80287800  0.07176900  0.82183000  1
  F  F29  1  0.30352200  0.82183000  0.07176900  1
  F  F30  1  0.42817000  0.94647800  0.44712200  1
  F  F31  1  0.17823100  0.44712200  0.94647800  1
  F  F32  1  0.93196000  0.75044200  0.72244200  1
  F  F33  1  0.59515700  0.72244200  0.75044200  1
  F  F34  1  0.52755800  0.65484300  0.31804000  1
  F  F35  1  0.49955800  0.31804000  0.65484300  1
  F  F36  1  0.08129000  0.01005200  0.50237000  1
  F  F37  1  0.40628800  0.50237000  0.01005200  1
  F  F38  1  0.74763000  0.84371200  0.16871000  1
  F  F39  1  0.23994800  0.16871000  0.84371200  1
