# generated using pymatgen
data_RbIn3S5
_symmetry_space_group_name_H-M   'P 1'
_cell_length_a   3.84557500
_cell_length_b   12.57983500
_cell_length_c   15.60404651
_cell_angle_alpha   67.60220368
_cell_angle_beta   90.00000000
_cell_angle_gamma   90.00000000
_symmetry_Int_Tables_number   1
_chemical_formula_structural   RbIn3S5
_chemical_formula_sum   'Rb3 In9 S15'
_cell_volume   697.92521800
_cell_formula_units_Z   3
loop_
 _symmetry_equiv_pos_site_id
 _symmetry_equiv_pos_as_xyz
  1  'x, y, z'
loop_
 _atom_site_type_symbol
 _atom_site_label
 _atom_site_symmetry_multiplicity
 _atom_site_fract_x
 _atom_site_fract_y
 _atom_site_fract_z
 _atom_site_occupancy
  Rb  Rb0  1  0.00000000  0.50000000  0.00000000  1
  Rb  Rb1  1  0.50000000  0.13546600  0.57354800  1
  Rb  Rb2  1  0.50000000  0.86453400  0.42645200  1
  In  In3  1  0.50000000  0.17358500  0.83541100  1
  In  In4  1  0.50000000  0.82641500  0.16458900  1
  In  In5  1  0.50000000  0.50000000  0.50000000  1
  In  In6  1  0.00000000  0.47770400  0.71356000  1
  In  In7  1  0.00000000  0.52229600  0.28644000  1
  In  In8  1  0.50000000  0.77217400  0.73009800  1
  In  In9  1  0.50000000  0.22782600  0.26990200  1
  In  In10  1  0.00000000  0.88282200  0.93018100  1
  In  In11  1  0.00000000  0.11717800  0.06981900  1
  S  S12  1  0.00000000  0.26777000  0.89810100  1
  S  S13  1  0.00000000  0.73223000  0.10189900  1
  S  S14  1  0.50000000  0.55559900  0.78888600  1
  S  S15  1  0.50000000  0.44440100  0.21111400  1
  S  S16  1  0.00000000  0.06620800  0.78294900  1
  S  S17  1  0.00000000  0.93379200  0.21705100  1
  S  S18  1  0.00000000  0.61582000  0.54260000  1
  S  S19  1  0.00000000  0.38418000  0.45740000  1
  S  S20  1  0.50000000  0.76739400  0.89340100  1
  S  S21  1  0.50000000  0.23260600  0.10659900  1
  S  S22  1  0.00000000  0.87005400  0.63098600  1
  S  S23  1  0.00000000  0.12994600  0.36901400  1
  S  S24  1  0.50000000  0.35552000  0.67936300  1
  S  S25  1  0.50000000  0.64448000  0.32063700  1
  S  S26  1  0.50000000  0.00000000  0.00000000  1
