# generated using pymatgen
data_InHg6As4Cl7
_symmetry_space_group_name_H-M   'P 1'
_cell_length_a   12.44144200
_cell_length_b   12.44144200
_cell_length_c   12.44144200
_cell_angle_alpha   90.00000000
_cell_angle_beta   90.00000000
_cell_angle_gamma   90.00000000
_symmetry_Int_Tables_number   1
_chemical_formula_structural   InHg6As4Cl7
_chemical_formula_sum   'In4 Hg24 As16 Cl28'
_cell_volume   1925.80432568
_cell_formula_units_Z   4
loop_
 _symmetry_equiv_pos_site_id
 _symmetry_equiv_pos_as_xyz
  1  'x, y, z'
loop_
 _atom_site_type_symbol
 _atom_site_label
 _atom_site_symmetry_multiplicity
 _atom_site_fract_x
 _atom_site_fract_y
 _atom_site_fract_z
 _atom_site_occupancy
  In  In0  1  0.00000000  0.00000000  0.50000000  1
  In  In1  1  0.50000000  0.00000000  0.00000000  1
  In  In2  1  0.50000000  0.50000000  0.50000000  1
  In  In3  1  0.00000000  0.50000000  0.00000000  1
  Hg  Hg4  1  0.69870600  0.95361600  0.31343800  1
  Hg  Hg5  1  0.19870600  0.54638400  0.68656200  1
  Hg  Hg6  1  0.81343800  0.69870600  0.54638400  1
  Hg  Hg7  1  0.54638400  0.81343800  0.69870600  1
  Hg  Hg8  1  0.69870600  0.54638400  0.81343800  1
  Hg  Hg9  1  0.45361600  0.31343800  0.80129400  1
  Hg  Hg10  1  0.54638400  0.68656200  0.19870600  1
  Hg  Hg11  1  0.68656200  0.19870600  0.54638400  1
  Hg  Hg12  1  0.04638400  0.81343800  0.80129400  1
  Hg  Hg13  1  0.30129400  0.45361600  0.18656200  1
  Hg  Hg14  1  0.80129400  0.45361600  0.31343800  1
  Hg  Hg15  1  0.30129400  0.04638400  0.68656200  1
  Hg  Hg16  1  0.95361600  0.31343800  0.69870600  1
  Hg  Hg17  1  0.18656200  0.19870600  0.95361600  1
  Hg  Hg18  1  0.81343800  0.80129400  0.04638400  1
  Hg  Hg19  1  0.04638400  0.68656200  0.30129400  1
  Hg  Hg20  1  0.31343800  0.69870600  0.95361600  1
  Hg  Hg21  1  0.18656200  0.30129400  0.45361600  1
  Hg  Hg22  1  0.80129400  0.04638400  0.81343800  1
  Hg  Hg23  1  0.45361600  0.18656200  0.30129400  1
  Hg  Hg24  1  0.19870600  0.95361600  0.18656200  1
  Hg  Hg25  1  0.68656200  0.30129400  0.04638400  1
  Hg  Hg26  1  0.31343800  0.80129400  0.45361600  1
  Hg  Hg27  1  0.95361600  0.18656200  0.19870600  1
  As  As28  1  0.73360000  0.73360000  0.73360000  1
  As  As29  1  0.65109300  0.15109300  0.34890700  1
  As  As30  1  0.26640000  0.26640000  0.26640000  1
  As  As31  1  0.76640000  0.23360000  0.73360000  1
  As  As32  1  0.84890700  0.84890700  0.84890700  1
  As  As33  1  0.34890700  0.65109300  0.15109300  1
  As  As34  1  0.23360000  0.76640000  0.26640000  1
  As  As35  1  0.15109300  0.34890700  0.65109300  1
  As  As36  1  0.23360000  0.73360000  0.76640000  1
  As  As37  1  0.26640000  0.23360000  0.76640000  1
  As  As38  1  0.76640000  0.26640000  0.23360000  1
  As  As39  1  0.84890700  0.65109300  0.34890700  1
  As  As40  1  0.15109300  0.15109300  0.15109300  1
  As  As41  1  0.65109300  0.34890700  0.84890700  1
  As  As42  1  0.73360000  0.76640000  0.23360000  1
  As  As43  1  0.34890700  0.84890700  0.65109300  1
  Cl  Cl44  1  0.30361800  0.54013200  0.45358300  1
  Cl  Cl45  1  0.04013200  0.45358300  0.19638200  1
  Cl  Cl46  1  0.69638200  0.04013200  0.04641700  1
  Cl  Cl47  1  0.50000000  0.00000000  0.50000000  1
  Cl  Cl48  1  0.45986800  0.95358300  0.19638200  1
  Cl  Cl49  1  0.19638200  0.45986800  0.95358300  1
  Cl  Cl50  1  0.45358300  0.19638200  0.04013200  1
  Cl  Cl51  1  0.00000000  0.00000000  0.00000000  1
  Cl  Cl52  1  0.95986800  0.95358300  0.30361800  1
  Cl  Cl53  1  0.45358300  0.30361800  0.54013200  1
  Cl  Cl54  1  0.80361800  0.54013200  0.04641700  1
  Cl  Cl55  1  0.04641700  0.69638200  0.04013200  1
  Cl  Cl56  1  0.54641700  0.69638200  0.45986800  1
  Cl  Cl57  1  0.95358300  0.30361800  0.95986800  1
  Cl  Cl58  1  0.69638200  0.45986800  0.54641700  1
  Cl  Cl59  1  0.80361800  0.95986800  0.54641700  1
  Cl  Cl60  1  0.50000000  0.50000000  0.00000000  1
  Cl  Cl61  1  0.00000000  0.50000000  0.50000000  1
  Cl  Cl62  1  0.54013200  0.04641700  0.80361800  1
  Cl  Cl63  1  0.30361800  0.95986800  0.95358300  1
  Cl  Cl64  1  0.04013200  0.04641700  0.69638200  1
  Cl  Cl65  1  0.95358300  0.19638200  0.45986800  1
  Cl  Cl66  1  0.19638200  0.04013200  0.45358300  1
  Cl  Cl67  1  0.54013200  0.45358300  0.30361800  1
  Cl  Cl68  1  0.04641700  0.80361800  0.54013200  1
  Cl  Cl69  1  0.54641700  0.80361800  0.95986800  1
  Cl  Cl70  1  0.95986800  0.54641700  0.80361800  1
  Cl  Cl71  1  0.45986800  0.54641700  0.69638200  1
