# generated using pymatgen
data_Cs4Ti3S14
_symmetry_space_group_name_H-M   'P 1'
_cell_length_a   11.70249819
_cell_length_b   11.70249819
_cell_length_c   14.20554330
_cell_angle_alpha   67.00932394
_cell_angle_beta   67.00932394
_cell_angle_gamma   43.31817940
_symmetry_Int_Tables_number   1
_chemical_formula_structural   Cs4Ti3S14
_chemical_formula_sum   'Cs8 Ti6 S28'
_cell_volume   1211.07900497
_cell_formula_units_Z   2
loop_
 _symmetry_equiv_pos_site_id
 _symmetry_equiv_pos_as_xyz
  1  'x, y, z'
loop_
 _atom_site_type_symbol
 _atom_site_label
 _atom_site_symmetry_multiplicity
 _atom_site_fract_x
 _atom_site_fract_y
 _atom_site_fract_z
 _atom_site_occupancy
  Cs  Cs0  1  0.02589100  0.38221900  0.88581300  1
  Cs  Cs1  1  0.61778100  0.97410900  0.61418700  1
  Cs  Cs2  1  0.97410900  0.61778100  0.11418700  1
  Cs  Cs3  1  0.38221900  0.02589100  0.38581300  1
  Cs  Cs4  1  0.20084700  0.67441200  0.64704100  1
  Cs  Cs5  1  0.32558800  0.79915300  0.85295900  1
  Cs  Cs6  1  0.79915300  0.32558800  0.35295900  1
  Cs  Cs7  1  0.67441200  0.20084700  0.14704100  1
  Ti  Ti8  1  0.92346700  0.41095800  0.58223700  1
  Ti  Ti9  1  0.58904200  0.07653300  0.91776300  1
  Ti  Ti10  1  0.07653300  0.58904200  0.41776300  1
  Ti  Ti11  1  0.41095800  0.92346700  0.08223700  1
  Ti  Ti12  1  0.76388200  0.23611800  0.75000000  1
  Ti  Ti13  1  0.23611800  0.76388200  0.25000000  1
  S  S14  1  0.88034600  0.19867600  0.88225500  1
  S  S15  1  0.80132400  0.11965400  0.61774500  1
  S  S16  1  0.11965400  0.80132400  0.11774500  1
  S  S17  1  0.19867600  0.88034600  0.38225500  1
  S  S18  1  0.66975200  0.46836400  0.58691400  1
  S  S19  1  0.53163600  0.33024800  0.91308600  1
  S  S20  1  0.33024800  0.53163600  0.41308600  1
  S  S21  1  0.46836400  0.66975200  0.08691400  1
  S  S22  1  0.05600300  0.11379400  0.63144300  1
  S  S23  1  0.88620600  0.94399700  0.86855700  1
  S  S24  1  0.94399700  0.88620600  0.36855700  1
  S  S25  1  0.11379400  0.05600300  0.13144300  1
  S  S26  1  0.76436800  0.42703300  0.78024900  1
  S  S27  1  0.57296700  0.23563200  0.71975100  1
  S  S28  1  0.23563200  0.57296700  0.21975100  1
  S  S29  1  0.42703300  0.76436800  0.28024900  1
  S  S30  1  0.99399100  0.56227500  0.59414900  1
  S  S31  1  0.43772500  0.00600900  0.90585100  1
  S  S32  1  0.00600900  0.43772500  0.40585100  1
  S  S33  1  0.56227500  0.99399100  0.09414900  1
  S  S34  1  0.83424000  0.82310100  0.84395600  1
  S  S35  1  0.17689900  0.16576000  0.65604400  1
  S  S36  1  0.16576000  0.17689900  0.15604400  1
  S  S37  1  0.82310100  0.83424000  0.34395600  1
  S  S38  1  0.32754500  0.38088500  0.89894600  1
  S  S39  1  0.61911500  0.67245500  0.60105400  1
  S  S40  1  0.67245500  0.61911500  0.10105400  1
  S  S41  1  0.38088500  0.32754500  0.39894600  1
