# generated using pymatgen
data_VF4
_symmetry_space_group_name_H-M   'P 1'
_cell_length_a   5.24098100
_cell_length_b   5.42487400
_cell_length_c   5.70720404
_cell_angle_alpha   61.62496138
_cell_angle_beta   90.00000000
_cell_angle_gamma   90.00000000
_symmetry_Int_Tables_number   1
_chemical_formula_structural   VF4
_chemical_formula_sum   'V2 F8'
_cell_volume   142.77004344
_cell_formula_units_Z   2
loop_
 _symmetry_equiv_pos_site_id
 _symmetry_equiv_pos_as_xyz
  1  'x, y, z'
loop_
 _atom_site_type_symbol
 _atom_site_label
 _atom_site_symmetry_multiplicity
 _atom_site_fract_x
 _atom_site_fract_y
 _atom_site_fract_z
 _atom_site_occupancy
  V  V0  1  0.50000000  0.50000000  0.00000000  1
  V  V1  1  0.00000000  0.00000000  0.00000000  1
  F  F2  1  0.19283500  0.66018900  0.07285600  1
  F  F3  1  0.69283500  0.83981100  0.92714400  1
  F  F4  1  0.41277000  0.65132300  0.66108700  1
  F  F5  1  0.91277000  0.84867700  0.33891300  1
  F  F6  1  0.58723000  0.34867700  0.33891300  1
  F  F7  1  0.08723000  0.15132300  0.66108700  1
  F  F8  1  0.30716500  0.16018900  0.07285600  1
  F  F9  1  0.80716500  0.33981100  0.92714400  1
