# generated using pymatgen
data_Rb3Nb2S11
_symmetry_space_group_name_H-M   'P 1'
_cell_length_a   8.18047400
_cell_length_b   12.01186100
_cell_length_c   19.67196750
_cell_angle_alpha   76.92337516
_cell_angle_beta   90.00000000
_cell_angle_gamma   90.00000000
_symmetry_Int_Tables_number   1
_chemical_formula_structural   Rb3Nb2S11
_chemical_formula_sum   'Rb12 Nb8 S44'
_cell_volume   1882.89455176
_cell_formula_units_Z   4
loop_
 _symmetry_equiv_pos_site_id
 _symmetry_equiv_pos_as_xyz
  1  'x, y, z'
loop_
 _atom_site_type_symbol
 _atom_site_label
 _atom_site_symmetry_multiplicity
 _atom_site_fract_x
 _atom_site_fract_y
 _atom_site_fract_z
 _atom_site_occupancy
  Rb  Rb0  1  0.82826800  0.99840700  0.65870600  1
  Rb  Rb1  1  0.32826800  0.00159300  0.84129400  1
  Rb  Rb2  1  0.17173200  0.00159300  0.34129400  1
  Rb  Rb3  1  0.67173200  0.99840700  0.15870600  1
  Rb  Rb4  1  0.31733200  0.77162800  0.61336000  1
  Rb  Rb5  1  0.81733200  0.22837200  0.88664000  1
  Rb  Rb6  1  0.68266800  0.22837200  0.38664000  1
  Rb  Rb7  1  0.18266800  0.77162800  0.11336000  1
  Rb  Rb8  1  0.84394600  0.46231900  0.64287400  1
  Rb  Rb9  1  0.34394600  0.53768100  0.85712600  1
  Rb  Rb10  1  0.15605400  0.53768100  0.35712600  1
  Rb  Rb11  1  0.65605400  0.46231900  0.14287400  1
  Nb  Nb12  1  0.64262400  0.70921100  0.33431800  1
  Nb  Nb13  1  0.14262400  0.29078900  0.16568200  1
  Nb  Nb14  1  0.35737600  0.29078900  0.66568200  1
  Nb  Nb15  1  0.85737600  0.70921100  0.83431800  1
  Nb  Nb16  1  0.77259700  0.80274100  0.49153500  1
  Nb  Nb17  1  0.27259700  0.19725900  0.00846500  1
  Nb  Nb18  1  0.22740300  0.19725900  0.50846500  1
  Nb  Nb19  1  0.72740300  0.80274100  0.99153500  1
  S  S20  1  0.43308500  0.76426400  0.26116300  1
  S  S21  1  0.93308500  0.23573600  0.23883700  1
  S  S22  1  0.56691500  0.23573600  0.73883700  1
  S  S23  1  0.06691500  0.76426400  0.76116300  1
  S  S24  1  0.72595900  0.52035300  0.31411700  1
  S  S25  1  0.22595900  0.47964700  0.18588300  1
  S  S26  1  0.27404100  0.47964700  0.68588300  1
  S  S27  1  0.77404100  0.52035300  0.81411700  1
  S  S28  1  0.57399600  0.51451100  0.39993500  1
  S  S29  1  0.07399600  0.48548900  0.10006500  1
  S  S30  1  0.42600400  0.48548900  0.60006500  1
  S  S31  1  0.92600400  0.51451100  0.89993500  1
  S  S32  1  0.89493300  0.79455600  0.27674800  1
  S  S33  1  0.39493300  0.20544400  0.22325200  1
  S  S34  1  0.10506700  0.20544400  0.72325200  1
  S  S35  1  0.60506700  0.79455600  0.77674800  1
  S  S36  1  0.77685000  0.89206300  0.33740600  1
  S  S37  1  0.27685000  0.10793700  0.16259400  1
  S  S38  1  0.22315000  0.10793700  0.66259400  1
  S  S39  1  0.72315000  0.89206300  0.83740600  1
  S  S40  1  0.50547000  0.74631900  0.44530900  1
  S  S41  1  0.00547000  0.25368100  0.05469100  1
  S  S42  1  0.49453000  0.25368100  0.55469100  1
  S  S43  1  0.99453000  0.74631900  0.94530900  1
  S  S44  1  0.52094100  0.91730500  0.45037700  1
  S  S45  1  0.02094100  0.08269500  0.04962300  1
  S  S46  1  0.47905900  0.08269500  0.54962300  1
  S  S47  1  0.97905900  0.91730500  0.95037700  1
  S  S48  1  0.87089400  0.63058400  0.45651900  1
  S  S49  1  0.37089400  0.36941600  0.04348100  1
  S  S50  1  0.12910600  0.36941600  0.54348100  1
  S  S51  1  0.62910600  0.63058400  0.95651900  1
  S  S52  1  0.05291200  0.74756100  0.46807400  1
  S  S53  1  0.55291200  0.25243900  0.03192600  1
  S  S54  1  0.94708800  0.25243900  0.53192600  1
  S  S55  1  0.44708800  0.74756100  0.96807400  1
  S  S56  1  0.73509400  0.74313700  0.60664100  1
  S  S57  1  0.23509400  0.25686300  0.89335900  1
  S  S58  1  0.26490600  0.25686300  0.39335900  1
  S  S59  1  0.76490600  0.74313700  0.10664100  1
  S  S60  1  0.87713700  0.00191600  0.48528800  1
  S  S61  1  0.37713700  0.99808400  0.01471200  1
  S  S62  1  0.12286300  0.99808400  0.51471200  1
  S  S63  1  0.62286300  0.00191600  0.98528800  1
