# generated using pymatgen
data_CeF4
_symmetry_space_group_name_H-M   'P 1'
_cell_length_a   8.37092053
_cell_length_b   8.37092053
_cell_length_c   8.38321462
_cell_angle_alpha   63.19037792
_cell_angle_beta   63.19037792
_cell_angle_gamma   80.15613043
_symmetry_Int_Tables_number   1
_chemical_formula_structural   CeF4
_chemical_formula_sum   'Ce6 F24'
_cell_volume   467.54387466
_cell_formula_units_Z   6
loop_
 _symmetry_equiv_pos_site_id
 _symmetry_equiv_pos_as_xyz
  1  'x, y, z'
loop_
 _atom_site_type_symbol
 _atom_site_label
 _atom_site_symmetry_multiplicity
 _atom_site_fract_x
 _atom_site_fract_y
 _atom_site_fract_z
 _atom_site_occupancy
  Ce  Ce0  1  0.36853400  0.22394500  0.32931600  1
  Ce  Ce1  1  0.77605500  0.63146600  0.17068400  1
  Ce  Ce2  1  0.63146600  0.77605500  0.67068400  1
  Ce  Ce3  1  0.22394500  0.36853400  0.82931600  1
  Ce  Ce4  1  0.21208100  0.78791900  0.25000000  1
  Ce  Ce5  1  0.78791900  0.21208100  0.75000000  1
  F  F6  1  0.60372900  0.39627100  0.25000000  1
  F  F7  1  0.39627100  0.60372900  0.75000000  1
  F  F8  1  0.49699800  0.73873000  0.21773000  1
  F  F9  1  0.26127000  0.50300200  0.28227000  1
  F  F10  1  0.50300200  0.26127000  0.78227000  1
  F  F11  1  0.73873000  0.49699800  0.71773000  1
  F  F12  1  0.27651300  0.97093800  0.34757900  1
  F  F13  1  0.02906200  0.72348700  0.15242100  1
  F  F14  1  0.72348700  0.02906200  0.65242100  1
  F  F15  1  0.97093800  0.27651300  0.84757900  1
  F  F16  1  0.50000000  0.00000000  0.50000000  1
  F  F17  1  0.00000000  0.50000000  0.00000000  1
  F  F18  1  0.17336900  0.06553000  0.04464300  1
  F  F19  1  0.93447000  0.82663100  0.45535700  1
  F  F20  1  0.82663100  0.93447000  0.95535700  1
  F  F21  1  0.06553000  0.17336900  0.54464300  1
  F  F22  1  0.59579300  0.18532500  0.07299100  1
  F  F23  1  0.81467500  0.40420700  0.42700900  1
  F  F24  1  0.40420700  0.81467500  0.92700900  1
  F  F25  1  0.18532500  0.59579300  0.57299100  1
  F  F26  1  0.25983100  0.31780600  0.10476200  1
  F  F27  1  0.68219400  0.74016900  0.39523800  1
  F  F28  1  0.74016900  0.68219400  0.89523800  1
  F  F29  1  0.31780600  0.25983100  0.60476200  1
