# generated using pymatgen
data_NdP5O14
_symmetry_space_group_name_H-M   'P 1'
_cell_length_a   8.91563700
_cell_length_b   9.17380600
_cell_length_c   13.18435900
_cell_angle_alpha   90.00000000
_cell_angle_beta   90.00000000
_cell_angle_gamma   90.00000000
_symmetry_Int_Tables_number   1
_chemical_formula_structural   NdP5O14
_chemical_formula_sum   'Nd4 P20 O56'
_cell_volume   1078.35299704
_cell_formula_units_Z   4
loop_
 _symmetry_equiv_pos_site_id
 _symmetry_equiv_pos_as_xyz
  1  'x, y, z'
loop_
 _atom_site_type_symbol
 _atom_site_label
 _atom_site_symmetry_multiplicity
 _atom_site_fract_x
 _atom_site_fract_y
 _atom_site_fract_z
 _atom_site_occupancy
  Nd  Nd0  1  0.27665900  0.68845600  0.00000000  1
  Nd  Nd1  1  0.27665900  0.81154400  0.50000000  1
  Nd  Nd2  1  0.72334100  0.31154400  0.00000000  1
  Nd  Nd3  1  0.72334100  0.18845600  0.50000000  1
  P  P4  1  0.76357000  0.95136500  0.83617600  1
  P  P5  1  0.00000000  0.00000000  0.67456500  1
  P  P6  1  0.23643000  0.04863500  0.83617600  1
  P  P7  1  0.23643000  0.45136500  0.33617600  1
  P  P8  1  0.23643000  0.45136500  0.66382400  1
  P  P9  1  0.68493700  0.74625700  0.00000000  1
  P  P10  1  0.50000000  0.00000000  0.29659000  1
  P  P11  1  0.76357000  0.95136500  0.16382400  1
  P  P12  1  0.50000000  0.50000000  0.79659000  1
  P  P13  1  0.31506300  0.24625700  0.50000000  1
  P  P14  1  0.00000000  0.50000000  0.17456500  1
  P  P15  1  0.76357000  0.54863500  0.66382400  1
  P  P16  1  0.76357000  0.54863500  0.33617600  1
  P  P17  1  0.68493700  0.75374300  0.50000000  1
  P  P18  1  0.00000000  0.00000000  0.32543500  1
  P  P19  1  0.50000000  0.50000000  0.20341000  1
  P  P20  1  0.50000000  0.00000000  0.70341000  1
  P  P21  1  0.31506300  0.25374300  0.00000000  1
  P  P22  1  0.00000000  0.50000000  0.82543500  1
  P  P23  1  0.23643000  0.04863500  0.16382400  1
  O  O24  1  0.08148000  0.61756800  0.11986100  1
  O  O25  1  0.58643400  0.38492700  0.14966300  1
  O  O26  1  0.46876600  0.18934200  0.00000000  1
  O  O27  1  0.53123400  0.68934200  0.50000000  1
  O  O28  1  0.71231100  0.91347500  0.50000000  1
  O  O29  1  0.28768900  0.08652500  0.50000000  1
  O  O30  1  0.88775100  0.91806100  0.24556600  1
  O  O31  1  0.22660700  0.90602200  0.88762100  1
  O  O32  1  0.60949400  0.58483700  0.71760300  1
  O  O33  1  0.91852000  0.38243200  0.88013900  1
  O  O34  1  0.22660700  0.59397800  0.38762100  1
  O  O35  1  0.28768900  0.41347500  0.00000000  1
  O  O36  1  0.88775100  0.91806100  0.75443400  1
  O  O37  1  0.58643400  0.38492700  0.85033700  1
  O  O38  1  0.60949400  0.91516300  0.21760300  1
  O  O39  1  0.58643400  0.11507300  0.64966300  1
  O  O40  1  0.91852000  0.11756800  0.61986100  1
  O  O41  1  0.41356600  0.88492700  0.64966300  1
  O  O42  1  0.11224900  0.41806100  0.74556600  1
  O  O43  1  0.41356600  0.61507300  0.14966300  1
  O  O44  1  0.39050600  0.41516300  0.71760300  1
  O  O45  1  0.60949400  0.91516300  0.78239700  1
  O  O46  1  0.78428200  0.81319400  0.09384600  1
  O  O47  1  0.60949400  0.58483700  0.28239700  1
  O  O48  1  0.22660700  0.90602200  0.11237900  1
  O  O49  1  0.21571800  0.18680600  0.09384600  1
  O  O50  1  0.39050600  0.08483700  0.21760300  1
  O  O51  1  0.77339300  0.40602200  0.38762100  1
  O  O52  1  0.78428200  0.81319400  0.90615400  1
  O  O53  1  0.91852000  0.38243200  0.11986100  1
  O  O54  1  0.77339300  0.09397800  0.11237900  1
  O  O55  1  0.91852000  0.11756800  0.38013900  1
  O  O56  1  0.11224900  0.08193900  0.75443400  1
  O  O57  1  0.88775100  0.58193900  0.25443400  1
  O  O58  1  0.21571800  0.31319400  0.40615400  1
  O  O59  1  0.11224900  0.41806100  0.25443400  1
  O  O60  1  0.08148000  0.88243200  0.61986100  1
  O  O61  1  0.21571800  0.31319400  0.59384600  1
  O  O62  1  0.77339300  0.40602200  0.61237900  1
  O  O63  1  0.78428200  0.68680600  0.40615400  1
  O  O64  1  0.39050600  0.41516300  0.28239700  1
  O  O65  1  0.11224900  0.08193900  0.24556600  1
  O  O66  1  0.21571800  0.18680600  0.90615400  1
  O  O67  1  0.39050600  0.08483700  0.78239700  1
  O  O68  1  0.41356600  0.61507300  0.85033700  1
  O  O69  1  0.53123400  0.81065800  0.00000000  1
  O  O70  1  0.78428200  0.68680600  0.59384600  1
  O  O71  1  0.88775100  0.58193900  0.74556600  1
  O  O72  1  0.46876600  0.31065800  0.50000000  1
  O  O73  1  0.08148000  0.88243200  0.38013900  1
  O  O74  1  0.41356600  0.88492700  0.35033700  1
  O  O75  1  0.58643400  0.11507300  0.35033700  1
  O  O76  1  0.22660700  0.59397800  0.61237900  1
  O  O77  1  0.71231100  0.58652500  0.00000000  1
  O  O78  1  0.77339300  0.09397800  0.88762100  1
  O  O79  1  0.08148000  0.61756800  0.88013900  1
