# generated using pymatgen
data_Nd(CoP)2
_symmetry_space_group_name_H-M   'P 1'
_cell_length_a   5.62780104
_cell_length_b   5.62780104
_cell_length_c   5.62780104
_cell_angle_alpha   139.54915229
_cell_angle_beta   139.54915229
_cell_angle_gamma   58.53849054
_symmetry_Int_Tables_number   1
_chemical_formula_structural   Nd(CoP)2
_chemical_formula_sum   'Nd1 Co2 P2'
_cell_volume   74.33500360
_cell_formula_units_Z   1
loop_
 _symmetry_equiv_pos_site_id
 _symmetry_equiv_pos_as_xyz
  1  'x, y, z'
loop_
 _atom_site_type_symbol
 _atom_site_label
 _atom_site_symmetry_multiplicity
 _atom_site_fract_x
 _atom_site_fract_y
 _atom_site_fract_z
 _atom_site_occupancy
  Nd  Nd0  1  0.00000000  0.00000000  0.00000000  1
  Co  Co1  1  0.75000000  0.25000000  0.50000000  1
  Co  Co2  1  0.25000000  0.75000000  0.50000000  1
  P  P3  1  0.63486200  0.63486200  0.00000000  1
  P  P4  1  0.36513800  0.36513800  0.00000000  1
