# generated using pymatgen
data_Ca(Ni2Sn)2
_symmetry_space_group_name_H-M   'P 1'
_cell_length_a   6.72195670
_cell_length_b   6.72195670
_cell_length_c   6.72195670
_cell_angle_alpha   110.23210617
_cell_angle_beta   110.23210617
_cell_angle_gamma   107.95993792
_symmetry_Int_Tables_number   1
_chemical_formula_structural   Ca(Ni2Sn)2
_chemical_formula_sum   'Ca2 Ni8 Sn4'
_cell_volume   233.68955279
_cell_formula_units_Z   2
loop_
 _symmetry_equiv_pos_site_id
 _symmetry_equiv_pos_as_xyz
  1  'x, y, z'
loop_
 _atom_site_type_symbol
 _atom_site_label
 _atom_site_symmetry_multiplicity
 _atom_site_fract_x
 _atom_site_fract_y
 _atom_site_fract_z
 _atom_site_occupancy
  Ca  Ca0  1  0.75000000  0.75000000  0.00000000  1
  Ca  Ca1  1  0.25000000  0.25000000  0.00000000  1
  Ni  Ni2  1  0.97447300  0.19533600  0.50000000  1
  Ni  Ni3  1  0.19533600  0.69533600  0.22086300  1
  Ni  Ni4  1  0.47447300  0.97447300  0.77913700  1
  Ni  Ni5  1  0.80466400  0.30466400  0.77913700  1
  Ni  Ni6  1  0.52552700  0.02552700  0.22086300  1
  Ni  Ni7  1  0.69533600  0.47447300  0.50000000  1
  Ni  Ni8  1  0.30466400  0.52552700  0.50000000  1
  Ni  Ni9  1  0.02552700  0.80466400  0.50000000  1
  Sn  Sn10  1  0.65849300  0.84150700  0.50000000  1
  Sn  Sn11  1  0.84150700  0.34150700  0.18301400  1
  Sn  Sn12  1  0.15849300  0.65849300  0.81698600  1
  Sn  Sn13  1  0.34150700  0.15849300  0.50000000  1
