# generated using pymatgen
data_Cs7Np3(Cl2O)6
_symmetry_space_group_name_H-M   'P 1'
_cell_length_a   13.31688649
_cell_length_b   13.31688649
_cell_length_c   13.31688649
_cell_angle_alpha   109.47122063
_cell_angle_beta   109.47122063
_cell_angle_gamma   109.47122063
_symmetry_Int_Tables_number   1
_chemical_formula_structural   Cs7Np3(Cl2O)6
_chemical_formula_sum   'Cs14 Np6 Cl24 O12'
_cell_volume   1817.96786867
_cell_formula_units_Z   2
loop_
 _symmetry_equiv_pos_site_id
 _symmetry_equiv_pos_as_xyz
  1  'x, y, z'
loop_
 _atom_site_type_symbol
 _atom_site_label
 _atom_site_symmetry_multiplicity
 _atom_site_fract_x
 _atom_site_fract_y
 _atom_site_fract_z
 _atom_site_occupancy
  Cs  Cs0  1  0.70407200  0.50000000  0.00000000  1
  Cs  Cs1  1  0.50000000  0.00000000  0.70407200  1
  Cs  Cs2  1  0.00000000  0.70407200  0.50000000  1
  Cs  Cs3  1  0.79592800  0.79592800  0.79592800  1
  Cs  Cs4  1  0.50000000  0.00000000  0.20407200  1
  Cs  Cs5  1  0.20407200  0.50000000  0.00000000  1
  Cs  Cs6  1  0.00000000  0.20407200  0.50000000  1
  Cs  Cs7  1  0.29592800  0.29592800  0.29592800  1
  Cs  Cs8  1  0.87500000  0.25000000  0.12500000  1
  Cs  Cs9  1  0.62500000  0.75000000  0.37500000  1
  Cs  Cs10  1  0.25000000  0.12500000  0.87500000  1
  Cs  Cs11  1  0.75000000  0.37500000  0.62500000  1
  Cs  Cs12  1  0.12500000  0.87500000  0.25000000  1
  Cs  Cs13  1  0.37500000  0.62500000  0.75000000  1
  Np  Np14  1  0.12500000  0.75000000  0.87500000  1
  Np  Np15  1  0.37500000  0.25000000  0.62500000  1
  Np  Np16  1  0.75000000  0.87500000  0.12500000  1
  Np  Np17  1  0.25000000  0.62500000  0.37500000  1
  Np  Np18  1  0.87500000  0.12500000  0.75000000  1
  Np  Np19  1  0.62500000  0.37500000  0.25000000  1
  Cl  Cl20  1  0.18933700  0.97492100  0.04585600  1
  Cl  Cl21  1  0.07093500  0.52507900  0.71441600  1
  Cl  Cl22  1  0.42906500  0.14348100  0.45414400  1
  Cl  Cl23  1  0.31066300  0.35651900  0.78558400  1
  Cl  Cl24  1  0.54585600  0.47492100  0.68933700  1
  Cl  Cl25  1  0.21441600  0.02507900  0.57093500  1
  Cl  Cl26  1  0.95414400  0.64348100  0.92906500  1
  Cl  Cl27  1  0.28558400  0.85651900  0.81066300  1
  Cl  Cl28  1  0.97492100  0.04585600  0.18933700  1
  Cl  Cl29  1  0.52507900  0.71441600  0.07093500  1
  Cl  Cl30  1  0.14348100  0.45414400  0.42906500  1
  Cl  Cl31  1  0.35651900  0.78558400  0.31066300  1
  Cl  Cl32  1  0.47492100  0.68933700  0.54585600  1
  Cl  Cl33  1  0.02507900  0.57093500  0.21441600  1
  Cl  Cl34  1  0.64348100  0.92906500  0.95414400  1
  Cl  Cl35  1  0.85651900  0.81066300  0.28558400  1
  Cl  Cl36  1  0.04585600  0.18933700  0.97492100  1
  Cl  Cl37  1  0.71441600  0.07093500  0.52507900  1
  Cl  Cl38  1  0.45414400  0.42906500  0.14348100  1
  Cl  Cl39  1  0.78558400  0.31066300  0.35651900  1
  Cl  Cl40  1  0.68933700  0.54585600  0.47492100  1
  Cl  Cl41  1  0.57093500  0.21441600  0.02507900  1
  Cl  Cl42  1  0.92906500  0.95414400  0.64348100  1
  Cl  Cl43  1  0.81066300  0.28558400  0.85651900  1
  O  O44  1  0.24283200  0.75000000  0.99283200  1
  O  O45  1  0.25716800  0.25000000  0.50716800  1
  O  O46  1  0.49283200  0.25000000  0.74283200  1
  O  O47  1  0.00716800  0.75000000  0.75716800  1
  O  O48  1  0.75000000  0.99283200  0.24283200  1
  O  O49  1  0.25000000  0.50716800  0.25716800  1
  O  O50  1  0.25000000  0.74283200  0.49283200  1
  O  O51  1  0.75000000  0.75716800  0.00716800  1
  O  O52  1  0.99283200  0.24283200  0.75000000  1
  O  O53  1  0.50716800  0.25716800  0.25000000  1
  O  O54  1  0.74283200  0.49283200  0.25000000  1
  O  O55  1  0.75716800  0.00716800  0.75000000  1
