# generated using pymatgen
data_Li2Al(BO2)5
_symmetry_space_group_name_H-M   'P 1'
_cell_length_a   15.08941700
_cell_length_b   7.14452300
_cell_length_c   7.15182160
_cell_angle_alpha   89.14321778
_cell_angle_beta   90.00000000
_cell_angle_gamma   90.00000000
_symmetry_Int_Tables_number   1
_chemical_formula_structural   Li2Al(BO2)5
_chemical_formula_sum   'Li8 Al4 B20 O40'
_cell_volume   770.92798915
_cell_formula_units_Z   4
loop_
 _symmetry_equiv_pos_site_id
 _symmetry_equiv_pos_as_xyz
  1  'x, y, z'
loop_
 _atom_site_type_symbol
 _atom_site_label
 _atom_site_symmetry_multiplicity
 _atom_site_fract_x
 _atom_site_fract_y
 _atom_site_fract_z
 _atom_site_occupancy
  Li  Li0  1  0.17207200  0.89669800  0.99695800  1
  Li  Li1  1  0.42921200  0.30195600  0.91465400  1
  Li  Li2  1  0.32792800  0.89669800  0.49695800  1
  Li  Li3  1  0.57078800  0.69804400  0.08534600  1
  Li  Li4  1  0.67207200  0.10330200  0.50304200  1
  Li  Li5  1  0.82792800  0.10330200  0.00304200  1
  Li  Li6  1  0.92921200  0.69804400  0.58534600  1
  Li  Li7  1  0.07078800  0.30195600  0.41465400  1
  Al  Al8  1  0.37575600  0.84940200  0.03715500  1
  Al  Al9  1  0.62424400  0.15059800  0.96284500  1
  Al  Al10  1  0.12424400  0.84940200  0.53715500  1
  Al  Al11  1  0.87575600  0.15059800  0.46284500  1
  B  B12  1  0.99939100  0.24262700  0.76628800  1
  B  B13  1  0.47209100  0.79718900  0.40072300  1
  B  B14  1  0.12018300  0.31975200  0.99182000  1
  B  B15  1  0.75301500  0.45762000  0.99969300  1
  B  B16  1  0.74698500  0.45762000  0.49969300  1
  B  B17  1  0.00060900  0.75737300  0.23371200  1
  B  B18  1  0.25301500  0.54238000  0.50030700  1
  B  B19  1  0.37981700  0.31975200  0.49182000  1
  B  B20  1  0.27889500  0.20931100  0.98093900  1
  B  B21  1  0.49939100  0.75737300  0.73371200  1
  B  B22  1  0.50060900  0.24262700  0.26628800  1
  B  B23  1  0.02790900  0.79718900  0.90072300  1
  B  B24  1  0.22110500  0.20931100  0.48093900  1
  B  B25  1  0.62018300  0.68024800  0.50818000  1
  B  B26  1  0.77889500  0.79068900  0.51906100  1
  B  B27  1  0.52790900  0.20281100  0.59927700  1
  B  B28  1  0.87981700  0.68024800  0.00818000  1
  B  B29  1  0.97209100  0.20281100  0.09927700  1
  B  B30  1  0.24698500  0.54238000  0.00030700  1
  B  B31  1  0.72110500  0.79068900  0.01906100  1
  O  O32  1  0.80699500  0.60307100  0.53732300  1
  O  O33  1  0.65548900  0.92112000  0.02916800  1
  O  O34  1  0.55195700  0.16659800  0.41239600  1
  O  O35  1  0.84021300  0.49797200  0.97562800  1
  O  O36  1  0.53189900  0.23952100  0.08592000  1
  O  O37  1  0.90957200  0.15245400  0.22745200  1
  O  O38  1  0.46810100  0.76047900  0.91408000  1
  O  O39  1  0.94766300  0.71891000  0.85919200  1
  O  O40  1  0.30699500  0.39692900  0.96267700  1
  O  O41  1  0.42036300  0.31803800  0.30527000  1
  O  O42  1  0.15548900  0.07888000  0.47083200  1
  O  O43  1  0.19300500  0.39692900  0.46267700  1
  O  O44  1  0.44766300  0.28109000  0.64080800  1
  O  O45  1  0.80913800  0.83203300  0.99574100  1
  O  O46  1  0.40957200  0.84754600  0.27254800  1
  O  O47  1  0.05195700  0.83340200  0.08760400  1
  O  O48  1  0.07963700  0.31803800  0.80527000  1
  O  O49  1  0.34451100  0.07888000  0.97083200  1
  O  O50  1  0.59042800  0.15245400  0.72745200  1
  O  O51  1  0.30913800  0.16796700  0.50425900  1
  O  O52  1  0.57963700  0.68196200  0.69473000  1
  O  O53  1  0.77591100  0.27685600  0.48651100  1
  O  O54  1  0.92036300  0.68196200  0.19473000  1
  O  O55  1  0.84451100  0.92112000  0.52916800  1
  O  O56  1  0.65978700  0.49797200  0.47562800  1
  O  O57  1  0.19086200  0.16796700  0.00425900  1
  O  O58  1  0.22408900  0.72314400  0.51348900  1
  O  O59  1  0.03189900  0.76047900  0.41408000  1
  O  O60  1  0.44804300  0.83340200  0.58760400  1
  O  O61  1  0.94804300  0.16659800  0.91239600  1
  O  O62  1  0.15978700  0.50202800  0.02437200  1
  O  O63  1  0.34021300  0.50202800  0.52437200  1
  O  O64  1  0.27591100  0.72314400  0.01348900  1
  O  O65  1  0.69086200  0.83203300  0.49574100  1
  O  O66  1  0.72408900  0.27685600  0.98651100  1
  O  O67  1  0.55233700  0.71891000  0.35919200  1
  O  O68  1  0.69300500  0.60307100  0.03732300  1
  O  O69  1  0.96810100  0.23952100  0.58592000  1
  O  O70  1  0.05233700  0.28109000  0.14080800  1
  O  O71  1  0.09042800  0.84754600  0.77254800  1
