# generated using pymatgen
data_Yb2Ni12P7
_symmetry_space_group_name_H-M   'P 1'
_cell_length_a   9.01617064
_cell_length_b   9.01617064
_cell_length_c   3.65822300
_cell_angle_alpha   90.00000000
_cell_angle_beta   90.00000000
_cell_angle_gamma   120.00000467
_symmetry_Int_Tables_number   1
_chemical_formula_structural   Yb2Ni12P7
_chemical_formula_sum   'Yb2 Ni12 P7'
_cell_volume   257.54020199
_cell_formula_units_Z   1
loop_
 _symmetry_equiv_pos_site_id
 _symmetry_equiv_pos_as_xyz
  1  'x, y, z'
loop_
 _atom_site_type_symbol
 _atom_site_label
 _atom_site_symmetry_multiplicity
 _atom_site_fract_x
 _atom_site_fract_y
 _atom_site_fract_z
 _atom_site_occupancy
  Yb  Yb0  1  0.00000000  0.00000000  0.00000000  1
  Yb  Yb1  1  0.33333300  0.66666700  0.50000000  1
  Ni  Ni2  1  0.10191100  0.39400800  0.00000000  1
  Ni  Ni3  1  0.29209600  0.89808900  0.00000000  1
  Ni  Ni4  1  0.60599200  0.70790400  0.00000000  1
  Ni  Ni5  1  0.82012000  0.60972400  0.00000000  1
  Ni  Ni6  1  0.78960300  0.17988000  0.00000000  1
  Ni  Ni7  1  0.39027600  0.21039700  0.00000000  1
  Ni  Ni8  1  0.04686600  0.76401900  0.50000000  1
  Ni  Ni9  1  0.71715300  0.95313400  0.50000000  1
  Ni  Ni10  1  0.23598100  0.28284700  0.50000000  1
  Ni  Ni11  1  0.88049000  0.42686000  0.50000000  1
  Ni  Ni12  1  0.54637000  0.11951000  0.50000000  1
  Ni  Ni13  1  0.57314000  0.45363000  0.50000000  1
  P  P14  1  0.07460500  0.62741400  0.00000000  1
  P  P15  1  0.55280900  0.92539500  0.00000000  1
  P  P16  1  0.37258600  0.44719100  0.00000000  1
  P  P17  1  0.77580200  0.73827600  0.50000000  1
  P  P18  1  0.96247300  0.22419800  0.50000000  1
  P  P19  1  0.26172400  0.03752700  0.50000000  1
  P  P20  1  0.66666700  0.33333300  0.00000000  1
