# generated using pymatgen
data_Ho4CdCo
_symmetry_space_group_name_H-M   'P 1'
_cell_length_a   9.45412656
_cell_length_b   9.45412656
_cell_length_c   9.45412656
_cell_angle_alpha   60.00000000
_cell_angle_beta   60.00000000
_cell_angle_gamma   60.00000000
_symmetry_Int_Tables_number   1
_chemical_formula_structural   Ho4CdCo
_chemical_formula_sum   'Ho16 Cd4 Co4'
_cell_volume   597.51558491
_cell_formula_units_Z   4
loop_
 _symmetry_equiv_pos_site_id
 _symmetry_equiv_pos_as_xyz
  1  'x, y, z'
loop_
 _atom_site_type_symbol
 _atom_site_label
 _atom_site_symmetry_multiplicity
 _atom_site_fract_x
 _atom_site_fract_y
 _atom_site_fract_z
 _atom_site_occupancy
  Ho  Ho0  1  0.93824500  0.93824500  0.56175500  1
  Ho  Ho1  1  0.81168400  0.18831600  0.18831600  1
  Ho  Ho2  1  0.93824500  0.56175500  0.56175500  1
  Ho  Ho3  1  0.93824500  0.56175500  0.93824500  1
  Ho  Ho4  1  0.81168400  0.81168400  0.18831600  1
  Ho  Ho5  1  0.34635800  0.34635800  0.34635800  1
  Ho  Ho6  1  0.56175500  0.93824500  0.93824500  1
  Ho  Ho7  1  0.56175500  0.93824500  0.56175500  1
  Ho  Ho8  1  0.18831600  0.81168400  0.81168400  1
  Ho  Ho9  1  0.18831600  0.18831600  0.81168400  1
  Ho  Ho10  1  0.34635800  0.34635800  0.96092700  1
  Ho  Ho11  1  0.34635800  0.96092700  0.34635800  1
  Ho  Ho12  1  0.81168400  0.18831600  0.81168400  1
  Ho  Ho13  1  0.56175500  0.56175500  0.93824500  1
  Ho  Ho14  1  0.18831600  0.81168400  0.18831600  1
  Ho  Ho15  1  0.96092700  0.34635800  0.34635800  1
  Cd  Cd16  1  0.58057600  0.58057600  0.25827300  1
  Cd  Cd17  1  0.25827300  0.58057600  0.58057600  1
  Cd  Cd18  1  0.58057600  0.58057600  0.58057600  1
  Cd  Cd19  1  0.58057600  0.25827300  0.58057600  1
  Co  Co20  1  0.57686600  0.14104500  0.14104500  1
  Co  Co21  1  0.14104500  0.14104500  0.14104500  1
  Co  Co22  1  0.14104500  0.57686600  0.14104500  1
  Co  Co23  1  0.14104500  0.14104500  0.57686600  1
