# generated using pymatgen
data_Rb2Hg(BSe)9
_symmetry_space_group_name_H-M   'P 1'
_cell_length_a   9.97428800
_cell_length_b   10.75113989
_cell_length_c   11.31842487
_cell_angle_alpha   100.14275037
_cell_angle_beta   90.63083494
_cell_angle_gamma   116.28969038
_symmetry_Int_Tables_number   1
_chemical_formula_structural   Rb2Hg(BSe)9
_chemical_formula_sum   'Rb4 Hg2 B18 Se18'
_cell_volume   1065.72242533
_cell_formula_units_Z   2
loop_
 _symmetry_equiv_pos_site_id
 _symmetry_equiv_pos_as_xyz
  1  'x, y, z'
loop_
 _atom_site_type_symbol
 _atom_site_label
 _atom_site_symmetry_multiplicity
 _atom_site_fract_x
 _atom_site_fract_y
 _atom_site_fract_z
 _atom_site_occupancy
  Rb  Rb0  1  0.79154200  0.17435500  0.00159000  1
  Rb  Rb1  1  0.20845800  0.82564500  0.99841000  1
  Rb  Rb2  1  0.17550500  0.34415500  0.50424200  1
  Rb  Rb3  1  0.82449500  0.65584500  0.49575800  1
  Hg  Hg4  1  0.32526000  0.31849300  0.07470000  1
  Hg  Hg5  1  0.67474000  0.68150700  0.92530000  1
  B  B6  1  0.51570800  0.16328700  0.55178000  1
  B  B7  1  0.48429200  0.83671300  0.44822000  1
  B  B8  1  0.66211100  0.12001300  0.58638900  1
  B  B9  1  0.33788900  0.87998700  0.41361100  1
  B  B10  1  0.48606500  0.04211100  0.64795100  1
  B  B11  1  0.51393500  0.95788900  0.35204900  1
  B  B12  1  0.33907000  0.00827300  0.53858000  1
  B  B13  1  0.66093000  0.99172700  0.46142000  1
  B  B14  1  0.42354100  0.06404400  0.40634100  1
  B  B15  1  0.57645900  0.93595600  0.59365900  1
  B  B16  1  0.62121800  0.13202700  0.43614900  1
  B  B17  1  0.37878200  0.86797300  0.56385100  1
  B  B18  1  0.75115900  0.41486000  0.71399600  1
  B  B19  1  0.24884100  0.58514000  0.28600400  1
  B  B20  1  0.25138200  0.08682100  0.77954900  1
  B  B21  1  0.74861800  0.91317900  0.22045100  1
  B  B22  1  0.56996400  0.28442300  0.26069600  1
  B  B23  1  0.43003600  0.71557700  0.73930400  1
  Se  Se24  1  0.55639200  0.36240500  0.62681900  1
  Se  Se25  1  0.44360800  0.63759500  0.37318100  1
  Se  Se26  1  0.83889300  0.27976700  0.69424900  1
  Se  Se27  1  0.16110700  0.72023300  0.30575100  1
  Se  Se28  1  0.44734900  0.09469600  0.81932800  1
  Se  Se29  1  0.55265100  0.90530400  0.18067200  1
  Se  Se30  1  0.16335000  0.02854700  0.60955400  1
  Se  Se31  1  0.83665000  0.97145300  0.39044600  1
  Se  Se32  1  0.36324900  0.15704400  0.29012900  1
  Se  Se33  1  0.63675100  0.84295600  0.70987100  1
  Se  Se34  1  0.74395600  0.28722700  0.34792700  1
  Se  Se35  1  0.25604400  0.71277300  0.65207300  1
  Se  Se36  1  0.86891400  0.60125000  0.81392400  1
  Se  Se37  1  0.13108600  0.39875000  0.18607600  1
  Se  Se38  1  0.12991000  0.12180100  0.90096000  1
  Se  Se39  1  0.87009000  0.87819900  0.09904000  1
  Se  Se40  1  0.60796500  0.40678200  0.14453200  1
  Se  Se41  1  0.39203500  0.59321800  0.85546800  1
