# generated using pymatgen
data_Cu3P8(S2Cl)3
_symmetry_space_group_name_H-M   'P 1'
_cell_length_a   6.35491900
_cell_length_b   11.60933000
_cell_length_c   26.56046200
_cell_angle_alpha   90.00000000
_cell_angle_beta   90.00000000
_cell_angle_gamma   90.00000000
_symmetry_Int_Tables_number   1
_chemical_formula_structural   Cu3P8(S2Cl)3
_chemical_formula_sum   'Cu12 P32 S24 Cl12'
_cell_volume   1959.53398833
_cell_formula_units_Z   4
loop_
 _symmetry_equiv_pos_site_id
 _symmetry_equiv_pos_as_xyz
  1  'x, y, z'
loop_
 _atom_site_type_symbol
 _atom_site_label
 _atom_site_symmetry_multiplicity
 _atom_site_fract_x
 _atom_site_fract_y
 _atom_site_fract_z
 _atom_site_occupancy
  Cu  Cu0  1  0.69075500  0.85718200  0.25000000  1
  Cu  Cu1  1  0.27123400  0.35508400  0.50208500  1
  Cu  Cu2  1  0.30924500  0.14281800  0.75000000  1
  Cu  Cu3  1  0.77123400  0.14491600  0.50208500  1
  Cu  Cu4  1  0.22876600  0.85508400  0.49791500  1
  Cu  Cu5  1  0.72876600  0.64491600  0.49791500  1
  Cu  Cu6  1  0.27123400  0.35508400  0.99791500  1
  Cu  Cu7  1  0.80924500  0.35718200  0.75000000  1
  Cu  Cu8  1  0.72876600  0.64491600  0.00208500  1
  Cu  Cu9  1  0.77123400  0.14491600  0.99791500  1
  Cu  Cu10  1  0.19075500  0.64281800  0.25000000  1
  Cu  Cu11  1  0.22876600  0.85508400  0.00208500  1
  P  P12  1  0.14092100  0.45123700  0.57016200  1
  P  P13  1  0.40984300  0.05230900  0.82078300  1
  P  P14  1  0.33710500  0.13013800  0.39412800  1
  P  P15  1  0.83710500  0.36986200  0.10587200  1
  P  P16  1  0.63981200  0.06818900  0.43074100  1
  P  P17  1  0.85907900  0.54876300  0.42983800  1
  P  P18  1  0.86018800  0.56818900  0.56925900  1
  P  P19  1  0.86018800  0.56818900  0.93074100  1
  P  P20  1  0.64092100  0.04876300  0.57016200  1
  P  P21  1  0.85907900  0.54876300  0.07016200  1
  P  P22  1  0.13981200  0.43181100  0.43074100  1
  P  P23  1  0.66289500  0.86986200  0.89412800  1
  P  P24  1  0.33710500  0.13013800  0.10587200  1
  P  P25  1  0.14092100  0.45123700  0.92983800  1
  P  P26  1  0.35907900  0.95123700  0.07016200  1
  P  P27  1  0.66289500  0.86986200  0.60587200  1
  P  P28  1  0.09015700  0.55230900  0.32078300  1
  P  P29  1  0.09015700  0.55230900  0.17921700  1
  P  P30  1  0.90984300  0.44769100  0.82078300  1
  P  P31  1  0.40984300  0.05230900  0.67921700  1
  P  P32  1  0.36018800  0.93181100  0.93074100  1
  P  P33  1  0.64092100  0.04876300  0.92983800  1
  P  P34  1  0.16289500  0.63013800  0.60587200  1
  P  P35  1  0.36018800  0.93181100  0.56925900  1
  P  P36  1  0.90984300  0.44769100  0.67921700  1
  P  P37  1  0.59015700  0.94769100  0.32078300  1
  P  P38  1  0.16289500  0.63013800  0.89412800  1
  P  P39  1  0.83710500  0.36986200  0.39412800  1
  P  P40  1  0.63981200  0.06818900  0.06925900  1
  P  P41  1  0.35907900  0.95123700  0.42983800  1
  P  P42  1  0.59015700  0.94769100  0.17921700  1
  P  P43  1  0.13981200  0.43181100  0.06925900  1
  S  S44  1  0.67431200  0.51013800  0.62939600  1
  S  S45  1  0.17431200  0.98986200  0.87060400  1
  S  S46  1  0.60876800  0.90523000  0.68223900  1
  S  S47  1  0.91654800  0.65998000  0.36959100  1
  S  S48  1  0.60876800  0.90523000  0.81776100  1
  S  S49  1  0.39123200  0.09477000  0.31776100  1
  S  S50  1  0.32568800  0.48986200  0.12939600  1
  S  S51  1  0.41654800  0.84002000  0.13040900  1
  S  S52  1  0.10876800  0.59477000  0.81776100  1
  S  S53  1  0.67431200  0.51013800  0.87060400  1
  S  S54  1  0.58345200  0.15998000  0.86959100  1
  S  S55  1  0.58345200  0.15998000  0.63040900  1
  S  S56  1  0.17431200  0.98986200  0.62939600  1
  S  S57  1  0.82568800  0.01013800  0.12939600  1
  S  S58  1  0.41654800  0.84002000  0.36959100  1
  S  S59  1  0.08345200  0.34002000  0.63040900  1
  S  S60  1  0.82568800  0.01013800  0.37060400  1
  S  S61  1  0.32568800  0.48986200  0.37060400  1
  S  S62  1  0.10876800  0.59477000  0.68223900  1
  S  S63  1  0.89123200  0.40523000  0.31776100  1
  S  S64  1  0.39123200  0.09477000  0.18223900  1
  S  S65  1  0.91654800  0.65998000  0.13040900  1
  S  S66  1  0.89123200  0.40523000  0.18223900  1
  S  S67  1  0.08345200  0.34002000  0.86959100  1
  Cl  Cl68  1  0.63102200  0.33156900  0.99192800  1
  Cl  Cl69  1  0.13102200  0.16843100  0.50807200  1
  Cl  Cl70  1  0.44846800  0.32879500  0.75000000  1
  Cl  Cl71  1  0.36897800  0.66843100  0.00807200  1
  Cl  Cl72  1  0.86897800  0.83156900  0.49192800  1
  Cl  Cl73  1  0.05153200  0.82879500  0.25000000  1
  Cl  Cl74  1  0.86897800  0.83156900  0.00807200  1
  Cl  Cl75  1  0.55153200  0.67120500  0.25000000  1
  Cl  Cl76  1  0.36897800  0.66843100  0.49192800  1
  Cl  Cl77  1  0.13102200  0.16843100  0.99192800  1
  Cl  Cl78  1  0.63102200  0.33156900  0.50807200  1
  Cl  Cl79  1  0.94846800  0.17120500  0.75000000  1
