# generated using pymatgen
data_SrMo3(PO7)2
_symmetry_space_group_name_H-M   'P 1'
_cell_length_a   6.53275700
_cell_length_b   8.53947900
_cell_length_c   10.83805463
_cell_angle_alpha   67.04188539
_cell_angle_beta   90.00000000
_cell_angle_gamma   90.00000000
_symmetry_Int_Tables_number   1
_chemical_formula_structural   SrMo3(PO7)2
_chemical_formula_sum   'Sr2 Mo6 P4 O28'
_cell_volume   556.72397612
_cell_formula_units_Z   2
loop_
 _symmetry_equiv_pos_site_id
 _symmetry_equiv_pos_as_xyz
  1  'x, y, z'
loop_
 _atom_site_type_symbol
 _atom_site_label
 _atom_site_symmetry_multiplicity
 _atom_site_fract_x
 _atom_site_fract_y
 _atom_site_fract_z
 _atom_site_occupancy
  Sr  Sr0  1  0.25000000  0.48970500  0.74582600  1
  Sr  Sr1  1  0.75000000  0.51029500  0.25417400  1
  Mo  Mo2  1  0.75000000  0.24505500  0.98988500  1
  Mo  Mo3  1  0.25000000  0.75494500  0.01011500  1
  Mo  Mo4  1  0.75000000  0.25476500  0.66906200  1
  Mo  Mo5  1  0.25000000  0.74523500  0.33093800  1
  Mo  Mo6  1  0.75000000  0.83370000  0.62468100  1
  Mo  Mo7  1  0.25000000  0.16630000  0.37531900  1
  P  P8  1  0.75000000  0.84272600  0.93823900  1
  P  P9  1  0.25000000  0.15727400  0.06176100  1
  P  P10  1  0.25000000  0.12228700  0.69892000  1
  P  P11  1  0.75000000  0.87771300  0.30108000  1
  O  O12  1  0.75000000  0.39234400  0.06312100  1
  O  O13  1  0.25000000  0.60765600  0.93687900  1
  O  O14  1  0.75000000  0.03504400  0.17025500  1
  O  O15  1  0.25000000  0.96495600  0.82974500  1
  O  O16  1  0.43587100  0.23546000  0.96786000  1
  O  O17  1  0.93587100  0.76454000  0.03214000  1
  O  O18  1  0.56412900  0.76454000  0.03214000  1
  O  O19  1  0.06412900  0.23546000  0.96786000  1
  O  O20  1  0.75000000  0.36966000  0.79841500  1
  O  O21  1  0.25000000  0.63034000  0.20158500  1
  O  O22  1  0.75000000  0.03903500  0.88562900  1
  O  O23  1  0.25000000  0.96096500  0.11437100  1
  O  O24  1  0.75000000  0.42345200  0.51571600  1
  O  O25  1  0.25000000  0.57654800  0.48428400  1
  O  O26  1  0.75000000  0.05809000  0.61347500  1
  O  O27  1  0.25000000  0.94191000  0.38652500  1
  O  O28  1  0.43524400  0.23942300  0.69309900  1
  O  O29  1  0.93524400  0.76057700  0.30690100  1
  O  O30  1  0.56475600  0.76057700  0.30690100  1
  O  O31  1  0.06475600  0.23942300  0.69309900  1
  O  O32  1  0.97336700  0.71316900  0.64204100  1
  O  O33  1  0.47336700  0.28683100  0.35795900  1
  O  O34  1  0.02663300  0.28683100  0.35795900  1
  O  O35  1  0.52663300  0.71316900  0.64204100  1
  O  O36  1  0.75000000  0.77618800  0.82596400  1
  O  O37  1  0.25000000  0.22381200  0.17403600  1
  O  O38  1  0.75000000  0.93296700  0.42093000  1
  O  O39  1  0.25000000  0.06703300  0.57907000  1
