# generated using pymatgen
data_SmBiRh
_symmetry_space_group_name_H-M   'P 1'
_cell_length_a   4.76679700
_cell_length_b   7.37672200
_cell_length_c   8.05349900
_cell_angle_alpha   90.00000000
_cell_angle_beta   90.00000000
_cell_angle_gamma   90.00000000
_symmetry_Int_Tables_number   1
_chemical_formula_structural   SmBiRh
_chemical_formula_sum   'Sm4 Bi4 Rh4'
_cell_volume   283.18789372
_cell_formula_units_Z   4
loop_
 _symmetry_equiv_pos_site_id
 _symmetry_equiv_pos_as_xyz
  1  'x, y, z'
loop_
 _atom_site_type_symbol
 _atom_site_label
 _atom_site_symmetry_multiplicity
 _atom_site_fract_x
 _atom_site_fract_y
 _atom_site_fract_z
 _atom_site_occupancy
  Sm  Sm0  1  0.25000000  0.01089700  0.30052300  1
  Sm  Sm1  1  0.75000000  0.98910300  0.69947700  1
  Sm  Sm2  1  0.75000000  0.48910300  0.80052300  1
  Sm  Sm3  1  0.25000000  0.51089700  0.19947700  1
  Bi  Bi4  1  0.75000000  0.81231600  0.09031800  1
  Bi  Bi5  1  0.25000000  0.68768400  0.59031800  1
  Bi  Bi6  1  0.25000000  0.18768400  0.90968200  1
  Bi  Bi7  1  0.75000000  0.31231600  0.40968200  1
  Rh  Rh8  1  0.75000000  0.20744300  0.07860700  1
  Rh  Rh9  1  0.75000000  0.70744300  0.42139300  1
  Rh  Rh10  1  0.25000000  0.29255700  0.57860700  1
  Rh  Rh11  1  0.25000000  0.79255700  0.92139300  1
