# generated using pymatgen
data_Cs2AgAuCl6
_symmetry_space_group_name_H-M   'P 1'
_cell_length_a   7.77603733
_cell_length_b   7.77603733
_cell_length_c   7.77603733
_cell_angle_alpha   122.70839977
_cell_angle_beta   122.70839977
_cell_angle_gamma   85.36962401
_symmetry_Int_Tables_number   1
_chemical_formula_structural   Cs2AgAuCl6
_chemical_formula_sum   'Cs2 Ag1 Au1 Cl6'
_cell_volume   317.73306977
_cell_formula_units_Z   1
loop_
 _symmetry_equiv_pos_site_id
 _symmetry_equiv_pos_as_xyz
  1  'x, y, z'
loop_
 _atom_site_type_symbol
 _atom_site_label
 _atom_site_symmetry_multiplicity
 _atom_site_fract_x
 _atom_site_fract_y
 _atom_site_fract_z
 _atom_site_occupancy
  Cs  Cs0  1  0.75000000  0.25000000  0.50000000  1
  Cs  Cs1  1  0.25000000  0.75000000  0.50000000  1
  Ag  Ag2  1  0.50000000  0.50000000  0.00000000  1
  Au  Au3  1  0.00000000  0.00000000  0.00000000  1
  Cl  Cl4  1  0.28992000  0.28992000  0.00000000  1
  Cl  Cl5  1  0.77611700  0.22388300  0.00000000  1
  Cl  Cl6  1  0.22388300  0.77611700  0.00000000  1
  Cl  Cl7  1  0.77611700  0.77611700  0.55223400  1
  Cl  Cl8  1  0.71008000  0.71008000  0.00000000  1
  Cl  Cl9  1  0.22388300  0.22388300  0.44776600  1
