# generated using pymatgen
data_BaCr2O7
_symmetry_space_group_name_H-M   'P 1'
_cell_length_a   11.84356326
_cell_length_b   11.84356326
_cell_length_c   9.62699231
_cell_angle_alpha   87.48888562
_cell_angle_beta   87.48888562
_cell_angle_gamma   91.18977579
_symmetry_Int_Tables_number   1
_chemical_formula_structural   BaCr2O7
_chemical_formula_sum   'Ba8 Cr16 O56'
_cell_volume   1347.43781488
_cell_formula_units_Z   8
loop_
 _symmetry_equiv_pos_site_id
 _symmetry_equiv_pos_as_xyz
  1  'x, y, z'
loop_
 _atom_site_type_symbol
 _atom_site_label
 _atom_site_symmetry_multiplicity
 _atom_site_fract_x
 _atom_site_fract_y
 _atom_site_fract_z
 _atom_site_occupancy
  Ba  Ba0  1  0.46033200  0.53966800  0.25000000  1
  Ba  Ba1  1  0.53966800  0.46033200  0.75000000  1
  Ba  Ba2  1  0.04255900  0.95744100  0.25000000  1
  Ba  Ba3  1  0.95744100  0.04255900  0.75000000  1
  Ba  Ba4  1  0.55058900  0.03971400  0.71795100  1
  Ba  Ba5  1  0.96028600  0.44941100  0.78204900  1
  Ba  Ba6  1  0.44941100  0.96028600  0.28204900  1
  Ba  Ba7  1  0.03971400  0.55058900  0.21795100  1
  Cr  Cr8  1  0.25065000  0.40636700  0.50227300  1
  Cr  Cr9  1  0.59363300  0.74935000  0.99772700  1
  Cr  Cr10  1  0.74935000  0.59363300  0.49772700  1
  Cr  Cr11  1  0.40636700  0.25065000  0.00227300  1
  Cr  Cr12  1  0.13428300  0.25230500  0.00602800  1
  Cr  Cr13  1  0.74769500  0.86571700  0.49397200  1
  Cr  Cr14  1  0.86571700  0.74769500  0.99397200  1
  Cr  Cr15  1  0.25230500  0.13428300  0.50602800  1
  Cr  Cr16  1  0.90675500  0.25617000  0.45949700  1
  Cr  Cr17  1  0.74383000  0.09324500  0.04050300  1
  Cr  Cr18  1  0.09324500  0.74383000  0.54050300  1
  Cr  Cr19  1  0.25617000  0.90675500  0.95949700  1
  Cr  Cr20  1  0.75404900  0.37272400  0.06147100  1
  Cr  Cr21  1  0.62727600  0.24595100  0.43852900  1
  Cr  Cr22  1  0.24595100  0.62727600  0.93852900  1
  Cr  Cr23  1  0.37272400  0.75404900  0.56147100  1
  O  O24  1  0.61780000  0.57482700  0.45410900  1
  O  O25  1  0.42517300  0.38220000  0.04589100  1
  O  O26  1  0.38220000  0.42517300  0.54589100  1
  O  O27  1  0.57482700  0.61780100  0.95410900  1
  O  O28  1  0.22825200  0.50049800  0.37595700  1
  O  O29  1  0.49950200  0.77174800  0.12404300  1
  O  O30  1  0.77174800  0.49950200  0.62404300  1
  O  O31  1  0.50049800  0.22825200  0.87595700  1
  O  O32  1  0.83659800  0.58372100  0.36406800  1
  O  O33  1  0.41627900  0.16340200  0.13593200  1
  O  O34  1  0.16340200  0.41627900  0.63593200  1
  O  O35  1  0.58372100  0.83659800  0.86406800  1
  O  O36  1  0.23634200  0.27204900  0.42881500  1
  O  O37  1  0.72795100  0.76365800  0.07118500  1
  O  O38  1  0.76365800  0.72795100  0.57118500  1
  O  O39  1  0.27204900  0.23634200  0.92881500  1
  O  O40  1  0.96112100  0.76361300  0.11239900  1
  O  O41  1  0.23638700  0.03887900  0.38760100  1
  O  O42  1  0.03887900  0.23638700  0.88760100  1
  O  O43  1  0.76361300  0.96112100  0.61239900  1
  O  O44  1  0.12774700  0.38027000  0.06144000  1
  O  O45  1  0.61973000  0.87225300  0.43856000  1
  O  O46  1  0.87225300  0.61973000  0.93856000  1
  O  O47  1  0.38027000  0.12774700  0.56144000  1
  O  O48  1  0.11409700  0.16029100  0.13516300  1
  O  O49  1  0.83970900  0.88590300  0.36483700  1
  O  O50  1  0.88590300  0.83970900  0.86483700  1
  O  O51  1  0.16029100  0.11409700  0.63516300  1
  O  O52  1  0.10288600  0.74306900  0.36881800  1
  O  O53  1  0.25693100  0.89711400  0.13118200  1
  O  O54  1  0.89711400  0.25693100  0.63118200  1
  O  O55  1  0.74306900  0.10288600  0.86881800  1
  O  O56  1  0.95356600  0.13170400  0.41917700  1
  O  O57  1  0.86829600  0.04643400  0.08082300  1
  O  O58  1  0.04643400  0.86829600  0.58082300  1
  O  O59  1  0.13170400  0.95356600  0.91917700  1
  O  O60  1  0.99069500  0.35877600  0.39789000  1
  O  O61  1  0.64122400  0.00930500  0.10211000  1
  O  O62  1  0.00930500  0.64122400  0.60211000  1
  O  O63  1  0.35877600  0.99069500  0.89789000  1
  O  O64  1  0.77211900  0.27949300  0.39074300  1
  O  O65  1  0.72050700  0.22788100  0.10925700  1
  O  O66  1  0.22788100  0.72050700  0.60925700  1
  O  O67  1  0.27949300  0.77211900  0.89074300  1
  O  O68  1  0.88820200  0.40233700  0.08237000  1
  O  O69  1  0.59766300  0.11179800  0.41763000  1
  O  O70  1  0.11179800  0.59766300  0.91763000  1
  O  O71  1  0.40233700  0.88820200  0.58237000  1
  O  O72  1  0.26675800  0.60868800  0.10585300  1
  O  O73  1  0.39131200  0.73324200  0.39414700  1
  O  O74  1  0.73324200  0.39131200  0.89414700  1
  O  O75  1  0.60868800  0.26675800  0.60585300  1
  O  O76  1  0.67310300  0.45458600  0.15041600  1
  O  O77  1  0.54541400  0.32689700  0.34958400  1
  O  O78  1  0.32689700  0.54541400  0.84958400  1
  O  O79  1  0.45458600  0.67310300  0.65041600  1
