# generated using pymatgen
data_CsTi3P5O19
_symmetry_space_group_name_H-M   'P 1'
_cell_length_a   8.58149494
_cell_length_b   8.58149494
_cell_length_c   6.40188191
_cell_angle_alpha   81.39406824
_cell_angle_beta   81.39406824
_cell_angle_gamma   113.20109859
_symmetry_Int_Tables_number   1
_chemical_formula_structural   CsTi3P5O19
_chemical_formula_sum   'Cs1 Ti3 P5 O19'
_cell_volume   417.00355049
_cell_formula_units_Z   1
loop_
 _symmetry_equiv_pos_site_id
 _symmetry_equiv_pos_as_xyz
  1  'x, y, z'
loop_
 _atom_site_type_symbol
 _atom_site_label
 _atom_site_symmetry_multiplicity
 _atom_site_fract_x
 _atom_site_fract_y
 _atom_site_fract_z
 _atom_site_occupancy
  Cs  Cs0  1  0.09752400  0.09752400  0.47590500  1
  Ti  Ti1  1  0.24392500  0.49067300  0.81822200  1
  Ti  Ti2  1  0.76536800  0.76536800  0.15685000  1
  Ti  Ti3  1  0.49067300  0.24392500  0.81822200  1
  P  P4  1  0.81511400  0.18485500  0.00034600  1
  P  P5  1  0.18485500  0.81511400  0.00034600  1
  P  P6  1  0.66988500  0.66988500  0.69733200  1
  P  P7  1  0.61028200  0.31709900  0.26977900  1
  P  P8  1  0.31709900  0.61028200  0.26977900  1
  O  O9  1  0.66310700  0.48500500  0.73803700  1
  O  O10  1  0.23480500  0.52503500  0.50956000  1
  O  O11  1  0.25021900  0.47542100  0.13447100  1
  O  O12  1  0.68525600  0.16601000  0.85850400  1
  O  O13  1  0.32211300  0.99782200  0.88746300  1
  O  O14  1  0.77281500  0.77281500  0.84840400  1
  O  O15  1  0.51528900  0.70615500  0.22047100  1
  O  O16  1  0.76987700  0.76987700  0.46143300  1
  O  O17  1  0.31649200  0.31649200  0.81377800  1
  O  O18  1  0.70615500  0.51528900  0.22047100  1
  O  O19  1  0.16601000  0.68525600  0.85850400  1
  O  O20  1  0.24712000  0.75663500  0.21371300  1
  O  O21  1  0.01387600  0.82265200  0.09588800  1
  O  O22  1  0.47542100  0.25021900  0.13447100  1
  O  O23  1  0.52503500  0.23480500  0.50956000  1
  O  O24  1  0.48500500  0.66310700  0.73803700  1
  O  O25  1  0.99782200  0.32211300  0.88746300  1
  O  O26  1  0.82265200  0.01387600  0.09588800  1
  O  O27  1  0.75663500  0.24712000  0.21371300  1
