# generated using pymatgen
data_Yb3Ni7B2
_symmetry_space_group_name_H-M   'P 1'
_cell_length_a   5.01116099
_cell_length_b   5.01116099
_cell_length_c   14.01887800
_cell_angle_alpha   90.00000000
_cell_angle_beta   90.00000000
_cell_angle_gamma   120.00001301
_symmetry_Int_Tables_number   1
_chemical_formula_structural   Yb3Ni7B2
_chemical_formula_sum   'Yb6 Ni14 B4'
_cell_volume   304.87410662
_cell_formula_units_Z   2
loop_
 _symmetry_equiv_pos_site_id
 _symmetry_equiv_pos_as_xyz
  1  'x, y, z'
loop_
 _atom_site_type_symbol
 _atom_site_label
 _atom_site_symmetry_multiplicity
 _atom_site_fract_x
 _atom_site_fract_y
 _atom_site_fract_z
 _atom_site_occupancy
  Yb  Yb0  1  0.66666700  0.33333300  0.53441500  1
  Yb  Yb1  1  0.33333300  0.66666700  0.46558500  1
  Yb  Yb2  1  0.33333300  0.66666700  0.03441500  1
  Yb  Yb3  1  0.66666700  0.33333300  0.75000000  1
  Yb  Yb4  1  0.66666700  0.33333300  0.96558500  1
  Yb  Yb5  1  0.33333300  0.66666700  0.25000000  1
  Ni  Ni6  1  0.16553100  0.33106200  0.64995000  1
  Ni  Ni7  1  0.33106200  0.16553100  0.35005000  1
  Ni  Ni8  1  0.33106200  0.16553100  0.14995000  1
  Ni  Ni9  1  0.16553100  0.83446900  0.85005000  1
  Ni  Ni10  1  0.83446900  0.66893800  0.35005000  1
  Ni  Ni11  1  0.83446900  0.16553100  0.14995000  1
  Ni  Ni12  1  0.66893800  0.83446900  0.64995000  1
  Ni  Ni13  1  0.66893800  0.83446900  0.85005000  1
  Ni  Ni14  1  0.16553100  0.83446900  0.64995000  1
  Ni  Ni15  1  0.83446900  0.66893800  0.14995000  1
  Ni  Ni16  1  0.00000000  0.00000000  0.00000000  1
  Ni  Ni17  1  0.16553100  0.33106200  0.85005000  1
  Ni  Ni18  1  0.83446900  0.16553100  0.35005000  1
  Ni  Ni19  1  0.00000000  0.00000000  0.50000000  1
  B  B20  1  0.66666700  0.33333300  0.25000000  1
  B  B21  1  0.00000000  0.00000000  0.75000000  1
  B  B22  1  0.33333300  0.66666700  0.75000000  1
  B  B23  1  0.00000000  0.00000000  0.25000000  1
