# generated using pymatgen
data_TcBr3
_symmetry_space_group_name_H-M   'P 1'
_cell_length_a   6.05674100
_cell_length_b   7.11298400
_cell_length_c   12.30590000
_cell_angle_alpha   90.00000000
_cell_angle_beta   90.00000000
_cell_angle_gamma   90.00000000
_symmetry_Int_Tables_number   1
_chemical_formula_structural   TcBr3
_chemical_formula_sum   'Tc4 Br12'
_cell_volume   530.15665331
_cell_formula_units_Z   4
loop_
 _symmetry_equiv_pos_site_id
 _symmetry_equiv_pos_as_xyz
  1  'x, y, z'
loop_
 _atom_site_type_symbol
 _atom_site_label
 _atom_site_symmetry_multiplicity
 _atom_site_fract_x
 _atom_site_fract_y
 _atom_site_fract_z
 _atom_site_occupancy
  Tc  Tc0  1  0.77726400  0.75406800  0.00000000  1
  Tc  Tc1  1  0.22273600  0.75406800  0.00000000  1
  Tc  Tc2  1  0.27726400  0.24593200  0.50000000  1
  Tc  Tc3  1  0.72273600  0.24593200  0.50000000  1
  Br  Br4  1  0.50000000  0.94448300  0.50000000  1
  Br  Br5  1  0.50000000  0.88983500  0.86362700  1
  Br  Br6  1  0.50000000  0.88983500  0.13637300  1
  Br  Br7  1  0.00000000  0.60487100  0.84820300  1
  Br  Br8  1  0.00000000  0.60487100  0.15179700  1
  Br  Br9  1  0.00000000  0.51872800  0.50000000  1
  Br  Br10  1  0.50000000  0.48127200  0.00000000  1
  Br  Br11  1  0.50000000  0.39512900  0.34820300  1
  Br  Br12  1  0.50000000  0.39512900  0.65179700  1
  Br  Br13  1  0.00000000  0.11016500  0.36362700  1
  Br  Br14  1  0.00000000  0.11016500  0.63637300  1
  Br  Br15  1  0.00000000  0.05551700  0.00000000  1
