# generated using pymatgen
data_Cs4KLiFe2F12
_symmetry_space_group_name_H-M   'P 1'
_cell_length_a   11.13260536
_cell_length_b   11.13260536
_cell_length_c   11.13260519
_cell_angle_alpha   33.70145855
_cell_angle_beta   33.70145855
_cell_angle_gamma   33.70146167
_symmetry_Int_Tables_number   1
_chemical_formula_structural   Cs4KLiFe2F12
_chemical_formula_sum   'Cs4 K1 Li1 Fe2 F12'
_cell_volume   378.45317587
_cell_formula_units_Z   1
loop_
 _symmetry_equiv_pos_site_id
 _symmetry_equiv_pos_as_xyz
  1  'x, y, z'
loop_
 _atom_site_type_symbol
 _atom_site_label
 _atom_site_symmetry_multiplicity
 _atom_site_fract_x
 _atom_site_fract_y
 _atom_site_fract_z
 _atom_site_occupancy
  Cs  Cs0  1  0.28452700  0.28452700  0.28452700  1
  Cs  Cs1  1  0.71547300  0.71547300  0.71547300  1
  Cs  Cs2  1  0.86664800  0.86664800  0.86664800  1
  Cs  Cs3  1  0.13335200  0.13335200  0.13335200  1
  K  K4  1  0.00000000  0.00000000  0.00000000  1
  Li  Li5  1  0.50000000  0.50000000  0.50000000  1
  Fe  Fe6  1  0.41581500  0.41581500  0.41581500  1
  Fe  Fe7  1  0.58418500  0.58418500  0.58418500  1
  F  F8  1  0.32814600  0.76338900  0.76338900  1
  F  F9  1  0.23661100  0.67185400  0.23661100  1
  F  F10  1  0.76338900  0.32814600  0.76338900  1
  F  F11  1  0.76338900  0.76338900  0.32814600  1
  F  F12  1  0.23661100  0.23661100  0.67185400  1
  F  F13  1  0.67185400  0.23661100  0.23661100  1
  F  F14  1  0.40602900  0.40602900  0.81974100  1
  F  F15  1  0.18025900  0.59397100  0.59397100  1
  F  F16  1  0.59397100  0.59397100  0.18025900  1
  F  F17  1  0.59397100  0.18025900  0.59397100  1
  F  F18  1  0.40602900  0.81974100  0.40602900  1
  F  F19  1  0.81974100  0.40602900  0.40602900  1
