# generated using pymatgen
data_K17Fe5O16
_symmetry_space_group_name_H-M   'P 1'
_cell_length_a   18.63162981
_cell_length_b   18.63162981
_cell_length_c   6.78661201
_cell_angle_alpha   84.87014828
_cell_angle_beta   84.87014828
_cell_angle_gamma   158.99445074
_symmetry_Int_Tables_number   1
_chemical_formula_structural   K17Fe5O16
_chemical_formula_sum   'K17 Fe5 O16'
_cell_volume   735.91281012
_cell_formula_units_Z   1
loop_
 _symmetry_equiv_pos_site_id
 _symmetry_equiv_pos_as_xyz
  1  'x, y, z'
loop_
 _atom_site_type_symbol
 _atom_site_label
 _atom_site_symmetry_multiplicity
 _atom_site_fract_x
 _atom_site_fract_y
 _atom_site_fract_z
 _atom_site_occupancy
  K  K0  1  0.91452600  0.08357500  0.87959300  1
  K  K1  1  0.77851800  0.32697100  0.45780800  1
  K  K2  1  0.16575000  0.82760600  0.60743000  1
  K  K3  1  0.31370300  0.59242800  0.01790700  1
  K  K4  1  0.58732700  0.49544600  0.45786500  1
  K  K5  1  0.99760600  0.99760600  0.58279300  1
  K  K6  1  0.82760600  0.16575000  0.60743000  1
  K  K7  1  0.49544600  0.58732700  0.45786500  1
  K  K8  1  0.20833100  0.67428500  0.01082700  1
  K  K9  1  0.32697100  0.77851800  0.45780800  1
  K  K10  1  0.67428500  0.20833100  0.01082700  1
  K  K11  1  0.08357500  0.91452600  0.87959300  1
  K  K12  1  0.68121100  0.40621500  0.47372200  1
  K  K13  1  0.59242800  0.31370300  0.01790700  1
  K  K14  1  0.50280300  0.40967500  0.00041400  1
  K  K15  1  0.40967500  0.50280300  0.00041400  1
  K  K16  1  0.40621500  0.68121100  0.47372200  1
  Fe  Fe17  1  0.99890600  0.99890600  0.07457600  1
  Fe  Fe18  1  0.81923000  0.17801200  0.08532100  1
  Fe  Fe19  1  0.17801200  0.81923000  0.08532100  1
  Fe  Fe20  1  0.90945600  0.08872800  0.38888100  1
  Fe  Fe21  1  0.08872800  0.90945600  0.38888100  1
  O  O22  1  0.35946400  0.17361100  0.40869700  1
  O  O23  1  0.12564800  0.86837100  0.19586800  1
  O  O24  1  0.82565900  0.63987600  0.67349600  1
  O  O25  1  0.17361100  0.35946400  0.40869700  1
  O  O26  1  0.54318000  0.91642300  0.06648400  1
  O  O27  1  0.63987600  0.82565900  0.67349600  1
  O  O28  1  0.86837100  0.12564800  0.19586800  1
  O  O29  1  0.72979900  0.72979900  0.05702200  1
  O  O30  1  0.78367400  0.21017800  0.29961700  1
  O  O31  1  0.08254500  0.45415700  0.80325900  1
  O  O32  1  0.91642300  0.54318000  0.06648400  1
  O  O33  1  0.21017800  0.78367400  0.29961700  1
  O  O34  1  0.45415700  0.08254500  0.80325900  1
  O  O35  1  0.95604800  0.04205400  0.24467200  1
  O  O36  1  0.26566300  0.26566300  0.79021700  1
  O  O37  1  0.04205400  0.95604800  0.24467200  1
