# generated using pymatgen
data_In2Si2Pb2O9
_symmetry_space_group_name_H-M   'P 1'
_cell_length_a   7.12648300
_cell_length_b   10.72244400
_cell_length_c   11.61452600
_cell_angle_alpha   90.00000000
_cell_angle_beta   90.00000000
_cell_angle_gamma   90.00000000
_symmetry_Int_Tables_number   1
_chemical_formula_structural   In2Si2Pb2O9
_chemical_formula_sum   'In8 Si8 Pb8 O36'
_cell_volume   887.50443247
_cell_formula_units_Z   4
loop_
 _symmetry_equiv_pos_site_id
 _symmetry_equiv_pos_as_xyz
  1  'x, y, z'
loop_
 _atom_site_type_symbol
 _atom_site_label
 _atom_site_symmetry_multiplicity
 _atom_site_fract_x
 _atom_site_fract_y
 _atom_site_fract_z
 _atom_site_occupancy
  In  In0  1  0.21018600  0.49896800  0.25058500  1
  In  In1  1  0.71018600  0.50103200  0.74941500  1
  In  In2  1  0.71018600  0.00103200  0.75058500  1
  In  In3  1  0.21018600  0.99896800  0.24941500  1
  In  In4  1  0.23248600  0.24949700  0.08860100  1
  In  In5  1  0.73248600  0.75050300  0.91139900  1
  In  In6  1  0.73248600  0.25050300  0.58860100  1
  In  In7  1  0.23248600  0.74949700  0.41139900  1
  Si  Si8  1  0.49218200  0.24955300  0.34082800  1
  Si  Si9  1  0.99218200  0.75044700  0.65917200  1
  Si  Si10  1  0.99218200  0.25044700  0.84082800  1
  Si  Si11  1  0.49218200  0.74955300  0.15917200  1
  Si  Si12  1  0.92283100  0.24431300  0.33072900  1
  Si  Si13  1  0.42283100  0.75568700  0.66927100  1
  Si  Si14  1  0.42283100  0.25568700  0.83072900  1
  Si  Si15  1  0.92283100  0.74431300  0.16927100  1
  Pb  Pb16  1  0.26685100  0.45659400  0.56517300  1
  Pb  Pb17  1  0.76685100  0.54340600  0.43482700  1
  Pb  Pb18  1  0.76685100  0.04340600  0.06517300  1
  Pb  Pb19  1  0.26685100  0.95659400  0.93482700  1
  Pb  Pb20  1  0.25376300  0.05809700  0.54494100  1
  Pb  Pb21  1  0.75376300  0.94190300  0.45505900  1
  Pb  Pb22  1  0.75376300  0.44190300  0.04494100  1
  Pb  Pb23  1  0.25376300  0.55809700  0.95505900  1
  O  O24  1  0.33928600  0.06641700  0.09678900  1
  O  O25  1  0.83928600  0.93358300  0.90321100  1
  O  O26  1  0.83928600  0.43358300  0.59678900  1
  O  O27  1  0.33928600  0.56641700  0.40321100  1
  O  O28  1  0.38129000  0.32981100  0.24193300  1
  O  O29  1  0.88129000  0.67018900  0.75806700  1
  O  O30  1  0.88129000  0.17018900  0.74193300  1
  O  O31  1  0.38129000  0.82981100  0.25806700  1
  O  O32  1  0.11024900  0.42988300  0.08838200  1
  O  O33  1  0.61024900  0.57011700  0.91161800  1
  O  O34  1  0.61024900  0.07011700  0.58838200  1
  O  O35  1  0.11024900  0.92988300  0.41161800  1
  O  O36  1  0.51890500  0.32643900  0.46295600  1
  O  O37  1  0.01890500  0.67356100  0.53704400  1
  O  O38  1  0.01890500  0.17356100  0.96295600  1
  O  O39  1  0.51890500  0.82643900  0.03704400  1
  O  O40  1  0.04169300  0.17109800  0.23004000  1
  O  O41  1  0.54169300  0.82890200  0.76996000  1
  O  O42  1  0.54169300  0.32890200  0.73004000  1
  O  O43  1  0.04169300  0.67109800  0.26996000  1
  O  O44  1  0.70310500  0.22477500  0.28594700  1
  O  O45  1  0.20310500  0.77522500  0.71405300  1
  O  O46  1  0.20310500  0.27522500  0.78594700  1
  O  O47  1  0.70310500  0.72477500  0.21405300  1
  O  O48  1  0.39079700  0.11422500  0.36692800  1
  O  O49  1  0.89079700  0.88577500  0.63307200  1
  O  O50  1  0.89079700  0.38577500  0.86692800  1
  O  O51  1  0.39079700  0.61422500  0.13307200  1
  O  O52  1  0.97419600  0.39468000  0.33918300  1
  O  O53  1  0.47419600  0.60532000  0.66081700  1
  O  O54  1  0.47419600  0.10532000  0.83918300  1
  O  O55  1  0.97419600  0.89468000  0.16081700  1
  O  O56  1  0.93771800  0.17871000  0.45907100  1
  O  O57  1  0.43771800  0.82129000  0.54092900  1
  O  O58  1  0.43771800  0.32129000  0.95907100  1
  O  O59  1  0.93771800  0.67871000  0.04092900  1
