# generated using pymatgen
data_K5Na(Ti2Se9)3
_symmetry_space_group_name_H-M   'P 1'
_cell_length_a   13.62490538
_cell_length_b   13.62490538
_cell_length_c   14.06020400
_cell_angle_alpha   90.00000000
_cell_angle_beta   90.00000000
_cell_angle_gamma   119.99999697
_symmetry_Int_Tables_number   1
_chemical_formula_structural   K5Na(Ti2Se9)3
_chemical_formula_sum   'K10 Na2 Ti12 Se54'
_cell_volume   2260.42060001
_cell_formula_units_Z   2
loop_
 _symmetry_equiv_pos_site_id
 _symmetry_equiv_pos_as_xyz
  1  'x, y, z'
loop_
 _atom_site_type_symbol
 _atom_site_label
 _atom_site_symmetry_multiplicity
 _atom_site_fract_x
 _atom_site_fract_y
 _atom_site_fract_z
 _atom_site_occupancy
  K  K0  1  0.62756700  0.95763600  0.52980600  1
  K  K1  1  0.95763600  0.62756700  0.02980600  1
  K  K2  1  0.66666700  0.33333300  0.20383600  1
  K  K3  1  0.33333300  0.66666700  0.34596300  1
  K  K4  1  0.04236400  0.66993100  0.52980600  1
  K  K5  1  0.37243300  0.33006900  0.02980600  1
  K  K6  1  0.33006900  0.37243300  0.52980600  1
  K  K7  1  0.33333300  0.66666700  0.70383600  1
  K  K8  1  0.66666700  0.33333300  0.84596300  1
  K  K9  1  0.66993100  0.04236400  0.02980600  1
  Na  Na10  1  0.00000000  0.00000000  0.27641600  1
  Na  Na11  1  0.00000000  0.00000000  0.77641600  1
  Ti  Ti12  1  0.98506800  0.33934500  0.15625400  1
  Ti  Ti13  1  0.01403300  0.34487900  0.39842000  1
  Ti  Ti14  1  0.34487900  0.01403300  0.89842000  1
  Ti  Ti15  1  0.35427700  0.01493200  0.15625400  1
  Ti  Ti16  1  0.33084700  0.98596700  0.39842000  1
  Ti  Ti17  1  0.64572300  0.66065500  0.65625400  1
  Ti  Ti18  1  0.66915300  0.65512100  0.89842000  1
  Ti  Ti19  1  0.65512100  0.66915300  0.39842000  1
  Ti  Ti20  1  0.66065500  0.64572300  0.15625400  1
  Ti  Ti21  1  0.33934500  0.98506800  0.65625400  1
  Ti  Ti22  1  0.01493200  0.35427700  0.65625400  1
  Ti  Ti23  1  0.98596700  0.33084700  0.89842000  1
  Se  Se24  1  0.49649800  0.68173000  0.93849700  1
  Se  Se25  1  0.55109800  0.13047400  0.66342100  1
  Se  Se26  1  0.49740500  0.01478700  0.28258100  1
  Se  Se27  1  0.18523200  0.50350200  0.93849700  1
  Se  Se28  1  0.07653400  0.20466300  0.64955200  1
  Se  Se29  1  0.50350200  0.18523200  0.43849700  1
  Se  Se30  1  0.79533700  0.87187100  0.64955200  1
  Se  Se31  1  0.83909300  0.21070500  0.77415000  1
  Se  Se32  1  0.37161200  0.16090700  0.77415000  1
  Se  Se33  1  0.89611800  0.11810900  0.88745000  1
  Se  Se34  1  0.57937700  0.44890200  0.66342100  1
  Se  Se35  1  0.48261800  0.98521300  0.78258100  1
  Se  Se36  1  0.81476800  0.31827000  0.43849700  1
  Se  Se37  1  0.66997500  0.78853400  0.02722300  1
  Se  Se38  1  0.21070500  0.83909300  0.27415000  1
  Se  Se39  1  0.34770700  0.15329300  0.27284000  1
  Se  Se40  1  0.48603400  0.13873200  0.02433400  1
  Se  Se41  1  0.77800900  0.88189100  0.38745000  1
  Se  Se42  1  0.19441400  0.84670700  0.77284000  1
  Se  Se43  1  0.62838800  0.78929500  0.27415000  1
  Se  Se44  1  0.44890200  0.57937700  0.16342100  1
  Se  Se45  1  0.86952600  0.42062300  0.66342100  1
  Se  Se46  1  0.51738200  0.50259500  0.28258100  1
  Se  Se47  1  0.33002500  0.11855900  0.52722300  1
  Se  Se48  1  0.88144100  0.21146600  0.52722300  1
  Se  Se49  1  0.51396600  0.65269800  0.52433400  1
  Se  Se50  1  0.34730200  0.86126800  0.52433400  1
  Se  Se51  1  0.22199100  0.10388200  0.88745000  1
  Se  Se52  1  0.11855900  0.33002500  0.02722300  1
  Se  Se53  1  0.13873200  0.48603400  0.52433400  1
  Se  Se54  1  0.16090700  0.37161200  0.27415000  1
  Se  Se55  1  0.10388200  0.22199100  0.38745000  1
  Se  Se56  1  0.80558600  0.65229300  0.27284000  1
  Se  Se57  1  0.20466300  0.07653400  0.14955200  1
  Se  Se58  1  0.68173000  0.49649800  0.43849700  1
  Se  Se59  1  0.12812900  0.92346600  0.64955200  1
  Se  Se60  1  0.31827000  0.81476800  0.93849700  1
  Se  Se61  1  0.50259500  0.51738200  0.78258100  1
  Se  Se62  1  0.65229300  0.80558600  0.77284000  1
  Se  Se63  1  0.87187100  0.79533700  0.14955200  1
  Se  Se64  1  0.84670700  0.19441400  0.27284000  1
  Se  Se65  1  0.01478700  0.49740500  0.78258100  1
  Se  Se66  1  0.78853400  0.66997500  0.52722300  1
  Se  Se67  1  0.92346600  0.12812900  0.14955200  1
  Se  Se68  1  0.13047400  0.55109800  0.16342100  1
  Se  Se69  1  0.65269800  0.51396600  0.02433400  1
  Se  Se70  1  0.86126800  0.34730200  0.02433400  1
  Se  Se71  1  0.78929500  0.62838800  0.77415000  1
  Se  Se72  1  0.98521300  0.48261800  0.28258100  1
  Se  Se73  1  0.15329300  0.34770700  0.77284000  1
  Se  Se74  1  0.42062300  0.86952600  0.16342100  1
  Se  Se75  1  0.21146600  0.88144100  0.02722300  1
  Se  Se76  1  0.88189100  0.77800900  0.88745000  1
  Se  Se77  1  0.11810900  0.89611800  0.38745000  1
