# generated using pymatgen
data_Mo2P2O11
_symmetry_space_group_name_H-M   'P 1'
_cell_length_a   6.43802200
_cell_length_b   7.63206400
_cell_length_c   9.15167848
_cell_angle_alpha   75.03934376
_cell_angle_beta   90.00000000
_cell_angle_gamma   90.00000000
_symmetry_Int_Tables_number   1
_chemical_formula_structural   Mo2P2O11
_chemical_formula_sum   'Mo4 P4 O22'
_cell_volume   434.42898171
_cell_formula_units_Z   2
loop_
 _symmetry_equiv_pos_site_id
 _symmetry_equiv_pos_as_xyz
  1  'x, y, z'
loop_
 _atom_site_type_symbol
 _atom_site_label
 _atom_site_symmetry_multiplicity
 _atom_site_fract_x
 _atom_site_fract_y
 _atom_site_fract_z
 _atom_site_occupancy
  Mo  Mo0  1  0.75000000  0.82014200  0.85689700  1
  Mo  Mo1  1  0.75000000  0.60725000  0.29136800  1
  Mo  Mo2  1  0.25000000  0.39275000  0.70863200  1
  Mo  Mo3  1  0.25000000  0.17985800  0.14310300  1
  P  P4  1  0.25000000  0.93229700  0.88189100  1
  P  P5  1  0.75000000  0.49144300  0.66946700  1
  P  P6  1  0.25000000  0.50855700  0.33053300  1
  P  P7  1  0.75000000  0.06770300  0.11810900  1
  O  O8  1  0.75000000  0.96267400  0.68121600  1
  O  O9  1  0.05714600  0.80760400  0.88622100  1
  O  O10  1  0.44285400  0.80760400  0.88622100  1
  O  O11  1  0.75000000  0.90394000  0.25212600  1
  O  O12  1  0.25000000  0.98254000  0.03712200  1
  O  O13  1  0.75000000  0.59296500  0.80007900  1
  O  O14  1  0.25000000  0.62440800  0.64969700  1
  O  O15  1  0.75000000  0.63236100  0.51759400  1
  O  O16  1  0.06096400  0.63621700  0.30424000  1
  O  O17  1  0.43903600  0.63621700  0.30424000  1
  O  O18  1  0.75000000  0.64582000  0.09000000  1
  O  O19  1  0.25000000  0.35418000  0.91000000  1
  O  O20  1  0.56096400  0.36378300  0.69576000  1
  O  O21  1  0.93903600  0.36378300  0.69576000  1
  O  O22  1  0.25000000  0.36763900  0.48240600  1
  O  O23  1  0.75000000  0.37559200  0.35030300  1
  O  O24  1  0.25000000  0.40703500  0.19992100  1
  O  O25  1  0.75000000  0.01746000  0.96287800  1
  O  O26  1  0.25000000  0.09606000  0.74787400  1
  O  O27  1  0.55714600  0.19239600  0.11377900  1
  O  O28  1  0.94285400  0.19239600  0.11377900  1
  O  O29  1  0.25000000  0.03732600  0.31878400  1
