# generated using pymatgen
data_Li3SbO4
_symmetry_space_group_name_H-M   'P 1'
_cell_length_a   6.16676800
_cell_length_b   5.18878200
_cell_length_c   5.20487385
_cell_angle_alpha   71.35153594
_cell_angle_beta   90.00000000
_cell_angle_gamma   90.00000000
_symmetry_Int_Tables_number   1
_chemical_formula_structural   Li3SbO4
_chemical_formula_sum   'Li6 Sb2 O8'
_cell_volume   157.80169775
_cell_formula_units_Z   2
loop_
 _symmetry_equiv_pos_site_id
 _symmetry_equiv_pos_as_xyz
  1  'x, y, z'
loop_
 _atom_site_type_symbol
 _atom_site_label
 _atom_site_symmetry_multiplicity
 _atom_site_fract_x
 _atom_site_fract_y
 _atom_site_fract_z
 _atom_site_occupancy
  Li  Li0  1  0.42681400  0.25000000  0.50000000  1
  Li  Li1  1  0.57318600  0.75000000  0.50000000  1
  Li  Li2  1  0.61150700  0.25000000  0.00000000  1
  Li  Li3  1  0.38849300  0.75000000  0.00000000  1
  Li  Li4  1  0.14534700  0.75000000  0.50000000  1
  Li  Li5  1  0.85465300  0.25000000  0.50000000  1
  Sb  Sb6  1  0.14368500  0.25000000  0.00000000  1
  Sb  Sb7  1  0.85631500  0.75000000  0.00000000  1
  O  O8  1  0.10215200  0.50545400  0.22334800  1
  O  O9  1  0.63941200  0.52378500  0.24530900  1
  O  O10  1  0.36058800  0.02378500  0.24530900  1
  O  O11  1  0.36058800  0.47621500  0.75469100  1
  O  O12  1  0.89784800  0.49454600  0.77665200  1
  O  O13  1  0.89784800  0.00545400  0.22334800  1
  O  O14  1  0.63941200  0.97621500  0.75469100  1
  O  O15  1  0.10215200  0.99454600  0.77665200  1
