# generated using pymatgen
data_K3P5RuSe10
_symmetry_space_group_name_H-M   'P 1'
_cell_length_a   7.42463700
_cell_length_b   11.37741500
_cell_length_c   12.68372603
_cell_angle_alpha   86.91569708
_cell_angle_beta   90.00000000
_cell_angle_gamma   90.00000000
_symmetry_Int_Tables_number   1
_chemical_formula_structural   K3P5RuSe10
_chemical_formula_sum   'K6 P10 Ru2 Se20'
_cell_volume   1069.88259780
_cell_formula_units_Z   2
loop_
 _symmetry_equiv_pos_site_id
 _symmetry_equiv_pos_as_xyz
  1  'x, y, z'
loop_
 _atom_site_type_symbol
 _atom_site_label
 _atom_site_symmetry_multiplicity
 _atom_site_fract_x
 _atom_site_fract_y
 _atom_site_fract_z
 _atom_site_occupancy
  K  K0  1  0.25000000  0.98709100  0.60781400  1
  K  K1  1  0.75000000  0.01290900  0.39218600  1
  K  K2  1  0.25000000  0.09815300  0.06887100  1
  K  K3  1  0.25000000  0.47270000  0.61222500  1
  K  K4  1  0.75000000  0.90184700  0.93112900  1
  K  K5  1  0.75000000  0.52730000  0.38777500  1
  P  P6  1  0.75000000  0.27608800  0.59135600  1
  P  P7  1  0.52011600  0.47612800  0.91632400  1
  P  P8  1  0.47988400  0.52387200  0.08367600  1
  P  P9  1  0.25000000  0.86404500  0.27389600  1
  P  P10  1  0.25000000  0.72391200  0.40864400  1
  P  P11  1  0.75000000  0.13595500  0.72610400  1
  P  P12  1  0.25000000  0.72266800  0.94230900  1
  P  P13  1  0.97988400  0.47612800  0.91632400  1
  P  P14  1  0.02011600  0.52387200  0.08367600  1
  P  P15  1  0.75000000  0.27733200  0.05769100  1
  Ru  Ru16  1  0.25000000  0.64990700  0.11498200  1
  Ru  Ru17  1  0.75000000  0.35009300  0.88501800  1
  Se  Se18  1  0.25000000  0.90607300  0.88126800  1
  Se  Se19  1  0.75000000  0.96227300  0.66693100  1
  Se  Se20  1  0.25000000  0.37901100  0.87906100  1
  Se  Se21  1  0.99548100  0.25777400  0.50037800  1
  Se  Se22  1  0.47586500  0.81335900  0.16871800  1
  Se  Se23  1  0.49013500  0.65911900  0.83842300  1
  Se  Se24  1  0.00986500  0.65911900  0.83842300  1
  Se  Se25  1  0.50451900  0.25777400  0.50037800  1
  Se  Se26  1  0.25000000  0.03772700  0.33306900  1
  Se  Se27  1  0.50986500  0.34088100  0.16157700  1
  Se  Se28  1  0.75000000  0.62098900  0.12093900  1
  Se  Se29  1  0.52413500  0.18664100  0.83128200  1
  Se  Se30  1  0.25000000  0.56173100  0.31220500  1
  Se  Se31  1  0.97586500  0.18664100  0.83128200  1
  Se  Se32  1  0.49548100  0.74222600  0.49962200  1
  Se  Se33  1  0.99013500  0.34088100  0.16157700  1
  Se  Se34  1  0.75000000  0.09392700  0.11873200  1
  Se  Se35  1  0.02413500  0.81335900  0.16871800  1
  Se  Se36  1  0.00451900  0.74222600  0.49962200  1
  Se  Se37  1  0.75000000  0.43826900  0.68779500  1
