# generated using pymatgen
data_SbPS4
_symmetry_space_group_name_H-M   'P 1'
_cell_length_a   6.38748100
_cell_length_b   13.83159388
_cell_length_c   23.78762487
_cell_angle_alpha   89.85191933
_cell_angle_beta   89.96094875
_cell_angle_gamma   88.39982913
_symmetry_Int_Tables_number   1
_chemical_formula_structural   SbPS4
_chemical_formula_sum   'Sb12 P12 S48'
_cell_volume   2100.78692582
_cell_formula_units_Z   12
loop_
 _symmetry_equiv_pos_site_id
 _symmetry_equiv_pos_as_xyz
  1  'x, y, z'
loop_
 _atom_site_type_symbol
 _atom_site_label
 _atom_site_symmetry_multiplicity
 _atom_site_fract_x
 _atom_site_fract_y
 _atom_site_fract_z
 _atom_site_occupancy
  Sb  Sb0  1  0.11991100  0.50325000  0.68248500  1
  Sb  Sb1  1  0.86038700  0.77691700  0.08985300  1
  Sb  Sb2  1  0.34893300  0.00290800  0.18292600  1
  Sb  Sb3  1  0.63700000  0.27659700  0.58956300  1
  Sb  Sb4  1  0.84816800  0.97703400  0.34347500  1
  Sb  Sb5  1  0.65106700  0.99709200  0.81707400  1
  Sb  Sb6  1  0.13961300  0.22308300  0.91014700  1
  Sb  Sb7  1  0.88008900  0.49675000  0.31751500  1
  Sb  Sb8  1  0.36300000  0.72340300  0.41043700  1
  Sb  Sb9  1  0.62368600  0.47660500  0.84308300  1
  Sb  Sb10  1  0.15183200  0.02296600  0.65652500  1
  Sb  Sb11  1  0.37631400  0.52339500  0.15691700  1
  P  P12  1  0.62125100  0.29460300  0.94206900  1
  P  P13  1  0.10449100  0.56054400  0.82304900  1
  P  P14  1  0.37874900  0.70539700  0.05793100  1
  P  P15  1  0.39410900  0.48500300  0.36921900  1
  P  P16  1  0.86163700  0.01511700  0.13116600  1
  P  P17  1  0.64233000  0.93948300  0.67650300  1
  P  P18  1  0.87205700  0.79498200  0.44246400  1
  P  P19  1  0.13836300  0.98488300  0.86883400  1
  P  P20  1  0.35767000  0.06051700  0.32349700  1
  P  P21  1  0.12794300  0.20501800  0.55753600  1
  P  P22  1  0.89550900  0.43945600  0.17695100  1
  P  P23  1  0.60589100  0.51499700  0.63078100  1
  S  S24  1  0.62356200  0.13182400  0.34843200  1
  S  S25  1  0.33117200  0.58685400  0.60638100  1
  S  S26  1  0.43907000  0.92217800  0.30174300  1
  S  S27  1  0.44937500  0.74124400  0.13851900  1
  S  S28  1  0.75050800  0.43147800  0.94052200  1
  S  S29  1  0.65266800  0.12085300  0.15708700  1
  S  S30  1  0.32647100  0.29610500  0.51713800  1
  S  S31  1  0.04044800  0.42221700  0.80122400  1
  S  S32  1  0.69254000  0.42505900  0.11105100  1
  S  S33  1  0.66882800  0.41314600  0.39361900  1
  S  S34  1  0.24949200  0.56852200  0.05947800  1
  S  S35  1  0.27332300  0.06806900  0.55906200  1
  S  S36  1  0.75165300  0.44412900  0.56335400  1
  S  S37  1  0.80171600  0.62095000  0.65653700  1
  S  S38  1  0.35122900  0.29270600  0.99059800  1
  S  S39  1  0.23721400  0.62674500  0.75315400  1
  S  S40  1  0.87210500  0.91280000  0.89290100  1
  S  S41  1  0.95955200  0.57778300  0.19877600  1
  S  S42  1  0.85746700  0.20708500  0.50916000  1
  S  S43  1  0.17046200  0.36859300  0.15179300  1
  S  S44  1  0.76278600  0.37325500  0.24684600  1
  S  S45  1  0.15271900  0.07517200  0.38939600  1
  S  S46  1  0.30746000  0.57494100  0.88894900  1
  S  S47  1  0.83032200  0.20325200  0.98235700  1
  S  S48  1  0.53786200  0.41311600  0.68946700  1
  S  S49  1  0.27462900  0.05559800  0.93638300  1
  S  S50  1  0.67352900  0.70389500  0.48286200  1
  S  S51  1  0.55062500  0.25875600  0.86148100  1
  S  S52  1  0.72537100  0.94440200  0.06361700  1
  S  S53  1  0.34733200  0.87914700  0.84291300  1
  S  S54  1  0.82953800  0.63140700  0.84820700  1
  S  S55  1  0.16967800  0.79674800  0.01764300  1
  S  S56  1  0.14253300  0.79291500  0.49084000  1
  S  S57  1  0.24834700  0.55587100  0.43664600  1
  S  S58  1  0.12789500  0.08720000  0.10709900  1
  S  S59  1  0.37643800  0.86817600  0.65156800  1
  S  S60  1  0.46213800  0.58688400  0.31053300  1
  S  S61  1  0.56093000  0.07782200  0.69825700  1
  S  S62  1  0.05310300  0.24110600  0.63810600  1
  S  S63  1  0.21626200  0.12616700  0.25361000  1
  S  S64  1  0.72667700  0.93193100  0.44093800  1
  S  S65  1  0.05850900  0.08703700  0.81027800  1
  S  S66  1  0.19828400  0.37905000  0.34346300  1
  S  S67  1  0.94149100  0.91296300  0.18972200  1
  S  S68  1  0.64877100  0.70729400  0.00940200  1
  S  S69  1  0.78373800  0.87383300  0.74639000  1
  S  S70  1  0.84728100  0.92482800  0.61060400  1
  S  S71  1  0.94689700  0.75889400  0.36189400  1
