# generated using pymatgen
data_DyZrSb
_symmetry_space_group_name_H-M   'P 1'
_cell_length_a   8.86093500
_cell_length_b   8.86093500
_cell_length_c   8.86093500
_cell_angle_alpha   152.07142241
_cell_angle_beta   152.07142241
_cell_angle_gamma   39.90901115
_symmetry_Int_Tables_number   1
_chemical_formula_structural   DyZrSb
_chemical_formula_sum   'Dy2 Zr2 Sb2'
_cell_volume   152.33018041
_cell_formula_units_Z   2
loop_
 _symmetry_equiv_pos_site_id
 _symmetry_equiv_pos_as_xyz
  1  'x, y, z'
loop_
 _atom_site_type_symbol
 _atom_site_label
 _atom_site_symmetry_multiplicity
 _atom_site_fract_x
 _atom_site_fract_y
 _atom_site_fract_z
 _atom_site_occupancy
  Dy  Dy0  1  0.67672600  0.67672600  0.00000000  1
  Dy  Dy1  1  0.32327400  0.32327400  0.00000000  1
  Zr  Zr2  1  0.50000000  0.00000000  0.50000000  1
  Zr  Zr3  1  0.00000000  0.50000000  0.50000000  1
  Sb  Sb4  1  0.13325000  0.13325000  0.00000000  1
  Sb  Sb5  1  0.86675000  0.86675000  0.00000000  1
