# generated using pymatgen
data_NaNdH2S2O9
_symmetry_space_group_name_H-M   'P 1'
_cell_length_a   7.06421196
_cell_length_b   7.06421196
_cell_length_c   12.97756300
_cell_angle_alpha   90.00000000
_cell_angle_beta   90.00000000
_cell_angle_gamma   119.99999960
_symmetry_Int_Tables_number   1
_chemical_formula_structural   NaNdH2S2O9
_chemical_formula_sum   'Na3 Nd3 H6 S6 O27'
_cell_volume   560.85580885
_cell_formula_units_Z   3
loop_
 _symmetry_equiv_pos_site_id
 _symmetry_equiv_pos_as_xyz
  1  'x, y, z'
loop_
 _atom_site_type_symbol
 _atom_site_label
 _atom_site_symmetry_multiplicity
 _atom_site_fract_x
 _atom_site_fract_y
 _atom_site_fract_z
 _atom_site_occupancy
  Na  Na0  1  0.52690700  0.52690700  0.50000000  1
  Na  Na1  1  0.47309300  0.00000000  0.83333300  1
  Na  Na2  1  0.00000000  0.47309300  0.16666700  1
  Nd  Nd3  1  0.43838400  0.00000000  0.33333300  1
  Nd  Nd4  1  0.00000000  0.43838400  0.66666700  1
  Nd  Nd5  1  0.56161600  0.56161600  0.00000000  1
  H  H6  1  0.05150700  0.09577900  0.37324400  1
  H  H7  1  0.09577900  0.05150700  0.62675600  1
  H  H8  1  0.95572800  0.90422100  0.29342300  1
  H  H9  1  0.94849300  0.04427200  0.96008900  1
  H  H10  1  0.90422100  0.95572800  0.70657700  1
  H  H11  1  0.04427200  0.94849300  0.03991100  1
  S  S12  1  0.45369400  0.01104900  0.08990300  1
  S  S13  1  0.55735500  0.54630600  0.75656900  1
  S  S14  1  0.98895100  0.44264500  0.42323600  1
  S  S15  1  0.01104900  0.45369400  0.91009700  1
  S  S16  1  0.44264500  0.98895100  0.57676400  1
  S  S17  1  0.54630600  0.55735500  0.24343100  1
  O  O18  1  0.48881900  0.35855800  0.82879100  1
  O  O19  1  0.00000000  0.08638000  0.66666700  1
  O  O20  1  0.61235400  0.74019300  0.82366900  1
  O  O21  1  0.91362000  0.91362000  0.00000000  1
  O  O22  1  0.08638000  0.00000000  0.33333300  1
  O  O23  1  0.12783900  0.38764600  0.49033600  1
  O  O24  1  0.41010200  0.16418200  0.02946500  1
  O  O25  1  0.38192200  0.50694300  0.68231900  1
  O  O26  1  0.50694300  0.38192200  0.31768100  1
  O  O27  1  0.86974000  0.51118100  0.49545800  1
  O  O28  1  0.35855800  0.48881900  0.17120900  1
  O  O29  1  0.58989800  0.75408000  0.30386900  1
  O  O30  1  0.74019300  0.61235400  0.17633100  1
  O  O31  1  0.75408000  0.58989800  0.69613100  1
  O  O32  1  0.49305700  0.87497900  0.01565200  1
  O  O33  1  0.83581800  0.24592000  0.36279800  1
  O  O34  1  0.51118100  0.86974000  0.50454200  1
  O  O35  1  0.61807800  0.12502100  0.65101500  1
  O  O36  1  0.12502100  0.61807800  0.34898500  1
  O  O37  1  0.64144200  0.13026000  0.16212500  1
  O  O38  1  0.13026000  0.64144200  0.83787500  1
  O  O39  1  0.24592000  0.83581800  0.63720200  1
  O  O40  1  0.16418200  0.41010200  0.97053500  1
  O  O41  1  0.87216100  0.25980700  0.84299800  1
  O  O42  1  0.38764600  0.12783900  0.50966400  1
  O  O43  1  0.87497900  0.49305700  0.98434800  1
  O  O44  1  0.25980700  0.87216100  0.15700200  1
