# generated using pymatgen
data_Y2Te5O13
_symmetry_space_group_name_H-M   'P 1'
_cell_length_a   7.05509200
_cell_length_b   8.79793487
_cell_length_c   10.79483738
_cell_angle_alpha   89.46179226
_cell_angle_beta   92.57781728
_cell_angle_gamma   105.01879725
_symmetry_Int_Tables_number   1
_chemical_formula_structural   Y2Te5O13
_chemical_formula_sum   'Y4 Te10 O26'
_cell_volume   646.49356581
_cell_formula_units_Z   2
loop_
 _symmetry_equiv_pos_site_id
 _symmetry_equiv_pos_as_xyz
  1  'x, y, z'
loop_
 _atom_site_type_symbol
 _atom_site_label
 _atom_site_symmetry_multiplicity
 _atom_site_fract_x
 _atom_site_fract_y
 _atom_site_fract_z
 _atom_site_occupancy
  Y  Y0  1  0.99834700  0.26111800  0.76073300  1
  Y  Y1  1  0.00165300  0.73888200  0.23926700  1
  Y  Y2  1  0.55326000  0.47328100  0.82147500  1
  Y  Y3  1  0.44674000  0.52671900  0.17852500  1
  Te  Te4  1  0.27340200  0.60769800  0.51108400  1
  Te  Te5  1  0.29024900  0.12469200  0.02244700  1
  Te  Te6  1  0.84469400  0.80254300  0.64182200  1
  Te  Te7  1  0.43872200  0.09924900  0.69911000  1
  Te  Te8  1  0.15530600  0.19745700  0.35817800  1
  Te  Te9  1  0.11982300  0.64925600  0.89019900  1
  Te  Te10  1  0.56127800  0.90075100  0.30089000  1
  Te  Te11  1  0.88017700  0.35074400  0.10980100  1
  Te  Te12  1  0.70975100  0.87530800  0.97755300  1
  Te  Te13  1  0.72659800  0.39230200  0.48891600  1
  O  O14  1  0.46119200  0.80618000  0.47874300  1
  O  O15  1  0.31434200  0.26433100  0.71479600  1
  O  O16  1  0.04572000  0.65061700  0.43373700  1
  O  O17  1  0.95428000  0.34938300  0.56626300  1
  O  O18  1  0.32786900  0.25794300  0.22595800  1
  O  O19  1  0.12339300  0.51052600  0.10730500  1
  O  O20  1  0.76479000  0.49459000  0.18823100  1
  O  O21  1  0.06562500  0.73452400  0.72303600  1
  O  O22  1  0.65213900  0.98166700  0.12537300  1
  O  O23  1  0.23521000  0.50541000  0.81176900  1
  O  O24  1  0.32888900  0.77467200  0.22289200  1
  O  O25  1  0.67213100  0.74205700  0.77404200  1
  O  O26  1  0.46482000  0.32980100  0.00082900  1
  O  O27  1  0.53518000  0.67019900  0.99917100  1
  O  O28  1  0.68565800  0.73566900  0.28520400  1
  O  O29  1  0.66264200  0.51318200  0.61847800  1
  O  O30  1  0.93437500  0.26547600  0.27696400  1
  O  O31  1  0.87660700  0.48947400  0.89269500  1
  O  O32  1  0.06430900  0.98409500  0.31224900  1
  O  O33  1  0.33735800  0.48681800  0.38152200  1
  O  O34  1  0.05952900  0.18176800  0.96182700  1
  O  O35  1  0.94047100  0.81823200  0.03817300  1
  O  O36  1  0.67111100  0.22532800  0.77710800  1
  O  O37  1  0.53880800  0.19382000  0.52125700  1
  O  O38  1  0.93569100  0.01590500  0.68775100  1
  O  O39  1  0.34786100  0.01833300  0.87462700  1
