# generated using pymatgen
data_CsBO2
_symmetry_space_group_name_H-M   'P 1'
_cell_length_a   8.48486555
_cell_length_b   8.48486555
_cell_length_c   8.48486641
_cell_angle_alpha   109.23304278
_cell_angle_beta   109.23304278
_cell_angle_gamma   109.23304844
_symmetry_Int_Tables_number   1
_chemical_formula_structural   CsBO2
_chemical_formula_sum   'Cs6 B6 O12'
_cell_volume   474.33424484
_cell_formula_units_Z   6
loop_
 _symmetry_equiv_pos_site_id
 _symmetry_equiv_pos_as_xyz
  1  'x, y, z'
loop_
 _atom_site_type_symbol
 _atom_site_label
 _atom_site_symmetry_multiplicity
 _atom_site_fract_x
 _atom_site_fract_y
 _atom_site_fract_z
 _atom_site_occupancy
  Cs  Cs0  1  0.25000000  0.80878100  0.69121900  1
  Cs  Cs1  1  0.80878100  0.69121900  0.25000000  1
  Cs  Cs2  1  0.75000000  0.19121900  0.30878100  1
  Cs  Cs3  1  0.30878100  0.75000000  0.19121900  1
  Cs  Cs4  1  0.69121900  0.25000000  0.80878100  1
  Cs  Cs5  1  0.19121900  0.30878100  0.75000000  1
  B  B6  1  0.14462900  0.35537100  0.25000000  1
  B  B7  1  0.64462900  0.75000000  0.85537100  1
  B  B8  1  0.75000000  0.85537100  0.64462900  1
  B  B9  1  0.85537100  0.64462900  0.75000000  1
  B  B10  1  0.25000000  0.14462900  0.35537100  1
  B  B11  1  0.35537100  0.25000000  0.14462900  1
  O  O12  1  0.25000000  0.35071500  0.14928500  1
  O  O13  1  0.64928500  0.85071500  0.75000000  1
  O  O14  1  0.75000000  0.64928500  0.85071500  1
  O  O15  1  0.75000000  0.95138900  0.54861100  1
  O  O16  1  0.04861100  0.45138900  0.25000000  1
  O  O17  1  0.45138900  0.25000000  0.04861100  1
  O  O18  1  0.95138900  0.54861100  0.75000000  1
  O  O19  1  0.35071500  0.14928500  0.25000000  1
  O  O20  1  0.85071500  0.75000000  0.64928500  1
  O  O21  1  0.14928500  0.25000000  0.35071500  1
  O  O22  1  0.25000000  0.04861100  0.45138900  1
  O  O23  1  0.54861100  0.75000000  0.95138900  1
