# generated using pymatgen
data_Sm4Se3O4
_symmetry_space_group_name_H-M   'P 1'
_cell_length_a   6.71990185
_cell_length_b   6.71990185
_cell_length_c   8.43478900
_cell_angle_alpha   90.00000000
_cell_angle_beta   90.00000000
_cell_angle_gamma   145.61933330
_symmetry_Int_Tables_number   1
_chemical_formula_structural   Sm4Se3O4
_chemical_formula_sum   'Sm4 Se3 O4'
_cell_volume   215.08447669
_cell_formula_units_Z   1
loop_
 _symmetry_equiv_pos_site_id
 _symmetry_equiv_pos_as_xyz
  1  'x, y, z'
loop_
 _atom_site_type_symbol
 _atom_site_label
 _atom_site_symmetry_multiplicity
 _atom_site_fract_x
 _atom_site_fract_y
 _atom_site_fract_z
 _atom_site_occupancy
  Sm  Sm0  1  0.31836100  0.68163900  0.23717300  1
  Sm  Sm1  1  0.31836100  0.68163900  0.76282700  1
  Sm  Sm2  1  0.98195800  0.01804200  0.50000000  1
  Sm  Sm3  1  0.99872400  0.00127600  0.00000000  1
  Se  Se4  1  0.68759800  0.31240200  0.00000000  1
  Se  Se5  1  0.64489500  0.35510500  0.64932600  1
  Se  Se6  1  0.64489500  0.35510500  0.35067400  1
  O  O7  1  0.38424000  0.61576000  0.50000000  1
  O  O8  1  0.91302800  0.08697200  0.75590200  1
  O  O9  1  0.41234200  0.58765800  0.00000000  1
  O  O10  1  0.91302800  0.08697200  0.24409800  1
