# generated using pymatgen
data_VBiO4
_symmetry_space_group_name_H-M   'P 1'
_cell_length_a   6.16710846
_cell_length_b   6.16710846
_cell_length_c   6.16710846
_cell_angle_alpha   106.16420503
_cell_angle_beta   106.16420503
_cell_angle_gamma   116.30936814
_symmetry_Int_Tables_number   1
_chemical_formula_structural   VBiO4
_chemical_formula_sum   'V2 Bi2 O8'
_cell_volume   178.60940046
_cell_formula_units_Z   2
loop_
 _symmetry_equiv_pos_site_id
 _symmetry_equiv_pos_as_xyz
  1  'x, y, z'
loop_
 _atom_site_type_symbol
 _atom_site_label
 _atom_site_symmetry_multiplicity
 _atom_site_fract_x
 _atom_site_fract_y
 _atom_site_fract_z
 _atom_site_occupancy
  V  V0  1  0.87500000  0.12500000  0.25000000  1
  V  V1  1  0.12500000  0.87500000  0.75000000  1
  Bi  Bi2  1  0.62500000  0.37500000  0.75000000  1
  Bi  Bi3  1  0.37500000  0.62500000  0.25000000  1
  O  O4  1  0.13523100  0.70364800  0.93158300  1
  O  O5  1  0.70364800  0.13523100  0.43158300  1
  O  O6  1  0.22793500  0.29635200  0.43158300  1
  O  O7  1  0.70364800  0.77206500  0.06841700  1
  O  O8  1  0.29635200  0.22793500  0.93158300  1
  O  O9  1  0.77206500  0.70364800  0.56841700  1
  O  O10  1  0.29635200  0.86476900  0.56841700  1
  O  O11  1  0.86476900  0.29635200  0.06841700  1
