# generated using pymatgen
data_Mo6PbI14
_symmetry_space_group_name_H-M   'P 1'
_cell_length_a   14.85007800
_cell_length_b   14.85007800
_cell_length_c   14.85007800
_cell_angle_alpha   90.00000000
_cell_angle_beta   90.00000000
_cell_angle_gamma   90.00000000
_symmetry_Int_Tables_number   1
_chemical_formula_structural   Mo6PbI14
_chemical_formula_sum   'Mo24 Pb4 I56'
_cell_volume   3274.81072754
_cell_formula_units_Z   4
loop_
 _symmetry_equiv_pos_site_id
 _symmetry_equiv_pos_as_xyz
  1  'x, y, z'
loop_
 _atom_site_type_symbol
 _atom_site_label
 _atom_site_symmetry_multiplicity
 _atom_site_fract_x
 _atom_site_fract_y
 _atom_site_fract_z
 _atom_site_occupancy
  Mo  Mo0  1  0.78164300  0.87176800  0.72484400  1
  Mo  Mo1  1  0.72484400  0.78164300  0.87176800  1
  Mo  Mo2  1  0.62823200  0.22484400  0.28164300  1
  Mo  Mo3  1  0.27515600  0.21835700  0.87176800  1
  Mo  Mo4  1  0.77515600  0.28164300  0.37176800  1
  Mo  Mo5  1  0.37176800  0.77515600  0.28164300  1
  Mo  Mo6  1  0.77515600  0.71835700  0.62823200  1
  Mo  Mo7  1  0.22484400  0.71835700  0.37176800  1
  Mo  Mo8  1  0.28164300  0.37176800  0.77515600  1
  Mo  Mo9  1  0.28164300  0.62823200  0.22484400  1
  Mo  Mo10  1  0.37176800  0.22484400  0.71835700  1
  Mo  Mo11  1  0.22484400  0.28164300  0.62823200  1
  Mo  Mo12  1  0.87176800  0.72484400  0.78164300  1
  Mo  Mo13  1  0.71835700  0.62823200  0.77515600  1
  Mo  Mo14  1  0.71835700  0.37176800  0.22484400  1
  Mo  Mo15  1  0.87176800  0.27515600  0.21835700  1
  Mo  Mo16  1  0.12823200  0.27515600  0.78164300  1
  Mo  Mo17  1  0.21835700  0.12823200  0.72484400  1
  Mo  Mo18  1  0.12823200  0.72484400  0.21835700  1
  Mo  Mo19  1  0.62823200  0.77515600  0.71835700  1
  Mo  Mo20  1  0.27515600  0.78164300  0.12823200  1
  Mo  Mo21  1  0.21835700  0.87176800  0.27515600  1
  Mo  Mo22  1  0.72484400  0.21835700  0.12823200  1
  Mo  Mo23  1  0.78164300  0.12823200  0.27515600  1
  Pb  Pb24  1  0.75000000  0.75000000  0.25000000  1
  Pb  Pb25  1  0.25000000  0.25000000  0.25000000  1
  Pb  Pb26  1  0.25000000  0.75000000  0.75000000  1
  Pb  Pb27  1  0.75000000  0.25000000  0.75000000  1
  I  I28  1  0.13082400  0.56496200  0.31684900  1
  I  I29  1  0.05598000  0.68197100  0.83293400  1
  I  I30  1  0.63082400  0.93503800  0.81684900  1
  I  I31  1  0.36917600  0.93503800  0.18315100  1
  I  I32  1  0.43503800  0.68315100  0.13082400  1
  I  I33  1  0.18315100  0.36917600  0.93503800  1
  I  I34  1  0.11668400  0.88331600  0.11668400  1
  I  I35  1  0.33293400  0.44402000  0.18197100  1
  I  I36  1  0.31684900  0.86917600  0.43503800  1
  I  I37  1  0.68315100  0.86917600  0.56496200  1
  I  I38  1  0.88331600  0.11668400  0.11668400  1
  I  I39  1  0.18197100  0.33293400  0.44402000  1
  I  I40  1  0.86917600  0.43503800  0.31684900  1
  I  I41  1  0.93503800  0.18315100  0.36917600  1
  I  I42  1  0.66706600  0.44402000  0.81802900  1
  I  I43  1  0.55598000  0.81802900  0.33293400  1
  I  I44  1  0.31802900  0.83293400  0.94402000  1
  I  I45  1  0.38331600  0.38331600  0.61668400  1
  I  I46  1  0.55598000  0.18197100  0.66706600  1
  I  I47  1  0.44402000  0.18197100  0.33293400  1
  I  I48  1  0.11668400  0.11668400  0.88331600  1
  I  I49  1  0.61668400  0.38331600  0.38331600  1
  I  I50  1  0.94402000  0.31802900  0.83293400  1
  I  I51  1  0.38331600  0.61668400  0.38331600  1
  I  I52  1  0.86917600  0.56496200  0.68315100  1
  I  I53  1  0.63082400  0.06496200  0.18315100  1
  I  I54  1  0.94402000  0.68197100  0.16706600  1
  I  I55  1  0.06496200  0.81684900  0.36917600  1
  I  I56  1  0.18315100  0.63082400  0.06496200  1
  I  I57  1  0.68197100  0.83293400  0.05598000  1
  I  I58  1  0.33293400  0.55598000  0.81802900  1
  I  I59  1  0.88331600  0.88331600  0.88331600  1
  I  I60  1  0.81684900  0.36917600  0.06496200  1
  I  I61  1  0.61668400  0.61668400  0.61668400  1
  I  I62  1  0.05598000  0.31802900  0.16706600  1
  I  I63  1  0.31684900  0.13082400  0.56496200  1
  I  I64  1  0.93503800  0.81684900  0.63082400  1
  I  I65  1  0.18197100  0.66706600  0.55598000  1
  I  I66  1  0.83293400  0.05598000  0.68197100  1
  I  I67  1  0.06496200  0.18315100  0.63082400  1
  I  I68  1  0.44402000  0.81802900  0.66706600  1
  I  I69  1  0.66706600  0.55598000  0.18197100  1
  I  I70  1  0.81684900  0.63082400  0.93503800  1
  I  I71  1  0.81802900  0.66706600  0.44402000  1
  I  I72  1  0.56496200  0.31684900  0.13082400  1
  I  I73  1  0.16706600  0.05598000  0.31802900  1
  I  I74  1  0.31802900  0.16706600  0.05598000  1
  I  I75  1  0.13082400  0.43503800  0.68315100  1
  I  I76  1  0.81802900  0.33293400  0.55598000  1
  I  I77  1  0.68197100  0.16706600  0.94402000  1
  I  I78  1  0.43503800  0.31684900  0.86917600  1
  I  I79  1  0.83293400  0.94402000  0.31802900  1
  I  I80  1  0.56496200  0.68315100  0.86917600  1
  I  I81  1  0.36917600  0.06496200  0.81684900  1
  I  I82  1  0.16706600  0.94402000  0.68197100  1
  I  I83  1  0.68315100  0.13082400  0.43503800  1
