# generated using pymatgen
data_K6Ti2S6O
_symmetry_space_group_name_H-M   'P 1'
_cell_length_a   10.47563600
_cell_length_b   13.12379300
_cell_length_c   13.46625782
_cell_angle_alpha   74.12439467
_cell_angle_beta   90.00000000
_cell_angle_gamma   90.00000000
_symmetry_Int_Tables_number   1
_chemical_formula_structural   K6Ti2S6O
_chemical_formula_sum   'K24 Ti8 S24 O4'
_cell_volume   1780.72803806
_cell_formula_units_Z   4
loop_
 _symmetry_equiv_pos_site_id
 _symmetry_equiv_pos_as_xyz
  1  'x, y, z'
loop_
 _atom_site_type_symbol
 _atom_site_label
 _atom_site_symmetry_multiplicity
 _atom_site_fract_x
 _atom_site_fract_y
 _atom_site_fract_z
 _atom_site_occupancy
  K  K0  1  0.34172600  0.39621800  0.99525600  1
  K  K1  1  0.16776500  0.39699200  0.53069200  1
  K  K2  1  0.04481000  0.16987800  0.40604800  1
  K  K3  1  0.54481000  0.33012200  0.59395200  1
  K  K4  1  0.26482300  0.06481000  0.20339300  1
  K  K5  1  0.71646500  0.41636800  0.28588800  1
  K  K6  1  0.23517700  0.56481000  0.20339300  1
  K  K7  1  0.45519000  0.66987800  0.40604800  1
  K  K8  1  0.52385100  0.83955300  0.08685100  1
  K  K9  1  0.73517700  0.93519000  0.79660700  1
  K  K10  1  0.95519000  0.83012200  0.59395200  1
  K  K11  1  0.83223500  0.60300800  0.46930800  1
  K  K12  1  0.15827400  0.89621800  0.99525600  1
  K  K13  1  0.33223500  0.89699200  0.53069200  1
  K  K14  1  0.21646500  0.08363200  0.71411200  1
  K  K15  1  0.28353500  0.58363200  0.71411200  1
  K  K16  1  0.76482300  0.43519000  0.79660700  1
  K  K17  1  0.02385100  0.66044700  0.91314900  1
  K  K18  1  0.65827400  0.60378200  0.00474400  1
  K  K19  1  0.84172600  0.10378200  0.00474400  1
  K  K20  1  0.47614900  0.16044700  0.91314900  1
  K  K21  1  0.78353500  0.91636800  0.28588800  1
  K  K22  1  0.66776500  0.10300800  0.46930800  1
  K  K23  1  0.97614900  0.33955300  0.08685100  1
  Ti  Ti24  1  0.60944400  0.71659500  0.66200600  1
  Ti  Ti25  1  0.86982400  0.70697900  0.17841500  1
  Ti  Ti26  1  0.10944400  0.78340500  0.33799400  1
  Ti  Ti27  1  0.63017600  0.20697900  0.17841500  1
  Ti  Ti28  1  0.13017600  0.29302100  0.82158500  1
  Ti  Ti29  1  0.36982400  0.79302100  0.82158500  1
  Ti  Ti30  1  0.89055600  0.21659500  0.66200600  1
  Ti  Ti31  1  0.39055600  0.28340500  0.33799400  1
  S  S32  1  0.35006500  0.15748300  0.48875200  1
  S  S33  1  0.05824800  0.44153500  0.85797600  1
  S  S34  1  0.14666300  0.15492200  0.96695000  1
  S  S35  1  0.17420200  0.83212200  0.75268000  1
  S  S36  1  0.67420200  0.66787800  0.24732000  1
  S  S37  1  0.64993500  0.84251700  0.51124800  1
  S  S38  1  0.57328100  0.56184400  0.62509400  1
  S  S39  1  0.92671900  0.06184400  0.62509400  1
  S  S40  1  0.64666300  0.34507800  0.03305000  1
  S  S41  1  0.35333700  0.65492200  0.96695000  1
  S  S42  1  0.22626900  0.30529000  0.22474100  1
  S  S43  1  0.77373100  0.69471000  0.77525900  1
  S  S44  1  0.44175200  0.94153500  0.85797600  1
  S  S45  1  0.85333700  0.84507800  0.03305000  1
  S  S46  1  0.42671900  0.43815600  0.37490600  1
  S  S47  1  0.85006500  0.34251700  0.51124800  1
  S  S48  1  0.94175200  0.55846500  0.14202400  1
  S  S49  1  0.72626900  0.19471000  0.77525900  1
  S  S50  1  0.07328100  0.93815600  0.37490600  1
  S  S51  1  0.14993500  0.65748300  0.48875200  1
  S  S52  1  0.32579800  0.33212200  0.75268000  1
  S  S53  1  0.82579800  0.16787800  0.24732000  1
  S  S54  1  0.55824800  0.05846500  0.14202400  1
  S  S55  1  0.27373100  0.80529000  0.22474100  1
  O  O56  1  0.96200200  0.74413700  0.28096800  1
  O  O57  1  0.03799800  0.25586300  0.71903200  1
  O  O58  1  0.53799800  0.24413700  0.28096800  1
  O  O59  1  0.46200200  0.75586300  0.71903200  1
