# generated using pymatgen
data_Mn2BiPO6
_symmetry_space_group_name_H-M   'P 1'
_cell_length_a   5.44104900
_cell_length_b   8.22162600
_cell_length_c   12.32741600
_cell_angle_alpha   90.00000000
_cell_angle_beta   90.00000000
_cell_angle_gamma   90.00000000
_symmetry_Int_Tables_number   1
_chemical_formula_structural   Mn2BiPO6
_chemical_formula_sum   'Mn8 Bi4 P4 O24'
_cell_volume   551.45795483
_cell_formula_units_Z   4
loop_
 _symmetry_equiv_pos_site_id
 _symmetry_equiv_pos_as_xyz
  1  'x, y, z'
loop_
 _atom_site_type_symbol
 _atom_site_label
 _atom_site_symmetry_multiplicity
 _atom_site_fract_x
 _atom_site_fract_y
 _atom_site_fract_z
 _atom_site_occupancy
  Mn  Mn0  1  0.75000000  0.29345500  0.09870100  1
  Mn  Mn1  1  0.75000000  0.20654500  0.59870100  1
  Mn  Mn2  1  0.25000000  0.70654500  0.90129900  1
  Mn  Mn3  1  0.25000000  0.30887900  0.89674400  1
  Mn  Mn4  1  0.75000000  0.69112100  0.10325600  1
  Mn  Mn5  1  0.25000000  0.19112100  0.39674400  1
  Mn  Mn6  1  0.25000000  0.79345500  0.40129900  1
  Mn  Mn7  1  0.75000000  0.80887900  0.60325600  1
  Bi  Bi8  1  0.75000000  0.51321500  0.40688600  1
  Bi  Bi9  1  0.25000000  0.48678500  0.59311400  1
  Bi  Bi10  1  0.75000000  0.98678500  0.90688600  1
  Bi  Bi11  1  0.25000000  0.01321500  0.09311400  1
  P  P12  1  0.25000000  0.47076300  0.19783200  1
  P  P13  1  0.25000000  0.02923700  0.69783200  1
  P  P14  1  0.75000000  0.52923700  0.80216800  1
  P  P15  1  0.75000000  0.97076300  0.30216800  1
  O  O16  1  0.48717400  0.00745100  0.62703500  1
  O  O17  1  0.98717400  0.99254900  0.37296500  1
  O  O18  1  0.75000000  0.79318000  0.25934100  1
  O  O19  1  0.51282600  0.99254900  0.37296500  1
  O  O20  1  0.50155900  0.66653900  0.50643500  1
  O  O21  1  0.49844100  0.33346100  0.49356500  1
  O  O22  1  0.25000000  0.29318000  0.24065900  1
  O  O23  1  0.75000000  0.70682000  0.75934100  1
  O  O24  1  0.25000000  0.90527000  0.79154300  1
  O  O25  1  0.99844100  0.66653900  0.50643500  1
  O  O26  1  0.51282600  0.50745100  0.87296500  1
  O  O27  1  0.99844100  0.83346100  0.00643500  1
  O  O28  1  0.49844100  0.16653900  0.99356500  1
  O  O29  1  0.00155900  0.33346100  0.49356500  1
  O  O30  1  0.25000000  0.59473000  0.29154300  1
  O  O31  1  0.01282600  0.49254900  0.12703500  1
  O  O32  1  0.98717400  0.50745100  0.87296500  1
  O  O33  1  0.75000000  0.09473000  0.20845700  1
  O  O34  1  0.75000000  0.40527000  0.70845700  1
  O  O35  1  0.00155900  0.16653900  0.99356500  1
  O  O36  1  0.50155900  0.83346100  0.00643500  1
  O  O37  1  0.48717400  0.49254900  0.12703500  1
  O  O38  1  0.01282600  0.00745100  0.62703500  1
  O  O39  1  0.25000000  0.20682000  0.74065900  1
