# generated using pymatgen
data_Cs2PuCl6
_symmetry_space_group_name_H-M   'P 1'
_cell_length_a   7.66142193
_cell_length_b   7.66142193
_cell_length_c   6.21154200
_cell_angle_alpha   90.00000000
_cell_angle_beta   90.00000000
_cell_angle_gamma   119.99999939
_symmetry_Int_Tables_number   1
_chemical_formula_structural   Cs2PuCl6
_chemical_formula_sum   'Cs2 Pu1 Cl6'
_cell_volume   315.75397123
_cell_formula_units_Z   1
loop_
 _symmetry_equiv_pos_site_id
 _symmetry_equiv_pos_as_xyz
  1  'x, y, z'
loop_
 _atom_site_type_symbol
 _atom_site_label
 _atom_site_symmetry_multiplicity
 _atom_site_fract_x
 _atom_site_fract_y
 _atom_site_fract_z
 _atom_site_occupancy
  Cs  Cs0  1  0.66666700  0.33333300  0.25377200  1
  Cs  Cs1  1  0.33333300  0.66666700  0.74622800  1
  Pu  Pu2  1  0.00000000  0.00000000  0.00000000  1
  Cl  Cl3  1  0.83726400  0.16273600  0.76679000  1
  Cl  Cl4  1  0.67452700  0.83726400  0.23321000  1
  Cl  Cl5  1  0.32547300  0.16273600  0.76679000  1
  Cl  Cl6  1  0.16273600  0.32547300  0.23321000  1
  Cl  Cl7  1  0.16273600  0.83726400  0.23321000  1
  Cl  Cl8  1  0.83726400  0.67452700  0.76679000  1
