# generated using pymatgen
data_K6U5V2O23
_symmetry_space_group_name_H-M   'P 1'
_cell_length_a   25.03073600
_cell_length_b   7.09126400
_cell_length_c   7.21707776
_cell_angle_alpha   81.21287486
_cell_angle_beta   90.00000000
_cell_angle_gamma   90.00000000
_symmetry_Int_Tables_number   1
_chemical_formula_structural   K6U5V2O23
_chemical_formula_sum   'K12 U10 V4 O46'
_cell_volume   1265.99233850
_cell_formula_units_Z   2
loop_
 _symmetry_equiv_pos_site_id
 _symmetry_equiv_pos_as_xyz
  1  'x, y, z'
loop_
 _atom_site_type_symbol
 _atom_site_label
 _atom_site_symmetry_multiplicity
 _atom_site_fract_x
 _atom_site_fract_y
 _atom_site_fract_z
 _atom_site_occupancy
  K  K0  1  0.03934700  0.95082400  0.76471600  1
  K  K1  1  0.38664600  0.86945100  0.77174100  1
  K  K2  1  0.46065300  0.95082400  0.26471600  1
  K  K3  1  0.70727700  0.23519200  0.71375700  1
  K  K4  1  0.79272300  0.23519200  0.21375700  1
  K  K5  1  0.88664600  0.13054900  0.72825900  1
  K  K6  1  0.96065300  0.04917600  0.23528400  1
  K  K7  1  0.20727700  0.76480800  0.78624300  1
  K  K8  1  0.53934700  0.04917600  0.73528400  1
  K  K9  1  0.11335400  0.86945100  0.27174100  1
  K  K10  1  0.29272300  0.76480800  0.28624300  1
  K  K11  1  0.61335400  0.13054900  0.22825900  1
  U  U12  1  0.35781900  0.34749100  0.02777900  1
  U  U13  1  0.41874100  0.40792200  0.51460300  1
  U  U14  1  0.08125900  0.40792200  0.01460300  1
  U  U15  1  0.58125900  0.59207800  0.48539700  1
  U  U16  1  0.50000000  0.50000000  0.00000000  1
  U  U17  1  0.64218100  0.65250900  0.97222100  1
  U  U18  1  0.14218100  0.34749100  0.52777900  1
  U  U19  1  0.85781900  0.65250900  0.47222100  1
  U  U20  1  0.91874100  0.59207800  0.98539700  1
  U  U21  1  0.00000000  0.50000000  0.50000000  1
  V  V22  1  0.79680000  0.78639500  0.95452700  1
  V  V23  1  0.29680000  0.21360500  0.54547300  1
  V  V24  1  0.70320000  0.78639500  0.45452700  1
  V  V25  1  0.20320000  0.21360500  0.04547300  1
  O  O26  1  0.97870900  0.24252900  0.52838300  1
  O  O27  1  0.26642800  0.31090900  0.03485300  1
  O  O28  1  0.39239300  0.65851200  0.46840700  1
  O  O29  1  0.60760700  0.34148800  0.53159300  1
  O  O30  1  0.05875800  0.15172500  0.05869500  1
  O  O31  1  0.42934700  0.43631200  0.82679200  1
  O  O32  1  0.87246800  0.91324300  0.43290500  1
  O  O33  1  0.92934700  0.56368800  0.67320800  1
  O  O34  1  0.07065300  0.43631200  0.32679200  1
  O  O35  1  0.37246800  0.08675700  0.06709500  1
  O  O36  1  0.06809300  0.40992000  0.69860800  1
  O  O37  1  0.44124200  0.15172500  0.55869500  1
  O  O38  1  0.33803100  0.29343900  0.71739600  1
  O  O39  1  0.02129100  0.75747100  0.47161700  1
  O  O40  1  0.16196900  0.29343900  0.21739600  1
  O  O41  1  0.43190700  0.40992000  0.19860800  1
  O  O42  1  0.66330000  0.69011300  0.65014500  1
  O  O43  1  0.93190700  0.59008000  0.30139200  1
  O  O44  1  0.29273100  0.97205700  0.57569600  1
  O  O45  1  0.76642800  0.68909100  0.46514700  1
  O  O46  1  0.66181100  0.39658300  0.99975900  1
  O  O47  1  0.10760700  0.65851200  0.96840700  1
  O  O48  1  0.56809300  0.59008000  0.80139200  1
  O  O49  1  0.83670000  0.69011300  0.15014500  1
  O  O50  1  0.79273100  0.02794300  0.92430400  1
  O  O51  1  0.70726900  0.02794300  0.42430400  1
  O  O52  1  0.52129100  0.24252900  0.02838300  1
  O  O53  1  0.66196900  0.70656100  0.28260400  1
  O  O54  1  0.47870900  0.75747100  0.97161700  1
  O  O55  1  0.55875800  0.84827500  0.44130500  1
  O  O56  1  0.12753200  0.08675700  0.56709500  1
  O  O57  1  0.94124200  0.84827500  0.94130500  1
  O  O58  1  0.83818900  0.39658300  0.49975900  1
  O  O59  1  0.33818900  0.60341700  0.00024100  1
  O  O60  1  0.62753200  0.91324300  0.93290500  1
  O  O61  1  0.16330000  0.30988700  0.84985500  1
  O  O62  1  0.16181100  0.60341700  0.50024100  1
  O  O63  1  0.33670000  0.30988700  0.34985500  1
  O  O64  1  0.20726900  0.97205700  0.07569600  1
  O  O65  1  0.57065300  0.56368800  0.17320800  1
  O  O66  1  0.73357200  0.68909100  0.96514700  1
  O  O67  1  0.89239300  0.34148800  0.03159300  1
  O  O68  1  0.83803100  0.70656100  0.78260400  1
  O  O69  1  0.00000000  0.50000000  0.00000000  1
  O  O70  1  0.50000000  0.50000000  0.50000000  1
  O  O71  1  0.23357200  0.31090900  0.53485300  1
