# generated using pymatgen
data_Li15Cr2N9
_symmetry_space_group_name_H-M   'P 1'
_cell_length_a   9.37898200
_cell_length_b   10.21859400
_cell_length_c   10.22753200
_cell_angle_alpha   90.00000000
_cell_angle_beta   90.00000000
_cell_angle_gamma   90.00000000
_symmetry_Int_Tables_number   1
_chemical_formula_structural   Li15Cr2N9
_chemical_formula_sum   'Li60 Cr8 N36'
_cell_volume   980.20676088
_cell_formula_units_Z   4
loop_
 _symmetry_equiv_pos_site_id
 _symmetry_equiv_pos_as_xyz
  1  'x, y, z'
loop_
 _atom_site_type_symbol
 _atom_site_label
 _atom_site_symmetry_multiplicity
 _atom_site_fract_x
 _atom_site_fract_y
 _atom_site_fract_z
 _atom_site_occupancy
  Li  Li0  1  0.74988000  0.74908500  0.25516000  1
  Li  Li1  1  0.74323900  0.78044800  0.91014300  1
  Li  Li2  1  0.74329700  0.90999100  0.71844600  1
  Li  Li3  1  0.74363100  0.58810200  0.78485100  1
  Li  Li4  1  0.74389300  0.71467800  0.58719900  1
  Li  Li5  1  0.71309900  0.40399200  0.93572500  1
  Li  Li6  1  0.73381700  0.56333400  0.39957100  1
  Li  Li7  1  0.71799500  0.92966000  0.09763200  1
  Li  Li8  1  0.73882500  0.10206800  0.57214600  1
  Li  Li9  1  0.51652400  0.08361900  0.22667100  1
  Li  Li10  1  0.51487800  0.23495000  0.40428800  1
  Li  Li11  1  0.51490000  0.26780700  0.08102700  1
  Li  Li12  1  0.51472000  0.40661100  0.25970400  1
  Li  Li13  1  0.49963500  0.26865600  0.76883000  1
  Li  Li14  1  0.50036500  0.76865600  0.23117000  1
  Li  Li15  1  0.50067100  0.09862000  0.59999200  1
  Li  Li16  1  0.49932900  0.59862000  0.40000800  1
  Li  Li17  1  0.48510000  0.76780700  0.91897300  1
  Li  Li18  1  0.48528000  0.90661100  0.74029600  1
  Li  Li19  1  0.48347600  0.58361900  0.77332900  1
  Li  Li20  1  0.48512200  0.73495000  0.59571200  1
  Li  Li21  1  0.28200500  0.42966000  0.90236800  1
  Li  Li22  1  0.28690100  0.90399200  0.06427500  1
  Li  Li23  1  0.26117500  0.60206800  0.42785400  1
  Li  Li24  1  0.26618300  0.06333400  0.60042900  1
  Li  Li25  1  0.25670300  0.40999100  0.28155400  1
  Li  Li26  1  0.25676100  0.28044800  0.08985700  1
  Li  Li27  1  0.25610700  0.21467800  0.41280100  1
  Li  Li28  1  0.25636900  0.08810200  0.21514900  1
  Li  Li29  1  0.24988000  0.74908500  0.24484000  1
  Li  Li30  1  0.25012000  0.24908500  0.74484000  1
  Li  Li31  1  0.24329700  0.90999100  0.78155400  1
  Li  Li32  1  0.24389300  0.71467800  0.91280100  1
  Li  Li33  1  0.24323900  0.78044800  0.58985700  1
  Li  Li34  1  0.24363100  0.58810200  0.71514900  1
  Li  Li35  1  0.21799500  0.92966000  0.40236800  1
  Li  Li36  1  0.21309900  0.40399200  0.56427500  1
  Li  Li37  1  0.23882500  0.10206800  0.92785400  1
  Li  Li38  1  0.23381700  0.56333400  0.10042900  1
  Li  Li39  1  0.01490000  0.26780700  0.41897300  1
  Li  Li40  1  0.01472000  0.40661100  0.24029600  1
  Li  Li41  1  0.01652400  0.08361900  0.27332900  1
  Li  Li42  1  0.01487800  0.23495000  0.09571200  1
  Li  Li43  1  0.00067100  0.09862000  0.90000800  1
  Li  Li44  1  0.99932900  0.59862000  0.09999200  1
  Li  Li45  1  0.99963500  0.26865600  0.73117000  1
  Li  Li46  1  0.00036500  0.76865600  0.26883000  1
  Li  Li47  1  0.98347600  0.58361900  0.72667100  1
  Li  Li48  1  0.98512200  0.73495000  0.90428800  1
  Li  Li49  1  0.98510000  0.76780700  0.58102700  1
  Li  Li50  1  0.98528000  0.90661100  0.75970400  1
  Li  Li51  1  0.76618300  0.06333400  0.89957100  1
  Li  Li52  1  0.78200500  0.42966000  0.59763200  1
  Li  Li53  1  0.78690100  0.90399200  0.43572500  1
  Li  Li54  1  0.76117500  0.60206800  0.07214600  1
  Li  Li55  1  0.75676100  0.28044800  0.41014300  1
  Li  Li56  1  0.75636900  0.08810200  0.28485100  1
  Li  Li57  1  0.75670300  0.40999100  0.21844600  1
  Li  Li58  1  0.75610700  0.21467800  0.08719900  1
  Li  Li59  1  0.75012000  0.24908500  0.75516000  1
  Cr  Cr60  1  0.50329000  0.07841900  0.91883500  1
  Cr  Cr61  1  0.50346400  0.91854500  0.42164900  1
  Cr  Cr62  1  0.49671000  0.57841900  0.08116500  1
  Cr  Cr63  1  0.49653600  0.41854500  0.57835100  1
  Cr  Cr64  1  0.99671000  0.57841900  0.41883500  1
  Cr  Cr65  1  0.99653600  0.41854500  0.92164900  1
  Cr  Cr66  1  0.00329000  0.07841900  0.58116500  1
  Cr  Cr67  1  0.00346400  0.91854500  0.07835100  1
  N  N68  1  0.64228800  0.24823700  0.24730700  1
  N  N69  1  0.62371000  0.21139200  0.91729100  1
  N  N70  1  0.61260300  0.58757700  0.22145400  1
  N  N71  1  0.61204100  0.27843400  0.58763700  1
  N  N72  1  0.62398500  0.91762300  0.28901300  1
  N  N73  1  0.60553000  0.59034700  0.94239900  1
  N  N74  1  0.60736300  0.93655600  0.91020600  1
  N  N75  1  0.60365300  0.55973100  0.58044500  1
  N  N76  1  0.60587000  0.91841900  0.56555200  1
  N  N77  1  0.39413000  0.41841900  0.43444800  1
  N  N78  1  0.39634700  0.05973100  0.41955500  1
  N  N79  1  0.39263700  0.43655600  0.08979400  1
  N  N80  1  0.39447000  0.09034700  0.05760100  1
  N  N81  1  0.37601500  0.41762300  0.71098700  1
  N  N82  1  0.38795900  0.77843400  0.41236300  1
  N  N83  1  0.38739700  0.08757700  0.77854600  1
  N  N84  1  0.37629000  0.71139200  0.08270900  1
  N  N85  1  0.35771200  0.74823700  0.75269300  1
  N  N86  1  0.14228800  0.24823700  0.25269300  1
  N  N87  1  0.11204100  0.27843400  0.91236300  1
  N  N88  1  0.11260300  0.58757700  0.27854600  1
  N  N89  1  0.12371000  0.21139200  0.58270900  1
  N  N90  1  0.12398500  0.91762300  0.21098700  1
  N  N91  1  0.10587000  0.91841900  0.93444800  1
  N  N92  1  0.10365300  0.55973100  0.91955500  1
  N  N93  1  0.10736300  0.93655600  0.58979400  1
  N  N94  1  0.10553000  0.59034700  0.55760100  1
  N  N95  1  0.89634700  0.05973100  0.08044500  1
  N  N96  1  0.89447000  0.09034700  0.44239900  1
  N  N97  1  0.89263700  0.43655600  0.41020600  1
  N  N98  1  0.89413000  0.41841900  0.06555200  1
  N  N99  1  0.87601500  0.41762300  0.78901300  1
  N  N100  1  0.88739700  0.08757700  0.72145400  1
  N  N101  1  0.87629000  0.71139200  0.41729100  1
  N  N102  1  0.88795900  0.77843400  0.08763700  1
  N  N103  1  0.85771200  0.74823700  0.74730700  1
