# generated using pymatgen
data_Na2SnAs2
_symmetry_space_group_name_H-M   'P 1'
_cell_length_a   14.84043473
_cell_length_b   14.84043473
_cell_length_c   14.84043473
_cell_angle_alpha   122.12235789
_cell_angle_beta   122.12235789
_cell_angle_gamma   86.36166806
_symmetry_Int_Tables_number   1
_chemical_formula_structural   Na2SnAs2
_chemical_formula_sum   'Na32 Sn16 As32'
_cell_volume   2232.09280899
_cell_formula_units_Z   16
loop_
 _symmetry_equiv_pos_site_id
 _symmetry_equiv_pos_as_xyz
  1  'x, y, z'
loop_
 _atom_site_type_symbol
 _atom_site_label
 _atom_site_symmetry_multiplicity
 _atom_site_fract_x
 _atom_site_fract_y
 _atom_site_fract_z
 _atom_site_occupancy
  Na  Na0  1  0.85037100  0.64962900  0.50000000  1
  Na  Na1  1  0.99546000  0.53872000  0.22197500  1
  Na  Na2  1  0.96128000  0.50454000  0.77802500  1
  Na  Na3  1  0.93325400  0.21128000  0.95674000  1
  Na  Na4  1  0.49546000  0.27348500  0.45674000  1
  Na  Na5  1  0.52348500  0.24546000  0.95674000  1
  Na  Na6  1  0.72651500  0.18325400  0.22197500  1
  Na  Na7  1  0.10037100  0.10037100  0.70074200  1
  Na  Na8  1  0.64982000  0.64982000  0.79964000  1
  Na  Na9  1  0.35037100  0.85037100  0.20074200  1
  Na  Na10  1  0.85018000  0.85018000  0.20036000  1
  Na  Na11  1  0.64962900  0.14962900  0.79925800  1
  Na  Na12  1  0.89962900  0.60037100  0.00000000  1
  Na  Na13  1  0.39962900  0.39962900  0.29925800  1
  Na  Na14  1  0.78872000  0.74546000  0.72197500  1
  Na  Na15  1  0.02348500  0.06674600  0.27802500  1
  Na  Na16  1  0.39982000  0.10018000  0.50000000  1
  Na  Na17  1  0.10018000  0.60018000  0.70036000  1
  Na  Na18  1  0.60037100  0.89962900  0.00000000  1
  Na  Na19  1  0.31674600  0.77348500  0.77802500  1
  Na  Na20  1  0.89982000  0.39982000  0.29964000  1
  Na  Na21  1  0.25454000  0.97651500  0.04326000  1
  Na  Na22  1  0.75454000  0.71128000  0.27802500  1
  Na  Na23  1  0.60018000  0.89982000  0.50000000  1
  Na  Na24  1  0.35018000  0.14982000  0.00000000  1
  Na  Na25  1  0.43325400  0.47651500  0.72197500  1
  Na  Na26  1  0.81674600  0.03872000  0.54326000  1
  Na  Na27  1  0.46128000  0.68325400  0.45674000  1
  Na  Na28  1  0.14962900  0.35037100  0.50000000  1
  Na  Na29  1  0.22651500  0.00454000  0.54326000  1
  Na  Na30  1  0.28872000  0.56674600  0.04326000  1
  Na  Na31  1  0.14982000  0.35018000  0.00000000  1
  Sn  Sn32  1  0.69913900  0.40013200  0.46152300  1
  Sn  Sn33  1  0.48761600  0.68860900  0.03847700  1
  Sn  Sn34  1  0.81139100  0.01238400  0.96152300  1
  Sn  Sn35  1  0.98761600  0.94913900  0.79900700  1
  Sn  Sn36  1  0.26238400  0.56139100  0.46152300  1
  Sn  Sn37  1  0.55086100  0.51238400  0.20099300  1
  Sn  Sn38  1  0.31139100  0.34986800  0.79900700  1
  Sn  Sn39  1  0.59986800  0.06139100  0.29900700  1
  Sn  Sn40  1  0.65013200  0.44913900  0.96152300  1
  Sn  Sn41  1  0.15013200  0.18860900  0.20099300  1
  Sn  Sn42  1  0.05086100  0.84986800  0.03847700  1
  Sn  Sn43  1  0.09986800  0.80086100  0.53847700  1
  Sn  Sn44  1  0.93860900  0.23761600  0.53847700  1
  Sn  Sn45  1  0.43860900  0.90013200  0.70099300  1
  Sn  Sn46  1  0.19913900  0.73761600  0.29900700  1
  Sn  Sn47  1  0.76238400  0.30086100  0.70099300  1
  As  As48  1  0.62500000  0.05779000  0.93279000  1
  As  As49  1  0.12500000  0.69221000  0.06721000  1
  As  As50  1  0.21805200  0.54035500  0.25250200  1
  As  As51  1  0.53194800  0.70964500  0.24749800  1
  As  As52  1  0.64807600  0.64807600  0.00000000  1
  As  As53  1  0.94221000  0.87500000  0.56721000  1
  As  As54  1  0.46214700  0.28445000  0.75250200  1
  As  As55  1  0.89807600  0.39807600  0.50000000  1
  As  As56  1  0.62500000  0.55779000  0.43279000  1
  As  As57  1  0.10192400  0.60192400  0.50000000  1
  As  As58  1  0.95964500  0.28194800  0.74749800  1
  As  As59  1  0.29035500  0.53785300  0.82230300  1
  As  As60  1  0.03194800  0.78445000  0.82230300  1
  As  As61  1  0.39807600  0.89807600  0.50000000  1
  As  As62  1  0.03445000  0.78194800  0.32230300  1
  As  As63  1  0.71555000  0.46805200  0.17769700  1
  As  As64  1  0.45964500  0.71214700  0.67769700  1
  As  As65  1  0.21555000  0.03785300  0.24749800  1
  As  As66  1  0.85192400  0.85192400  0.00000000  1
  As  As67  1  0.30779000  0.37500000  0.43279000  1
  As  As68  1  0.12500000  0.19221000  0.56721000  1
  As  As69  1  0.35192400  0.35192400  0.00000000  1
  As  As70  1  0.79035500  0.96805200  0.75250200  1
  As  As71  1  0.44221000  0.87500000  0.06721000  1
  As  As72  1  0.14807600  0.14807600  0.00000000  1
  As  As73  1  0.80779000  0.37500000  0.93279000  1
  As  As74  1  0.71805200  0.46555000  0.67769700  1
  As  As75  1  0.60192400  0.10192400  0.50000000  1
  As  As76  1  0.28785300  0.96555000  0.74749800  1
  As  As77  1  0.96214700  0.20964500  0.17769700  1
  As  As78  1  0.53445000  0.21214700  0.25250200  1
  As  As79  1  0.78785300  0.04035500  0.32230300  1
