# generated using pymatgen
data_AlInS3
_symmetry_space_group_name_H-M   'P 1'
_cell_length_a   6.83364597
_cell_length_b   6.83364597
_cell_length_c   18.08916600
_cell_angle_alpha   90.00000000
_cell_angle_beta   90.00000000
_cell_angle_gamma   119.99999969
_symmetry_Int_Tables_number   1
_chemical_formula_structural   AlInS3
_chemical_formula_sum   'Al6 In6 S18'
_cell_volume   731.56703607
_cell_formula_units_Z   6
loop_
 _symmetry_equiv_pos_site_id
 _symmetry_equiv_pos_as_xyz
  1  'x, y, z'
loop_
 _atom_site_type_symbol
 _atom_site_label
 _atom_site_symmetry_multiplicity
 _atom_site_fract_x
 _atom_site_fract_y
 _atom_site_fract_z
 _atom_site_occupancy
  Al  Al0  1  0.66951100  0.98723100  0.48705100  1
  Al  Al1  1  0.31772000  0.33048900  0.15371800  1
  Al  Al2  1  0.33048900  0.01276900  0.98705100  1
  Al  Al3  1  0.68228000  0.66951100  0.65371800  1
  Al  Al4  1  0.98723100  0.31772000  0.32038400  1
  Al  Al5  1  0.01276900  0.68228000  0.82038400  1
  In  In6  1  0.67184200  0.66807800  0.29195000  1
  In  In7  1  0.66807800  0.99623700  0.12528400  1
  In  In8  1  0.99623700  0.32815800  0.95861700  1
  In  In9  1  0.00376300  0.67184200  0.45861700  1
  In  In10  1  0.33192200  0.00376300  0.62528400  1
  In  In11  1  0.32815800  0.33192200  0.79195000  1
  S  S12  1  0.96129800  0.33017700  0.80969100  1
  S  S13  1  0.29465500  0.00208600  0.11382600  1
  S  S14  1  0.36662000  0.33438600  0.94018200  1
  S  S15  1  0.00208600  0.70743000  0.94716000  1
  S  S16  1  0.33017700  0.36887900  0.64302400  1
  S  S17  1  0.96776600  0.63338000  0.60684800  1
  S  S18  1  0.99791400  0.29257000  0.44716000  1
  S  S19  1  0.63338000  0.66561400  0.44018200  1
  S  S20  1  0.66982300  0.63112100  0.14302400  1
  S  S21  1  0.29257000  0.29465500  0.28049300  1
  S  S22  1  0.63112100  0.96129800  0.97635700  1
  S  S23  1  0.70743000  0.70534500  0.78049300  1
  S  S24  1  0.33438600  0.96776600  0.77351500  1
  S  S25  1  0.36887900  0.03870200  0.47635700  1
  S  S26  1  0.70534500  0.99791400  0.61382600  1
  S  S27  1  0.03870200  0.66982300  0.30969100  1
  S  S28  1  0.03223400  0.36662000  0.10684800  1
  S  S29  1  0.66561400  0.03223400  0.27351500  1
