# generated using pymatgen
data_Gd3Se4O12F
_symmetry_space_group_name_H-M   'P 1'
_cell_length_a   10.57446224
_cell_length_b   10.57446224
_cell_length_c   7.00864500
_cell_angle_alpha   90.00000000
_cell_angle_beta   90.00000000
_cell_angle_gamma   120.00000150
_symmetry_Int_Tables_number   1
_chemical_formula_structural   Gd3Se4O12F
_chemical_formula_sum   'Gd6 Se8 O24 F2'
_cell_volume   678.70534493
_cell_formula_units_Z   2
loop_
 _symmetry_equiv_pos_site_id
 _symmetry_equiv_pos_as_xyz
  1  'x, y, z'
loop_
 _atom_site_type_symbol
 _atom_site_label
 _atom_site_symmetry_multiplicity
 _atom_site_fract_x
 _atom_site_fract_y
 _atom_site_fract_z
 _atom_site_occupancy
  Gd  Gd0  1  0.07481700  0.53740900  0.41542300  1
  Gd  Gd1  1  0.53740900  0.46259100  0.91542300  1
  Gd  Gd2  1  0.53740900  0.07481700  0.91542300  1
  Gd  Gd3  1  0.92518300  0.46259100  0.91542300  1
  Gd  Gd4  1  0.46259100  0.53740900  0.41542300  1
  Gd  Gd5  1  0.46259100  0.92518300  0.41542300  1
  Se  Se6  1  0.68921800  0.84460900  0.64860700  1
  Se  Se7  1  0.31078200  0.15539100  0.14860700  1
  Se  Se8  1  0.33333300  0.66666700  0.98354600  1
  Se  Se9  1  0.84460900  0.15539100  0.14860700  1
  Se  Se10  1  0.15539100  0.31078200  0.64860700  1
  Se  Se11  1  0.15539100  0.84460900  0.64860700  1
  Se  Se12  1  0.66666700  0.33333300  0.48354600  1
  Se  Se13  1  0.84460900  0.68921800  0.14860700  1
  O  O14  1  0.91881400  0.33482700  0.21864200  1
  O  O15  1  0.58160700  0.41839300  0.59401900  1
  O  O16  1  0.58398700  0.91881400  0.71864200  1
  O  O17  1  0.63614900  0.81807400  0.41273000  1
  O  O18  1  0.66517300  0.08118600  0.21864200  1
  O  O19  1  0.33482700  0.91881400  0.71864200  1
  O  O20  1  0.41601300  0.08118600  0.21864200  1
  O  O21  1  0.81807400  0.63614900  0.91273000  1
  O  O22  1  0.66517300  0.58398700  0.21864200  1
  O  O23  1  0.18192600  0.81807400  0.41273000  1
  O  O24  1  0.08118600  0.41601300  0.71864200  1
  O  O25  1  0.41839300  0.58160700  0.09401900  1
  O  O26  1  0.58160700  0.16321400  0.59401900  1
  O  O27  1  0.81807400  0.18192600  0.91273000  1
  O  O28  1  0.33482700  0.41601300  0.71864200  1
  O  O29  1  0.36385100  0.18192600  0.91273000  1
  O  O30  1  0.41839300  0.83678600  0.09401900  1
  O  O31  1  0.08118600  0.66517300  0.71864200  1
  O  O32  1  0.41601300  0.33482700  0.21864200  1
  O  O33  1  0.16321400  0.58160700  0.09401900  1
  O  O34  1  0.58398700  0.66517300  0.71864200  1
  O  O35  1  0.18192600  0.36385100  0.41273000  1
  O  O36  1  0.83678600  0.41839300  0.59401900  1
  O  O37  1  0.91881400  0.58398700  0.21864200  1
  F  F38  1  0.33333300  0.66666700  0.46139300  1
  F  F39  1  0.66666700  0.33333300  0.96139300  1
