# generated using pymatgen
data_KAg(PO3)2
_symmetry_space_group_name_H-M   'P 1'
_cell_length_a   13.37399700
_cell_length_b   6.15351500
_cell_length_c   7.62290863
_cell_angle_alpha   85.65173586
_cell_angle_beta   90.00000000
_cell_angle_gamma   90.00000000
_symmetry_Int_Tables_number   1
_chemical_formula_structural   KAg(PO3)2
_chemical_formula_sum   'K4 Ag4 P8 O24'
_cell_volume   625.53747402
_cell_formula_units_Z   4
loop_
 _symmetry_equiv_pos_site_id
 _symmetry_equiv_pos_as_xyz
  1  'x, y, z'
loop_
 _atom_site_type_symbol
 _atom_site_label
 _atom_site_symmetry_multiplicity
 _atom_site_fract_x
 _atom_site_fract_y
 _atom_site_fract_z
 _atom_site_occupancy
  K  K0  1  0.33050600  0.29969800  0.76833500  1
  K  K1  1  0.16949400  0.29969800  0.26833500  1
  K  K2  1  0.66949400  0.70030200  0.23166500  1
  K  K3  1  0.83050600  0.70030200  0.73166500  1
  Ag  Ag4  1  0.47154300  0.18700900  0.19680800  1
  Ag  Ag5  1  0.52845700  0.81299100  0.80319200  1
  Ag  Ag6  1  0.02845700  0.18700900  0.69680800  1
  Ag  Ag7  1  0.97154300  0.81299100  0.30319200  1
  P  P8  1  0.17358400  0.84761500  0.00613100  1
  P  P9  1  0.67358400  0.15238500  0.49386900  1
  P  P10  1  0.32641600  0.84761500  0.50613100  1
  P  P11  1  0.13194800  0.68642900  0.65131000  1
  P  P12  1  0.63194800  0.31357100  0.84869000  1
  P  P13  1  0.86805200  0.31357100  0.34869000  1
  P  P14  1  0.36805200  0.68642900  0.15131000  1
  P  P15  1  0.82641600  0.15238500  0.99386900  1
  O  O16  1  0.82867400  0.32204300  0.14688000  1
  O  O17  1  0.67132600  0.32204300  0.64688000  1
  O  O18  1  0.34897000  0.46139400  0.09405500  1
  O  O19  1  0.84897000  0.53860600  0.40594500  1
  O  O20  1  0.79352900  0.13938700  0.45313200  1
  O  O21  1  0.15103000  0.46139400  0.59405500  1
  O  O22  1  0.87751900  0.26315700  0.83602200  1
  O  O23  1  0.14692100  0.07523200  0.93762400  1
  O  O24  1  0.20647100  0.86061300  0.54686800  1
  O  O25  1  0.62248100  0.26315700  0.33602200  1
  O  O26  1  0.47078800  0.78614100  0.13633000  1
  O  O27  1  0.32867400  0.67795700  0.35312000  1
  O  O28  1  0.65103000  0.53860600  0.90594500  1
  O  O29  1  0.70647100  0.13938700  0.95313200  1
  O  O30  1  0.37751900  0.73684300  0.66397800  1
  O  O31  1  0.17132600  0.67795700  0.85312000  1
  O  O32  1  0.52921200  0.21385900  0.86367000  1
  O  O33  1  0.29352900  0.86061300  0.04686800  1
  O  O34  1  0.35307900  0.07523200  0.43762400  1
  O  O35  1  0.97078800  0.21385900  0.36367000  1
  O  O36  1  0.64692100  0.92476800  0.56237600  1
  O  O37  1  0.12248100  0.73684300  0.16397800  1
  O  O38  1  0.85307900  0.92476800  0.06237600  1
  O  O39  1  0.02921200  0.78614100  0.63633000  1
