# generated using pymatgen
data_Cr4Si2Cl2O7
_symmetry_space_group_name_H-M   'P 1'
_cell_length_a   12.95704300
_cell_length_b   6.51010400
_cell_length_c   10.64618788
_cell_angle_alpha   87.97829577
_cell_angle_beta   90.00000000
_cell_angle_gamma   90.00000000
_symmetry_Int_Tables_number   1
_chemical_formula_structural   Cr4Si2Cl2O7
_chemical_formula_sum   'Cr16 Si8 Cl8 O28'
_cell_volume   897.46503061
_cell_formula_units_Z   4
loop_
 _symmetry_equiv_pos_site_id
 _symmetry_equiv_pos_as_xyz
  1  'x, y, z'
loop_
 _atom_site_type_symbol
 _atom_site_label
 _atom_site_symmetry_multiplicity
 _atom_site_fract_x
 _atom_site_fract_y
 _atom_site_fract_z
 _atom_site_occupancy
  Cr  Cr0  1  0.23285600  0.54778700  0.92116100  1
  Cr  Cr1  1  0.11365600  0.14840000  0.59499800  1
  Cr  Cr2  1  0.96789000  0.81435300  0.40862200  1
  Cr  Cr3  1  0.12809200  0.18027600  0.10296000  1
  Cr  Cr4  1  0.62723300  0.21772700  0.61334300  1
  Cr  Cr5  1  0.54213700  0.55837300  0.81334900  1
  Cr  Cr6  1  0.87190800  0.18027600  0.60296000  1
  Cr  Cr7  1  0.36208900  0.21471900  0.61580900  1
  Cr  Cr8  1  0.27594100  0.81957700  0.42157700  1
  Cr  Cr9  1  0.63791100  0.21471900  0.11580900  1
  Cr  Cr10  1  0.03211000  0.81435300  0.90862200  1
  Cr  Cr11  1  0.76714400  0.54778700  0.42116100  1
  Cr  Cr12  1  0.72405900  0.81957700  0.92157700  1
  Cr  Cr13  1  0.45786300  0.55837300  0.31334900  1
  Cr  Cr14  1  0.88634400  0.14840000  0.09499800  1
  Cr  Cr15  1  0.37276700  0.21772700  0.11334300  1
  Si  Si16  1  0.73935700  0.05687500  0.35525200  1
  Si  Si17  1  0.26064300  0.05687500  0.85525200  1
  Si  Si18  1  0.50446900  0.06462500  0.87282300  1
  Si  Si19  1  0.00141200  0.32121800  0.35701900  1
  Si  Si20  1  0.23913600  0.32401400  0.36401700  1
  Si  Si21  1  0.76086400  0.32401400  0.86401700  1
  Si  Si22  1  0.49553100  0.06462500  0.37282300  1
  Si  Si23  1  0.99858800  0.32121800  0.85701900  1
  Cl  Cl24  1  0.11663200  0.81467600  0.23356800  1
  Cl  Cl25  1  0.87564300  0.75452200  0.06023900  1
  Cl  Cl26  1  0.12435700  0.75452200  0.56023900  1
  Cl  Cl27  1  0.62715200  0.57280400  0.21117600  1
  Cl  Cl28  1  0.61666400  0.62563800  0.54793700  1
  Cl  Cl29  1  0.38333600  0.62563800  0.04793700  1
  Cl  Cl30  1  0.88336800  0.81467600  0.73356800  1
  Cl  Cl31  1  0.37284800  0.57280400  0.71117600  1
  O  O32  1  0.00092900  0.24954300  0.71239300  1
  O  O33  1  0.50628900  0.15516600  0.01486500  1
  O  O34  1  0.19285400  0.85268200  0.89100500  1
  O  O35  1  0.73741500  0.13001500  0.96766900  1
  O  O36  1  0.07535200  0.50986800  0.89064500  1
  O  O37  1  0.77191400  0.17287900  0.22218400  1
  O  O38  1  0.11936200  0.38602400  0.39652400  1
  O  O39  1  0.57484100  0.86000000  0.85544500  1
  O  O40  1  0.53923600  0.24917600  0.77134700  1
  O  O41  1  0.25220300  0.22424800  0.97063200  1
  O  O42  1  0.01906500  0.12331200  0.96108300  1
  O  O43  1  0.49371100  0.15516600  0.51486500  1
  O  O44  1  0.46076400  0.24917600  0.27134700  1
  O  O45  1  0.24431400  0.25159300  0.22014800  1
  O  O46  1  0.31357700  0.51783500  0.39361900  1
  O  O47  1  0.74779700  0.22424800  0.47063200  1
  O  O48  1  0.22808600  0.17287900  0.72218400  1
  O  O49  1  0.26258500  0.13001500  0.46766900  1
  O  O50  1  0.68642300  0.51783500  0.89361900  1
  O  O51  1  0.92464800  0.50986800  0.39064500  1
  O  O52  1  0.99907100  0.24954300  0.21239300  1
  O  O53  1  0.98093500  0.12331200  0.46108300  1
  O  O54  1  0.42515900  0.86000000  0.35544500  1
  O  O55  1  0.80714600  0.85268200  0.39100500  1
  O  O56  1  0.75568600  0.25159300  0.72014800  1
  O  O57  1  0.61597200  0.00933700  0.33466800  1
  O  O58  1  0.38402800  0.00933700  0.83466800  1
  O  O59  1  0.88063800  0.38602400  0.89652400  1
