# generated using pymatgen
data_Rb3Sb5O14
_symmetry_space_group_name_H-M   'P 1'
_cell_length_a   7.32014500
_cell_length_b   7.49526100
_cell_length_c   24.93860100
_cell_angle_alpha   90.00000000
_cell_angle_beta   90.00000000
_cell_angle_gamma   90.00000000
_symmetry_Int_Tables_number   1
_chemical_formula_structural   Rb3Sb5O14
_chemical_formula_sum   'Rb12 Sb20 O56'
_cell_volume   1368.29119139
_cell_formula_units_Z   4
loop_
 _symmetry_equiv_pos_site_id
 _symmetry_equiv_pos_as_xyz
  1  'x, y, z'
loop_
 _atom_site_type_symbol
 _atom_site_label
 _atom_site_symmetry_multiplicity
 _atom_site_fract_x
 _atom_site_fract_y
 _atom_site_fract_z
 _atom_site_occupancy
  Rb  Rb0  1  0.27122700  0.50000000  0.01323800  1
  Rb  Rb1  1  0.10720800  0.50000000  0.88517200  1
  Rb  Rb2  1  0.89546300  0.00000000  0.20836700  1
  Rb  Rb3  1  0.22877300  0.50000000  0.51323800  1
  Rb  Rb4  1  0.39279200  0.50000000  0.38517200  1
  Rb  Rb5  1  0.72877300  0.50000000  0.98676200  1
  Rb  Rb6  1  0.60720800  0.50000000  0.61482800  1
  Rb  Rb7  1  0.89279200  0.50000000  0.11482800  1
  Rb  Rb8  1  0.77122700  0.50000000  0.48676200  1
  Rb  Rb9  1  0.60453700  0.00000000  0.70836700  1
  Rb  Rb10  1  0.10453700  0.00000000  0.79163300  1
  Rb  Rb11  1  0.39546300  0.00000000  0.29163300  1
  Sb  Sb12  1  0.11216200  0.26367300  0.64557300  1
  Sb  Sb13  1  0.61216200  0.73632700  0.85442700  1
  Sb  Sb14  1  0.09360800  0.00000000  0.43754700  1
  Sb  Sb15  1  0.33412300  0.50000000  0.75513400  1
  Sb  Sb16  1  0.16587700  0.50000000  0.25513400  1
  Sb  Sb17  1  0.66587700  0.50000000  0.24486600  1
  Sb  Sb18  1  0.11216200  0.73632700  0.64557300  1
  Sb  Sb19  1  0.41642800  0.00000000  0.55640900  1
  Sb  Sb20  1  0.61216200  0.26367300  0.85442700  1
  Sb  Sb21  1  0.59360800  0.00000000  0.06245300  1
  Sb  Sb22  1  0.83412300  0.50000000  0.74486600  1
  Sb  Sb23  1  0.38783800  0.26367300  0.14557300  1
  Sb  Sb24  1  0.08357200  0.00000000  0.05640900  1
  Sb  Sb25  1  0.58357200  0.00000000  0.44359100  1
  Sb  Sb26  1  0.90639200  0.00000000  0.56245300  1
  Sb  Sb27  1  0.88783800  0.26367300  0.35442700  1
  Sb  Sb28  1  0.38783800  0.73632700  0.14557300  1
  Sb  Sb29  1  0.88783800  0.73632700  0.35442700  1
  Sb  Sb30  1  0.40639200  0.00000000  0.93754700  1
  Sb  Sb31  1  0.91642800  0.00000000  0.94359100  1
  O  O32  1  0.04682800  0.25361800  0.42456000  1
  O  O33  1  0.53076000  0.00000000  0.85666500  1
  O  O34  1  0.83644500  0.80286600  0.89761700  1
  O  O35  1  0.95317200  0.74638200  0.57544000  1
  O  O36  1  0.32506200  0.50000000  0.11919500  1
  O  O37  1  0.27326900  0.27898700  0.70907000  1
  O  O38  1  0.88673000  0.31371500  0.68740000  1
  O  O39  1  0.17493800  0.50000000  0.61919500  1
  O  O40  1  0.72673100  0.72101300  0.29093000  1
  O  O41  1  0.04682800  0.74638200  0.42456000  1
  O  O42  1  0.92386400  0.50000000  0.21992000  1
  O  O43  1  0.66355500  0.19713400  0.39761700  1
  O  O44  1  0.65954800  0.00000000  0.98293100  1
  O  O45  1  0.46924000  0.00000000  0.14333500  1
  O  O46  1  0.11327000  0.68628500  0.31260000  1
  O  O47  1  0.66355500  0.80286600  0.39761700  1
  O  O48  1  0.34045200  0.00000000  0.01706900  1
  O  O49  1  0.16004900  0.00000000  0.90741600  1
  O  O50  1  0.45317200  0.25361800  0.92456000  1
  O  O51  1  0.42386400  0.50000000  0.28008000  1
  O  O52  1  0.33995100  0.00000000  0.40741600  1
  O  O53  1  0.22673100  0.72101300  0.20907000  1
  O  O54  1  0.77326900  0.27898700  0.79093000  1
  O  O55  1  0.45317200  0.74638200  0.92456000  1
  O  O56  1  0.61327000  0.31371500  0.18740000  1
  O  O57  1  0.38673000  0.31371500  0.81260000  1
  O  O58  1  0.00000000  0.82226700  0.00000000  1
  O  O59  1  0.00000000  0.17773300  0.00000000  1
  O  O60  1  0.61327000  0.68628500  0.18740000  1
  O  O61  1  0.84045200  0.00000000  0.48293100  1
  O  O62  1  0.16355500  0.80286600  0.10238300  1
  O  O63  1  0.33644500  0.80286600  0.60238300  1
  O  O64  1  0.33644500  0.19713400  0.60238300  1
  O  O65  1  0.77326900  0.72101300  0.79093000  1
  O  O66  1  0.66004900  0.00000000  0.59258400  1
  O  O67  1  0.54682800  0.25361800  0.07544000  1
  O  O68  1  0.15954800  0.00000000  0.51706900  1
  O  O69  1  0.50000000  0.82226700  0.50000000  1
  O  O70  1  0.83995100  0.00000000  0.09258400  1
  O  O71  1  0.67493800  0.50000000  0.88080500  1
  O  O72  1  0.88673000  0.68628500  0.68740000  1
  O  O73  1  0.16355500  0.19713400  0.10238300  1
  O  O74  1  0.57613600  0.50000000  0.71992000  1
  O  O75  1  0.03076000  0.00000000  0.64333500  1
  O  O76  1  0.96924000  0.00000000  0.35666500  1
  O  O77  1  0.95317200  0.25361800  0.57544000  1
  O  O78  1  0.22673100  0.27898700  0.20907000  1
  O  O79  1  0.07613600  0.50000000  0.78008000  1
  O  O80  1  0.83644500  0.19713400  0.89761700  1
  O  O81  1  0.82506200  0.50000000  0.38080500  1
  O  O82  1  0.72673100  0.27898700  0.29093000  1
  O  O83  1  0.11327000  0.31371500  0.31260000  1
  O  O84  1  0.38673000  0.68628500  0.81260000  1
  O  O85  1  0.50000000  0.17773300  0.50000000  1
  O  O86  1  0.27326900  0.72101300  0.70907000  1
  O  O87  1  0.54682800  0.74638200  0.07544000  1
