# generated using pymatgen
data_KSmP2S7
_symmetry_space_group_name_H-M   'P 1'
_cell_length_a   12.52435500
_cell_length_b   9.08872500
_cell_length_c   9.84734776
_cell_angle_alpha   89.69040158
_cell_angle_beta   90.00000000
_cell_angle_gamma   90.00000000
_symmetry_Int_Tables_number   1
_chemical_formula_structural   KSmP2S7
_chemical_formula_sum   'K4 Sm4 P8 S28'
_cell_volume   1120.91135136
_cell_formula_units_Z   4
loop_
 _symmetry_equiv_pos_site_id
 _symmetry_equiv_pos_as_xyz
  1  'x, y, z'
loop_
 _atom_site_type_symbol
 _atom_site_label
 _atom_site_symmetry_multiplicity
 _atom_site_fract_x
 _atom_site_fract_y
 _atom_site_fract_z
 _atom_site_occupancy
  K  K0  1  0.80757900  0.13140000  0.39389000  1
  K  K1  1  0.69242100  0.63140000  0.39389000  1
  K  K2  1  0.30757900  0.36860000  0.60611000  1
  K  K3  1  0.19242100  0.86860000  0.60611000  1
  Sm  Sm4  1  0.35769600  0.60682700  0.14204900  1
  Sm  Sm5  1  0.85769600  0.89317300  0.85795100  1
  Sm  Sm6  1  0.64230400  0.39317300  0.85795100  1
  Sm  Sm7  1  0.14230400  0.10682700  0.14204900  1
  P  P8  1  0.39613700  0.97741300  0.27443700  1
  P  P9  1  0.03552100  0.19664800  0.81682300  1
  P  P10  1  0.60386300  0.02258700  0.72556300  1
  P  P11  1  0.53552100  0.30335200  0.18317700  1
  P  P12  1  0.10386300  0.47741300  0.27443700  1
  P  P13  1  0.46447900  0.69664800  0.81682300  1
  P  P14  1  0.89613700  0.52258700  0.72556300  1
  P  P15  1  0.96447900  0.80335200  0.18317700  1
  S  S16  1  0.55676600  0.21070600  0.63398100  1
  S  S17  1  0.55730100  0.67681900  0.98572900  1
  S  S18  1  0.52516400  0.56804100  0.66848200  1
  S  S19  1  0.82880900  0.57474500  0.90813600  1
  S  S20  1  0.69166800  0.35221000  0.14694400  1
  S  S21  1  0.04989400  0.42100900  0.75259800  1
  S  S22  1  0.17119100  0.42525500  0.09186400  1
  S  S23  1  0.32880900  0.92525500  0.09186400  1
  S  S24  1  0.79065300  0.38926400  0.63045000  1
  S  S25  1  0.44323400  0.78929400  0.36601900  1
  S  S26  1  0.29065300  0.11073600  0.36955000  1
  S  S27  1  0.20934700  0.61073600  0.36955000  1
  S  S28  1  0.05676600  0.28929400  0.36601900  1
  S  S29  1  0.47483600  0.43195900  0.33151800  1
  S  S30  1  0.94323400  0.71070600  0.63398100  1
  S  S31  1  0.54989400  0.07899100  0.24740200  1
  S  S32  1  0.44269900  0.32318100  0.01427100  1
  S  S33  1  0.70934700  0.88926400  0.63045000  1
  S  S34  1  0.02516400  0.93195900  0.33151800  1
  S  S35  1  0.45010600  0.92100900  0.75259800  1
  S  S36  1  0.19166800  0.14779000  0.85305600  1
  S  S37  1  0.94269900  0.17681900  0.98572900  1
  S  S38  1  0.80833200  0.85221000  0.14694400  1
  S  S39  1  0.05730100  0.82318100  0.01427100  1
  S  S40  1  0.95010600  0.57899100  0.24740200  1
  S  S41  1  0.67119100  0.07474500  0.90813600  1
  S  S42  1  0.30833200  0.64779000  0.85305600  1
  S  S43  1  0.97483600  0.06804100  0.66848200  1
