# generated using pymatgen
data_K5In3(SiO3)7
_symmetry_space_group_name_H-M   'P 1'
_cell_length_a   10.41993400
_cell_length_b   12.69873300
_cell_length_c   17.11805500
_cell_angle_alpha   90.00000000
_cell_angle_beta   90.00000000
_cell_angle_gamma   90.00000000
_symmetry_Int_Tables_number   1
_chemical_formula_structural   K5In3(SiO3)7
_chemical_formula_sum   'K20 In12 Si28 O84'
_cell_volume   2265.06034849
_cell_formula_units_Z   4
loop_
 _symmetry_equiv_pos_site_id
 _symmetry_equiv_pos_as_xyz
  1  'x, y, z'
loop_
 _atom_site_type_symbol
 _atom_site_label
 _atom_site_symmetry_multiplicity
 _atom_site_fract_x
 _atom_site_fract_y
 _atom_site_fract_z
 _atom_site_occupancy
  K  K0  1  0.40774900  0.56807400  0.89584700  1
  K  K1  1  0.04071000  0.38610300  0.34574800  1
  K  K2  1  0.26306800  0.82412000  0.55303100  1
  K  K3  1  0.88736400  0.90617400  0.86534000  1
  K  K4  1  0.90774900  0.93192600  0.39584700  1
  K  K5  1  0.90774900  0.43192600  0.10415300  1
  K  K6  1  0.43003400  0.76188100  0.15914000  1
  K  K7  1  0.93003400  0.23811900  0.84086000  1
  K  K8  1  0.38736400  0.09382600  0.13466000  1
  K  K9  1  0.38736400  0.59382600  0.36534000  1
  K  K10  1  0.40774900  0.06807400  0.60415300  1
  K  K11  1  0.93003400  0.73811900  0.65914000  1
  K  K12  1  0.54071000  0.11389700  0.84574800  1
  K  K13  1  0.76306800  0.17588000  0.44696900  1
  K  K14  1  0.76306800  0.67588000  0.05303100  1
  K  K15  1  0.43003400  0.26188100  0.34086000  1
  K  K16  1  0.54071000  0.61389700  0.65425200  1
  K  K17  1  0.88736400  0.40617400  0.63466000  1
  K  K18  1  0.04071000  0.88610300  0.15425200  1
  K  K19  1  0.26306800  0.32412000  0.94696900  1
  In  In20  1  0.77602900  0.56752300  0.85987700  1
  In  In21  1  0.79262600  0.14115800  0.04895900  1
  In  In22  1  0.28982700  0.31208700  0.73241700  1
  In  In23  1  0.77602900  0.06752300  0.64012300  1
  In  In24  1  0.78982700  0.68791300  0.26758300  1
  In  In25  1  0.28982700  0.81208700  0.76758300  1
  In  In26  1  0.29262600  0.35884200  0.54895900  1
  In  In27  1  0.79262600  0.64115800  0.45104100  1
  In  In28  1  0.29262600  0.85884200  0.95104100  1
  In  In29  1  0.27602900  0.43247700  0.14012300  1
  In  In30  1  0.27602900  0.93247700  0.35987700  1
  In  In31  1  0.78982700  0.18791300  0.23241700  1
  Si  Si32  1  0.56588900  0.32594500  0.10680600  1
  Si  Si33  1  0.06588900  0.17405500  0.60680600  1
  Si  Si34  1  0.70258700  0.35969800  0.95783100  1
  Si  Si35  1  0.71689900  0.42820600  0.33626600  1
  Si  Si36  1  0.08804200  0.11501300  0.29292600  1
  Si  Si37  1  0.08502200  0.05285400  0.99377900  1
  Si  Si38  1  0.58804200  0.38498700  0.79292600  1
  Si  Si39  1  0.06194200  0.98035600  0.70394100  1
  Si  Si40  1  0.58502200  0.94714600  0.00622100  1
  Si  Si41  1  0.08211500  0.21400100  0.13096500  1
  Si  Si42  1  0.71689900  0.92820600  0.16373400  1
  Si  Si43  1  0.58211500  0.28599900  0.63096500  1
  Si  Si44  1  0.56588900  0.82594500  0.39319400  1
  Si  Si45  1  0.58804200  0.88498700  0.70707400  1
  Si  Si46  1  0.06194200  0.48035600  0.79605900  1
  Si  Si47  1  0.20258700  0.64030200  0.04216900  1
  Si  Si48  1  0.08804200  0.61501300  0.20707400  1
  Si  Si49  1  0.21689900  0.57179400  0.66373400  1
  Si  Si50  1  0.58502200  0.44714600  0.49377900  1
  Si  Si51  1  0.08502200  0.55285400  0.50622100  1
  Si  Si52  1  0.70258700  0.85969800  0.54216900  1
  Si  Si53  1  0.08211500  0.71400100  0.36903500  1
  Si  Si54  1  0.06588900  0.67405500  0.89319400  1
  Si  Si55  1  0.56194200  0.01964400  0.29605900  1
  Si  Si56  1  0.21689900  0.07179400  0.83626600  1
  Si  Si57  1  0.20258700  0.14030200  0.45783100  1
  Si  Si58  1  0.58211500  0.78599900  0.86903500  1
  Si  Si59  1  0.56194200  0.51964400  0.20394100  1
  O  O60  1  0.79809600  0.83685100  0.20672300  1
  O  O61  1  0.66780000  0.38396900  0.42349300  1
  O  O62  1  0.42583300  0.77726200  0.86314100  1
  O  O63  1  0.06947900  0.16291100  0.50983700  1
  O  O64  1  0.79809600  0.33685100  0.29327700  1
  O  O65  1  0.62610200  0.88862900  0.92281900  1
  O  O66  1  0.24724900  0.01763900  0.46467900  1
  O  O67  1  0.24724900  0.51763900  0.03532100  1
  O  O68  1  0.92583300  0.72273800  0.36314100  1
  O  O69  1  0.63717900  0.13131200  0.30265900  1
  O  O70  1  0.16465200  0.67260000  0.13329300  1
  O  O71  1  0.16465200  0.17260000  0.36670700  1
  O  O72  1  0.29809600  0.16314900  0.79327700  1
  O  O73  1  0.43275800  0.43445000  0.47648600  1
  O  O74  1  0.29809600  0.66314900  0.70672300  1
  O  O75  1  0.40898600  0.03822200  0.30579700  1
  O  O76  1  0.12610200  0.11137100  0.07718100  1
  O  O77  1  0.13052000  0.49200400  0.21672500  1
  O  O78  1  0.14071800  0.68848500  0.28114100  1
  O  O79  1  0.13717900  0.36868800  0.80265900  1
  O  O80  1  0.62628600  0.43919600  0.13860400  1
  O  O81  1  0.74724900  0.98236100  0.53532100  1
  O  O82  1  0.12904500  0.93106000  0.00166100  1
  O  O83  1  0.80161900  0.53574000  0.34760100  1
  O  O84  1  0.62610200  0.38862900  0.57718100  1
  O  O85  1  0.30161900  0.46426000  0.65239900  1
  O  O86  1  0.93275800  0.56555000  0.52351400  1
  O  O87  1  0.62628600  0.93919600  0.36139600  1
  O  O88  1  0.12904500  0.43106000  0.49833900  1
  O  O89  1  0.56947900  0.83708900  0.49016300  1
  O  O90  1  0.15831400  0.77162500  0.86611000  1
  O  O91  1  0.64071800  0.81151500  0.78114100  1
  O  O92  1  0.43499600  0.87255900  0.69165600  1
  O  O93  1  0.64071800  0.31151500  0.71885900  1
  O  O94  1  0.63052000  0.50799600  0.78327500  1
  O  O95  1  0.66780000  0.88396900  0.07650700  1
  O  O96  1  0.93499600  0.12744100  0.30834400  1
  O  O97  1  0.16780000  0.61603100  0.57650700  1
  O  O98  1  0.12610200  0.61137100  0.42281900  1
  O  O99  1  0.30161900  0.96426000  0.84760100  1
  O  O100  1  0.13717900  0.86868800  0.69734100  1
  O  O101  1  0.63717900  0.63131200  0.19734100  1
  O  O102  1  0.92583300  0.22273800  0.13685900  1
  O  O103  1  0.62904500  0.06894000  0.99833900  1
  O  O104  1  0.16780000  0.11603100  0.92349300  1
  O  O105  1  0.93499600  0.62744100  0.19165600  1
  O  O106  1  0.91861500  0.68942100  0.86379900  1
  O  O107  1  0.43499600  0.37255900  0.80834400  1
  O  O108  1  0.64379300  0.68050500  0.90531800  1
  O  O109  1  0.56947900  0.33708900  0.00983700  1
  O  O110  1  0.65831400  0.72837500  0.36611000  1
  O  O111  1  0.41861500  0.81057900  0.36379900  1
  O  O112  1  0.14379300  0.81949500  0.40531800  1
  O  O113  1  0.91861500  0.18942100  0.63620100  1
  O  O114  1  0.43275800  0.93445000  0.02351400  1
  O  O115  1  0.81689500  0.78123700  0.51608300  1
  O  O116  1  0.31689500  0.71876300  0.01608300  1
  O  O117  1  0.81689500  0.28123700  0.98391700  1
  O  O118  1  0.14071800  0.18848500  0.21885900  1
  O  O119  1  0.90898600  0.96177800  0.69420300  1
  O  O120  1  0.74724900  0.48236100  0.96467900  1
  O  O121  1  0.58097100  0.45979300  0.29047500  1
  O  O122  1  0.66465200  0.32740000  0.86670700  1
  O  O123  1  0.65831400  0.22837500  0.13389000  1
  O  O124  1  0.15831400  0.27162500  0.63389000  1
  O  O125  1  0.08097100  0.54020700  0.70952500  1
  O  O126  1  0.58097100  0.95979300  0.20952500  1
  O  O127  1  0.31689500  0.21876300  0.48391700  1
  O  O128  1  0.80161900  0.03574000  0.15239900  1
  O  O129  1  0.12628600  0.56080400  0.86139600  1
  O  O130  1  0.12628600  0.06080400  0.63860400  1
  O  O131  1  0.62904500  0.56894000  0.50166100  1
  O  O132  1  0.64379300  0.18050500  0.59468200  1
  O  O133  1  0.06947900  0.66291100  0.99016300  1
  O  O134  1  0.14379300  0.31949500  0.09468200  1
  O  O135  1  0.42583300  0.27726200  0.63685900  1
  O  O136  1  0.13052000  0.99200400  0.28327500  1
  O  O137  1  0.08097100  0.04020700  0.79047500  1
  O  O138  1  0.63052000  0.00799600  0.71672500  1
  O  O139  1  0.40898600  0.53822200  0.19420300  1
  O  O140  1  0.93275800  0.06555000  0.97648600  1
  O  O141  1  0.41861500  0.31057900  0.13620100  1
  O  O142  1  0.66465200  0.82740000  0.63329300  1
  O  O143  1  0.90898600  0.46177800  0.80579700  1
