# generated using pymatgen
data_BeI2
_symmetry_space_group_name_H-M   'P 1'
_cell_length_a   7.55410303
_cell_length_b   7.55410303
_cell_length_c   7.55410303
_cell_angle_alpha   132.01495254
_cell_angle_beta   128.99013734
_cell_angle_gamma   72.63179994
_symmetry_Int_Tables_number   1
_chemical_formula_structural   BeI2
_chemical_formula_sum   'Be2 I4'
_cell_volume   243.25694496
_cell_formula_units_Z   2
loop_
 _symmetry_equiv_pos_site_id
 _symmetry_equiv_pos_as_xyz
  1  'x, y, z'
loop_
 _atom_site_type_symbol
 _atom_site_label
 _atom_site_symmetry_multiplicity
 _atom_site_fract_x
 _atom_site_fract_y
 _atom_site_fract_z
 _atom_site_occupancy
  Be  Be0  1  0.00000000  0.75000000  0.75000000  1
  Be  Be1  1  0.00000000  0.25000000  0.25000000  1
  I  I2  1  0.90441700  0.10940300  0.79501400  1
  I  I3  1  0.31438900  0.60940300  0.70498600  1
  I  I4  1  0.68561100  0.39059700  0.29501400  1
  I  I5  1  0.09558300  0.89059700  0.20498600  1
