# generated using pymatgen
data_Tb12(OsC3)5
_symmetry_space_group_name_H-M   'P 1'
_cell_length_a   10.75032564
_cell_length_b   10.75032564
_cell_length_c   5.11590600
_cell_angle_alpha   90.00000000
_cell_angle_beta   90.00000000
_cell_angle_gamma   119.99999779
_symmetry_Int_Tables_number   1
_chemical_formula_structural   Tb12(OsC3)5
_chemical_formula_sum   'Tb12 Os5 C15'
_cell_volume   512.03121420
_cell_formula_units_Z   1
loop_
 _symmetry_equiv_pos_site_id
 _symmetry_equiv_pos_as_xyz
  1  'x, y, z'
loop_
 _atom_site_type_symbol
 _atom_site_label
 _atom_site_symmetry_multiplicity
 _atom_site_fract_x
 _atom_site_fract_y
 _atom_site_fract_z
 _atom_site_occupancy
  Tb  Tb0  1  0.27241500  0.45588800  0.00000000  1
  Tb  Tb1  1  0.18347300  0.72758500  0.00000000  1
  Tb  Tb2  1  0.54411200  0.81652700  0.00000000  1
  Tb  Tb3  1  0.81652700  0.54411200  0.00000000  1
  Tb  Tb4  1  0.72758500  0.18347300  0.00000000  1
  Tb  Tb5  1  0.45588800  0.27241500  0.00000000  1
  Tb  Tb6  1  0.43431100  0.00000000  0.50000000  1
  Tb  Tb7  1  0.56568900  0.56568900  0.50000000  1
  Tb  Tb8  1  0.00000000  0.43431100  0.50000000  1
  Tb  Tb9  1  0.79400800  0.00000000  0.50000000  1
  Tb  Tb10  1  0.20599200  0.20599200  0.50000000  1
  Tb  Tb11  1  0.00000000  0.79400800  0.50000000  1
  Os  Os12  1  0.16106100  0.00000000  0.00000000  1
  Os  Os13  1  0.83893900  0.83893900  0.00000000  1
  Os  Os14  1  0.00000000  0.16106100  0.00000000  1
  Os  Os15  1  0.33333300  0.66666700  0.50000000  1
  Os  Os16  1  0.66666700  0.33333300  0.50000000  1
  C  C17  1  0.28281900  0.46836700  0.50000000  1
  C  C18  1  0.18554800  0.71718100  0.50000000  1
  C  C19  1  0.53163300  0.81445200  0.50000000  1
  C  C20  1  0.81445200  0.53163300  0.50000000  1
  C  C21  1  0.71718100  0.18554800  0.50000000  1
  C  C22  1  0.46836700  0.28281900  0.50000000  1
  C  C23  1  0.33568700  0.00000000  0.00000000  1
  C  C24  1  0.66431300  0.66431300  0.00000000  1
  C  C25  1  0.00000000  0.33568700  0.00000000  1
  C  C26  1  0.46005400  0.00000000  0.00000000  1
  C  C27  1  0.53994600  0.53994600  0.00000000  1
  C  C28  1  0.00000000  0.46005400  0.00000000  1
  C  C29  1  0.79277500  0.00000000  0.00000000  1
  C  C30  1  0.20722500  0.20722500  0.00000000  1
  C  C31  1  0.00000000  0.79277500  0.00000000  1
