# generated using pymatgen
data_CsFe2S3
_symmetry_space_group_name_H-M   'P 1'
_cell_length_a   7.62950242
_cell_length_b   7.62950242
_cell_length_c   5.17950000
_cell_angle_alpha   90.00000000
_cell_angle_beta   90.00000000
_cell_angle_gamma   103.26550076
_symmetry_Int_Tables_number   1
_chemical_formula_structural   CsFe2S3
_chemical_formula_sum   'Cs2 Fe4 S6'
_cell_volume   293.45037728
_cell_formula_units_Z   2
loop_
 _symmetry_equiv_pos_site_id
 _symmetry_equiv_pos_as_xyz
  1  'x, y, z'
loop_
 _atom_site_type_symbol
 _atom_site_label
 _atom_site_symmetry_multiplicity
 _atom_site_fract_x
 _atom_site_fract_y
 _atom_site_fract_z
 _atom_site_occupancy
  Cs  Cs0  1  0.32639300  0.67360700  0.75000000  1
  Cs  Cs1  1  0.67360700  0.32639300  0.25000000  1
  Fe  Fe2  1  0.13439600  0.13439600  0.00000000  1
  Fe  Fe3  1  0.86560500  0.86560500  0.50000000  1
  Fe  Fe4  1  0.86560500  0.86560500  0.00000000  1
  Fe  Fe5  1  0.13439600  0.13439600  0.50000000  1
  S  S6  1  0.89873200  0.10126800  0.75000000  1
  S  S7  1  0.10126800  0.89873200  0.25000000  1
  S  S8  1  0.35929500  0.16111300  0.75000000  1
  S  S9  1  0.64070500  0.83888700  0.25000000  1
  S  S10  1  0.16111300  0.35929500  0.25000000  1
  S  S11  1  0.83888700  0.64070500  0.75000000  1
