# generated using pymatgen
data_SrBr2
_symmetry_space_group_name_H-M   'P 1'
_cell_length_a   4.80176400
_cell_length_b   7.90589400
_cell_length_c   11.52625700
_cell_angle_alpha   90.00000000
_cell_angle_beta   90.00000000
_cell_angle_gamma   90.00000000
_symmetry_Int_Tables_number   1
_chemical_formula_structural   SrBr2
_chemical_formula_sum   'Sr4 Br8'
_cell_volume   437.56250223
_cell_formula_units_Z   4
loop_
 _symmetry_equiv_pos_site_id
 _symmetry_equiv_pos_as_xyz
  1  'x, y, z'
loop_
 _atom_site_type_symbol
 _atom_site_label
 _atom_site_symmetry_multiplicity
 _atom_site_fract_x
 _atom_site_fract_y
 _atom_site_fract_z
 _atom_site_occupancy
  Sr  Sr0  1  0.25000000  0.12715100  0.83163200  1
  Sr  Sr1  1  0.75000000  0.87284900  0.16836800  1
  Sr  Sr2  1  0.25000000  0.37284900  0.33163200  1
  Sr  Sr3  1  0.75000000  0.62715100  0.66836800  1
  Br  Br4  1  0.75000000  0.62429600  0.39124000  1
  Br  Br5  1  0.25000000  0.37570400  0.60876000  1
  Br  Br6  1  0.25000000  0.63249800  0.13023000  1
  Br  Br7  1  0.25000000  0.12429600  0.10876000  1
  Br  Br8  1  0.25000000  0.86750200  0.63023000  1
  Br  Br9  1  0.75000000  0.36750200  0.86977000  1
  Br  Br10  1  0.75000000  0.87570400  0.89124000  1
  Br  Br11  1  0.75000000  0.13249800  0.36977000  1
