# generated using pymatgen
data_K(OsO3)2
_symmetry_space_group_name_H-M   'P 1'
_cell_length_a   5.68626100
_cell_length_b   6.52279870
_cell_length_c   7.35605874
_cell_angle_alpha   65.48243867
_cell_angle_beta   70.50012282
_cell_angle_gamma   75.77238739
_symmetry_Int_Tables_number   1
_chemical_formula_structural   K(OsO3)2
_chemical_formula_sum   'K2 Os4 O12'
_cell_volume   232.16256985
_cell_formula_units_Z   2
loop_
 _symmetry_equiv_pos_site_id
 _symmetry_equiv_pos_as_xyz
  1  'x, y, z'
loop_
 _atom_site_type_symbol
 _atom_site_label
 _atom_site_symmetry_multiplicity
 _atom_site_fract_x
 _atom_site_fract_y
 _atom_site_fract_z
 _atom_site_occupancy
  K  K0  1  0.80733700  0.29886700  0.10977300  1
  K  K1  1  0.19266300  0.70113300  0.89022700  1
  Os  Os2  1  0.81546500  0.64251800  0.54670100  1
  Os  Os3  1  0.18453500  0.35748200  0.45329900  1
  Os  Os4  1  0.36656500  0.91246000  0.23668800  1
  Os  Os5  1  0.63343500  0.08754000  0.76331200  1
  O  O6  1  0.30338600  0.03948000  0.96266700  1
  O  O7  1  0.01455400  0.89026100  0.37400300  1
  O  O8  1  0.30117000  0.21708700  0.23948200  1
  O  O9  1  0.90056800  0.52025700  0.32558200  1
  O  O10  1  0.37649700  0.60822400  0.26057600  1
  O  O11  1  0.51525700  0.81140100  0.45916600  1
  O  O12  1  0.48474300  0.18859900  0.54083400  1
  O  O13  1  0.62350300  0.39177600  0.73942400  1
  O  O14  1  0.69661400  0.96052000  0.03733300  1
  O  O15  1  0.98544600  0.10973900  0.62599700  1
  O  O16  1  0.69883000  0.78291300  0.76051800  1
  O  O17  1  0.09943200  0.47974300  0.67441800  1
