# generated using pymatgen
data_Rb15Hg16
_symmetry_space_group_name_H-M   'P 1'
_cell_length_a   15.33773709
_cell_length_b   15.33773709
_cell_length_c   15.33773709
_cell_angle_alpha   111.73112139
_cell_angle_beta   111.73112139
_cell_angle_gamma   105.04023221
_symmetry_Int_Tables_number   1
_chemical_formula_structural   Rb15Hg16
_chemical_formula_sum   'Rb30 Hg32'
_cell_volume   2765.21835338
_cell_formula_units_Z   2
loop_
 _symmetry_equiv_pos_site_id
 _symmetry_equiv_pos_as_xyz
  1  'x, y, z'
loop_
 _atom_site_type_symbol
 _atom_site_label
 _atom_site_symmetry_multiplicity
 _atom_site_fract_x
 _atom_site_fract_y
 _atom_site_fract_z
 _atom_site_occupancy
  Rb  Rb0  1  0.51276900  0.51840200  0.45668100  1
  Rb  Rb1  1  0.20402000  0.97723200  0.26585500  1
  Rb  Rb2  1  0.80608900  0.76276900  0.49436700  1
  Rb  Rb3  1  0.68816600  0.45402000  0.72678800  1
  Rb  Rb4  1  0.50673100  0.71169200  0.74626200  1
  Rb  Rb5  1  0.78456900  0.48953000  0.24626200  1
  Rb  Rb6  1  0.28830800  0.03456900  0.79503900  1
  Rb  Rb7  1  0.24382100  0.24382100  0.00000000  1
  Rb  Rb8  1  0.00000000  0.00000000  0.00000000  1
  Rb  Rb9  1  0.51047000  0.75673100  0.29503900  1
  Rb  Rb10  1  0.54598000  0.27276800  0.23414500  1
  Rb  Rb11  1  0.75617900  0.75617900  0.00000000  1
  Rb  Rb12  1  0.23723100  0.73159800  0.04331900  1
  Rb  Rb13  1  0.06172100  0.05608900  0.54331900  1
  Rb  Rb14  1  0.68827900  0.19391100  0.95668100  1
  Rb  Rb15  1  0.24326900  0.53830800  0.75373800  1
  Rb  Rb16  1  0.99382100  0.49382100  0.50000000  1
  Rb  Rb17  1  0.96543100  0.76047000  0.25373800  1
  Rb  Rb18  1  0.02276800  0.28862300  0.22678800  1
  Rb  Rb19  1  0.94391100  0.48723100  0.00563300  1
  Rb  Rb20  1  0.71137700  0.93816600  0.73414500  1
  Rb  Rb21  1  0.50617900  0.00617900  0.50000000  1
  Rb  Rb22  1  0.46169200  0.21543100  0.70496100  1
  Rb  Rb23  1  0.75000000  0.25000000  0.50000000  1
  Rb  Rb24  1  0.48159800  0.93827900  0.99436700  1
  Rb  Rb25  1  0.26840200  0.31172100  0.50563300  1
  Rb  Rb26  1  0.72723200  0.96137700  0.27321200  1
  Rb  Rb27  1  0.23953000  0.49326900  0.20496100  1
  Rb  Rb28  1  0.03862300  0.31183400  0.76585500  1
  Rb  Rb29  1  0.06183400  0.79598000  0.77321200  1
  Hg  Hg30  1  0.79349400  0.54015000  0.56807000  1
  Hg  Hg31  1  0.26206000  0.75250100  0.67454700  1
  Hg  Hg32  1  0.48794000  0.49749900  0.82545200  1
  Hg  Hg33  1  0.95916900  0.21713100  0.93152500  1
  Hg  Hg34  1  0.67204600  0.66248700  0.17454700  1
  Hg  Hg35  1  0.95650600  0.70985000  0.93193000  1
  Hg  Hg36  1  0.29015000  0.22207900  0.24665600  1
  Hg  Hg37  1  0.45985000  0.02792100  0.25334400  1
  Hg  Hg38  1  0.77792100  0.02457700  0.06807000  1
  Hg  Hg39  1  0.07700800  0.76286600  0.51279000  1
  Hg  Hg40  1  0.78286900  0.71439500  0.74203800  1
  Hg  Hg41  1  0.28560500  0.02764400  0.06847500  1
  Hg  Hg42  1  0.23713400  0.74992400  0.31414100  1
  Hg  Hg43  1  0.49992400  0.68578300  0.01279000  1
  Hg  Hg44  1  0.97207900  0.22542300  0.43193000  1
  Hg  Hg45  1  0.41248700  0.73794000  0.49044100  1
  Hg  Hg46  1  0.51286600  0.50007600  0.18585900  1
  Hg  Hg47  1  0.43578300  0.92299200  0.68585900  1
  Hg  Hg48  1  0.07795400  0.58751300  0.32545200  1
  Hg  Hg49  1  0.97235600  0.04083100  0.25796200  1
  Hg  Hg50  1  0.25007600  0.56421700  0.48721000  1
  Hg  Hg51  1  0.96713100  0.53560500  0.75796200  1
  Hg  Hg52  1  0.33751300  0.51206000  0.00955900  1
  Hg  Hg53  1  0.31421700  0.32700800  0.81414100  1
  Hg  Hg54  1  0.77457700  0.20650600  0.74665600  1
  Hg  Hg55  1  0.50250100  0.32795400  0.99044100  1
  Hg  Hg56  1  0.46439500  0.22235600  0.43152500  1
  Hg  Hg57  1  0.77764400  0.20916900  0.24203800  1
  Hg  Hg58  1  0.24749900  0.92204600  0.50955900  1
  Hg  Hg59  1  0.67299200  0.48713400  0.98721000  1
  Hg  Hg60  1  0.97542300  0.04349400  0.75334400  1
  Hg  Hg61  1  0.79083100  0.03286900  0.56847500  1
