# generated using pymatgen
data_UHg4(AsCl3)2
_symmetry_space_group_name_H-M   'P 1'
_cell_length_a   13.96074988
_cell_length_b   14.21917385
_cell_length_c   17.44182232
_cell_angle_alpha   90.00000000
_cell_angle_beta   90.00000000
_cell_angle_gamma   90.00000000
_symmetry_Int_Tables_number   1
_chemical_formula_structural   UHg4(AsCl3)2
_chemical_formula_sum   'U8 Hg32 As16 Cl48'
_cell_volume   3462.38189792
_cell_formula_units_Z   8
loop_
 _symmetry_equiv_pos_site_id
 _symmetry_equiv_pos_as_xyz
  1  'x, y, z'
loop_
 _atom_site_type_symbol
 _atom_site_label
 _atom_site_symmetry_multiplicity
 _atom_site_fract_x
 _atom_site_fract_y
 _atom_site_fract_z
 _atom_site_occupancy
  U  U0  1  0.19993880  0.49017910  0.61415199  1
  U  U1  1  0.30006120  0.50982090  0.11415199  1
  U  U2  1  0.80006120  0.99017910  0.88584801  1
  U  U3  1  0.80006120  0.50982090  0.38584801  1
  U  U4  1  0.30006120  0.99017910  0.61415199  1
  U  U5  1  0.69993880  0.00982090  0.38584801  1
  U  U6  1  0.69993880  0.49017910  0.88584801  1
  U  U7  1  0.19993880  0.00982090  0.11415199  1
  Hg  Hg8  1  0.91065249  0.00994774  0.64384288  1
  Hg  Hg9  1  0.91065249  0.49005226  0.14384288  1
  Hg  Hg10  1  0.52178224  0.20829179  0.99765362  1
  Hg  Hg11  1  0.97557060  0.75673325  0.74819711  1
  Hg  Hg12  1  0.41065249  0.49005226  0.35615712  1
  Hg  Hg13  1  0.72774548  0.73449330  0.12760316  1
  Hg  Hg14  1  0.77225452  0.26550670  0.62760316  1
  Hg  Hg15  1  0.02442940  0.24326675  0.25180289  1
  Hg  Hg16  1  0.58934751  0.50994774  0.64384288  1
  Hg  Hg17  1  0.08934751  0.99005226  0.35615712  1
  Hg  Hg18  1  0.02442940  0.25673325  0.75180289  1
  Hg  Hg19  1  0.27225452  0.26550670  0.87239684  1
  Hg  Hg20  1  0.47821776  0.79170821  0.00234638  1
  Hg  Hg21  1  0.08934751  0.50994774  0.85615712  1
  Hg  Hg22  1  0.97821776  0.70829179  0.99765362  1
  Hg  Hg23  1  0.52442940  0.25673325  0.74819711  1
  Hg  Hg24  1  0.02178224  0.20829179  0.50234638  1
  Hg  Hg25  1  0.27225452  0.23449330  0.37239684  1
  Hg  Hg26  1  0.47557060  0.75673325  0.75180289  1
  Hg  Hg27  1  0.02178224  0.29170821  0.00234638  1
  Hg  Hg28  1  0.58934751  0.99005226  0.14384288  1
  Hg  Hg29  1  0.52442940  0.24326675  0.24819711  1
  Hg  Hg30  1  0.97821776  0.79170821  0.49765362  1
  Hg  Hg31  1  0.22774548  0.73449330  0.37239684  1
  Hg  Hg32  1  0.41065249  0.00994774  0.85615712  1
  Hg  Hg33  1  0.47557060  0.74326675  0.25180289  1
  Hg  Hg34  1  0.22774548  0.76550670  0.87239684  1
  Hg  Hg35  1  0.97557060  0.74326675  0.24819711  1
  Hg  Hg36  1  0.47821776  0.70829179  0.50234638  1
  Hg  Hg37  1  0.72774548  0.76550670  0.62760316  1
  Hg  Hg38  1  0.52178224  0.29170821  0.49765362  1
  Hg  Hg39  1  0.77225452  0.23449330  0.12760316  1
  As  As40  1  0.39911885  0.67033580  0.37208856  1
  As  As41  1  0.93818231  0.31083699  0.13342313  1
  As  As42  1  0.56181769  0.68916301  0.63342313  1
  As  As43  1  0.60088115  0.32966420  0.62791144  1
  As  As44  1  0.56181769  0.81083699  0.13342313  1
  As  As45  1  0.93818231  0.18916301  0.63342313  1
  As  As46  1  0.06181769  0.81083699  0.36657687  1
  As  As47  1  0.10088115  0.17033580  0.37208856  1
  As  As48  1  0.10088115  0.32966420  0.87208856  1
  As  As49  1  0.60088115  0.17033580  0.12791144  1
  As  As50  1  0.06181769  0.68916301  0.86657687  1
  As  As51  1  0.89911885  0.82966420  0.62791144  1
  As  As52  1  0.43818231  0.18916301  0.86657687  1
  As  As53  1  0.43818231  0.31083699  0.36657687  1
  As  As54  1  0.39911885  0.82966420  0.87208856  1
  As  As55  1  0.89911885  0.67033580  0.12791144  1
  Cl  Cl56  1  0.76636718  0.92493540  0.26533813  1
  Cl  Cl57  1  0.46935264  0.51284369  0.17687968  1
  Cl  Cl58  1  0.26376697  0.83223028  0.68152324  1
  Cl  Cl59  1  0.83776766  0.35170605  0.45335212  1
  Cl  Cl60  1  0.16223234  0.64829395  0.54664788  1
  Cl  Cl61  1  0.23623303  0.16776972  0.18152324  1
  Cl  Cl62  1  0.96935264  0.51284369  0.32312032  1
  Cl  Cl63  1  0.73363282  0.07506460  0.76533813  1
  Cl  Cl64  1  0.73363282  0.42493540  0.26533813  1
  Cl  Cl65  1  0.37216156  0.49053093  0.55419258  1
  Cl  Cl66  1  0.03064736  0.01284369  0.17687968  1
  Cl  Cl67  1  0.33776766  0.14829395  0.54664788  1
  Cl  Cl68  1  0.16223234  0.85170605  0.04664788  1
  Cl  Cl69  1  0.66223234  0.85170605  0.45335212  1
  Cl  Cl70  1  0.53064736  0.48715631  0.82312032  1
  Cl  Cl71  1  0.73623303  0.33223028  0.81847676  1
  Cl  Cl72  1  0.13934012  0.39868930  0.49496168  1
  Cl  Cl73  1  0.63934012  0.10131070  0.50503832  1
  Cl  Cl74  1  0.36065988  0.89868930  0.49496168  1
  Cl  Cl75  1  0.26636718  0.92493540  0.23466187  1
  Cl  Cl76  1  0.76376697  0.66776972  0.31847676  1
  Cl  Cl77  1  0.46935264  0.98715631  0.67687968  1
  Cl  Cl78  1  0.96935264  0.98715631  0.82312032  1
  Cl  Cl79  1  0.37216156  0.00946907  0.05419258  1
  Cl  Cl80  1  0.87216156  0.49053093  0.94580742  1
  Cl  Cl81  1  0.63934012  0.39868930  0.00503832  1
  Cl  Cl82  1  0.53064736  0.01284369  0.32312032  1
  Cl  Cl83  1  0.03064736  0.48715631  0.67687968  1
  Cl  Cl84  1  0.26376697  0.66776972  0.18152324  1
  Cl  Cl85  1  0.86065988  0.89868930  0.00503832  1
  Cl  Cl86  1  0.23363282  0.42493540  0.23466187  1
  Cl  Cl87  1  0.23623303  0.33223028  0.68152324  1
  Cl  Cl88  1  0.83776766  0.14829395  0.95335212  1
  Cl  Cl89  1  0.66223234  0.64829395  0.95335212  1
  Cl  Cl90  1  0.62783844  0.99053093  0.94580742  1
  Cl  Cl91  1  0.76376697  0.83223028  0.81847676  1
  Cl  Cl92  1  0.33776766  0.35170605  0.04664788  1
  Cl  Cl93  1  0.12783844  0.99053093  0.55419258  1
  Cl  Cl94  1  0.13934012  0.10131070  0.99496168  1
  Cl  Cl95  1  0.23363282  0.07506460  0.73466187  1
  Cl  Cl96  1  0.62783844  0.50946907  0.44580742  1
  Cl  Cl97  1  0.26636718  0.57506460  0.73466187  1
  Cl  Cl98  1  0.73623303  0.16776972  0.31847676  1
  Cl  Cl99  1  0.12783844  0.50946907  0.05419258  1
  Cl  Cl100  1  0.36065988  0.60131070  0.99496168  1
  Cl  Cl101  1  0.86065988  0.60131070  0.50503832  1
  Cl  Cl102  1  0.76636718  0.57506460  0.76533813  1
  Cl  Cl103  1  0.87216156  0.00946907  0.44580742  1
