# generated using pymatgen
data_CaSeO3
_symmetry_space_group_name_H-M   'P 1'
_cell_length_a   6.85965800
_cell_length_b   6.53335900
_cell_length_c   8.27824433
_cell_angle_alpha   53.04137746
_cell_angle_beta   90.00000000
_cell_angle_gamma   90.00000000
_symmetry_Int_Tables_number   1
_chemical_formula_structural   CaSeO3
_chemical_formula_sum   'Ca4 Se4 O12'
_cell_volume   296.45720318
_cell_formula_units_Z   4
loop_
 _symmetry_equiv_pos_site_id
 _symmetry_equiv_pos_as_xyz
  1  'x, y, z'
loop_
 _atom_site_type_symbol
 _atom_site_label
 _atom_site_symmetry_multiplicity
 _atom_site_fract_x
 _atom_site_fract_y
 _atom_site_fract_z
 _atom_site_occupancy
  Ca  Ca0  1  0.12586200  0.14948000  0.12351300  1
  Ca  Ca1  1  0.37413800  0.14948000  0.62351300  1
  Ca  Ca2  1  0.62586200  0.85052000  0.37648700  1
  Ca  Ca3  1  0.87413800  0.85052000  0.87648700  1
  Se  Se4  1  0.66147400  0.35223100  0.90470200  1
  Se  Se5  1  0.83852600  0.35223100  0.40470200  1
  Se  Se6  1  0.16147400  0.64776900  0.59529800  1
  Se  Se7  1  0.33852600  0.64776900  0.09529800  1
  O  O8  1  0.58114400  0.39991800  0.68642600  1
  O  O9  1  0.08114400  0.60008200  0.81357400  1
  O  O10  1  0.31406700  0.91522900  0.48083100  1
  O  O11  1  0.91885600  0.39991800  0.18642600  1
  O  O12  1  0.97053900  0.79130500  0.42686100  1
  O  O13  1  0.41885600  0.60008200  0.31357400  1
  O  O14  1  0.02946100  0.20869500  0.57313900  1
  O  O15  1  0.18593300  0.91522900  0.98083100  1
  O  O16  1  0.52946100  0.79130500  0.92686100  1
  O  O17  1  0.68593300  0.08477100  0.51916900  1
  O  O18  1  0.81406700  0.08477100  0.01916900  1
  O  O19  1  0.47053900  0.20869500  0.07313900  1
