# generated using pymatgen
data_Ca4CN4
_symmetry_space_group_name_H-M   'P 1'
_cell_length_a   3.57455600
_cell_length_b   11.46255400
_cell_length_c   14.05060800
_cell_angle_alpha   90.00000000
_cell_angle_beta   90.00000000
_cell_angle_gamma   90.00000000
_symmetry_Int_Tables_number   1
_chemical_formula_structural   Ca4CN4
_chemical_formula_sum   'Ca16 C4 N16'
_cell_volume   575.70316544
_cell_formula_units_Z   4
loop_
 _symmetry_equiv_pos_site_id
 _symmetry_equiv_pos_as_xyz
  1  'x, y, z'
loop_
 _atom_site_type_symbol
 _atom_site_label
 _atom_site_symmetry_multiplicity
 _atom_site_fract_x
 _atom_site_fract_y
 _atom_site_fract_z
 _atom_site_occupancy
  Ca  Ca0  1  0.25000000  0.63850100  0.26131200  1
  Ca  Ca1  1  0.75000000  0.36149900  0.73868800  1
  Ca  Ca2  1  0.25000000  0.13850100  0.23868800  1
  Ca  Ca3  1  0.75000000  0.86149900  0.76131200  1
  Ca  Ca4  1  0.25000000  0.87578700  0.38271500  1
  Ca  Ca5  1  0.75000000  0.12421300  0.61728500  1
  Ca  Ca6  1  0.25000000  0.37578700  0.11728500  1
  Ca  Ca7  1  0.75000000  0.62421300  0.88271500  1
  Ca  Ca8  1  0.25000000  0.37995900  0.54044800  1
  Ca  Ca9  1  0.75000000  0.62004100  0.45955200  1
  Ca  Ca10  1  0.25000000  0.87995900  0.95955200  1
  Ca  Ca11  1  0.75000000  0.12004100  0.04044800  1
  Ca  Ca12  1  0.25000000  0.61569200  0.67002500  1
  Ca  Ca13  1  0.75000000  0.38430800  0.32997500  1
  Ca  Ca14  1  0.25000000  0.11569200  0.82997500  1
  Ca  Ca15  1  0.75000000  0.88430800  0.17002500  1
  C  C16  1  0.25000000  0.86118900  0.58620800  1
  C  C17  1  0.75000000  0.13881100  0.41379200  1
  C  C18  1  0.25000000  0.36118900  0.91379200  1
  C  C19  1  0.75000000  0.63881100  0.08620800  1
  N  N20  1  0.25000000  0.95416600  0.63201500  1
  N  N21  1  0.75000000  0.04583400  0.36798500  1
  N  N22  1  0.25000000  0.45416600  0.86798500  1
  N  N23  1  0.75000000  0.54583400  0.13201500  1
  N  N24  1  0.25000000  0.76876000  0.53996900  1
  N  N25  1  0.75000000  0.23124000  0.46003100  1
  N  N26  1  0.25000000  0.26876000  0.96003100  1
  N  N27  1  0.75000000  0.73124000  0.03996900  1
  N  N28  1  0.25000000  0.49915100  0.38409500  1
  N  N29  1  0.75000000  0.50084900  0.61590500  1
  N  N30  1  0.25000000  0.99915100  0.11590500  1
  N  N31  1  0.75000000  0.00084900  0.88409500  1
  N  N32  1  0.75000000  0.26606600  0.18586700  1
  N  N33  1  0.25000000  0.73393400  0.81413300  1
  N  N34  1  0.75000000  0.76606600  0.31413300  1
  N  N35  1  0.25000000  0.23393400  0.68586700  1
