# generated using pymatgen
data_CrTe3
_symmetry_space_group_name_H-M   'P 1'
_cell_length_a   11.47780000
_cell_length_b   8.19386800
_cell_length_c   11.67318513
_cell_angle_alpha   62.38656468
_cell_angle_beta   90.00000000
_cell_angle_gamma   90.00000000
_symmetry_Int_Tables_number   1
_chemical_formula_structural   CrTe3
_chemical_formula_sum   'Cr8 Te24'
_cell_volume   972.78582677
_cell_formula_units_Z   8
loop_
 _symmetry_equiv_pos_site_id
 _symmetry_equiv_pos_as_xyz
  1  'x, y, z'
loop_
 _atom_site_type_symbol
 _atom_site_label
 _atom_site_symmetry_multiplicity
 _atom_site_fract_x
 _atom_site_fract_y
 _atom_site_fract_z
 _atom_site_occupancy
  Cr  Cr0  1  0.99962000  0.00214500  0.32561100  1
  Cr  Cr1  1  0.49962000  0.99785500  0.17438900  1
  Cr  Cr2  1  0.00038000  0.99785500  0.67438900  1
  Cr  Cr3  1  0.50038000  0.00214500  0.82561100  1
  Cr  Cr4  1  0.71623800  0.02179200  0.49273900  1
  Cr  Cr5  1  0.21623800  0.97820800  0.00726100  1
  Cr  Cr6  1  0.28376200  0.97820800  0.50726100  1
  Cr  Cr7  1  0.78376200  0.02179200  0.99273900  1
  Te  Te8  1  0.09353000  0.20800400  0.43288300  1
  Te  Te9  1  0.59353000  0.79199600  0.06711700  1
  Te  Te10  1  0.90647000  0.79199600  0.56711700  1
  Te  Te11  1  0.40647000  0.20800400  0.93288300  1
  Te  Te12  1  0.67553100  0.25248900  0.76471200  1
  Te  Te13  1  0.17553100  0.74751100  0.73528800  1
  Te  Te14  1  0.32446900  0.74751100  0.23528800  1
  Te  Te15  1  0.82446900  0.25248900  0.26471200  1
  Te  Te16  1  0.82777600  0.25202300  0.56951300  1
  Te  Te17  1  0.32777600  0.74797700  0.93048700  1
  Te  Te18  1  0.17222400  0.74797700  0.43048700  1
  Te  Te19  1  0.67222400  0.25202300  0.06951300  1
  Te  Te20  1  0.38172700  0.20068700  0.60022700  1
  Te  Te21  1  0.88172700  0.79931300  0.89977300  1
  Te  Te22  1  0.61827300  0.79931300  0.39977300  1
  Te  Te23  1  0.11827300  0.20068700  0.10022700  1
  Te  Te24  1  0.55403200  0.29705100  0.40264300  1
  Te  Te25  1  0.05403200  0.70294900  0.09735700  1
  Te  Te26  1  0.44596800  0.70294900  0.59735700  1
  Te  Te27  1  0.94596800  0.29705100  0.90264300  1
  Te  Te28  1  0.38170200  0.19715900  0.27010100  1
  Te  Te29  1  0.88170200  0.80284100  0.22989900  1
  Te  Te30  1  0.61829800  0.80284100  0.72989900  1
  Te  Te31  1  0.11829800  0.19715900  0.77010100  1
