# generated using pymatgen
data_Cs7Cu6F19
_symmetry_space_group_name_H-M   'P 1'
_cell_length_a   6.34809200
_cell_length_b   11.62387700
_cell_length_c   16.17691578
_cell_angle_alpha   83.20094532
_cell_angle_beta   90.00000000
_cell_angle_gamma   90.00000000
_symmetry_Int_Tables_number   1
_chemical_formula_structural   Cs7Cu6F19
_chemical_formula_sum   'Cs14 Cu12 F38'
_cell_volume   1185.29092645
_cell_formula_units_Z   2
loop_
 _symmetry_equiv_pos_site_id
 _symmetry_equiv_pos_as_xyz
  1  'x, y, z'
loop_
 _atom_site_type_symbol
 _atom_site_label
 _atom_site_symmetry_multiplicity
 _atom_site_fract_x
 _atom_site_fract_y
 _atom_site_fract_z
 _atom_site_occupancy
  Cs  Cs0  1  0.00774600  0.05480900  0.15049300  1
  Cs  Cs1  1  0.99024100  0.59266000  0.79413800  1
  Cs  Cs2  1  0.00975900  0.40734000  0.20586200  1
  Cs  Cs3  1  0.50774600  0.94519100  0.34950700  1
  Cs  Cs4  1  0.99933900  0.15836500  0.43319100  1
  Cs  Cs5  1  0.49933900  0.84163500  0.06680900  1
  Cs  Cs6  1  0.50975900  0.59266000  0.29413800  1
  Cs  Cs7  1  0.00000000  0.50000000  0.50000000  1
  Cs  Cs8  1  0.00066100  0.84163500  0.56680900  1
  Cs  Cs9  1  0.49225400  0.05480900  0.65049300  1
  Cs  Cs10  1  0.49024100  0.40734000  0.70586200  1
  Cs  Cs11  1  0.50000000  0.50000000  0.00000000  1
  Cs  Cs12  1  0.50066100  0.15836500  0.93319100  1
  Cs  Cs13  1  0.99225400  0.94519100  0.84950700  1
  Cu  Cu14  1  0.99709800  0.67297400  0.01313000  1
  Cu  Cu15  1  0.99645900  0.27130800  0.82116300  1
  Cu  Cu16  1  0.49709800  0.32702600  0.48687000  1
  Cu  Cu17  1  0.50354100  0.27130800  0.32116300  1
  Cu  Cu18  1  0.00290200  0.32702600  0.98687000  1
  Cu  Cu19  1  0.50637000  0.23265900  0.15189700  1
  Cu  Cu20  1  0.00637000  0.76734100  0.34810300  1
  Cu  Cu21  1  0.49645900  0.72869200  0.67883700  1
  Cu  Cu22  1  0.99363000  0.23265900  0.65189700  1
  Cu  Cu23  1  0.50290200  0.67297400  0.51313000  1
  Cu  Cu24  1  0.00354100  0.72869200  0.17883700  1
  Cu  Cu25  1  0.49363000  0.76734100  0.84810300  1
  F  F26  1  0.80880400  0.64050800  0.11169400  1
  F  F27  1  0.27718300  0.27698000  0.07412900  1
  F  F28  1  0.77322100  0.35690800  0.86400400  1
  F  F29  1  0.28816500  0.70881900  0.43164400  1
  F  F30  1  0.50000000  0.50000000  0.50000000  1
  F  F31  1  0.71183500  0.29118100  0.56835600  1
  F  F32  1  0.99781800  0.38399100  0.68872100  1
  F  F33  1  0.72168000  0.81360600  0.72072800  1
  F  F34  1  0.00218200  0.61600900  0.31127900  1
  F  F35  1  0.77832000  0.81360600  0.22072800  1
  F  F36  1  0.72677900  0.35690800  0.36400400  1
  F  F37  1  0.80165100  0.18712300  0.75303100  1
  F  F38  1  0.69119600  0.64050800  0.61169400  1
  F  F39  1  0.50218200  0.38399100  0.18872100  1
  F  F40  1  0.78816500  0.29118100  0.06835600  1
  F  F41  1  0.27832000  0.18639400  0.27927200  1
  F  F42  1  0.49781800  0.61600900  0.81127900  1
  F  F43  1  0.98942900  0.07890300  0.62290000  1
  F  F44  1  0.22281700  0.27698000  0.57412900  1
  F  F45  1  0.48942900  0.92109700  0.87710000  1
  F  F46  1  0.00341000  0.83406600  0.04087200  1
  F  F47  1  0.69834900  0.18712300  0.25303100  1
  F  F48  1  0.51057100  0.07890300  0.12290000  1
  F  F49  1  0.19119600  0.35949200  0.88830600  1
  F  F50  1  0.19834900  0.81287700  0.24696900  1
  F  F51  1  0.30165100  0.81287700  0.74696900  1
  F  F52  1  0.30880400  0.35949200  0.38830600  1
  F  F53  1  0.01057100  0.92109700  0.37710000  1
  F  F54  1  0.22677900  0.64309200  0.13599600  1
  F  F55  1  0.21183500  0.70881900  0.93164400  1
  F  F56  1  0.77718300  0.72302000  0.42587100  1
  F  F57  1  0.72281700  0.72302000  0.92587100  1
  F  F58  1  0.22168000  0.18639400  0.77927200  1
  F  F59  1  0.49659000  0.83406600  0.54087200  1
  F  F60  1  0.27322100  0.64309200  0.63599600  1
  F  F61  1  0.50341000  0.16593400  0.45912800  1
  F  F62  1  0.00000000  0.50000000  0.00000000  1
  F  F63  1  0.99659000  0.16593400  0.95912800  1
