# generated using pymatgen
data_Ba3LiIr2O9
_symmetry_space_group_name_H-M   'P 1'
_cell_length_a   5.85900957
_cell_length_b   5.85900957
_cell_length_c   14.45058400
_cell_angle_alpha   90.00000000
_cell_angle_beta   90.00000000
_cell_angle_gamma   119.99999510
_symmetry_Int_Tables_number   1
_chemical_formula_structural   Ba3LiIr2O9
_chemical_formula_sum   'Ba6 Li2 Ir4 O18'
_cell_volume   429.60019138
_cell_formula_units_Z   2
loop_
 _symmetry_equiv_pos_site_id
 _symmetry_equiv_pos_as_xyz
  1  'x, y, z'
loop_
 _atom_site_type_symbol
 _atom_site_label
 _atom_site_symmetry_multiplicity
 _atom_site_fract_x
 _atom_site_fract_y
 _atom_site_fract_z
 _atom_site_occupancy
  Ba  Ba0  1  0.66666700  0.33333300  0.41661800  1
  Ba  Ba1  1  0.33333300  0.66666700  0.58338200  1
  Ba  Ba2  1  0.33333300  0.66666700  0.91661800  1
  Ba  Ba3  1  0.00000000  0.00000000  0.25000000  1
  Ba  Ba4  1  0.66666700  0.33333300  0.08338200  1
  Ba  Ba5  1  0.00000000  0.00000000  0.75000000  1
  Li  Li6  1  0.00000000  0.00000000  0.50000000  1
  Li  Li7  1  0.00000000  0.00000000  0.00000000  1
  Ir  Ir8  1  0.33333300  0.66666700  0.15568200  1
  Ir  Ir9  1  0.66666700  0.33333300  0.84431800  1
  Ir  Ir10  1  0.33333300  0.66666700  0.34431800  1
  Ir  Ir11  1  0.66666700  0.33333300  0.65568200  1
  O  O12  1  0.82600500  0.65201100  0.58385700  1
  O  O13  1  0.82600500  0.17399500  0.91614300  1
  O  O14  1  0.65201100  0.82600500  0.41614300  1
  O  O15  1  0.51586900  0.48413100  0.75000000  1
  O  O16  1  0.17399500  0.34798900  0.41614300  1
  O  O17  1  0.34798900  0.17399500  0.58385700  1
  O  O18  1  0.51586900  0.03173800  0.75000000  1
  O  O19  1  0.17399500  0.34798900  0.08385700  1
  O  O20  1  0.48413100  0.96826200  0.25000000  1
  O  O21  1  0.65201100  0.82600500  0.08385700  1
  O  O22  1  0.17399500  0.82600500  0.41614300  1
  O  O23  1  0.34798900  0.17399500  0.91614300  1
  O  O24  1  0.03173800  0.51586900  0.25000000  1
  O  O25  1  0.48413100  0.51586900  0.25000000  1
  O  O26  1  0.96826200  0.48413100  0.75000000  1
  O  O27  1  0.82600500  0.65201100  0.91614300  1
  O  O28  1  0.82600500  0.17399500  0.58385700  1
  O  O29  1  0.17399500  0.82600500  0.08385700  1
