# generated using pymatgen
data_Nb3SnS6
_symmetry_space_group_name_H-M   'P 1'
_cell_length_a   5.85052451
_cell_length_b   5.85052451
_cell_length_c   14.61038400
_cell_angle_alpha   90.00000000
_cell_angle_beta   90.00000000
_cell_angle_gamma   120.00000578
_symmetry_Int_Tables_number   1
_chemical_formula_structural   Nb3SnS6
_chemical_formula_sum   'Nb6 Sn2 S12'
_cell_volume   433.09367707
_cell_formula_units_Z   2
loop_
 _symmetry_equiv_pos_site_id
 _symmetry_equiv_pos_as_xyz
  1  'x, y, z'
loop_
 _atom_site_type_symbol
 _atom_site_label
 _atom_site_symmetry_multiplicity
 _atom_site_fract_x
 _atom_site_fract_y
 _atom_site_fract_z
 _atom_site_occupancy
  Nb  Nb0  1  0.33333300  0.66666700  0.99870100  1
  Nb  Nb1  1  0.00000000  0.00000000  0.00000000  1
  Nb  Nb2  1  0.66666700  0.33333300  0.00129900  1
  Nb  Nb3  1  0.33333300  0.66666700  0.50129900  1
  Nb  Nb4  1  0.00000000  0.00000000  0.50000000  1
  Nb  Nb5  1  0.66666700  0.33333300  0.49870100  1
  Sn  Sn6  1  0.33333300  0.66666700  0.25000000  1
  Sn  Sn7  1  0.66666700  0.33333300  0.75000000  1
  S  S8  1  0.66688800  0.66778500  0.39315300  1
  S  S9  1  0.66778500  0.66688800  0.60684700  1
  S  S10  1  0.99910300  0.66688800  0.89315300  1
  S  S11  1  0.66778500  0.00089700  0.89315300  1
  S  S12  1  0.66688800  0.99910300  0.10684700  1
  S  S13  1  0.33221500  0.99910300  0.39315300  1
  S  S14  1  0.99910300  0.33221500  0.60684700  1
  S  S15  1  0.33311200  0.00089700  0.60684700  1
  S  S16  1  0.00089700  0.66778500  0.10684700  1
  S  S17  1  0.33311200  0.33221500  0.89315300  1
  S  S18  1  0.00089700  0.33311200  0.39315300  1
  S  S19  1  0.33221500  0.33311200  0.10684700  1
