# generated using pymatgen
data_HoB4
_symmetry_space_group_name_H-M   'P 1'
_cell_length_a   7.08618600
_cell_length_b   7.08618600
_cell_length_c   4.00815300
_cell_angle_alpha   90.00000000
_cell_angle_beta   90.00000000
_cell_angle_gamma   90.00000000
_symmetry_Int_Tables_number   1
_chemical_formula_structural   HoB4
_chemical_formula_sum   'Ho4 B16'
_cell_volume   201.26552311
_cell_formula_units_Z   4
loop_
 _symmetry_equiv_pos_site_id
 _symmetry_equiv_pos_as_xyz
  1  'x, y, z'
loop_
 _atom_site_type_symbol
 _atom_site_label
 _atom_site_symmetry_multiplicity
 _atom_site_fract_x
 _atom_site_fract_y
 _atom_site_fract_z
 _atom_site_occupancy
  Ho  Ho0  1  0.31766400  0.18233600  0.00000000  1
  Ho  Ho1  1  0.68233600  0.81766400  0.00000000  1
  Ho  Ho2  1  0.18233600  0.68233600  0.00000000  1
  Ho  Ho3  1  0.81766400  0.31766400  0.00000000  1
  B  B4  1  0.50000000  0.50000000  0.79728400  1
  B  B5  1  0.08693300  0.41306700  0.50000000  1
  B  B6  1  0.58693300  0.08693300  0.50000000  1
  B  B7  1  0.67637500  0.53854600  0.50000000  1
  B  B8  1  0.91306700  0.58693300  0.50000000  1
  B  B9  1  0.46145400  0.67637500  0.50000000  1
  B  B10  1  0.00000000  0.00000000  0.20271600  1
  B  B11  1  0.50000000  0.50000000  0.20271600  1
  B  B12  1  0.00000000  0.00000000  0.79728400  1
  B  B13  1  0.82362500  0.03854600  0.50000000  1
  B  B14  1  0.41306700  0.91306700  0.50000000  1
  B  B15  1  0.96145400  0.82362500  0.50000000  1
  B  B16  1  0.32362500  0.46145400  0.50000000  1
  B  B17  1  0.53854600  0.32362500  0.50000000  1
  B  B18  1  0.03854600  0.17637500  0.50000000  1
  B  B19  1  0.17637500  0.96145400  0.50000000  1
