# generated using pymatgen
data_Cs2AgI3
_symmetry_space_group_name_H-M   'P 1'
_cell_length_a   5.07313100
_cell_length_b   14.97168600
_cell_length_c   15.57240400
_cell_angle_alpha   90.00000000
_cell_angle_beta   90.00000000
_cell_angle_gamma   90.00000000
_symmetry_Int_Tables_number   1
_chemical_formula_structural   Cs2AgI3
_chemical_formula_sum   'Cs8 Ag4 I12'
_cell_volume   1182.77585222
_cell_formula_units_Z   4
loop_
 _symmetry_equiv_pos_site_id
 _symmetry_equiv_pos_as_xyz
  1  'x, y, z'
loop_
 _atom_site_type_symbol
 _atom_site_label
 _atom_site_symmetry_multiplicity
 _atom_site_fract_x
 _atom_site_fract_y
 _atom_site_fract_z
 _atom_site_occupancy
  Cs  Cs0  1  0.75000000  0.17389500  0.48189700  1
  Cs  Cs1  1  0.25000000  0.82610500  0.51810300  1
  Cs  Cs2  1  0.75000000  0.67389500  0.01810300  1
  Cs  Cs3  1  0.25000000  0.32610500  0.98189700  1
  Cs  Cs4  1  0.75000000  0.51295000  0.67567800  1
  Cs  Cs5  1  0.25000000  0.48705000  0.32432200  1
  Cs  Cs6  1  0.75000000  0.01295000  0.82432200  1
  Cs  Cs7  1  0.25000000  0.98705000  0.17567800  1
  Ag  Ag8  1  0.75000000  0.25272600  0.19657200  1
  Ag  Ag9  1  0.25000000  0.74727400  0.80342800  1
  Ag  Ag10  1  0.75000000  0.75272600  0.30342800  1
  Ag  Ag11  1  0.25000000  0.24727400  0.69657200  1
  I  I12  1  0.75000000  0.13465100  0.05198000  1
  I  I13  1  0.25000000  0.86534900  0.94802000  1
  I  I14  1  0.75000000  0.63465100  0.44802000  1
  I  I15  1  0.25000000  0.36534900  0.55198000  1
  I  I16  1  0.75000000  0.43626300  0.13974200  1
  I  I17  1  0.25000000  0.56373700  0.86025800  1
  I  I18  1  0.75000000  0.93626300  0.36025800  1
  I  I19  1  0.25000000  0.06373700  0.63974200  1
  I  I20  1  0.75000000  0.27648700  0.78862500  1
  I  I21  1  0.25000000  0.72351300  0.21137500  1
  I  I22  1  0.75000000  0.77648700  0.71137500  1
  I  I23  1  0.25000000  0.22351300  0.28862500  1
