# generated using pymatgen
data_Na2W(OF2)2
_symmetry_space_group_name_H-M   'P 1'
_cell_length_a   5.13816700
_cell_length_b   5.54059500
_cell_length_c   18.71341500
_cell_angle_alpha   90.00000000
_cell_angle_beta   90.00000000
_cell_angle_gamma   90.00000000
_symmetry_Int_Tables_number   1
_chemical_formula_structural   Na2W(OF2)2
_chemical_formula_sum   'Na8 W4 O8 F16'
_cell_volume   532.74289964
_cell_formula_units_Z   4
loop_
 _symmetry_equiv_pos_site_id
 _symmetry_equiv_pos_as_xyz
  1  'x, y, z'
loop_
 _atom_site_type_symbol
 _atom_site_label
 _atom_site_symmetry_multiplicity
 _atom_site_fract_x
 _atom_site_fract_y
 _atom_site_fract_z
 _atom_site_occupancy
  Na  Na0  1  0.00000000  0.75000000  0.77064200  1
  Na  Na1  1  0.50000000  0.25000000  0.72935800  1
  Na  Na2  1  0.00000000  0.25000000  0.22935800  1
  Na  Na3  1  0.50000000  0.75000000  0.27064200  1
  Na  Na4  1  0.00000000  0.75000000  0.44881100  1
  Na  Na5  1  0.50000000  0.25000000  0.05118900  1
  Na  Na6  1  0.00000000  0.25000000  0.55118900  1
  Na  Na7  1  0.50000000  0.75000000  0.94881100  1
  W  W8  1  0.00000000  0.75000000  0.10727100  1
  W  W9  1  0.50000000  0.25000000  0.39272900  1
  W  W10  1  0.00000000  0.25000000  0.89272900  1
  W  W11  1  0.50000000  0.75000000  0.60727100  1
  O  O12  1  0.77166800  0.88469100  0.04807300  1
  O  O13  1  0.27166800  0.11530900  0.45192700  1
  O  O14  1  0.72833200  0.38469100  0.45192700  1
  O  O15  1  0.22833200  0.61530900  0.04807300  1
  O  O16  1  0.22833200  0.11530900  0.95192700  1
  O  O17  1  0.72833200  0.88469100  0.54807300  1
  O  O18  1  0.27166800  0.61530900  0.54807300  1
  O  O19  1  0.77166800  0.38469100  0.95192700  1
  F  F20  1  0.71028200  0.95935000  0.37413800  1
  F  F21  1  0.21028200  0.04065000  0.12586200  1
  F  F22  1  0.78971800  0.45935000  0.12586200  1
  F  F23  1  0.28971800  0.54065000  0.37413800  1
  F  F24  1  0.28971800  0.04065000  0.62586200  1
  F  F25  1  0.78971800  0.95935000  0.87413800  1
  F  F26  1  0.21028200  0.54065000  0.87413800  1
  F  F27  1  0.71028200  0.45935000  0.62586200  1
  F  F28  1  0.80164700  0.89427500  0.19423400  1
  F  F29  1  0.30164700  0.10572500  0.30576600  1
  F  F30  1  0.69835300  0.39427500  0.30576600  1
  F  F31  1  0.19835300  0.60572500  0.19423400  1
  F  F32  1  0.19835300  0.10572500  0.80576600  1
  F  F33  1  0.69835300  0.89427500  0.69423400  1
  F  F34  1  0.30164700  0.60572500  0.69423400  1
  F  F35  1  0.80164700  0.39427500  0.80576600  1
