# generated using pymatgen
data_CuAsPbO4
_symmetry_space_group_name_H-M   'P 1'
_cell_length_a   4.94053800
_cell_length_b   5.93944518
_cell_length_c   8.11102464
_cell_angle_alpha   78.38046384
_cell_angle_beta   75.35588946
_cell_angle_gamma   84.33663671
_symmetry_Int_Tables_number   1
_chemical_formula_structural   CuAsPbO4
_chemical_formula_sum   'Cu2 As2 Pb2 O8'
_cell_volume   225.27269511
_cell_formula_units_Z   2
loop_
 _symmetry_equiv_pos_site_id
 _symmetry_equiv_pos_as_xyz
  1  'x, y, z'
loop_
 _atom_site_type_symbol
 _atom_site_label
 _atom_site_symmetry_multiplicity
 _atom_site_fract_x
 _atom_site_fract_y
 _atom_site_fract_z
 _atom_site_occupancy
  Cu  Cu0  1  0.37324800  0.80845600  0.99439600  1
  Cu  Cu1  1  0.62675200  0.19154400  0.00560400  1
  As  As2  1  0.57644800  0.79912400  0.31245900  1
  As  As3  1  0.42355200  0.20087600  0.68754100  1
  Pb  Pb4  1  0.06324900  0.28966100  0.32321300  1
  Pb  Pb5  1  0.93675100  0.71033900  0.67678700  1
  O  O6  1  0.76885300  0.03316800  0.18943400  1
  O  O7  1  0.23114700  0.96683200  0.81056600  1
  O  O8  1  0.22459700  0.37432700  0.56231400  1
  O  O9  1  0.49353000  0.36928600  0.82387000  1
  O  O10  1  0.72904700  0.09284500  0.56524600  1
  O  O11  1  0.27095300  0.90715500  0.43475400  1
  O  O12  1  0.77540300  0.62567300  0.43768600  1
  O  O13  1  0.50647000  0.63071400  0.17613000  1
