# generated using pymatgen
data_Dy4MgRh
_symmetry_space_group_name_H-M   'P 1'
_cell_length_a   9.69620881
_cell_length_b   9.69620881
_cell_length_c   9.69620881
_cell_angle_alpha   60.00000000
_cell_angle_beta   60.00000000
_cell_angle_gamma   60.00000000
_symmetry_Int_Tables_number   1
_chemical_formula_structural   Dy4MgRh
_chemical_formula_sum   'Dy16 Mg4 Rh4'
_cell_volume   644.60085995
_cell_formula_units_Z   4
loop_
 _symmetry_equiv_pos_site_id
 _symmetry_equiv_pos_as_xyz
  1  'x, y, z'
loop_
 _atom_site_type_symbol
 _atom_site_label
 _atom_site_symmetry_multiplicity
 _atom_site_fract_x
 _atom_site_fract_y
 _atom_site_fract_z
 _atom_site_occupancy
  Dy  Dy0  1  0.06462800  0.43537200  0.43537200  1
  Dy  Dy1  1  0.65320500  0.04038600  0.65320500  1
  Dy  Dy2  1  0.81228400  0.81228400  0.18771600  1
  Dy  Dy3  1  0.43537200  0.06462800  0.06462800  1
  Dy  Dy4  1  0.43537200  0.43537200  0.06462800  1
  Dy  Dy5  1  0.18771600  0.18771600  0.81228400  1
  Dy  Dy6  1  0.81228400  0.18771600  0.18771600  1
  Dy  Dy7  1  0.06462800  0.43537200  0.06462800  1
  Dy  Dy8  1  0.43537200  0.06462800  0.43537200  1
  Dy  Dy9  1  0.04038600  0.65320500  0.65320500  1
  Dy  Dy10  1  0.18771600  0.81228400  0.81228400  1
  Dy  Dy11  1  0.65320500  0.65320500  0.04038600  1
  Dy  Dy12  1  0.18771600  0.81228400  0.18771600  1
  Dy  Dy13  1  0.06462800  0.06462800  0.43537200  1
  Dy  Dy14  1  0.81228400  0.18771600  0.81228400  1
  Dy  Dy15  1  0.65320500  0.65320500  0.65320500  1
  Mg  Mg16  1  0.42033200  0.42033200  0.73900400  1
  Mg  Mg17  1  0.42033200  0.42033200  0.42033200  1
  Mg  Mg18  1  0.42033200  0.73900400  0.42033200  1
  Mg  Mg19  1  0.73900400  0.42033200  0.42033200  1
  Rh  Rh20  1  0.85817500  0.42547500  0.85817500  1
  Rh  Rh21  1  0.42547500  0.85817500  0.85817500  1
  Rh  Rh22  1  0.85817500  0.85817500  0.42547500  1
  Rh  Rh23  1  0.85817500  0.85817500  0.85817500  1
