# generated using pymatgen
data_Pr8Ga3Co
_symmetry_space_group_name_H-M   'P 1'
_cell_length_a   10.58589836
_cell_length_b   10.58589836
_cell_length_c   7.03280300
_cell_angle_alpha   90.00000000
_cell_angle_beta   90.00000000
_cell_angle_gamma   120.00000222
_symmetry_Int_Tables_number   1
_chemical_formula_structural   Pr8Ga3Co
_chemical_formula_sum   'Pr16 Ga6 Co2'
_cell_volume   682.51863498
_cell_formula_units_Z   2
loop_
 _symmetry_equiv_pos_site_id
 _symmetry_equiv_pos_as_xyz
  1  'x, y, z'
loop_
 _atom_site_type_symbol
 _atom_site_label
 _atom_site_symmetry_multiplicity
 _atom_site_fract_x
 _atom_site_fract_y
 _atom_site_fract_z
 _atom_site_occupancy
  Pr  Pr0  1  0.17039900  0.82960100  0.99363300  1
  Pr  Pr1  1  0.34079700  0.17039900  0.49363300  1
  Pr  Pr2  1  0.82960100  0.65920300  0.49363300  1
  Pr  Pr3  1  0.17039900  0.34079700  0.99363300  1
  Pr  Pr4  1  0.65920300  0.82960100  0.99363300  1
  Pr  Pr5  1  0.82960100  0.17039900  0.49363300  1
  Pr  Pr6  1  0.33333300  0.66666700  0.67639200  1
  Pr  Pr7  1  0.66666700  0.33333300  0.17639200  1
  Pr  Pr8  1  0.46245000  0.53755000  0.28963200  1
  Pr  Pr9  1  0.92490000  0.46245000  0.78963200  1
  Pr  Pr10  1  0.53755000  0.07510000  0.78963200  1
  Pr  Pr11  1  0.46245000  0.92490000  0.28963200  1
  Pr  Pr12  1  0.07510000  0.53755000  0.28963200  1
  Pr  Pr13  1  0.53755000  0.46245000  0.78963200  1
  Pr  Pr14  1  0.00000000  0.00000000  0.27826900  1
  Pr  Pr15  1  0.00000000  0.00000000  0.77826900  1
  Ga  Ga16  1  0.16449300  0.83550700  0.53307500  1
  Ga  Ga17  1  0.32898500  0.16449300  0.03307500  1
  Ga  Ga18  1  0.83550700  0.67101500  0.03307500  1
  Ga  Ga19  1  0.16449300  0.32898500  0.53307500  1
  Ga  Ga20  1  0.67101500  0.83550700  0.53307500  1
  Ga  Ga21  1  0.83550700  0.16449300  0.03307500  1
  Co  Co22  1  0.33333300  0.66666700  0.05931800  1
  Co  Co23  1  0.66666700  0.33333300  0.55931800  1
