# generated using pymatgen
data_BaSr4U3O14
_symmetry_space_group_name_H-M   'P 1'
_cell_length_a   8.11768321
_cell_length_b   8.11768321
_cell_length_c   11.12374700
_cell_angle_alpha   90.00000000
_cell_angle_beta   90.00000000
_cell_angle_gamma   90.07846633
_symmetry_Int_Tables_number   1
_chemical_formula_structural   BaSr4U3O14
_chemical_formula_sum   'Ba2 Sr8 U6 O28'
_cell_volume   733.01842930
_cell_formula_units_Z   2
loop_
 _symmetry_equiv_pos_site_id
 _symmetry_equiv_pos_as_xyz
  1  'x, y, z'
loop_
 _atom_site_type_symbol
 _atom_site_label
 _atom_site_symmetry_multiplicity
 _atom_site_fract_x
 _atom_site_fract_y
 _atom_site_fract_z
 _atom_site_occupancy
  Ba  Ba0  1  0.00000000  0.00000000  0.50000000  1
  Ba  Ba1  1  0.50000000  0.50000000  0.00000000  1
  Sr  Sr2  1  0.77095200  0.27095200  0.75000000  1
  Sr  Sr3  1  0.24860000  0.24860000  0.77499800  1
  Sr  Sr4  1  0.25140000  0.25140000  0.27499800  1
  Sr  Sr5  1  0.74860000  0.74860000  0.72500200  1
  Sr  Sr6  1  0.75140000  0.75140000  0.22500200  1
  Sr  Sr7  1  0.72904800  0.22904800  0.25000000  1
  Sr  Sr8  1  0.27095200  0.77095200  0.75000000  1
  Sr  Sr9  1  0.22904800  0.72904800  0.25000000  1
  U  U10  1  0.50000000  0.50000000  0.50000000  1
  U  U11  1  0.00000000  0.00000000  0.00000000  1
  U  U12  1  0.00000000  0.50000000  0.50000000  1
  U  U13  1  0.50000000  0.00000000  0.00000000  1
  U  U14  1  0.50000000  0.00000000  0.50000000  1
  U  U15  1  0.00000000  0.50000000  0.00000000  1
  O  O16  1  0.53227100  0.19279600  0.88297600  1
  O  O17  1  0.69279600  0.03227100  0.61702400  1
  O  O18  1  0.03227100  0.69279600  0.61702400  1
  O  O19  1  0.24646800  0.99290100  0.92675500  1
  O  O20  1  0.43440100  0.43440100  0.66290100  1
  O  O21  1  0.46717800  0.18440900  0.12444300  1
  O  O22  1  0.30720400  0.96772900  0.38297600  1
  O  O23  1  0.46772900  0.80720400  0.11702400  1
  O  O24  1  0.18440900  0.46717800  0.12444300  1
  O  O25  1  0.31559100  0.03282200  0.62444300  1
  O  O26  1  0.75353200  0.00709900  0.07324500  1
  O  O27  1  0.80720400  0.46772900  0.11702400  1
  O  O28  1  0.53282200  0.81559100  0.87555700  1
  O  O29  1  0.03282200  0.31559100  0.62444300  1
  O  O30  1  0.56559900  0.56559900  0.33709900  1
  O  O31  1  0.00709900  0.75353200  0.07324500  1
  O  O32  1  0.93440100  0.93440100  0.83709900  1
  O  O33  1  0.06559900  0.06559900  0.16290100  1
  O  O34  1  0.49290100  0.74646800  0.57324500  1
  O  O35  1  0.99290100  0.24646800  0.92675500  1
  O  O36  1  0.25353200  0.50709900  0.42675500  1
  O  O37  1  0.74646800  0.49290100  0.57324500  1
  O  O38  1  0.96772900  0.30720400  0.38297600  1
  O  O39  1  0.50709900  0.25353200  0.42675500  1
  O  O40  1  0.96717800  0.68440900  0.37555700  1
  O  O41  1  0.81559100  0.53282200  0.87555700  1
  O  O42  1  0.19279600  0.53227100  0.88297600  1
  O  O43  1  0.68440900  0.96717800  0.37555700  1
