# generated using pymatgen
data_CsNb4Br11
_symmetry_space_group_name_H-M   'P 1'
_cell_length_a   7.43348300
_cell_length_b   7.47401800
_cell_length_c   17.08945600
_cell_angle_alpha   90.00000000
_cell_angle_beta   90.00000000
_cell_angle_gamma   90.00000000
_symmetry_Int_Tables_number   1
_chemical_formula_structural   CsNb4Br11
_chemical_formula_sum   'Cs2 Nb8 Br22'
_cell_volume   949.45575283
_cell_formula_units_Z   2
loop_
 _symmetry_equiv_pos_site_id
 _symmetry_equiv_pos_as_xyz
  1  'x, y, z'
loop_
 _atom_site_type_symbol
 _atom_site_label
 _atom_site_symmetry_multiplicity
 _atom_site_fract_x
 _atom_site_fract_y
 _atom_site_fract_z
 _atom_site_occupancy
  Cs  Cs0  1  0.50000000  0.49074600  0.25000000  1
  Cs  Cs1  1  0.50000000  0.50925400  0.75000000  1
  Nb  Nb2  1  0.00000000  0.11732200  0.63874000  1
  Nb  Nb3  1  0.20714300  0.00000000  0.50000000  1
  Nb  Nb4  1  0.79285700  0.00000000  0.00000000  1
  Nb  Nb5  1  0.00000000  0.88267800  0.36126000  1
  Nb  Nb6  1  0.00000000  0.88267800  0.13874000  1
  Nb  Nb7  1  0.79285700  0.00000000  0.50000000  1
  Nb  Nb8  1  0.00000000  0.11732200  0.86126000  1
  Nb  Nb9  1  0.20714300  0.00000000  0.00000000  1
  Br  Br10  1  0.50000000  0.87157500  0.91584600  1
  Br  Br11  1  0.00000000  0.79258300  0.58686100  1
  Br  Br12  1  0.74860100  0.30729400  0.92327400  1
  Br  Br13  1  0.25139900  0.30729400  0.92327400  1
  Br  Br14  1  0.00000000  0.60438900  0.25000000  1
  Br  Br15  1  0.76638900  0.01080900  0.25000000  1
  Br  Br16  1  0.25139900  0.69270600  0.07672600  1
  Br  Br17  1  0.74860100  0.69270600  0.42327400  1
  Br  Br18  1  0.00000000  0.20741700  0.41313900  1
  Br  Br19  1  0.25139900  0.30729400  0.57672600  1
  Br  Br20  1  0.74860100  0.30729400  0.57672600  1
  Br  Br21  1  0.00000000  0.39561100  0.75000000  1
  Br  Br22  1  0.76638900  0.98919100  0.75000000  1
  Br  Br23  1  0.50000000  0.87157500  0.58415400  1
  Br  Br24  1  0.23361100  0.98919100  0.75000000  1
  Br  Br25  1  0.00000000  0.20741700  0.08686100  1
  Br  Br26  1  0.74860100  0.69270600  0.07672600  1
  Br  Br27  1  0.25139900  0.69270600  0.42327400  1
  Br  Br28  1  0.00000000  0.79258300  0.91313900  1
  Br  Br29  1  0.23361100  0.01080900  0.25000000  1
  Br  Br30  1  0.50000000  0.12842500  0.08415400  1
  Br  Br31  1  0.50000000  0.12842500  0.41584600  1
