# generated using pymatgen
data_CsNa3PbO4
_symmetry_space_group_name_H-M   'P 1'
_cell_length_a   6.86515200
_cell_length_b   8.85020904
_cell_length_c   11.80225311
_cell_angle_alpha   82.59846468
_cell_angle_beta   76.29642099
_cell_angle_gamma   79.42313632
_symmetry_Int_Tables_number   1
_chemical_formula_structural   CsNa3PbO4
_chemical_formula_sum   'Cs4 Na12 Pb4 O16'
_cell_volume   682.09315123
_cell_formula_units_Z   4
loop_
 _symmetry_equiv_pos_site_id
 _symmetry_equiv_pos_as_xyz
  1  'x, y, z'
loop_
 _atom_site_type_symbol
 _atom_site_label
 _atom_site_symmetry_multiplicity
 _atom_site_fract_x
 _atom_site_fract_y
 _atom_site_fract_z
 _atom_site_occupancy
  Cs  Cs0  1  0.99281100  0.61748100  0.12004300  1
  Cs  Cs1  1  0.00718900  0.38251900  0.87995700  1
  Cs  Cs2  1  0.95765600  0.85811600  0.37436100  1
  Cs  Cs3  1  0.04234400  0.14188400  0.62563900  1
  Na  Na4  1  0.42925500  0.04287400  0.37608200  1
  Na  Na5  1  0.57074500  0.95712600  0.62391800  1
  Na  Na6  1  0.81498400  0.05218500  0.10583600  1
  Na  Na7  1  0.18501600  0.94781500  0.89416400  1
  Na  Na8  1  0.54021300  0.43009200  0.12586900  1
  Na  Na9  1  0.45978700  0.56990800  0.87413100  1
  Na  Na10  1  0.18727300  0.44339600  0.39727200  1
  Na  Na11  1  0.81272700  0.55660400  0.60272800  1
  Na  Na12  1  0.19534800  0.17778100  0.14624100  1
  Na  Na13  1  0.80465200  0.82221900  0.85375900  1
  Na  Na14  1  0.51939900  0.67354000  0.38627600  1
  Na  Na15  1  0.48060100  0.32646000  0.61372400  1
  Pb  Pb16  1  0.82580800  0.29202200  0.35210200  1
  Pb  Pb17  1  0.17419200  0.70797800  0.64789800  1
  Pb  Pb18  1  0.43869500  0.79552000  0.13193500  1
  Pb  Pb19  1  0.56130500  0.20448000  0.86806500  1
  O  O20  1  0.13517500  0.20042600  0.35162600  1
  O  O21  1  0.86482500  0.79957400  0.64837400  1
  O  O22  1  0.38147900  0.33254900  0.00494000  1
  O  O23  1  0.61852100  0.66745100  0.99506000  1
  O  O24  1  0.33794400  0.61214600  0.25545700  1
  O  O25  1  0.66205600  0.38785400  0.74454300  1
  O  O26  1  0.81128300  0.50950200  0.41170400  1
  O  O27  1  0.18871700  0.49049800  0.58829600  1
  O  O28  1  0.17632000  0.93675700  0.09407000  1
  O  O29  1  0.82368000  0.06324300  0.90593000  1
  O  O30  1  0.83107200  0.28770500  0.17333300  1
  O  O31  1  0.16892800  0.71229500  0.82666700  1
  O  O32  1  0.60679700  0.88808500  0.22607500  1
  O  O33  1  0.39320300  0.11191500  0.77392500  1
  O  O34  1  0.62574500  0.15921900  0.46691100  1
  O  O35  1  0.37425500  0.84078100  0.53308900  1
