# generated using pymatgen
data_La10Se14O
_symmetry_space_group_name_H-M   'P 1'
_cell_length_a   15.49724743
_cell_length_b   15.49724743
_cell_length_c   15.49724743
_cell_angle_alpha   117.85110512
_cell_angle_beta   117.85110512
_cell_angle_gamma   93.76412240
_symmetry_Int_Tables_number   1
_chemical_formula_structural   La10Se14O
_chemical_formula_sum   'La40 Se56 O4'
_cell_volume   2710.92764932
_cell_formula_units_Z   4
loop_
 _symmetry_equiv_pos_site_id
 _symmetry_equiv_pos_as_xyz
  1  'x, y, z'
loop_
 _atom_site_type_symbol
 _atom_site_label
 _atom_site_symmetry_multiplicity
 _atom_site_fract_x
 _atom_site_fract_y
 _atom_site_fract_z
 _atom_site_occupancy
  La  La0  1  0.11651700  0.11651700  0.73303400  1
  La  La1  1  0.39529800  0.04243500  0.09339800  1
  La  La2  1  0.88348300  0.61651700  0.00000000  1
  La  La3  1  0.85470200  0.44810000  0.14713700  1
  La  La4  1  0.18635400  0.81084500  0.36633100  1
  La  La5  1  0.07002400  0.19451400  0.13366900  1
  La  La6  1  0.06084500  0.93635400  0.86633100  1
  La  La7  1  0.89529800  0.80190000  0.35286300  1
  La  La8  1  0.45756500  0.10470200  0.90660200  1
  La  La9  1  0.30096300  0.70756500  0.85286300  1
  La  La10  1  0.06364600  0.92997600  0.12449000  1
  La  La11  1  0.80096300  0.94810000  0.59339800  1
  La  La12  1  0.38348300  0.38348300  0.26696600  1
  La  La13  1  0.69810000  0.60470200  0.64713700  1
  La  La14  1  0.30548600  0.42997600  0.86633100  1
  La  La15  1  0.18915500  0.55548600  0.37551000  1
  La  La16  1  0.79243500  0.19903700  0.14713700  1
  La  La17  1  0.44451400  0.82002400  0.63366900  1
  La  La18  1  0.68915500  0.31364600  0.63366900  1
  La  La19  1  0.17997600  0.81364600  0.62449000  1
  La  La20  1  0.94903700  0.30190000  0.90660200  1
  La  La21  1  0.67997600  0.05548600  0.36633100  1
  La  La22  1  0.68635400  0.32002400  0.37551000  1
  La  La23  1  0.57002400  0.43635400  0.87551000  1
  La  La24  1  0.55190000  0.69903700  0.40660200  1
  La  La25  1  0.94451400  0.31084500  0.62449000  1
  La  La26  1  0.63348300  0.13348300  0.76696600  1
  La  La27  1  0.19810000  0.55096300  0.09339800  1
  La  La28  1  0.05190000  0.64529800  0.85286300  1
  La  La29  1  0.44903700  0.54243500  0.64713700  1
  La  La30  1  0.56364600  0.43915500  0.13366900  1
  La  La31  1  0.95756500  0.05096300  0.35286300  1
  La  La32  1  0.36651700  0.86651700  0.23303400  1
  La  La33  1  0.35470200  0.20756500  0.40660200  1
  La  La34  1  0.13348300  0.36651700  0.50000000  1
  La  La35  1  0.80548600  0.93915500  0.87551000  1
  La  La36  1  0.29243500  0.14529800  0.59339800  1
  La  La37  1  0.61651700  0.88348300  0.00000000  1
  La  La38  1  0.56084500  0.69451400  0.12449000  1
  La  La39  1  0.86651700  0.63348300  0.50000000  1
  Se  Se40  1  0.89568400  0.74182100  0.89089400  1
  Se  Se41  1  0.66423300  0.52385100  0.78188200  1
  Se  Se42  1  0.31024200  0.64691300  0.02174500  1
  Se  Se43  1  0.75479000  0.14568400  0.65386300  1
  Se  Se44  1  0.12500000  0.72998700  0.10498700  1
  Se  Se45  1  0.39568400  0.50479000  0.15386300  1
  Se  Se46  1  0.62516700  0.28849700  0.97825500  1
  Se  Se47  1  0.62483300  0.10308700  0.16332900  1
  Se  Se48  1  0.35092700  0.24182100  0.84613700  1
  Se  Se49  1  0.97998700  0.87500000  0.60498700  1
  Se  Se50  1  0.27001300  0.37500000  0.39501300  1
  Se  Se51  1  0.24196900  0.02385100  0.85961800  1
  Se  Se52  1  0.50803100  0.22614900  0.64038200  1
  Se  Se53  1  0.47998700  0.87500000  0.10498700  1
  Se  Se54  1  0.21150300  0.87483300  0.02174500  1
  Se  Se55  1  0.35308700  0.37483300  0.66332900  1
  Se  Se56  1  0.49182100  0.10092700  0.34613700  1
  Se  Se57  1  0.61764900  0.75803100  0.78188200  1
  Se  Se58  1  0.16423300  0.38235100  0.14038200  1
  Se  Se59  1  0.62500000  0.52001300  0.39501300  1
  Se  Se60  1  0.49521000  0.64907300  0.89089400  1
  Se  Se61  1  0.25817900  0.14907300  0.15386300  1
  Se  Se62  1  0.97614900  0.83576700  0.21811800  1
  Se  Se63  1  0.89907300  0.24521000  0.39089400  1
  Se  Se64  1  0.63235100  0.91423300  0.64038200  1
  Se  Se65  1  0.00803100  0.36764900  0.28188200  1
  Se  Se66  1  0.13235100  0.49196900  0.71811800  1
  Se  Se67  1  0.75817900  0.60431600  0.10910600  1
  Se  Se68  1  0.11764900  0.33576700  0.85961800  1
  Se  Se69  1  0.12516700  0.14691300  0.33667100  1
  Se  Se70  1  0.62500000  0.02001300  0.89501300  1
  Se  Se71  1  0.77385100  0.41423300  0.28188200  1
  Se  Se72  1  0.89691300  0.06024200  0.52174500  1
  Se  Se73  1  0.81024200  0.78849700  0.66332900  1
  Se  Se74  1  0.43975800  0.60308700  0.47825500  1
  Se  Se75  1  0.25479000  0.60092700  0.60910600  1
  Se  Se76  1  0.53849700  0.37516700  0.47825500  1
  Se  Se77  1  0.77001300  0.37500000  0.89501300  1
  Se  Se78  1  0.85092700  0.00479000  0.10910600  1
  Se  Se79  1  0.03849700  0.56024200  0.16332900  1
  Se  Se80  1  0.39907300  0.00817900  0.65386300  1
  Se  Se81  1  0.39691300  0.87516700  0.83667100  1
  Se  Se82  1  0.99182100  0.64568400  0.39089400  1
  Se  Se83  1  0.27385100  0.99196900  0.35961800  1
  Se  Se84  1  0.93975800  0.46150300  0.83667100  1
  Se  Se85  1  0.12483300  0.96150300  0.52174500  1
  Se  Se86  1  0.99521000  0.10431600  0.84613700  1
  Se  Se87  1  0.71150300  0.68975800  0.33667100  1
  Se  Se88  1  0.47614900  0.25803100  0.14038200  1
  Se  Se89  1  0.74196900  0.88235100  0.21811800  1
  Se  Se90  1  0.58576700  0.86764900  0.35961800  1
  Se  Se91  1  0.12500000  0.22998700  0.60498700  1
  Se  Se92  1  0.08576700  0.72614900  0.71811800  1
  Se  Se93  1  0.85308700  0.18975800  0.97825500  1
  Se  Se94  1  0.85431600  0.50817900  0.60910600  1
  Se  Se95  1  0.35431600  0.74521000  0.34613700  1
  O  O96  1  0.25000000  0.75000000  0.50000000  1
  O  O97  1  0.00000000  0.00000000  0.00000000  1
  O  O98  1  0.75000000  0.25000000  0.50000000  1
  O  O99  1  0.50000000  0.50000000  0.00000000  1
