# generated using pymatgen
data_KBi6BrO9
_symmetry_space_group_name_H-M   'P 1'
_cell_length_a   15.16141495
_cell_length_b   15.16141495
_cell_length_c   15.16141495
_cell_angle_alpha   109.47122063
_cell_angle_beta   109.47122063
_cell_angle_gamma   109.47122063
_symmetry_Int_Tables_number   1
_chemical_formula_structural   KBi6BrO9
_chemical_formula_sum   'K8 Bi48 Br8 O72'
_cell_volume   2682.85567900
_cell_formula_units_Z   8
loop_
 _symmetry_equiv_pos_site_id
 _symmetry_equiv_pos_as_xyz
  1  'x, y, z'
loop_
 _atom_site_type_symbol
 _atom_site_label
 _atom_site_symmetry_multiplicity
 _atom_site_fract_x
 _atom_site_fract_y
 _atom_site_fract_z
 _atom_site_occupancy
  K  K0  1  0.00000000  0.50000000  0.50000000  1
  K  K1  1  0.00000000  0.50000000  0.00000000  1
  K  K2  1  0.00000000  0.00000000  0.50000000  1
  K  K3  1  0.50000000  0.00000000  0.00000000  1
  K  K4  1  0.50000000  0.50000000  0.50000000  1
  K  K5  1  0.50000000  0.00000000  0.50000000  1
  K  K6  1  0.00000000  0.00000000  0.00000000  1
  K  K7  1  0.50000000  0.50000000  0.00000000  1
  Bi  Bi8  1  0.01281300  0.25000000  0.26281300  1
  Bi  Bi9  1  0.75000000  0.26938700  0.23061300  1
  Bi  Bi10  1  0.25000000  0.48718700  0.23718700  1
  Bi  Bi11  1  0.51281300  0.25000000  0.76281300  1
  Bi  Bi12  1  0.25000000  0.98718700  0.73718700  1
  Bi  Bi13  1  0.51938700  0.26938700  0.53877500  1
  Bi  Bi14  1  0.98061300  0.51938700  0.75000000  1
  Bi  Bi15  1  0.48718700  0.75000000  0.23718700  1
  Bi  Bi16  1  0.73061300  0.76938700  0.25000000  1
  Bi  Bi17  1  0.48061300  0.25000000  0.01938700  1
  Bi  Bi18  1  0.26938700  0.23061300  0.75000000  1
  Bi  Bi19  1  0.75000000  0.51281300  0.76281300  1
  Bi  Bi20  1  0.75000000  0.01281300  0.26281300  1
  Bi  Bi21  1  0.98718700  0.73718700  0.25000000  1
  Bi  Bi22  1  0.26281300  0.01281300  0.25000000  1
  Bi  Bi23  1  0.53877500  0.51938700  0.26938700  1
  Bi  Bi24  1  0.76281300  0.51281300  0.25000000  1
  Bi  Bi25  1  0.73718700  0.98718700  0.75000000  1
  Bi  Bi26  1  0.26938700  0.53877500  0.51938700  1
  Bi  Bi27  1  0.75000000  0.98061300  0.51938700  1
  Bi  Bi28  1  0.26281300  0.75000000  0.01281300  1
  Bi  Bi29  1  0.46122500  0.48061300  0.73061300  1
  Bi  Bi30  1  0.75000000  0.23718700  0.48718700  1
  Bi  Bi31  1  0.75000000  0.73718700  0.98718700  1
  Bi  Bi32  1  0.23061300  0.75000000  0.26938700  1
  Bi  Bi33  1  0.76938700  0.01938700  0.03877500  1
  Bi  Bi34  1  0.25000000  0.26281300  0.01281300  1
  Bi  Bi35  1  0.98718700  0.75000000  0.73718700  1
  Bi  Bi36  1  0.25000000  0.01938700  0.48061300  1
  Bi  Bi37  1  0.01938700  0.03877500  0.76938700  1
  Bi  Bi38  1  0.51938700  0.75000000  0.98061300  1
  Bi  Bi39  1  0.73718700  0.25000000  0.98718700  1
  Bi  Bi40  1  0.23718700  0.25000000  0.48718700  1
  Bi  Bi41  1  0.51281300  0.76281300  0.75000000  1
  Bi  Bi42  1  0.01938700  0.48061300  0.25000000  1
  Bi  Bi43  1  0.98061300  0.96122500  0.23061300  1
  Bi  Bi44  1  0.73061300  0.46122500  0.48061300  1
  Bi  Bi45  1  0.25000000  0.73061300  0.76938700  1
  Bi  Bi46  1  0.76281300  0.75000000  0.51281300  1
  Bi  Bi47  1  0.48061300  0.73061300  0.46122500  1
  Bi  Bi48  1  0.25000000  0.76281300  0.51281300  1
  Bi  Bi49  1  0.96122500  0.23061300  0.98061300  1
  Bi  Bi50  1  0.01281300  0.26281300  0.75000000  1
  Bi  Bi51  1  0.23718700  0.48718700  0.75000000  1
  Bi  Bi52  1  0.76938700  0.25000000  0.73061300  1
  Bi  Bi53  1  0.03877500  0.76938700  0.01938700  1
  Bi  Bi54  1  0.48718700  0.23718700  0.25000000  1
  Bi  Bi55  1  0.23061300  0.98061300  0.96122500  1
  Br  Br56  1  0.50000000  0.00000000  0.25000000  1
  Br  Br57  1  0.25000000  0.50000000  0.00000000  1
  Br  Br58  1  0.50000000  0.00000000  0.75000000  1
  Br  Br59  1  0.75000000  0.75000000  0.75000000  1
  Br  Br60  1  0.00000000  0.25000000  0.50000000  1
  Br  Br61  1  0.25000000  0.25000000  0.25000000  1
  Br  Br62  1  0.75000000  0.50000000  0.00000000  1
  Br  Br63  1  0.00000000  0.75000000  0.50000000  1
  O  O64  1  0.43886300  0.58936600  0.65240200  1
  O  O65  1  0.58936600  0.65240200  0.43886300  1
  O  O66  1  0.28646100  0.93696400  0.34759800  1
  O  O67  1  0.89404000  0.78808000  0.14404000  1
  O  O68  1  0.06113700  0.84759800  0.91063400  1
  O  O69  1  0.41063400  0.34759800  0.56113700  1
  O  O70  1  0.71353900  0.15050300  0.06113700  1
  O  O71  1  0.85596000  0.10596000  0.21192000  1
  O  O72  1  0.78646100  0.43886300  0.34949700  1
  O  O73  1  0.21353900  0.56113700  0.65050300  1
  O  O74  1  0.14404000  0.89404000  0.78808000  1
  O  O75  1  0.93696400  0.34759800  0.28646100  1
  O  O76  1  0.41063400  0.56303600  0.84949700  1
  O  O77  1  0.39404000  0.64404000  0.28808100  1
  O  O78  1  0.28646100  0.84949700  0.93886300  1
  O  O79  1  0.43696400  0.15050300  0.58936600  1
  O  O80  1  0.58936600  0.43696400  0.15050300  1
  O  O81  1  0.15050300  0.58936600  0.43696400  1
  O  O82  1  0.93886300  0.28646100  0.84949700  1
  O  O83  1  0.15240200  0.08936600  0.93886300  1
  O  O84  1  0.15050300  0.06113700  0.71353900  1
  O  O85  1  0.65240200  0.43886300  0.58936600  1
  O  O86  1  0.85596000  0.25000000  0.64404000  1
  O  O87  1  0.84759800  0.91063400  0.06113700  1
  O  O88  1  0.21353900  0.15240200  0.56303600  1
  O  O89  1  0.15240200  0.56303600  0.21353900  1
  O  O90  1  0.75000000  0.35596000  0.14404000  1
  O  O91  1  0.43696400  0.78646100  0.84759800  1
  O  O92  1  0.14404000  0.75000000  0.35596000  1
  O  O93  1  0.65050300  0.93696400  0.08936600  1
  O  O94  1  0.89404000  0.60596000  0.75000000  1
  O  O95  1  0.84949700  0.41063400  0.56303600  1
  O  O96  1  0.64404000  0.85596000  0.25000000  1
  O  O97  1  0.71353900  0.06303600  0.65240200  1
  O  O98  1  0.43886300  0.34949700  0.78646100  1
  O  O99  1  0.34949700  0.06303600  0.91063400  1
  O  O100  1  0.93886300  0.15240200  0.08936600  1
  O  O101  1  0.78646100  0.84759800  0.43696400  1
  O  O102  1  0.35596000  0.71191900  0.60596000  1
  O  O103  1  0.84759800  0.43696400  0.78646100  1
  O  O104  1  0.25000000  0.64404000  0.85596000  1
  O  O105  1  0.06303600  0.91063400  0.34949700  1
  O  O106  1  0.10596000  0.21191900  0.85596000  1
  O  O107  1  0.06113700  0.71353900  0.15050300  1
  O  O108  1  0.08936600  0.93886300  0.15240200  1
  O  O109  1  0.65050300  0.21353900  0.56113700  1
  O  O110  1  0.25000000  0.10596000  0.39404000  1
  O  O111  1  0.56113700  0.41063400  0.34759800  1
  O  O112  1  0.56303600  0.84949700  0.41063400  1
  O  O113  1  0.08936600  0.65050300  0.93696400  1
  O  O114  1  0.56113700  0.65050300  0.21353900  1
  O  O115  1  0.84949700  0.93886300  0.28646100  1
  O  O116  1  0.65240200  0.71353900  0.06303600  1
  O  O117  1  0.10596000  0.39404000  0.25000000  1
  O  O118  1  0.34759800  0.56113700  0.41063400  1
  O  O119  1  0.60596000  0.75000000  0.89404000  1
  O  O120  1  0.56303600  0.21353900  0.15240200  1
  O  O121  1  0.06303600  0.65240200  0.71353900  1
  O  O122  1  0.60596000  0.35596000  0.71192000  1
  O  O123  1  0.28808000  0.39404000  0.64404000  1
  O  O124  1  0.21191900  0.85596000  0.10596000  1
  O  O125  1  0.64404000  0.28808000  0.39404000  1
  O  O126  1  0.39404000  0.25000000  0.10596000  1
  O  O127  1  0.91063400  0.06113700  0.84759800  1
  O  O128  1  0.71191900  0.60596000  0.35596000  1
  O  O129  1  0.78808000  0.14404000  0.89404000  1
  O  O130  1  0.91063400  0.34949700  0.06303600  1
  O  O131  1  0.75000000  0.89404000  0.60596000  1
  O  O132  1  0.34759800  0.28646100  0.93696400  1
  O  O133  1  0.93696400  0.08936600  0.65050300  1
  O  O134  1  0.34949700  0.78646100  0.43886300  1
  O  O135  1  0.35596000  0.14404000  0.75000000  1
