# generated using pymatgen
data_Rb3InP2
_symmetry_space_group_name_H-M   'P 1'
_cell_length_a   9.51241300
_cell_length_b   12.63846252
_cell_length_c   16.08613277
_cell_angle_alpha   97.10993156
_cell_angle_beta   106.92627174
_cell_angle_gamma   106.67749953
_symmetry_Int_Tables_number   1
_chemical_formula_structural   Rb3InP2
_chemical_formula_sum   'Rb24 In8 P16'
_cell_volume   1726.36003117
_cell_formula_units_Z   8
loop_
 _symmetry_equiv_pos_site_id
 _symmetry_equiv_pos_as_xyz
  1  'x, y, z'
loop_
 _atom_site_type_symbol
 _atom_site_label
 _atom_site_symmetry_multiplicity
 _atom_site_fract_x
 _atom_site_fract_y
 _atom_site_fract_z
 _atom_site_occupancy
  Rb  Rb0  1  0.68911700  0.11975500  0.52141500  1
  Rb  Rb1  1  0.14912900  0.58578200  0.47358200  1
  Rb  Rb2  1  0.39386100  0.39691800  0.35420600  1
  Rb  Rb3  1  0.31088300  0.88024500  0.47858500  1
  Rb  Rb4  1  0.60613900  0.60308200  0.64579400  1
  Rb  Rb5  1  0.46304500  0.42128200  0.80520200  1
  Rb  Rb6  1  0.07703800  0.39373200  0.08916000  1
  Rb  Rb7  1  0.58245700  0.93118300  0.74608000  1
  Rb  Rb8  1  0.78424800  0.41565900  0.24470500  1
  Rb  Rb9  1  0.83168500  0.92370700  0.34376400  1
  Rb  Rb10  1  0.01961200  0.26506300  0.82037800  1
  Rb  Rb11  1  0.60998000  0.12276100  0.08536900  1
  Rb  Rb12  1  0.98038800  0.73493700  0.17962200  1
  Rb  Rb13  1  0.41754300  0.06881700  0.25392000  1
  Rb  Rb14  1  0.85087100  0.41421800  0.52641800  1
  Rb  Rb15  1  0.33488900  0.74784100  0.11877000  1
  Rb  Rb16  1  0.53695500  0.57871800  0.19479800  1
  Rb  Rb17  1  0.01761400  0.09858000  0.19521800  1
  Rb  Rb18  1  0.92296200  0.60626800  0.91084000  1
  Rb  Rb19  1  0.98238600  0.90142000  0.80478200  1
  Rb  Rb20  1  0.66511100  0.25215900  0.88123000  1
  Rb  Rb21  1  0.39002000  0.87723900  0.91463100  1
  Rb  Rb22  1  0.16831500  0.07629300  0.65623600  1
  Rb  Rb23  1  0.21575200  0.58434100  0.75529500  1
  In  In24  1  0.43827500  0.28148300  0.57904700  1
  In  In25  1  0.07707200  0.23185500  0.44243700  1
  In  In26  1  0.17207700  0.10915000  0.01083600  1
  In  In27  1  0.92292800  0.76814500  0.55756300  1
  In  In28  1  0.57902100  0.64378600  0.99164200  1
  In  In29  1  0.82792300  0.89085000  0.98916400  1
  In  In30  1  0.56172500  0.71851700  0.42095300  1
  In  In31  1  0.42097900  0.35621400  0.00835800  1
  P  P32  1  0.27629700  0.12950100  0.43112500  1
  P  P33  1  0.63053000  0.72066300  0.85260900  1
  P  P34  1  0.28524300  0.51280200  0.96117000  1
  P  P35  1  0.12767300  0.90191700  0.03938000  1
  P  P36  1  0.76972300  0.62511400  0.40766300  1
  P  P37  1  0.70610900  0.33889400  0.68735900  1
  P  P38  1  0.18659700  0.80132100  0.66077500  1
  P  P39  1  0.31114000  0.15635100  0.89094700  1
  P  P40  1  0.68886000  0.84364900  0.10905300  1
  P  P41  1  0.87232700  0.09808300  0.96062000  1
  P  P42  1  0.23027700  0.37488600  0.59233700  1
  P  P43  1  0.71475700  0.48719800  0.03883000  1
  P  P44  1  0.72370300  0.87049900  0.56887500  1
  P  P45  1  0.81340300  0.19867900  0.33922500  1
  P  P46  1  0.29389100  0.66110600  0.31264100  1
  P  P47  1  0.36947000  0.27933700  0.14739100  1
