# generated using pymatgen
data_Cs4Cu3F10
_symmetry_space_group_name_H-M   'P 1'
_cell_length_a   7.78991186
_cell_length_b   7.78991186
_cell_length_c   8.10099596
_cell_angle_alpha   65.47671702
_cell_angle_beta   65.47671702
_cell_angle_gamma   47.65927977
_symmetry_Int_Tables_number   1
_chemical_formula_structural   Cs4Cu3F10
_chemical_formula_sum   'Cs4 Cu3 F10'
_cell_volume   323.80205884
_cell_formula_units_Z   1
loop_
 _symmetry_equiv_pos_site_id
 _symmetry_equiv_pos_as_xyz
  1  'x, y, z'
loop_
 _atom_site_type_symbol
 _atom_site_label
 _atom_site_symmetry_multiplicity
 _atom_site_fract_x
 _atom_site_fract_y
 _atom_site_fract_z
 _atom_site_occupancy
  Cs  Cs0  1  0.81292800  0.81292800  0.28425000  1
  Cs  Cs1  1  0.18707200  0.18707200  0.71575000  1
  Cs  Cs2  1  0.46496900  0.46496900  0.78533300  1
  Cs  Cs3  1  0.53503100  0.53503100  0.21466700  1
  Cu  Cu4  1  0.19775000  0.19775000  0.18291200  1
  Cu  Cu5  1  0.80225000  0.80225000  0.81708800  1
  Cu  Cu6  1  0.00000000  0.00000000  0.50000000  1
  F  F7  1  0.89715300  0.32245600  0.43540000  1
  F  F8  1  0.67836800  0.67836800  0.78073300  1
  F  F9  1  0.93554800  0.93554800  0.82911300  1
  F  F10  1  0.10284700  0.67754400  0.56460000  1
  F  F11  1  0.06445200  0.06445200  0.17088700  1
  F  F12  1  0.67754400  0.10284700  0.56460000  1
  F  F13  1  0.32245600  0.89715300  0.43540000  1
  F  F14  1  0.00000000  0.50000000  0.00000000  1
  F  F15  1  0.50000000  0.00000000  0.00000000  1
  F  F16  1  0.32163200  0.32163200  0.21926700  1
