# generated using pymatgen
data_K2PbO2
_symmetry_space_group_name_H-M   'P 1'
_cell_length_a   7.45422600
_cell_length_b   7.65825436
_cell_length_c   10.16413069
_cell_angle_alpha   85.13777645
_cell_angle_beta   110.07669314
_cell_angle_gamma   118.73063635
_symmetry_Int_Tables_number   1
_chemical_formula_structural   K2PbO2
_chemical_formula_sum   'K8 Pb4 O8'
_cell_volume   475.60850409
_cell_formula_units_Z   4
loop_
 _symmetry_equiv_pos_site_id
 _symmetry_equiv_pos_as_xyz
  1  'x, y, z'
loop_
 _atom_site_type_symbol
 _atom_site_label
 _atom_site_symmetry_multiplicity
 _atom_site_fract_x
 _atom_site_fract_y
 _atom_site_fract_z
 _atom_site_occupancy
  K  K0  1  0.23359800  0.72236700  0.50527300  1
  K  K1  1  0.08032400  0.07273000  0.82871200  1
  K  K2  1  0.93457500  0.45280400  0.16608500  1
  K  K3  1  0.91967600  0.92727000  0.17128800  1
  K  K4  1  0.60157200  0.56617500  0.85964200  1
  K  K5  1  0.06542500  0.54719600  0.83391500  1
  K  K6  1  0.39842800  0.43382500  0.14035800  1
  K  K7  1  0.76640200  0.27763300  0.49472700  1
  Pb  Pb8  1  0.59863500  0.05864200  0.86799400  1
  Pb  Pb9  1  0.29854200  0.28539300  0.52506900  1
  Pb  Pb10  1  0.70145800  0.71460700  0.47493100  1
  Pb  Pb11  1  0.40136500  0.94135800  0.13200600  1
  O  O12  1  0.49854100  0.20226100  0.99373500  1
  O  O13  1  0.81255300  0.60088200  0.35059400  1
  O  O14  1  0.94174100  0.21713900  0.98250300  1
  O  O15  1  0.50145900  0.79773900  0.00626500  1
  O  O16  1  0.05825900  0.78286100  0.01749700  1
  O  O17  1  0.18744700  0.39911800  0.64940600  1
  O  O18  1  0.66425500  0.48232000  0.63138400  1
  O  O19  1  0.33574500  0.51768000  0.36861600  1
