# generated using pymatgen
data_La5Sn3
_symmetry_space_group_name_H-M   'P 1'
_cell_length_a   9.62073755
_cell_length_b   9.62073755
_cell_length_c   9.62073755
_cell_angle_alpha   96.27983969
_cell_angle_beta   96.27983969
_cell_angle_gamma   141.37341118
_symmetry_Int_Tables_number   1
_chemical_formula_structural   La5Sn3
_chemical_formula_sum   'La10 Sn6'
_cell_volume   524.59402235
_cell_formula_units_Z   2
loop_
 _symmetry_equiv_pos_site_id
 _symmetry_equiv_pos_as_xyz
  1  'x, y, z'
loop_
 _atom_site_type_symbol
 _atom_site_label
 _atom_site_symmetry_multiplicity
 _atom_site_fract_x
 _atom_site_fract_y
 _atom_site_fract_z
 _atom_site_occupancy
  La  La0  1  0.75000000  0.25000000  0.50000000  1
  La  La1  1  0.25000000  0.75000000  0.50000000  1
  La  La2  1  0.91444400  0.21699200  0.13143600  1
  La  La3  1  0.21699200  0.08555600  0.30254800  1
  La  La4  1  0.78300800  0.91444400  0.69745200  1
  La  La5  1  0.08555600  0.78300800  0.86856400  1
  La  La6  1  0.71699200  0.41444400  0.13143600  1
  La  La7  1  0.28300800  0.58555600  0.86856400  1
  La  La8  1  0.58555600  0.71699200  0.30254800  1
  La  La9  1  0.41444400  0.28300800  0.69745200  1
  Sn  Sn10  1  0.75000000  0.75000000  0.00000000  1
  Sn  Sn11  1  0.25000000  0.25000000  0.00000000  1
  Sn  Sn12  1  0.83987800  0.66012200  0.50000000  1
  Sn  Sn13  1  0.66012200  0.16012200  0.82024400  1
  Sn  Sn14  1  0.33987800  0.83987800  0.17975600  1
  Sn  Sn15  1  0.16012200  0.33987800  0.50000000  1
