# generated using pymatgen
data_Nb2P
_symmetry_space_group_name_H-M   'P 1'
_cell_length_a   3.46452100
_cell_length_b   13.93145600
_cell_length_c   18.11292600
_cell_angle_alpha   90.00000000
_cell_angle_beta   90.00000000
_cell_angle_gamma   90.00000000
_symmetry_Int_Tables_number   1
_chemical_formula_structural   Nb2P
_chemical_formula_sum   'Nb36 P18'
_cell_volume   874.23525991
_cell_formula_units_Z   18
loop_
 _symmetry_equiv_pos_site_id
 _symmetry_equiv_pos_as_xyz
  1  'x, y, z'
loop_
 _atom_site_type_symbol
 _atom_site_label
 _atom_site_symmetry_multiplicity
 _atom_site_fract_x
 _atom_site_fract_y
 _atom_site_fract_z
 _atom_site_occupancy
  Nb  Nb0  1  0.00000000  0.34348500  0.06220000  1
  Nb  Nb1  1  0.00000000  0.65651500  0.93780000  1
  Nb  Nb2  1  0.00000000  0.34348500  0.43780000  1
  Nb  Nb3  1  0.00000000  0.65651500  0.56220000  1
  Nb  Nb4  1  0.00000000  0.56978400  0.12069500  1
  Nb  Nb5  1  0.00000000  0.43021600  0.87930500  1
  Nb  Nb6  1  0.00000000  0.56978400  0.37930500  1
  Nb  Nb7  1  0.00000000  0.43021600  0.62069500  1
  Nb  Nb8  1  0.50000000  0.16187900  0.00107400  1
  Nb  Nb9  1  0.50000000  0.83812100  0.99892600  1
  Nb  Nb10  1  0.50000000  0.16187900  0.49892600  1
  Nb  Nb11  1  0.50000000  0.83812100  0.50107400  1
  Nb  Nb12  1  0.50000000  0.00335700  0.14162900  1
  Nb  Nb13  1  0.50000000  0.99664300  0.85837100  1
  Nb  Nb14  1  0.50000000  0.00335700  0.35837100  1
  Nb  Nb15  1  0.50000000  0.99664300  0.64162900  1
  Nb  Nb16  1  0.50000000  0.24000400  0.16534900  1
  Nb  Nb17  1  0.50000000  0.75999600  0.83465100  1
  Nb  Nb18  1  0.50000000  0.24000400  0.33465100  1
  Nb  Nb19  1  0.50000000  0.75999600  0.66534900  1
  Nb  Nb20  1  0.50000000  0.23851500  0.66235500  1
  Nb  Nb21  1  0.50000000  0.76148500  0.33764500  1
  Nb  Nb22  1  0.50000000  0.23851500  0.83764500  1
  Nb  Nb23  1  0.50000000  0.76148500  0.16235500  1
  Nb  Nb24  1  0.00000000  0.11650100  0.25000000  1
  Nb  Nb25  1  0.00000000  0.88349900  0.75000000  1
  Nb  Nb26  1  0.00000000  0.38600500  0.25000000  1
  Nb  Nb27  1  0.00000000  0.61399500  0.75000000  1
  Nb  Nb28  1  0.00000000  0.88853300  0.25000000  1
  Nb  Nb29  1  0.00000000  0.11146700  0.75000000  1
  Nb  Nb30  1  0.50000000  0.56094000  0.25000000  1
  Nb  Nb31  1  0.50000000  0.43906000  0.75000000  1
  Nb  Nb32  1  0.50000000  0.50000000  0.00000000  1
  Nb  Nb33  1  0.50000000  0.50000000  0.50000000  1
  Nb  Nb34  1  0.00000000  0.00000000  0.00000000  1
  Nb  Nb35  1  0.00000000  0.00000000  0.50000000  1
  P  P36  1  0.00000000  0.13651500  0.10376100  1
  P  P37  1  0.00000000  0.86348500  0.89623900  1
  P  P38  1  0.00000000  0.13651500  0.39623900  1
  P  P39  1  0.00000000  0.86348500  0.60376100  1
  P  P40  1  0.00000000  0.12794100  0.60422300  1
  P  P41  1  0.00000000  0.87205900  0.39577700  1
  P  P42  1  0.00000000  0.12794100  0.89577700  1
  P  P43  1  0.00000000  0.87205900  0.10422300  1
  P  P44  1  0.50000000  0.43153200  0.14393800  1
  P  P45  1  0.50000000  0.56846800  0.85606200  1
  P  P46  1  0.50000000  0.43153200  0.35606200  1
  P  P47  1  0.50000000  0.56846800  0.64393800  1
  P  P48  1  0.50000000  0.32951300  0.54526700  1
  P  P49  1  0.50000000  0.67048700  0.45473300  1
  P  P50  1  0.50000000  0.32951300  0.95473300  1
  P  P51  1  0.50000000  0.67048700  0.04526700  1
  P  P52  1  0.00000000  0.69029900  0.25000000  1
  P  P53  1  0.00000000  0.30970100  0.75000000  1
