# generated using pymatgen
data_K(TeO3)2
_symmetry_space_group_name_H-M   'P 1'
_cell_length_a   7.29685761
_cell_length_b   7.29685761
_cell_length_c   12.19687344
_cell_angle_alpha   76.16810851
_cell_angle_beta   76.16810851
_cell_angle_gamma   60.58597265
_symmetry_Int_Tables_number   1
_chemical_formula_structural   K(TeO3)2
_chemical_formula_sum   'K4 Te8 O24'
_cell_volume   543.58232447
_cell_formula_units_Z   4
loop_
 _symmetry_equiv_pos_site_id
 _symmetry_equiv_pos_as_xyz
  1  'x, y, z'
loop_
 _atom_site_type_symbol
 _atom_site_label
 _atom_site_symmetry_multiplicity
 _atom_site_fract_x
 _atom_site_fract_y
 _atom_site_fract_z
 _atom_site_occupancy
  K  K0  1  0.56679300  0.56679300  0.30779200  1
  K  K1  1  0.43320700  0.43320700  0.69220800  1
  K  K2  1  0.91756800  0.91756800  0.18373000  1
  K  K3  1  0.08243100  0.08243100  0.81627000  1
  Te  Te4  1  0.00000000  0.00000000  0.50000000  1
  Te  Te5  1  0.26417000  0.26417000  0.25775400  1
  Te  Te6  1  0.50000000  0.50000000  0.00000000  1
  Te  Te7  1  0.73583000  0.73583000  0.74224600  1
  Te  Te8  1  0.50000000  0.00000000  0.50000000  1
  Te  Te9  1  0.00000000  0.50000000  0.00000000  1
  Te  Te10  1  0.50000000  0.00000000  0.00000000  1
  Te  Te11  1  0.00000000  0.50000000  0.50000000  1
  O  O12  1  0.99650800  0.99650800  0.65120500  1
  O  O13  1  0.25918000  0.25918000  0.55908400  1
  O  O14  1  0.19317100  0.19317100  0.01785300  1
  O  O15  1  0.80682900  0.80682900  0.98214700  1
  O  O16  1  0.91482800  0.31795300  0.45514300  1
  O  O17  1  0.00775100  0.50010900  0.84310700  1
  O  O18  1  0.68204700  0.08517200  0.54485700  1
  O  O19  1  0.14732900  0.51892600  0.34472100  1
  O  O20  1  0.08517200  0.68204700  0.54485700  1
  O  O21  1  0.22353100  0.60075300  0.95395500  1
  O  O22  1  0.48107400  0.85267100  0.65527900  1
  O  O23  1  0.49989100  0.99224900  0.15689300  1
  O  O24  1  0.39924700  0.77646900  0.04604500  1
  O  O25  1  0.58272200  0.58272200  0.83904300  1
  O  O26  1  0.50010900  0.00775100  0.84310700  1
  O  O27  1  0.60075300  0.22353100  0.95395500  1
  O  O28  1  0.74082000  0.74082000  0.44091600  1
  O  O29  1  0.85267100  0.48107400  0.65527900  1
  O  O30  1  0.41727800  0.41727800  0.16095700  1
  O  O31  1  0.99224900  0.49989100  0.15689300  1
  O  O32  1  0.77646900  0.39924700  0.04604500  1
  O  O33  1  0.51892600  0.14732900  0.34472100  1
  O  O34  1  0.00349200  0.00349200  0.34879500  1
  O  O35  1  0.31795300  0.91482800  0.45514300  1
