# generated using pymatgen
data_TaPbF7
_symmetry_space_group_name_H-M   'P 1'
_cell_length_a   7.43392900
_cell_length_b   4.99580800
_cell_length_c   6.89135022
_cell_angle_alpha   85.97904932
_cell_angle_beta   90.00000000
_cell_angle_gamma   90.00000000
_symmetry_Int_Tables_number   1
_chemical_formula_structural   TaPbF7
_chemical_formula_sum   'Ta2 Pb2 F14'
_cell_volume   255.30429765
_cell_formula_units_Z   2
loop_
 _symmetry_equiv_pos_site_id
 _symmetry_equiv_pos_as_xyz
  1  'x, y, z'
loop_
 _atom_site_type_symbol
 _atom_site_label
 _atom_site_symmetry_multiplicity
 _atom_site_fract_x
 _atom_site_fract_y
 _atom_site_fract_z
 _atom_site_occupancy
  Ta  Ta0  1  0.75000000  0.53365400  0.78234200  1
  Ta  Ta1  1  0.25000000  0.46634600  0.21765800  1
  Pb  Pb2  1  0.25000000  0.01445300  0.68361900  1
  Pb  Pb3  1  0.75000000  0.98554700  0.31638100  1
  F  F4  1  0.25000000  0.64532700  0.94936200  1
  F  F5  1  0.46947700  0.67338200  0.21130700  1
  F  F6  1  0.96947700  0.32661800  0.78869300  1
  F  F7  1  0.57856900  0.80094800  0.64119800  1
  F  F8  1  0.75000000  0.40482800  0.51208900  1
  F  F9  1  0.25000000  0.59517200  0.48791100  1
  F  F10  1  0.75000000  0.35467300  0.05063800  1
  F  F11  1  0.92143100  0.80094800  0.64119800  1
  F  F12  1  0.42143100  0.19905200  0.35880200  1
  F  F13  1  0.25000000  0.17100600  0.04921300  1
  F  F14  1  0.07856900  0.19905200  0.35880200  1
  F  F15  1  0.53052300  0.32661800  0.78869300  1
  F  F16  1  0.75000000  0.82899400  0.95078700  1
  F  F17  1  0.03052300  0.67338200  0.21130700  1
