# generated using pymatgen
data_Ca3Cr3(PO4)4
_symmetry_space_group_name_H-M   'P 1'
_cell_length_a   9.09631200
_cell_length_b   9.14079408
_cell_length_c   10.02109039
_cell_angle_alpha   104.82262514
_cell_angle_beta   106.23175431
_cell_angle_gamma   109.88760553
_symmetry_Int_Tables_number   1
_chemical_formula_structural   Ca3Cr3(PO4)4
_chemical_formula_sum   'Ca6 Cr6 P8 O32'
_cell_volume   693.15789316
_cell_formula_units_Z   2
loop_
 _symmetry_equiv_pos_site_id
 _symmetry_equiv_pos_as_xyz
  1  'x, y, z'
loop_
 _atom_site_type_symbol
 _atom_site_label
 _atom_site_symmetry_multiplicity
 _atom_site_fract_x
 _atom_site_fract_y
 _atom_site_fract_z
 _atom_site_occupancy
  Ca  Ca0  1  0.67750800  0.65050300  0.21093200  1
  Ca  Ca1  1  0.52047800  0.00008600  0.80031900  1
  Ca  Ca2  1  0.32249200  0.34949700  0.78906800  1
  Ca  Ca3  1  0.47952200  0.99991400  0.19968100  1
  Ca  Ca4  1  0.27146800  0.28445500  0.29237700  1
  Ca  Ca5  1  0.72853200  0.71554500  0.70762300  1
  Cr  Cr6  1  0.94173000  0.18980500  0.41647700  1
  Cr  Cr7  1  0.04957900  0.80335800  0.11189400  1
  Cr  Cr8  1  0.05827000  0.81019500  0.58352300  1
  Cr  Cr9  1  0.04693500  0.51744200  0.26999300  1
  Cr  Cr10  1  0.95042100  0.19664200  0.88810700  1
  Cr  Cr11  1  0.95306500  0.48255800  0.73000700  1
  P  P12  1  0.73263100  0.42052500  0.39112400  1
  P  P13  1  0.26736900  0.57947500  0.60887600  1
  P  P14  1  0.81201000  0.98915300  0.07490200  1
  P  P15  1  0.75917000  0.44085600  0.94302800  1
  P  P16  1  0.24083000  0.55914400  0.05697200  1
  P  P17  1  0.26291800  0.06236800  0.48385000  1
  P  P18  1  0.18799000  0.01084700  0.92509800  1
  P  P19  1  0.73708200  0.93763200  0.51615000  1
  O  O20  1  0.36791800  0.03364400  0.94675500  1
  O  O21  1  0.62751700  0.88506200  0.34690500  1
  O  O22  1  0.55736400  0.40913400  0.30396100  1
  O  O23  1  0.08791600  0.43508400  0.89888800  1
  O  O24  1  0.82479600  0.81499900  0.51492200  1
  O  O25  1  0.12472700  0.87462400  0.41461900  1
  O  O26  1  0.59548000  0.43080000  0.95997600  1
  O  O27  1  0.75990100  0.26569000  0.90111200  1
  O  O28  1  0.84129100  0.84317900  0.11333400  1
  O  O29  1  0.13074700  0.46070300  0.64814400  1
  O  O30  1  0.86925300  0.53929700  0.35185600  1
  O  O31  1  0.78553600  0.50544100  0.56375700  1
  O  O32  1  0.17520400  0.18500100  0.48507800  1
  O  O33  1  0.20607300  0.47673800  0.16950800  1
  O  O34  1  0.79392700  0.52326200  0.83049200  1
  O  O35  1  0.21446400  0.49455900  0.43624300  1
  O  O36  1  0.91208400  0.56491600  0.10111200  1
  O  O37  1  0.63208200  0.96635600  0.05324500  1
  O  O38  1  0.17432700  0.02051500  0.08018600  1
  O  O39  1  0.95424900  0.16238000  0.20242700  1
  O  O40  1  0.37248300  0.11493800  0.65309500  1
  O  O41  1  0.82567300  0.97948500  0.91981400  1
  O  O42  1  0.26597300  0.75394700  0.64727200  1
  O  O43  1  0.63723200  0.90769300  0.61628900  1
  O  O44  1  0.24009900  0.73430900  0.09888800  1
  O  O45  1  0.04575100  0.83762000  0.79757300  1
  O  O46  1  0.44263600  0.59086600  0.69603900  1
  O  O47  1  0.73402700  0.24605300  0.35272800  1
  O  O48  1  0.15870900  0.15682100  0.88666600  1
  O  O49  1  0.40452000  0.56920000  0.04002400  1
  O  O50  1  0.36276800  0.09230700  0.38371100  1
  O  O51  1  0.87527300  0.12537600  0.58538100  1
