# generated using pymatgen
data_Dy3S3N
_symmetry_space_group_name_H-M   'P 1'
_cell_length_a   3.82922900
_cell_length_b   11.93909700
_cell_length_c   12.90313400
_cell_angle_alpha   90.00000000
_cell_angle_beta   90.00000000
_cell_angle_gamma   90.00000000
_symmetry_Int_Tables_number   1
_chemical_formula_structural   Dy3S3N
_chemical_formula_sum   'Dy12 S12 N4'
_cell_volume   589.89949917
_cell_formula_units_Z   4
loop_
 _symmetry_equiv_pos_site_id
 _symmetry_equiv_pos_as_xyz
  1  'x, y, z'
loop_
 _atom_site_type_symbol
 _atom_site_label
 _atom_site_symmetry_multiplicity
 _atom_site_fract_x
 _atom_site_fract_y
 _atom_site_fract_z
 _atom_site_occupancy
  Dy  Dy0  1  0.25000000  0.71295500  0.36028000  1
  Dy  Dy1  1  0.75000000  0.93173100  0.63213900  1
  Dy  Dy2  1  0.75000000  0.78704500  0.86028000  1
  Dy  Dy3  1  0.75000000  0.43173100  0.86786100  1
  Dy  Dy4  1  0.75000000  0.95420300  0.14300900  1
  Dy  Dy5  1  0.25000000  0.21295500  0.13972000  1
  Dy  Dy6  1  0.75000000  0.45420300  0.35699100  1
  Dy  Dy7  1  0.25000000  0.06826900  0.36786100  1
  Dy  Dy8  1  0.75000000  0.28704500  0.63972000  1
  Dy  Dy9  1  0.25000000  0.54579700  0.64300900  1
  Dy  Dy10  1  0.25000000  0.04579700  0.85699100  1
  Dy  Dy11  1  0.25000000  0.56826900  0.13213900  1
  S  S12  1  0.75000000  0.63418000  0.49149400  1
  S  S13  1  0.75000000  0.13418000  0.00850600  1
  S  S14  1  0.25000000  0.59187600  0.90077300  1
  S  S15  1  0.75000000  0.72624800  0.19280800  1
  S  S16  1  0.75000000  0.90812400  0.40077300  1
  S  S17  1  0.25000000  0.77375200  0.69280800  1
  S  S18  1  0.75000000  0.40812400  0.09922700  1
  S  S19  1  0.25000000  0.09187600  0.59922700  1
  S  S20  1  0.25000000  0.27375200  0.80719200  1
  S  S21  1  0.25000000  0.86582000  0.99149400  1
  S  S22  1  0.25000000  0.36582000  0.50850600  1
  S  S23  1  0.75000000  0.22624800  0.30719200  1
  N  N24  1  0.25000000  0.53641500  0.29830800  1
  N  N25  1  0.75000000  0.96358500  0.79830800  1
  N  N26  1  0.25000000  0.03641500  0.20169200  1
  N  N27  1  0.75000000  0.46358500  0.70169200  1
