# generated using pymatgen
data_NaSb3(PO5)2
_symmetry_space_group_name_H-M   'P 1'
_cell_length_a   6.77785000
_cell_length_b   14.24831700
_cell_length_c   21.37760200
_cell_angle_alpha   90.00000000
_cell_angle_beta   90.00000000
_cell_angle_gamma   90.00000000
_symmetry_Int_Tables_number   1
_chemical_formula_structural   NaSb3(PO5)2
_chemical_formula_sum   'Na8 Sb24 P16 O80'
_cell_volume   2064.49820404
_cell_formula_units_Z   8
loop_
 _symmetry_equiv_pos_site_id
 _symmetry_equiv_pos_as_xyz
  1  'x, y, z'
loop_
 _atom_site_type_symbol
 _atom_site_label
 _atom_site_symmetry_multiplicity
 _atom_site_fract_x
 _atom_site_fract_y
 _atom_site_fract_z
 _atom_site_occupancy
  Na  Na0  1  0.18395000  0.88657300  0.56188600  1
  Na  Na1  1  0.69828800  0.36975500  0.36590600  1
  Na  Na2  1  0.30171200  0.63024500  0.86590600  1
  Na  Na3  1  0.69828800  0.13024500  0.86590600  1
  Na  Na4  1  0.81605000  0.11342700  0.06188600  1
  Na  Na5  1  0.30171200  0.86975500  0.36590600  1
  Na  Na6  1  0.18395000  0.61342700  0.06188600  1
  Na  Na7  1  0.81605000  0.38657300  0.56188600  1
  Sb  Sb8  1  0.46502200  0.64049400  0.20828700  1
  Sb  Sb9  1  0.29481400  0.26788700  0.50301300  1
  Sb  Sb10  1  0.98935400  0.10802500  0.71843300  1
  Sb  Sb11  1  0.64109300  0.48985100  0.08484600  1
  Sb  Sb12  1  0.29481400  0.23211300  0.00301300  1
  Sb  Sb13  1  0.70518600  0.73211300  0.00301300  1
  Sb  Sb14  1  0.98935400  0.39197500  0.21843300  1
  Sb  Sb15  1  0.53497800  0.35950600  0.70828700  1
  Sb  Sb16  1  0.46502200  0.85950600  0.70828700  1
  Sb  Sb17  1  0.01064600  0.60802500  0.71843300  1
  Sb  Sb18  1  0.78744800  0.98961700  0.42582300  1
  Sb  Sb19  1  0.21255200  0.01038300  0.92582300  1
  Sb  Sb20  1  0.01064600  0.89197500  0.21843300  1
  Sb  Sb21  1  0.78744800  0.51038300  0.92582300  1
  Sb  Sb22  1  0.35890700  0.98985100  0.08484600  1
  Sb  Sb23  1  0.84034600  0.74394200  0.34410600  1
  Sb  Sb24  1  0.53497800  0.14049400  0.20828700  1
  Sb  Sb25  1  0.21255200  0.48961700  0.42582300  1
  Sb  Sb26  1  0.15965400  0.25605800  0.84410600  1
  Sb  Sb27  1  0.84034600  0.75605800  0.84410600  1
  Sb  Sb28  1  0.70518600  0.76788700  0.50301300  1
  Sb  Sb29  1  0.64109300  0.01014900  0.58484600  1
  Sb  Sb30  1  0.35890700  0.51014900  0.58484600  1
  Sb  Sb31  1  0.15965400  0.24394200  0.34410600  1
  P  P32  1  0.30488400  0.03653200  0.46237000  1
  P  P33  1  0.96544600  0.60524500  0.19117500  1
  P  P34  1  0.51589900  0.64376000  0.73595600  1
  P  P35  1  0.18948500  0.78050300  0.96592800  1
  P  P36  1  0.48410100  0.14376000  0.73595600  1
  P  P37  1  0.81051500  0.28050300  0.96592800  1
  P  P38  1  0.03455400  0.10524500  0.19117500  1
  P  P39  1  0.48410100  0.35624000  0.23595600  1
  P  P40  1  0.69511600  0.96346800  0.96237000  1
  P  P41  1  0.51589900  0.85624000  0.23595600  1
  P  P42  1  0.96544600  0.89475500  0.69117500  1
  P  P43  1  0.30488400  0.46346800  0.96237000  1
  P  P44  1  0.69511600  0.53653200  0.46237000  1
  P  P45  1  0.18948500  0.71949700  0.46592800  1
  P  P46  1  0.03455400  0.39475500  0.69117500  1
  P  P47  1  0.81051500  0.21949700  0.46592800  1
  O  O48  1  0.55891500  0.80709500  0.29950400  1
  O  O49  1  0.07716600  0.44786600  0.62906600  1
  O  O50  1  0.12477200  0.72606800  0.39633200  1
  O  O51  1  0.87522800  0.22606800  0.39633200  1
  O  O52  1  0.46732000  0.72105500  0.68516100  1
  O  O53  1  0.24710700  0.17421400  0.91721200  1
  O  O54  1  0.66612000  0.42099200  0.24309500  1
  O  O55  1  0.02771700  0.75728100  0.51144100  1
  O  O56  1  0.50491500  0.10064400  0.11987500  1
  O  O57  1  0.97228300  0.25728100  0.51144100  1
  O  O58  1  0.87522800  0.27393200  0.89633200  1
  O  O59  1  0.44108500  0.30709500  0.29950400  1
  O  O60  1  0.00070400  0.96997400  0.74428700  1
  O  O61  1  0.84511800  0.33536600  0.68245500  1
  O  O62  1  0.46601900  0.99794300  0.41716200  1
  O  O63  1  0.69117700  0.91590500  0.21251500  1
  O  O64  1  0.00836900  0.14860200  0.80700600  1
  O  O65  1  0.26070700  0.06820400  0.01186400  1
  O  O66  1  0.24710700  0.32578600  0.41721200  1
  O  O67  1  0.99163100  0.64860200  0.80700600  1
  O  O68  1  0.63398600  0.52757000  0.53229800  1
  O  O69  1  0.33388000  0.92099200  0.24309500  1
  O  O70  1  0.15488200  0.83536600  0.68245500  1
  O  O71  1  0.79569500  0.82891700  0.71061700  1
  O  O72  1  0.99929600  0.46997400  0.74428700  1
  O  O73  1  0.62463300  0.21927700  0.97587500  1
  O  O74  1  0.30882300  0.41590500  0.21251500  1
  O  O75  1  0.92283400  0.55213400  0.12906600  1
  O  O76  1  0.26894700  0.14239600  0.44684700  1
  O  O77  1  0.23380900  0.61437300  0.48271800  1
  O  O78  1  0.69117700  0.58409500  0.71251500  1
  O  O79  1  0.79569500  0.67108300  0.21061700  1
  O  O80  1  0.00070400  0.53002600  0.24428700  1
  O  O81  1  0.37536700  0.78072300  0.47587500  1
  O  O82  1  0.49508500  0.60064400  0.11987500  1
  O  O83  1  0.84511800  0.16463400  0.18245500  1
  O  O84  1  0.26894700  0.35760400  0.94684700  1
  O  O85  1  0.20430500  0.32891700  0.71061700  1
  O  O86  1  0.11728000  0.52280600  0.95164000  1
  O  O87  1  0.23380900  0.88562700  0.98271800  1
  O  O88  1  0.62463300  0.28072300  0.47587500  1
  O  O89  1  0.02771700  0.74271900  0.01144100  1
  O  O90  1  0.73929300  0.56820400  0.01186400  1
  O  O91  1  0.37536700  0.71927700  0.97587500  1
  O  O92  1  0.75289300  0.82578600  0.41721200  1
  O  O93  1  0.50491500  0.39935600  0.61987500  1
  O  O94  1  0.49508500  0.89935600  0.61987500  1
  O  O95  1  0.11728000  0.97719400  0.45164000  1
  O  O96  1  0.53268000  0.27894500  0.18516100  1
  O  O97  1  0.26070700  0.43179600  0.51186400  1
  O  O98  1  0.44108500  0.19290500  0.79950400  1
  O  O99  1  0.46732000  0.77894500  0.18516100  1
  O  O100  1  0.00836900  0.35139800  0.30700600  1
  O  O101  1  0.73105300  0.64239600  0.44684700  1
  O  O102  1  0.30882300  0.08409500  0.71251500  1
  O  O103  1  0.99163100  0.85139800  0.30700600  1
  O  O104  1  0.66612000  0.07900800  0.74309500  1
  O  O105  1  0.99929600  0.03002600  0.24428700  1
  O  O106  1  0.36601400  0.02757000  0.53229800  1
  O  O107  1  0.63398600  0.97243000  0.03229800  1
  O  O108  1  0.20430500  0.17108300  0.21061700  1
  O  O109  1  0.88272000  0.02280600  0.95164000  1
  O  O110  1  0.88272000  0.47719400  0.45164000  1
  O  O111  1  0.53398100  0.49794300  0.41716200  1
  O  O112  1  0.46601900  0.50205700  0.91716200  1
  O  O113  1  0.36601400  0.47243000  0.03229800  1
  O  O114  1  0.97228300  0.24271900  0.01144100  1
  O  O115  1  0.53398100  0.00205700  0.91716200  1
  O  O116  1  0.53268000  0.22105500  0.68516100  1
  O  O117  1  0.73929300  0.93179600  0.51186400  1
  O  O118  1  0.55891500  0.69290500  0.79950400  1
  O  O119  1  0.76619100  0.38562700  0.98271800  1
  O  O120  1  0.92283400  0.94786600  0.62906600  1
  O  O121  1  0.33388000  0.57900800  0.74309500  1
  O  O122  1  0.12477200  0.77393200  0.89633200  1
  O  O123  1  0.15488200  0.66463400  0.18245500  1
  O  O124  1  0.76619100  0.11437300  0.48271800  1
  O  O125  1  0.75289300  0.67421400  0.91721200  1
  O  O126  1  0.07716600  0.05213400  0.12906600  1
  O  O127  1  0.73105300  0.85760400  0.94684700  1
