# generated using pymatgen
data_LiUP(H4O5)2
_symmetry_space_group_name_H-M   'P 1'
_cell_length_a   6.98057400
_cell_length_b   6.98057400
_cell_length_c   9.26482900
_cell_angle_alpha   90.00000000
_cell_angle_beta   90.00000000
_cell_angle_gamma   90.00000000
_symmetry_Int_Tables_number   1
_chemical_formula_structural   LiUP(H4O5)2
_chemical_formula_sum   'Li2 U2 P2 H16 O20'
_cell_volume   451.46041731
_cell_formula_units_Z   2
loop_
 _symmetry_equiv_pos_site_id
 _symmetry_equiv_pos_as_xyz
  1  'x, y, z'
loop_
 _atom_site_type_symbol
 _atom_site_label
 _atom_site_symmetry_multiplicity
 _atom_site_fract_x
 _atom_site_fract_y
 _atom_site_fract_z
 _atom_site_occupancy
  Li  Li0  1  0.00000000  0.00000000  0.50000000  1
  Li  Li1  1  0.50000000  0.50000000  0.50000000  1
  U  U2  1  0.50000000  0.00000000  0.09868900  1
  U  U3  1  0.00000000  0.50000000  0.90131100  1
  P  P4  1  0.00000000  0.00000000  0.00000000  1
  P  P5  1  0.50000000  0.50000000  0.00000000  1
  H  H6  1  0.58825300  0.33022200  0.72885200  1
  H  H7  1  0.17026300  0.35393200  0.37974600  1
  H  H8  1  0.64606800  0.17026300  0.62025400  1
  H  H9  1  0.91174700  0.16977800  0.27114800  1
  H  H10  1  0.14606800  0.67026300  0.37974600  1
  H  H11  1  0.16977800  0.08825300  0.72885200  1
  H  H12  1  0.83022200  0.91174700  0.72885200  1
  H  H13  1  0.67026300  0.85393200  0.62025400  1
  H  H14  1  0.41174700  0.66977800  0.72885200  1
  H  H15  1  0.85393200  0.32973700  0.37974600  1
  H  H16  1  0.32973700  0.14606800  0.62025400  1
  H  H17  1  0.33022200  0.41174700  0.27114800  1
  H  H18  1  0.08825300  0.83022200  0.27114800  1
  H  H19  1  0.66977800  0.58825300  0.27114800  1
  H  H20  1  0.35393200  0.82973700  0.62025400  1
  H  H21  1  0.82973700  0.64606800  0.37974600  1
  O  O22  1  0.45331000  0.32824600  0.10064100  1
  O  O23  1  0.50000000  0.00000000  0.90325200  1
  O  O24  1  0.17175400  0.95331000  0.10064100  1
  O  O25  1  0.54669000  0.67175400  0.10064100  1
  O  O26  1  0.44125600  0.71839300  0.63104400  1
  O  O27  1  0.67175400  0.45331000  0.89935900  1
  O  O28  1  0.78160700  0.94125600  0.63104400  1
  O  O29  1  0.00000000  0.50000000  0.09674800  1
  O  O30  1  0.55874400  0.28160700  0.63104400  1
  O  O31  1  0.21839300  0.05874400  0.63104400  1
  O  O32  1  0.82824600  0.04669000  0.10064100  1
  O  O33  1  0.00000000  0.50000000  0.70549200  1
  O  O34  1  0.50000000  0.00000000  0.29450800  1
  O  O35  1  0.71839300  0.55874400  0.36895600  1
  O  O36  1  0.94125600  0.21839300  0.36895600  1
  O  O37  1  0.28160700  0.44125600  0.36895600  1
  O  O38  1  0.32824600  0.54669000  0.89935900  1
  O  O39  1  0.05874400  0.78160700  0.36895600  1
  O  O40  1  0.95331000  0.82824600  0.89935900  1
  O  O41  1  0.04669000  0.17175400  0.89935900  1
