# generated using pymatgen
data_TaSn2
_symmetry_space_group_name_H-M   'P 1'
_cell_length_a   10.87143218
_cell_length_b   10.09217892
_cell_length_c   5.71066145
_cell_angle_alpha   81.88264479
_cell_angle_beta   66.78324514
_cell_angle_gamma   31.33411007
_symmetry_Int_Tables_number   1
_chemical_formula_structural   TaSn2
_chemical_formula_sum   'Ta4 Sn8'
_cell_volume   273.23622319
_cell_formula_units_Z   4
loop_
 _symmetry_equiv_pos_site_id
 _symmetry_equiv_pos_as_xyz
  1  'x, y, z'
loop_
 _atom_site_type_symbol
 _atom_site_label
 _atom_site_symmetry_multiplicity
 _atom_site_fract_x
 _atom_site_fract_y
 _atom_site_fract_z
 _atom_site_occupancy
  Ta  Ta0  1  0.37294900  0.37294900  0.62705100  1
  Ta  Ta1  1  0.62294900  0.62294900  0.87705100  1
  Ta  Ta2  1  0.87705100  0.87705100  0.62294900  1
  Ta  Ta3  1  0.62705100  0.62705100  0.37294900  1
  Sn  Sn4  1  0.91823400  0.58176600  0.91823400  1
  Sn  Sn5  1  0.66823400  0.33176600  0.66823400  1
  Sn  Sn6  1  0.33153800  0.33153800  0.16846200  1
  Sn  Sn7  1  0.58176600  0.91823400  0.58176600  1
  Sn  Sn8  1  0.08153800  0.08153800  0.91846200  1
  Sn  Sn9  1  0.16846200  0.16846200  0.33153800  1
  Sn  Sn10  1  0.33176600  0.66823400  0.33176600  1
  Sn  Sn11  1  0.91846200  0.91846200  0.08153800  1
