# generated using pymatgen
data_Dy12Co7
_symmetry_space_group_name_H-M   'P 1'
_cell_length_a   11.21546200
_cell_length_b   8.27900700
_cell_length_c   11.01209882
_cell_angle_alpha   54.75226727
_cell_angle_beta   90.00000000
_cell_angle_gamma   90.00000000
_symmetry_Int_Tables_number   1
_chemical_formula_structural   Dy12Co7
_chemical_formula_sum   'Dy24 Co14'
_cell_volume   835.04357463
_cell_formula_units_Z   2
loop_
 _symmetry_equiv_pos_site_id
 _symmetry_equiv_pos_as_xyz
  1  'x, y, z'
loop_
 _atom_site_type_symbol
 _atom_site_label
 _atom_site_symmetry_multiplicity
 _atom_site_fract_x
 _atom_site_fract_y
 _atom_site_fract_z
 _atom_site_occupancy
  Dy  Dy0  1  0.84134400  0.50197600  0.65732400  1
  Dy  Dy1  1  0.49456000  0.84685600  0.85306300  1
  Dy  Dy2  1  0.65865600  0.50197600  0.15732400  1
  Dy  Dy3  1  0.80022700  0.75029900  0.82435600  1
  Dy  Dy4  1  0.57231100  0.77038000  0.58574600  1
  Dy  Dy5  1  0.92993400  0.26715100  0.30522200  1
  Dy  Dy6  1  0.57006600  0.26715100  0.80522200  1
  Dy  Dy7  1  0.29502000  0.76626000  0.46168400  1
  Dy  Dy8  1  0.30022700  0.24970100  0.67564400  1
  Dy  Dy9  1  0.42993400  0.73284900  0.19477800  1
  Dy  Dy10  1  0.42768900  0.22962000  0.41425400  1
  Dy  Dy11  1  0.50544000  0.15314400  0.14693700  1
  Dy  Dy12  1  0.34134400  0.49802400  0.84267600  1
  Dy  Dy13  1  0.00544000  0.84685600  0.35306300  1
  Dy  Dy14  1  0.07006600  0.73284900  0.69477800  1
  Dy  Dy15  1  0.92768900  0.77038000  0.08574600  1
  Dy  Dy16  1  0.20498000  0.76626000  0.96168400  1
  Dy  Dy17  1  0.79502000  0.23374000  0.03831600  1
  Dy  Dy18  1  0.70498000  0.23374000  0.53831600  1
  Dy  Dy19  1  0.99456000  0.15314400  0.64693700  1
  Dy  Dy20  1  0.69977300  0.75029900  0.32435600  1
  Dy  Dy21  1  0.19977300  0.24970100  0.17564400  1
  Dy  Dy22  1  0.15865600  0.49802400  0.34267600  1
  Dy  Dy23  1  0.07231100  0.22962000  0.91425400  1
  Co  Co24  1  0.50000000  0.50000000  0.50000000  1
  Co  Co25  1  0.32742300  0.09073200  0.96891400  1
  Co  Co26  1  0.19069800  0.90264100  0.15670500  1
  Co  Co27  1  0.82742300  0.90926800  0.53108600  1
  Co  Co28  1  0.40205600  0.49341200  0.09940500  1
  Co  Co29  1  0.09794400  0.49341200  0.59940500  1
  Co  Co30  1  0.67257700  0.90926800  0.03108600  1
  Co  Co31  1  0.59794400  0.50658800  0.90059500  1
  Co  Co32  1  0.00000000  0.50000000  0.00000000  1
  Co  Co33  1  0.69069800  0.09735900  0.34329500  1
  Co  Co34  1  0.17257700  0.09073200  0.46891400  1
  Co  Co35  1  0.30930200  0.90264100  0.65670500  1
  Co  Co36  1  0.90205600  0.50658800  0.40059500  1
  Co  Co37  1  0.80930200  0.09735900  0.84329500  1
