# generated using pymatgen
data_ScTaO4
_symmetry_space_group_name_H-M   'P 1'
_cell_length_a   5.74907700
_cell_length_b   4.84802100
_cell_length_c   5.15524573
_cell_angle_alpha   88.51443765
_cell_angle_beta   90.00000000
_cell_angle_gamma   90.00000000
_symmetry_Int_Tables_number   1
_chemical_formula_structural   ScTaO4
_chemical_formula_sum   'Sc2 Ta2 O8'
_cell_volume   143.63689013
_cell_formula_units_Z   2
loop_
 _symmetry_equiv_pos_site_id
 _symmetry_equiv_pos_as_xyz
  1  'x, y, z'
loop_
 _atom_site_type_symbol
 _atom_site_label
 _atom_site_symmetry_multiplicity
 _atom_site_fract_x
 _atom_site_fract_y
 _atom_site_fract_z
 _atom_site_occupancy
  Sc  Sc0  1  0.32290500  0.50000000  0.25000000  1
  Sc  Sc1  1  0.67709500  0.50000000  0.75000000  1
  Ta  Ta2  1  0.82275300  0.00000000  0.25000000  1
  Ta  Ta3  1  0.17724700  0.00000000  0.75000000  1
  O  O4  1  0.10733600  0.78254700  0.43524000  1
  O  O5  1  0.61648900  0.73513500  0.40503700  1
  O  O6  1  0.10733600  0.21745300  0.06476000  1
  O  O7  1  0.38351100  0.26486500  0.59496300  1
  O  O8  1  0.61648900  0.26486500  0.09496300  1
  O  O9  1  0.89266400  0.78254700  0.93524000  1
  O  O10  1  0.38351100  0.73513500  0.90503700  1
  O  O11  1  0.89266400  0.21745300  0.56476000  1
