# generated using pymatgen
data_RbSnS4
_symmetry_space_group_name_H-M   'P 1'
_cell_length_a   10.12741100
_cell_length_b   14.19249500
_cell_length_c   20.13546800
_cell_angle_alpha   90.00000000
_cell_angle_beta   90.00000000
_cell_angle_gamma   90.00000000
_symmetry_Int_Tables_number   1
_chemical_formula_structural   RbSnS4
_chemical_formula_sum   'Rb16 Sn16 S64'
_cell_volume   2894.13585281
_cell_formula_units_Z   16
loop_
 _symmetry_equiv_pos_site_id
 _symmetry_equiv_pos_as_xyz
  1  'x, y, z'
loop_
 _atom_site_type_symbol
 _atom_site_label
 _atom_site_symmetry_multiplicity
 _atom_site_fract_x
 _atom_site_fract_y
 _atom_site_fract_z
 _atom_site_occupancy
  Rb  Rb0  1  0.86044700  0.47415800  0.81121500  1
  Rb  Rb1  1  0.27280800  0.96288000  0.07052200  1
  Rb  Rb2  1  0.36044700  0.52584200  0.68878500  1
  Rb  Rb3  1  0.27280800  0.46288000  0.92947800  1
  Rb  Rb4  1  0.77280800  0.03712000  0.42947800  1
  Rb  Rb5  1  0.13955300  0.52584200  0.18878500  1
  Rb  Rb6  1  0.36044700  0.02584200  0.31121500  1
  Rb  Rb7  1  0.22719200  0.96288000  0.57052200  1
  Rb  Rb8  1  0.63955300  0.47415800  0.31121500  1
  Rb  Rb9  1  0.72719200  0.53712000  0.07052200  1
  Rb  Rb10  1  0.77280800  0.53712000  0.57052200  1
  Rb  Rb11  1  0.22719200  0.46288000  0.42947800  1
  Rb  Rb12  1  0.63955300  0.97415800  0.68878500  1
  Rb  Rb13  1  0.86044700  0.97415800  0.18878500  1
  Rb  Rb14  1  0.13955300  0.02584200  0.81121500  1
  Rb  Rb15  1  0.72719200  0.03712000  0.92947800  1
  Sn  Sn16  1  0.82505200  0.73106300  0.32611800  1
  Sn  Sn17  1  0.32505200  0.76893700  0.82611800  1
  Sn  Sn18  1  0.00000000  0.75000000  0.91664100  1
  Sn  Sn19  1  0.67494800  0.23106300  0.17388200  1
  Sn  Sn20  1  0.50000000  0.25000000  0.58335900  1
  Sn  Sn21  1  0.82505200  0.23106300  0.67388200  1
  Sn  Sn22  1  0.50000000  0.25000000  0.77028000  1
  Sn  Sn23  1  0.17494800  0.26893700  0.67388200  1
  Sn  Sn24  1  0.17494800  0.76893700  0.32611800  1
  Sn  Sn25  1  0.50000000  0.75000000  0.22972000  1
  Sn  Sn26  1  0.00000000  0.25000000  0.08335900  1
  Sn  Sn27  1  0.00000000  0.75000000  0.72972000  1
  Sn  Sn28  1  0.50000000  0.75000000  0.41664100  1
  Sn  Sn29  1  0.32505200  0.26893700  0.17388200  1
  Sn  Sn30  1  0.00000000  0.25000000  0.27028000  1
  Sn  Sn31  1  0.67494800  0.73106300  0.82611800  1
  S  S32  1  0.43752500  0.62212200  0.13974400  1
  S  S33  1  0.56432100  0.87557800  0.50818500  1
  S  S34  1  0.15606600  0.70585800  0.07829800  1
  S  S35  1  0.85961700  0.30261200  0.43777000  1
  S  S36  1  0.72216500  0.16098600  0.57671700  1
  S  S37  1  0.53683300  0.37129200  0.16950700  1
  S  S38  1  0.23183200  0.83115500  0.72305400  1
  S  S39  1  0.76816800  0.66884500  0.72305400  1
  S  S40  1  0.03683300  0.12870800  0.66950700  1
  S  S41  1  0.03683300  0.62870800  0.33049300  1
  S  S42  1  0.93567900  0.37557800  0.99181500  1
  S  S43  1  0.56247500  0.37787800  0.86025600  1
  S  S44  1  0.34393400  0.20585800  0.42170200  1
  S  S45  1  0.39808100  0.64581300  0.32356000  1
  S  S46  1  0.35961700  0.69738800  0.06223000  1
  S  S47  1  0.60191900  0.35418700  0.67644000  1
  S  S48  1  0.89808100  0.35418700  0.17644000  1
  S  S49  1  0.93752500  0.37787800  0.36025600  1
  S  S50  1  0.14038300  0.19738800  0.43777000  1
  S  S51  1  0.35961700  0.19738800  0.93777000  1
  S  S52  1  0.77783500  0.16098600  0.07671700  1
  S  S53  1  0.77783500  0.66098600  0.92328300  1
  S  S54  1  0.76816800  0.16884500  0.27694600  1
  S  S55  1  0.93752500  0.87787800  0.63974400  1
  S  S56  1  0.10191900  0.14581300  0.17644000  1
  S  S57  1  0.27783500  0.83901400  0.42328300  1
  S  S58  1  0.93567900  0.87557800  0.00818500  1
  S  S59  1  0.64038300  0.30261200  0.93777000  1
  S  S60  1  0.43752500  0.12212200  0.86025600  1
  S  S61  1  0.39808100  0.14581300  0.67644000  1
  S  S62  1  0.46316700  0.12870800  0.16950700  1
  S  S63  1  0.64038300  0.80261200  0.06223000  1
  S  S64  1  0.26816800  0.33115500  0.77694600  1
  S  S65  1  0.56247500  0.87787800  0.13974400  1
  S  S66  1  0.96316700  0.87129200  0.33049300  1
  S  S67  1  0.73183200  0.16884500  0.77694600  1
  S  S68  1  0.26816800  0.83115500  0.22305400  1
  S  S69  1  0.46316700  0.62870800  0.83049300  1
  S  S70  1  0.72216500  0.66098600  0.42328300  1
  S  S71  1  0.22216500  0.33901400  0.07671700  1
  S  S72  1  0.15606600  0.20585800  0.92170200  1
  S  S73  1  0.27783500  0.33901400  0.57671700  1
  S  S74  1  0.06432100  0.62442200  0.00818500  1
  S  S75  1  0.10191900  0.64581300  0.82356000  1
  S  S76  1  0.65606600  0.79414200  0.57829800  1
  S  S77  1  0.53683300  0.87129200  0.83049300  1
  S  S78  1  0.23183200  0.33115500  0.27694600  1
  S  S79  1  0.85961700  0.80261200  0.56223000  1
  S  S80  1  0.89808100  0.85418700  0.82356000  1
  S  S81  1  0.56432100  0.37557800  0.49181500  1
  S  S82  1  0.84393400  0.79414200  0.07829800  1
  S  S83  1  0.43567900  0.12442200  0.49181500  1
  S  S84  1  0.60191900  0.85418700  0.32356000  1
  S  S85  1  0.73183200  0.66884500  0.22305400  1
  S  S86  1  0.84393400  0.29414200  0.92170200  1
  S  S87  1  0.06247500  0.62212200  0.63974400  1
  S  S88  1  0.96316700  0.37129200  0.66950700  1
  S  S89  1  0.65606600  0.29414200  0.42170200  1
  S  S90  1  0.14038300  0.69738800  0.56223000  1
  S  S91  1  0.43567900  0.62442200  0.50818500  1
  S  S92  1  0.06247500  0.12212200  0.36025600  1
  S  S93  1  0.22216500  0.83901400  0.92328300  1
  S  S94  1  0.06432100  0.12442200  0.99181500  1
  S  S95  1  0.34393400  0.70585800  0.57829800  1
