# generated using pymatgen
data_K4GeSe4
_symmetry_space_group_name_H-M   'P 1'
_cell_length_a   13.47691400
_cell_length_b   13.47691400
_cell_length_c   13.47691400
_cell_angle_alpha   90.00000000
_cell_angle_beta   90.00000000
_cell_angle_gamma   90.00000000
_symmetry_Int_Tables_number   1
_chemical_formula_structural   K4GeSe4
_chemical_formula_sum   'K32 Ge8 Se32'
_cell_volume   2447.77430221
_cell_formula_units_Z   8
loop_
 _symmetry_equiv_pos_site_id
 _symmetry_equiv_pos_as_xyz
  1  'x, y, z'
loop_
 _atom_site_type_symbol
 _atom_site_label
 _atom_site_symmetry_multiplicity
 _atom_site_fract_x
 _atom_site_fract_y
 _atom_site_fract_z
 _atom_site_occupancy
  K  K0  1  0.41160400  0.14906400  0.36758300  1
  K  K1  1  0.85027200  0.85027200  0.14972800  1
  K  K2  1  0.85093600  0.36758300  0.58839600  1
  K  K3  1  0.86758300  0.35093600  0.08839600  1
  K  K4  1  0.85093600  0.63241700  0.41160400  1
  K  K5  1  0.35093600  0.08839600  0.86758300  1
  K  K6  1  0.91160400  0.86758300  0.64906400  1
  K  K7  1  0.85027200  0.14972800  0.85027200  1
  K  K8  1  0.64972800  0.35027200  0.35027200  1
  K  K9  1  0.14972800  0.85027200  0.85027200  1
  K  K10  1  0.64972800  0.64972800  0.64972800  1
  K  K11  1  0.08839600  0.86758300  0.35093600  1
  K  K12  1  0.35027200  0.64972800  0.35027200  1
  K  K13  1  0.36758300  0.58839600  0.85093600  1
  K  K14  1  0.13241700  0.64906400  0.08839600  1
  K  K15  1  0.63241700  0.58839600  0.14906400  1
  K  K16  1  0.58839600  0.85093600  0.36758300  1
  K  K17  1  0.14906400  0.36758300  0.41160400  1
  K  K18  1  0.64906400  0.91160400  0.86758300  1
  K  K19  1  0.14906400  0.63241700  0.58839600  1
  K  K20  1  0.63241700  0.41160400  0.85093600  1
  K  K21  1  0.13241700  0.35093600  0.91160400  1
  K  K22  1  0.35093600  0.91160400  0.13241700  1
  K  K23  1  0.58839600  0.14906400  0.63241700  1
  K  K24  1  0.64906400  0.08839600  0.13241700  1
  K  K25  1  0.86758300  0.64906400  0.91160400  1
  K  K26  1  0.08839600  0.13241700  0.64906400  1
  K  K27  1  0.14972800  0.14972800  0.14972800  1
  K  K28  1  0.35027200  0.35027200  0.64972800  1
  K  K29  1  0.91160400  0.13241700  0.35093600  1
  K  K30  1  0.36758300  0.41160400  0.14906400  1
  K  K31  1  0.41160400  0.85093600  0.63241700  1
  Ge  Ge32  1  0.50000000  0.50000000  0.50000000  1
  Ge  Ge33  1  0.00000000  0.50000000  0.25000000  1
  Ge  Ge34  1  0.00000000  0.50000000  0.75000000  1
  Ge  Ge35  1  0.50000000  0.25000000  0.00000000  1
  Ge  Ge36  1  0.00000000  0.00000000  0.00000000  1
  Ge  Ge37  1  0.75000000  0.00000000  0.50000000  1
  Ge  Ge38  1  0.50000000  0.75000000  0.00000000  1
  Ge  Ge39  1  0.25000000  0.00000000  0.50000000  1
  Se  Se40  1  0.88668800  0.59757000  0.15355800  1
  Se  Se41  1  0.09757000  0.38668800  0.65355800  1
  Se  Se42  1  0.84644200  0.11331200  0.59757000  1
  Se  Se43  1  0.40243000  0.15355800  0.11331200  1
  Se  Se44  1  0.61331200  0.34644200  0.09757000  1
  Se  Se45  1  0.61331200  0.65355800  0.90243000  1
  Se  Se46  1  0.60241500  0.39758500  0.60241500  1
  Se  Se47  1  0.38668800  0.65355800  0.09757000  1
  Se  Se48  1  0.84644200  0.88668800  0.40243000  1
  Se  Se49  1  0.15355800  0.88668800  0.59757000  1
  Se  Se50  1  0.39758500  0.39758500  0.39758500  1
  Se  Se51  1  0.90243000  0.38668800  0.34644200  1
  Se  Se52  1  0.90243000  0.61331200  0.65355800  1
  Se  Se53  1  0.10241500  0.10241500  0.89758500  1
  Se  Se54  1  0.65355800  0.09757000  0.38668800  1
  Se  Se55  1  0.60241500  0.60241500  0.39758500  1
  Se  Se56  1  0.15355800  0.11331200  0.40243000  1
  Se  Se57  1  0.59757000  0.15355800  0.88668800  1
  Se  Se58  1  0.34644200  0.09757000  0.61331200  1
  Se  Se59  1  0.89758500  0.10241500  0.10241500  1
  Se  Se60  1  0.34644200  0.90243000  0.38668800  1
  Se  Se61  1  0.89758500  0.89758500  0.89758500  1
  Se  Se62  1  0.88668800  0.40243000  0.84644200  1
  Se  Se63  1  0.59757000  0.84644200  0.11331200  1
  Se  Se64  1  0.10241500  0.89758500  0.10241500  1
  Se  Se65  1  0.38668800  0.34644200  0.90243000  1
  Se  Se66  1  0.11331200  0.59757000  0.84644200  1
  Se  Se67  1  0.65355800  0.90243000  0.61331200  1
  Se  Se68  1  0.09757000  0.61331200  0.34644200  1
  Se  Se69  1  0.39758500  0.60241500  0.60241500  1
  Se  Se70  1  0.11331200  0.40243000  0.15355800  1
  Se  Se71  1  0.40243000  0.84644200  0.88668800  1
