# generated using pymatgen
data_LiInI4
_symmetry_space_group_name_H-M   'P 1'
_cell_length_a   7.88047500
_cell_length_b   8.38993200
_cell_length_c   15.45342353
_cell_angle_alpha   87.22138946
_cell_angle_beta   90.00000000
_cell_angle_gamma   90.00000000
_symmetry_Int_Tables_number   1
_chemical_formula_structural   LiInI4
_chemical_formula_sum   'Li4 In4 I16'
_cell_volume   1020.52734289
_cell_formula_units_Z   4
loop_
 _symmetry_equiv_pos_site_id
 _symmetry_equiv_pos_as_xyz
  1  'x, y, z'
loop_
 _atom_site_type_symbol
 _atom_site_label
 _atom_site_symmetry_multiplicity
 _atom_site_fract_x
 _atom_site_fract_y
 _atom_site_fract_z
 _atom_site_occupancy
  Li  Li0  1  0.01249600  0.85224900  0.37567900  1
  Li  Li1  1  0.51249600  0.14775100  0.12432100  1
  Li  Li2  1  0.98750400  0.14775100  0.62432100  1
  Li  Li3  1  0.48750400  0.85224900  0.87567900  1
  In  In4  1  0.17464300  0.69916700  0.59967700  1
  In  In5  1  0.67464300  0.30083300  0.90032300  1
  In  In6  1  0.82535700  0.30083300  0.40032300  1
  In  In7  1  0.32535700  0.69916700  0.09967700  1
  I  I8  1  0.31591100  0.68735500  0.43710700  1
  I  I9  1  0.81591100  0.31264500  0.06289300  1
  I  I10  1  0.68408900  0.31264500  0.56289300  1
  I  I11  1  0.18408900  0.68735500  0.93710700  1
  I  I12  1  0.14781200  0.17542500  0.43636500  1
  I  I13  1  0.64781200  0.82457500  0.06363500  1
  I  I14  1  0.85218800  0.82457500  0.56363500  1
  I  I15  1  0.35218800  0.17542500  0.93636500  1
  I  I16  1  0.32406500  0.94134600  0.69026700  1
  I  I17  1  0.82406500  0.05865400  0.80973300  1
  I  I18  1  0.67593500  0.05865400  0.30973300  1
  I  I19  1  0.17593500  0.94134600  0.19026700  1
  I  I20  1  0.18038100  0.41588500  0.69621500  1
  I  I21  1  0.68038100  0.58411500  0.80378500  1
  I  I22  1  0.81961900  0.58411500  0.30378500  1
  I  I23  1  0.31961900  0.41588500  0.19621500  1
