# generated using pymatgen
data_BaLa(BiS3)2
_symmetry_space_group_name_H-M   'P 1'
_cell_length_a   14.95890600
_cell_length_b   4.23187900
_cell_length_c   16.62162559
_cell_angle_alpha   87.28020478
_cell_angle_beta   90.00000000
_cell_angle_gamma   90.00000000
_symmetry_Int_Tables_number   1
_chemical_formula_structural   BaLa(BiS3)2
_chemical_formula_sum   'Ba4 La4 Bi8 S24'
_cell_volume   1051.03475975
_cell_formula_units_Z   4
loop_
 _symmetry_equiv_pos_site_id
 _symmetry_equiv_pos_as_xyz
  1  'x, y, z'
loop_
 _atom_site_type_symbol
 _atom_site_label
 _atom_site_symmetry_multiplicity
 _atom_site_fract_x
 _atom_site_fract_y
 _atom_site_fract_z
 _atom_site_occupancy
  Ba  Ba0  1  0.28873400  0.74386000  0.67000600  1
  Ba  Ba1  1  0.78873400  0.25614000  0.82999400  1
  Ba  Ba2  1  0.71126600  0.25614000  0.32999400  1
  Ba  Ba3  1  0.21126600  0.74386000  0.17000600  1
  La  La4  1  0.12581700  0.70524000  0.90623600  1
  La  La5  1  0.62581700  0.29476000  0.59376400  1
  La  La6  1  0.37418300  0.70524000  0.40623600  1
  La  La7  1  0.87418300  0.29476000  0.09376400  1
  Bi  Bi8  1  0.47855900  0.24203700  0.20030200  1
  Bi  Bi9  1  0.52144100  0.75796300  0.79969800  1
  Bi  Bi10  1  0.12781900  0.26293000  0.47014400  1
  Bi  Bi11  1  0.02144100  0.24203700  0.70030200  1
  Bi  Bi12  1  0.97855900  0.75796300  0.29969800  1
  Bi  Bi13  1  0.37218100  0.26293000  0.97014400  1
  Bi  Bi14  1  0.87218100  0.73707000  0.52985600  1
  Bi  Bi15  1  0.62781900  0.73707000  0.02985600  1
  S  S16  1  0.96333800  0.68139500  0.79769200  1
  S  S17  1  0.70700400  0.76478200  0.48034900  1
  S  S18  1  0.20700400  0.23521800  0.01965100  1
  S  S19  1  0.08361500  0.70533500  0.58915700  1
  S  S20  1  0.98813300  0.15780900  0.94977900  1
  S  S21  1  0.91638500  0.29466500  0.41084300  1
  S  S22  1  0.82704800  0.77671000  0.21781900  1
  S  S23  1  0.48813300  0.84219100  0.55022100  1
  S  S24  1  0.67295200  0.77671000  0.71781900  1
  S  S25  1  0.01186700  0.84219100  0.05022100  1
  S  S26  1  0.17295200  0.22329000  0.78218100  1
  S  S27  1  0.58361500  0.29466500  0.91084300  1
  S  S28  1  0.41638500  0.70533500  0.08915700  1
  S  S29  1  0.51186700  0.15780900  0.44977900  1
  S  S30  1  0.16944700  0.75253000  0.36921800  1
  S  S31  1  0.03666200  0.31860500  0.20230800  1
  S  S32  1  0.29299600  0.23521800  0.51965100  1
  S  S33  1  0.46333800  0.31860500  0.70230800  1
  S  S34  1  0.33055300  0.75253000  0.86921800  1
  S  S35  1  0.79299600  0.76478200  0.98034900  1
  S  S36  1  0.66944700  0.24747000  0.13078200  1
  S  S37  1  0.32704800  0.22329000  0.28218100  1
  S  S38  1  0.83055300  0.24747000  0.63078200  1
  S  S39  1  0.53666200  0.68139500  0.29769200  1
