# generated using pymatgen
data_K4Ti2PO4F9
_symmetry_space_group_name_H-M   'P 1'
_cell_length_a   11.16271500
_cell_length_b   5.93705200
_cell_length_c   20.49010550
_cell_angle_alpha   74.14203605
_cell_angle_beta   90.00000000
_cell_angle_gamma   90.00000000
_symmetry_Int_Tables_number   1
_chemical_formula_structural   K4Ti2PO4F9
_chemical_formula_sum   'K16 Ti8 P4 O16 F36'
_cell_volume   1306.27252314
_cell_formula_units_Z   4
loop_
 _symmetry_equiv_pos_site_id
 _symmetry_equiv_pos_as_xyz
  1  'x, y, z'
loop_
 _atom_site_type_symbol
 _atom_site_label
 _atom_site_symmetry_multiplicity
 _atom_site_fract_x
 _atom_site_fract_y
 _atom_site_fract_z
 _atom_site_occupancy
  K  K0  1  0.04627000  0.65707500  0.83271800  1
  K  K1  1  0.45373000  0.65707500  0.33271800  1
  K  K2  1  0.26891800  0.45637700  0.51575600  1
  K  K3  1  0.73108200  0.54362300  0.48424400  1
  K  K4  1  0.75602000  0.12795000  0.85981000  1
  K  K5  1  0.76891800  0.54362300  0.98424400  1
  K  K6  1  0.45588800  0.64069700  0.84851100  1
  K  K7  1  0.04411200  0.64069700  0.34851100  1
  K  K8  1  0.24398000  0.87205000  0.14019000  1
  K  K9  1  0.95588800  0.35930300  0.65148900  1
  K  K10  1  0.54411200  0.35930300  0.15148900  1
  K  K11  1  0.54627000  0.34292500  0.66728200  1
  K  K12  1  0.25602000  0.87205000  0.64019000  1
  K  K13  1  0.23108200  0.45637700  0.01575600  1
  K  K14  1  0.74398000  0.12795000  0.35981000  1
  K  K15  1  0.95373000  0.34292500  0.16728200  1
  Ti  Ti16  1  0.00000000  0.00000000  0.50000000  1
  Ti  Ti17  1  0.74615800  0.71927000  0.75491800  1
  Ti  Ti18  1  0.25384200  0.28073000  0.24508200  1
  Ti  Ti19  1  0.24615800  0.28073000  0.74508200  1
  Ti  Ti20  1  0.50000000  0.00000000  0.00000000  1
  Ti  Ti21  1  0.00000000  0.00000000  0.00000000  1
  Ti  Ti22  1  0.75384200  0.71927000  0.25491800  1
  Ti  Ti23  1  0.50000000  0.00000000  0.50000000  1
  P  P24  1  0.75249700  0.95526900  0.59155800  1
  P  P25  1  0.25249700  0.04473100  0.90844200  1
  P  P26  1  0.74750300  0.95526900  0.09155800  1
  P  P27  1  0.24750300  0.04473100  0.40844200  1
  O  O28  1  0.16121900  0.07792500  0.96330000  1
  O  O29  1  0.37704800  0.12040900  0.93061000  1
  O  O30  1  0.74918800  0.20021200  0.09983500  1
  O  O31  1  0.62295200  0.87959100  0.06939000  1
  O  O32  1  0.83878100  0.92207500  0.03670000  1
  O  O33  1  0.24918800  0.79978800  0.40016500  1
  O  O34  1  0.33878100  0.07792500  0.46330000  1
  O  O35  1  0.21978300  0.23604700  0.84104200  1
  O  O36  1  0.71978300  0.76395300  0.65895800  1
  O  O37  1  0.28021700  0.23604700  0.34104200  1
  O  O38  1  0.12295200  0.12040900  0.43061000  1
  O  O39  1  0.25081200  0.79978800  0.90016500  1
  O  O40  1  0.66121900  0.92207500  0.53670000  1
  O  O41  1  0.75081200  0.20021200  0.59983500  1
  O  O42  1  0.87704800  0.87959100  0.56939000  1
  O  O43  1  0.78021700  0.76395300  0.15895800  1
  F  F44  1  0.96075500  0.85205600  0.93166800  1
  F  F45  1  0.44177100  0.71254900  0.55781700  1
  F  F46  1  0.77038700  0.66391700  0.85120000  1
  F  F47  1  0.13208600  0.05554100  0.25772200  1
  F  F48  1  0.12712200  0.52040000  0.72393300  1
  F  F49  1  0.13801000  0.52087800  0.23994700  1
  F  F50  1  0.03924500  0.14794400  0.06833200  1
  F  F51  1  0.36791400  0.05554100  0.75772200  1
  F  F52  1  0.90184000  0.25787200  0.45624000  1
  F  F53  1  0.94177100  0.28745100  0.94218300  1
  F  F54  1  0.46075500  0.14794400  0.56833200  1
  F  F55  1  0.86791400  0.94445900  0.74227800  1
  F  F56  1  0.37287800  0.52040000  0.22393300  1
  F  F57  1  0.36199000  0.52087800  0.73994700  1
  F  F58  1  0.92836200  0.82743200  0.44404500  1
  F  F59  1  0.86890000  0.94447600  0.26223600  1
  F  F60  1  0.72961300  0.66391700  0.35120000  1
  F  F61  1  0.09816000  0.74212800  0.54376000  1
  F  F62  1  0.07163800  0.17256800  0.55595500  1
  F  F63  1  0.40184000  0.74212800  0.04376000  1
  F  F64  1  0.53924500  0.85205600  0.43166800  1
  F  F65  1  0.55822900  0.28745100  0.44218300  1
  F  F66  1  0.63208600  0.94445900  0.24227800  1
  F  F67  1  0.27038700  0.33608300  0.64880000  1
  F  F68  1  0.42836200  0.17256800  0.05595500  1
  F  F69  1  0.86199000  0.47912200  0.76005300  1
  F  F70  1  0.13110000  0.05552400  0.73776400  1
  F  F71  1  0.05822900  0.71254900  0.05781700  1
  F  F72  1  0.22961300  0.33608300  0.14880000  1
  F  F73  1  0.87287800  0.47960000  0.27606700  1
  F  F74  1  0.63110000  0.94447600  0.76223600  1
  F  F75  1  0.63801000  0.47912200  0.26005300  1
  F  F76  1  0.59816000  0.25787200  0.95624000  1
  F  F77  1  0.36890000  0.05552400  0.23776400  1
  F  F78  1  0.57163800  0.82743200  0.94404500  1
  F  F79  1  0.62712200  0.47960000  0.77606700  1
