# generated using pymatgen
data_Nd2SnS5
_symmetry_space_group_name_H-M   'P 1'
_cell_length_a   3.96907600
_cell_length_b   7.87503900
_cell_length_c   11.34349300
_cell_angle_alpha   90.00000000
_cell_angle_beta   90.00000000
_cell_angle_gamma   90.00000000
_symmetry_Int_Tables_number   1
_chemical_formula_structural   Nd2SnS5
_chemical_formula_sum   'Nd4 Sn2 S10'
_cell_volume   354.55934426
_cell_formula_units_Z   2
loop_
 _symmetry_equiv_pos_site_id
 _symmetry_equiv_pos_as_xyz
  1  'x, y, z'
loop_
 _atom_site_type_symbol
 _atom_site_label
 _atom_site_symmetry_multiplicity
 _atom_site_fract_x
 _atom_site_fract_y
 _atom_site_fract_z
 _atom_site_occupancy
  Nd  Nd0  1  0.50000000  0.43923300  0.17017300  1
  Nd  Nd1  1  0.50000000  0.06076700  0.67017300  1
  Nd  Nd2  1  0.50000000  0.93923300  0.32982700  1
  Nd  Nd3  1  0.50000000  0.56076700  0.82982700  1
  Sn  Sn4  1  0.00000000  0.00000000  0.00000000  1
  Sn  Sn5  1  0.00000000  0.50000000  0.50000000  1
  S  S6  1  0.50000000  0.18467600  0.92216200  1
  S  S7  1  0.00000000  0.65453700  0.29908400  1
  S  S8  1  0.50000000  0.81532400  0.07783800  1
  S  S9  1  0.00000000  0.84546300  0.79908400  1
  S  S10  1  0.50000000  0.31532400  0.42216200  1
  S  S11  1  0.00000000  0.15453700  0.20091600  1
  S  S12  1  0.00000000  0.34546300  0.70091600  1
  S  S13  1  0.50000000  0.68467600  0.57783800  1
  S  S14  1  0.00000000  0.00000000  0.50000000  1
  S  S15  1  0.00000000  0.50000000  0.00000000  1
