# generated using pymatgen
data_KInSe2
_symmetry_space_group_name_H-M   'P 1'
_cell_length_a   8.25581843
_cell_length_b   8.25581843
_cell_length_c   15.95905243
_cell_angle_alpha   82.57019006
_cell_angle_beta   82.57019006
_cell_angle_gamma   89.97008476
_symmetry_Int_Tables_number   1
_chemical_formula_structural   KInSe2
_chemical_formula_sum   'K8 In8 Se16'
_cell_volume   1069.41181416
_cell_formula_units_Z   8
loop_
 _symmetry_equiv_pos_site_id
 _symmetry_equiv_pos_as_xyz
  1  'x, y, z'
loop_
 _atom_site_type_symbol
 _atom_site_label
 _atom_site_symmetry_multiplicity
 _atom_site_fract_x
 _atom_site_fract_y
 _atom_site_fract_z
 _atom_site_occupancy
  K  K0  1  0.15369700  0.78037700  0.88625700  1
  K  K1  1  0.21962300  0.84630300  0.61374300  1
  K  K2  1  0.84630300  0.21962300  0.11374300  1
  K  K3  1  0.78037700  0.15369700  0.38625700  1
  K  K4  1  0.22071400  0.34399800  0.61856700  1
  K  K5  1  0.65600200  0.77928600  0.88143300  1
  K  K6  1  0.77928600  0.65600200  0.38143300  1
  K  K7  1  0.34399800  0.22071400  0.11856700  1
  In  In8  1  0.91233200  0.28914500  0.84383400  1
  In  In9  1  0.71085500  0.08766800  0.65616600  1
  In  In10  1  0.08766800  0.71085500  0.15616600  1
  In  In11  1  0.28914500  0.91233200  0.34383400  1
  In  In12  1  0.71090500  0.58435800  0.65642200  1
  In  In13  1  0.41564200  0.28909500  0.84357800  1
  In  In14  1  0.28909500  0.41564200  0.34357800  1
  In  In15  1  0.58435800  0.71090500  0.15642200  1
  Se  Se16  1  0.95115500  0.57526900  0.74980200  1
  Se  Se17  1  0.42473100  0.04884500  0.75019800  1
  Se  Se18  1  0.04884500  0.42473100  0.25019800  1
  Se  Se19  1  0.57526900  0.95115500  0.24980200  1
  Se  Se20  1  0.13881100  0.26253200  0.94580800  1
  Se  Se21  1  0.73746800  0.86118900  0.55419200  1
  Se  Se22  1  0.86118900  0.73746800  0.05419200  1
  Se  Se23  1  0.26253200  0.13881100  0.44580800  1
  Se  Se24  1  0.95043100  0.04956900  0.75000000  1
  Se  Se25  1  0.04956900  0.95043100  0.25000000  1
  Se  Se26  1  0.63801500  0.26358800  0.94690600  1
  Se  Se27  1  0.73641200  0.36198500  0.55309400  1
  Se  Se28  1  0.36198500  0.73641200  0.05309400  1
  Se  Se29  1  0.26358800  0.63801500  0.44690600  1
  Se  Se30  1  0.42435400  0.57564600  0.75000000  1
  Se  Se31  1  0.57564600  0.42435400  0.25000000  1
