# generated using pymatgen
data_EuSn
_symmetry_space_group_name_H-M   'P 1'
_cell_length_a   6.44248245
_cell_length_b   6.44248245
_cell_length_c   4.47163600
_cell_angle_alpha   90.00000000
_cell_angle_beta   90.00000000
_cell_angle_gamma   134.89833451
_symmetry_Int_Tables_number   1
_chemical_formula_structural   EuSn
_chemical_formula_sum   'Eu2 Sn2'
_cell_volume   131.47015623
_cell_formula_units_Z   2
loop_
 _symmetry_equiv_pos_site_id
 _symmetry_equiv_pos_as_xyz
  1  'x, y, z'
loop_
 _atom_site_type_symbol
 _atom_site_label
 _atom_site_symmetry_multiplicity
 _atom_site_fract_x
 _atom_site_fract_y
 _atom_site_fract_z
 _atom_site_occupancy
  Eu  Eu0  1  0.86551200  0.13448800  0.75000000  1
  Eu  Eu1  1  0.13448800  0.86551200  0.25000000  1
  Sn  Sn2  1  0.41780300  0.58219700  0.25000000  1
  Sn  Sn3  1  0.58219700  0.41780300  0.75000000  1
