# generated using pymatgen
data_GdMoO4F
_symmetry_space_group_name_H-M   'P 1'
_cell_length_a   12.56852600
_cell_length_b   5.32279200
_cell_length_c   6.82078809
_cell_angle_alpha   67.03656346
_cell_angle_beta   90.00000000
_cell_angle_gamma   90.00000000
_symmetry_Int_Tables_number   1
_chemical_formula_structural   GdMoO4F
_chemical_formula_sum   'Gd4 Mo4 O16 F4'
_cell_volume   420.14772887
_cell_formula_units_Z   4
loop_
 _symmetry_equiv_pos_site_id
 _symmetry_equiv_pos_as_xyz
  1  'x, y, z'
loop_
 _atom_site_type_symbol
 _atom_site_label
 _atom_site_symmetry_multiplicity
 _atom_site_fract_x
 _atom_site_fract_y
 _atom_site_fract_z
 _atom_site_occupancy
  Gd  Gd0  1  0.55239400  0.63850200  0.70063700  1
  Gd  Gd1  1  0.94760600  0.63850200  0.20063700  1
  Gd  Gd2  1  0.05239400  0.36149800  0.79936300  1
  Gd  Gd3  1  0.44760600  0.36149800  0.29936300  1
  Mo  Mo4  1  0.35690300  0.07787100  0.86975300  1
  Mo  Mo5  1  0.85690300  0.92212900  0.63024700  1
  Mo  Mo6  1  0.64309700  0.92212900  0.13024700  1
  Mo  Mo7  1  0.14309700  0.07787100  0.36975300  1
  O  O8  1  0.34683900  0.76414800  0.08942700  1
  O  O9  1  0.06582900  0.30579000  0.46060100  1
  O  O10  1  0.22455700  0.19257400  0.79411600  1
  O  O11  1  0.72455700  0.80742600  0.70588400  1
  O  O12  1  0.27544300  0.19257400  0.29411600  1
  O  O13  1  0.56936900  0.99406200  0.33570800  1
  O  O14  1  0.06936900  0.00593800  0.16429200  1
  O  O15  1  0.43417100  0.30579000  0.96060100  1
  O  O16  1  0.93417100  0.69421000  0.53939900  1
  O  O17  1  0.93063100  0.99406200  0.83570800  1
  O  O18  1  0.43063100  0.00593800  0.66429200  1
  O  O19  1  0.15316100  0.76414800  0.58942700  1
  O  O20  1  0.77544300  0.80742600  0.20588400  1
  O  O21  1  0.56582900  0.69421000  0.03939900  1
  O  O22  1  0.84683900  0.23585200  0.41057300  1
  O  O23  1  0.65316100  0.23585200  0.91057300  1
  F  F24  1  0.40192900  0.54911500  0.53510300  1
  F  F25  1  0.90192900  0.45088500  0.96489700  1
  F  F26  1  0.09807100  0.54911500  0.03510300  1
  F  F27  1  0.59807100  0.45088500  0.46489700  1
