# generated using pymatgen
data_Co3(AsO4)2
_symmetry_space_group_name_H-M   'P 1'
_cell_length_a   9.80516600
_cell_length_b   5.90870800
_cell_length_c   10.45863499
_cell_angle_alpha   86.74130926
_cell_angle_beta   90.00000000
_cell_angle_gamma   90.00000000
_symmetry_Int_Tables_number   1
_chemical_formula_structural   Co3(AsO4)2
_chemical_formula_sum   'Co12 As8 O32'
_cell_volume   604.95028891
_cell_formula_units_Z   4
loop_
 _symmetry_equiv_pos_site_id
 _symmetry_equiv_pos_as_xyz
  1  'x, y, z'
loop_
 _atom_site_type_symbol
 _atom_site_label
 _atom_site_symmetry_multiplicity
 _atom_site_fract_x
 _atom_site_fract_y
 _atom_site_fract_z
 _atom_site_occupancy
  Co  Co0  1  0.13413500  0.88883200  0.46407800  1
  Co  Co1  1  0.87652000  0.64130000  0.05911200  1
  Co  Co2  1  0.62348000  0.64130000  0.55911200  1
  Co  Co3  1  0.63786500  0.35342900  0.28417300  1
  Co  Co4  1  0.63413500  0.11116800  0.03592200  1
  Co  Co5  1  0.36586500  0.88883200  0.96407800  1
  Co  Co6  1  0.86213500  0.35342900  0.78417300  1
  Co  Co7  1  0.86586500  0.11116800  0.53592200  1
  Co  Co8  1  0.37652000  0.35870000  0.44088800  1
  Co  Co9  1  0.36213500  0.64657100  0.71582700  1
  Co  Co10  1  0.13786500  0.64657100  0.21582700  1
  Co  Co11  1  0.12348000  0.35870000  0.94088800  1
  As  As12  1  0.55672400  0.12577300  0.70532000  1
  As  As13  1  0.34457200  0.36847000  0.11788900  1
  As  As14  1  0.94327600  0.12577300  0.20532000  1
  As  As15  1  0.44327600  0.87422700  0.29468000  1
  As  As16  1  0.65542800  0.63153000  0.88211100  1
  As  As17  1  0.84457200  0.63153000  0.38211100  1
  As  As18  1  0.05672400  0.87422700  0.79468000  1
  As  As19  1  0.15542800  0.36847000  0.61788900  1
  O  O20  1  0.76689300  0.13208200  0.19442800  1
  O  O21  1  0.51118200  0.62861100  0.37643900  1
  O  O22  1  0.50461200  0.11216700  0.36623000  1
  O  O23  1  0.00461200  0.88783300  0.13377000  1
  O  O24  1  0.48016900  0.63284200  0.88157000  1
  O  O25  1  0.26689300  0.86791800  0.30557200  1
  O  O26  1  0.98016900  0.36715800  0.61843000  1
  O  O27  1  0.25567700  0.60279900  0.04665600  1
  O  O28  1  0.48881800  0.37138900  0.62356100  1
  O  O29  1  0.75567700  0.39720100  0.45334400  1
  O  O30  1  0.01118200  0.37138900  0.12356100  1
  O  O31  1  0.27663100  0.38660300  0.26968100  1
  O  O32  1  0.98881800  0.62861100  0.87643900  1
  O  O33  1  0.49098900  0.88244000  0.13539900  1
  O  O34  1  0.23015500  0.15918600  0.53205800  1
  O  O35  1  0.76984500  0.84081400  0.46794200  1
  O  O36  1  0.77663100  0.61339700  0.23031900  1
  O  O37  1  0.51983100  0.36715800  0.11843000  1
  O  O38  1  0.26984500  0.15918600  0.03205800  1
  O  O39  1  0.01983100  0.63284200  0.38157000  1
  O  O40  1  0.50901100  0.11756000  0.86460100  1
  O  O41  1  0.23310700  0.86791800  0.80557200  1
  O  O42  1  0.99098900  0.11756000  0.36460100  1
  O  O43  1  0.22336900  0.38660300  0.76968100  1
  O  O44  1  0.49538800  0.88783300  0.63377000  1
  O  O45  1  0.73015500  0.84081400  0.96794200  1
  O  O46  1  0.72336900  0.61339700  0.73031900  1
  O  O47  1  0.73310700  0.13208200  0.69442800  1
  O  O48  1  0.99538800  0.11216700  0.86623000  1
  O  O49  1  0.00901100  0.88244000  0.63539900  1
  O  O50  1  0.24432300  0.60279900  0.54665600  1
  O  O51  1  0.74432300  0.39720100  0.95334400  1
