# generated using pymatgen
data_SrFe2(SeO3)4
_symmetry_space_group_name_H-M   'P 1'
_cell_length_a   9.05858792
_cell_length_b   9.05849386
_cell_length_c   9.11263742
_cell_angle_alpha   110.08436050
_cell_angle_beta   112.32483369
_cell_angle_gamma   105.80866315
_symmetry_Int_Tables_number   1
_chemical_formula_structural   SrFe2(SeO3)4
_chemical_formula_sum   'Sr2 Fe4 Se8 O24'
_cell_volume   575.57595098
_cell_formula_units_Z   2
loop_
 _symmetry_equiv_pos_site_id
 _symmetry_equiv_pos_as_xyz
  1  'x, y, z'
loop_
 _atom_site_type_symbol
 _atom_site_label
 _atom_site_symmetry_multiplicity
 _atom_site_fract_x
 _atom_site_fract_y
 _atom_site_fract_z
 _atom_site_occupancy
  Sr  Sr0  1  0.75001200  0.25001200  0.50000600  1
  Sr  Sr1  1  0.25000800  0.75001200  0.50000700  1
  Fe  Fe2  1  0.74996800  0.74995200  0.49994600  1
  Fe  Fe3  1  0.25000700  0.25000500  0.49999800  1
  Fe  Fe4  1  0.50004400  0.00004600  0.00001300  1
  Fe  Fe5  1  0.99995300  0.49995100  0.00000500  1
  Se  Se6  1  0.84427900  0.93356700  0.27773200  1
  Se  Se7  1  0.34416200  0.43345000  0.27772300  1
  Se  Se8  1  0.65572700  0.56644700  0.72227500  1
  Se  Se9  1  0.15582700  0.06654800  0.72227100  1
  Se  Se10  1  0.70424000  0.40795100  0.11221500  1
  Se  Se11  1  0.20433900  0.90791000  0.11227400  1
  Se  Se12  1  0.29564500  0.59206300  0.88771400  1
  Se  Se13  1  0.79575000  0.09201200  0.88777600  1
  O  O14  1  0.82334400  0.59155500  0.91478100  1
  O  O15  1  0.32324100  0.09144700  0.91478400  1
  O  O16  1  0.67666200  0.90845800  0.08522500  1
  O  O17  1  0.17676700  0.40856500  0.08522500  1
  O  O18  1  0.68045500  0.57024300  0.25069000  1
  O  O19  1  0.17987400  0.07013200  0.25000000  1
  O  O20  1  0.32013100  0.42986600  0.74998100  1
  O  O21  1  0.81955600  0.92976400  0.74930200  1
  O  O22  1  0.80931500  0.24108500  0.80563500  1
  O  O23  1  0.30928200  0.74100900  0.80536600  1
  O  O24  1  0.06435100  0.49607500  0.80537000  1
  O  O25  1  0.56454400  0.99631400  0.80564800  1
  O  O26  1  0.43564400  0.00393000  0.19464900  1
  O  O27  1  0.93543800  0.50368200  0.19435900  1
  O  O28  1  0.69067900  0.25891300  0.19436500  1
  O  O29  1  0.19070900  0.75898400  0.19463800  1
  O  O30  1  0.51852100  0.33648400  0.58981700  1
  O  O31  1  0.01851500  0.83665200  0.58980200  1
  O  O32  1  0.75316300  0.57129200  0.58980500  1
  O  O33  1  0.25333900  0.07130700  0.58981500  1
  O  O34  1  0.74685300  0.92872400  0.41020900  1
  O  O35  1  0.24667500  0.42870100  0.41018500  1
  O  O36  1  0.98149200  0.16352500  0.41018500  1
  O  O37  1  0.48148800  0.66336800  0.41020600  1
