# generated using pymatgen
data_Ga3Pb5F19
_symmetry_space_group_name_H-M   'P 1'
_cell_length_a   11.01261040
_cell_length_b   11.01261040
_cell_length_c   11.01261040
_cell_angle_alpha   97.26762087
_cell_angle_beta   97.26762087
_cell_angle_gamma   138.33047512
_symmetry_Int_Tables_number   1
_chemical_formula_structural   Ga3Pb5F19
_chemical_formula_sum   'Ga6 Pb10 F38'
_cell_volume   829.87738007
_cell_formula_units_Z   2
loop_
 _symmetry_equiv_pos_site_id
 _symmetry_equiv_pos_as_xyz
  1  'x, y, z'
loop_
 _atom_site_type_symbol
 _atom_site_label
 _atom_site_symmetry_multiplicity
 _atom_site_fract_x
 _atom_site_fract_y
 _atom_site_fract_z
 _atom_site_occupancy
  Ga  Ga0  1  0.66967600  0.66967600  0.00000000  1
  Ga  Ga1  1  0.81201900  0.63345000  0.50000000  1
  Ga  Ga2  1  0.16967600  0.16967600  0.00000000  1
  Ga  Ga3  1  0.13345000  0.31201900  0.50000000  1
  Ga  Ga4  1  0.31201900  0.81201900  0.17856800  1
  Ga  Ga5  1  0.63345000  0.13345000  0.82143200  1
  Pb  Pb6  1  0.29706700  0.59526300  0.84451900  1
  Pb  Pb7  1  0.75074500  0.45254800  0.15548100  1
  Pb  Pb8  1  0.79706700  0.95254800  0.70180300  1
  Pb  Pb9  1  0.63124400  0.13124400  0.50000000  1
  Pb  Pb10  1  0.59526300  0.75074500  0.29819700  1
  Pb  Pb11  1  0.95254800  0.25074500  0.15548100  1
  Pb  Pb12  1  0.09526300  0.79706700  0.84451900  1
  Pb  Pb13  1  0.25074500  0.09526300  0.29819700  1
  Pb  Pb14  1  0.13124400  0.63124400  0.50000000  1
  Pb  Pb15  1  0.45254800  0.29706700  0.70180300  1
  F  F16  1  0.63302100  0.90136200  0.50000000  1
  F  F17  1  0.29337000  0.29722700  0.50000000  1
  F  F18  1  0.31046000  0.81046000  0.35317000  1
  F  F19  1  0.45728900  0.95728900  0.64683000  1
  F  F20  1  0.56944400  0.42774100  0.35503800  1
  F  F21  1  0.07101800  0.82858800  0.62764400  1
  F  F22  1  0.95728900  0.31046000  0.50000000  1
  F  F23  1  0.20094400  0.44337400  0.37235600  1
  F  F24  1  0.91504400  0.91504400  0.00000000  1
  F  F25  1  0.77652300  0.71641700  0.17444000  1
  F  F26  1  0.71440600  0.57270300  0.64496200  1
  F  F27  1  0.40136200  0.13302100  0.50000000  1
  F  F28  1  0.94337400  0.70094400  0.37235600  1
  F  F29  1  0.21440600  0.56944400  0.14170300  1
  F  F30  1  0.54197600  0.60208200  0.82556000  1
  F  F31  1  0.57270300  0.92774100  0.85829700  1
  F  F32  1  0.10208200  0.04197600  0.82556000  1
  F  F33  1  0.06944400  0.71440600  0.14170300  1
  F  F34  1  0.44337400  0.07101800  0.24243000  1
  F  F35  1  0.60208200  0.77652300  0.06010600  1
  F  F36  1  0.29722700  0.79722700  0.00385700  1
  F  F37  1  0.79722700  0.79337000  0.50000000  1
  F  F38  1  0.71641700  0.54197600  0.93989400  1
  F  F39  1  0.32858800  0.57101800  0.62764400  1
  F  F40  1  0.07270300  0.21440600  0.64496200  1
  F  F41  1  0.41504400  0.41504400  0.00000000  1
  F  F42  1  0.81046000  0.45728900  0.50000000  1
  F  F43  1  0.79337000  0.29337000  0.99614300  1
  F  F44  1  0.90136200  0.40136200  0.26834100  1
  F  F45  1  0.42774100  0.07270300  0.85829700  1
  F  F46  1  0.27652300  0.10208200  0.06010600  1
  F  F47  1  0.21641700  0.27652300  0.17444000  1
  F  F48  1  0.04197600  0.21641700  0.93989400  1
  F  F49  1  0.82858800  0.20094400  0.75757000  1
  F  F50  1  0.13302100  0.63302100  0.73165900  1
  F  F51  1  0.70094400  0.32858800  0.75757000  1
  F  F52  1  0.92774100  0.06944400  0.35503800  1
  F  F53  1  0.57101800  0.94337400  0.24243000  1
