# generated using pymatgen
data_Rb2LiNbS4
_symmetry_space_group_name_H-M   'P 1'
_cell_length_a   7.18801600
_cell_length_b   11.56855368
_cell_length_c   12.07045779
_cell_angle_alpha   71.52783038
_cell_angle_beta   87.68498852
_cell_angle_gamma   83.71963324
_symmetry_Int_Tables_number   1
_chemical_formula_structural   Rb2LiNbS4
_chemical_formula_sum   'Rb8 Li4 Nb4 S16'
_cell_volume   946.27344433
_cell_formula_units_Z   4
loop_
 _symmetry_equiv_pos_site_id
 _symmetry_equiv_pos_as_xyz
  1  'x, y, z'
loop_
 _atom_site_type_symbol
 _atom_site_label
 _atom_site_symmetry_multiplicity
 _atom_site_fract_x
 _atom_site_fract_y
 _atom_site_fract_z
 _atom_site_occupancy
  Rb  Rb0  1  0.26388400  0.37607900  0.27668800  1
  Rb  Rb1  1  0.73611600  0.62392100  0.72331200  1
  Rb  Rb2  1  0.75207500  0.15461000  0.85728000  1
  Rb  Rb3  1  0.75148000  0.65037700  0.34918900  1
  Rb  Rb4  1  0.24792500  0.84539000  0.14272000  1
  Rb  Rb5  1  0.68438000  0.09728000  0.24961500  1
  Rb  Rb6  1  0.31562000  0.90272000  0.75038500  1
  Rb  Rb7  1  0.24852000  0.34962300  0.65081100  1
  Li  Li8  1  0.17678400  0.01130300  0.41529800  1
  Li  Li9  1  0.77821000  0.47818800  0.07093900  1
  Li  Li10  1  0.82321600  0.98869700  0.58470200  1
  Li  Li11  1  0.22179000  0.52181200  0.92906100  1
  Nb  Nb12  1  0.21776000  0.23082900  0.01435900  1
  Nb  Nb13  1  0.78224000  0.76917100  0.98564100  1
  Nb  Nb14  1  0.77568500  0.27261400  0.48558500  1
  Nb  Nb15  1  0.22431500  0.72738600  0.51441500  1
  S  S16  1  0.76196700  0.37878800  0.28969200  1
  S  S17  1  0.25273000  0.59973000  0.40293100  1
  S  S18  1  0.74727000  0.40027000  0.59706900  1
  S  S19  1  0.94713000  0.85345700  0.46774300  1
  S  S20  1  0.23803300  0.62121200  0.71030800  1
  S  S21  1  0.54552600  0.14375300  0.53142800  1
  S  S22  1  0.03194700  0.62631500  0.05969000  1
  S  S23  1  0.73215000  0.89463800  0.09905400  1
  S  S24  1  0.53196500  0.65992700  0.99421700  1
  S  S25  1  0.96805300  0.37368500  0.94031000  1
  S  S26  1  0.05287000  0.14654300  0.53225700  1
  S  S27  1  0.17084500  0.11752200  0.20532800  1
  S  S28  1  0.45447400  0.85624700  0.46857200  1
  S  S29  1  0.26785000  0.10536200  0.90094600  1
  S  S30  1  0.46803500  0.34007300  0.00578300  1
  S  S31  1  0.82915500  0.88247800  0.79467200  1
