# generated using pymatgen
data_K4Nb6O17
_symmetry_space_group_name_H-M   'P 1'
_cell_length_a   6.60406800
_cell_length_b   7.93895200
_cell_length_c   33.70333600
_cell_angle_alpha   90.00000000
_cell_angle_beta   90.00000000
_cell_angle_gamma   90.00000000
_symmetry_Int_Tables_number   1
_chemical_formula_structural   K4Nb6O17
_chemical_formula_sum   'K16 Nb24 O68'
_cell_volume   1767.04497188
_cell_formula_units_Z   4
loop_
 _symmetry_equiv_pos_site_id
 _symmetry_equiv_pos_as_xyz
  1  'x, y, z'
loop_
 _atom_site_type_symbol
 _atom_site_label
 _atom_site_symmetry_multiplicity
 _atom_site_fract_x
 _atom_site_fract_y
 _atom_site_fract_z
 _atom_site_occupancy
  K  K0  1  0.84676800  0.75545900  0.71756700  1
  K  K1  1  0.34846900  0.75434800  0.78112400  1
  K  K2  1  0.21944200  0.25953400  0.98066500  1
  K  K3  1  0.66933800  0.25618200  0.91686100  1
  K  K4  1  0.78055800  0.75953400  0.01933500  1
  K  K5  1  0.16933800  0.75618200  0.58313900  1
  K  K6  1  0.71944200  0.75953400  0.51933500  1
  K  K7  1  0.34676800  0.25545900  0.78243300  1
  K  K8  1  0.33066200  0.75618200  0.08313900  1
  K  K9  1  0.65323200  0.75545900  0.21756700  1
  K  K10  1  0.15323200  0.25545900  0.28243300  1
  K  K11  1  0.15153100  0.75434800  0.28112400  1
  K  K12  1  0.65153100  0.25434800  0.21887600  1
  K  K13  1  0.28055800  0.25953400  0.48066500  1
  K  K14  1  0.84846900  0.25434800  0.71887600  1
  K  K15  1  0.83066200  0.25618200  0.41686100  1
  Nb  Nb16  1  0.13887900  0.25795200  0.09448800  1
  Nb  Nb17  1  0.18236200  0.76036600  0.45134500  1
  Nb  Nb18  1  0.73597600  0.51431200  0.62595800  1
  Nb  Nb19  1  0.26402400  0.01431200  0.37404200  1
  Nb  Nb20  1  0.70517700  0.50400200  0.32599800  1
  Nb  Nb21  1  0.81763800  0.26036600  0.54865500  1
  Nb  Nb22  1  0.23597600  0.01431200  0.87404200  1
  Nb  Nb23  1  0.76402400  0.51431200  0.12595800  1
  Nb  Nb24  1  0.68236200  0.26036600  0.04865500  1
  Nb  Nb25  1  0.20517700  0.00400200  0.17400200  1
  Nb  Nb26  1  0.73843000  0.00115200  0.62531000  1
  Nb  Nb27  1  0.76157000  0.00115200  0.12531000  1
  Nb  Nb28  1  0.36112100  0.25795200  0.59448800  1
  Nb  Nb29  1  0.79482300  0.50400200  0.82599800  1
  Nb  Nb30  1  0.31763800  0.76036600  0.95134500  1
  Nb  Nb31  1  0.29254400  0.50870500  0.67441400  1
  Nb  Nb32  1  0.86112100  0.75795200  0.90551200  1
  Nb  Nb33  1  0.23843000  0.50115200  0.87469000  1
  Nb  Nb34  1  0.29482300  0.00400200  0.67400200  1
  Nb  Nb35  1  0.79254400  0.00870500  0.82558600  1
  Nb  Nb36  1  0.70745600  0.00870500  0.32558600  1
  Nb  Nb37  1  0.63887900  0.75795200  0.40551200  1
  Nb  Nb38  1  0.26157000  0.50115200  0.37469000  1
  Nb  Nb39  1  0.20745600  0.50870500  0.17441400  1
  O  O40  1  0.87533100  0.26248100  0.49651400  1
  O  O41  1  0.69084400  0.02112300  0.06769800  1
  O  O42  1  0.58788800  0.99584500  0.39163500  1
  O  O43  1  0.49421300  0.00967300  0.85073100  1
  O  O44  1  0.78400400  0.75799800  0.11964900  1
  O  O45  1  0.59178300  0.00821400  0.67867700  1
  O  O46  1  0.50578700  0.50967300  0.14926900  1
  O  O47  1  0.30828100  0.99782800  0.93190700  1
  O  O48  1  0.28764500  0.48212000  0.22531600  1
  O  O49  1  0.21599600  0.25799800  0.88035100  1
  O  O50  1  0.90998400  0.50723100  0.17918100  1
  O  O51  1  0.21497300  0.25752100  0.15704300  1
  O  O52  1  0.77325100  0.25674000  0.83103000  1
  O  O53  1  0.00578700  0.00967300  0.35073100  1
  O  O54  1  0.89049000  0.75963700  0.42980000  1
  O  O55  1  0.72674900  0.25674000  0.33103000  1
  O  O56  1  0.90821700  0.00821400  0.17867700  1
  O  O57  1  0.69739200  0.25831500  0.61952300  1
  O  O58  1  0.71497300  0.75752100  0.34295700  1
  O  O59  1  0.19084400  0.52112300  0.43230200  1
  O  O60  1  0.59001600  0.50723100  0.67918100  1
  O  O61  1  0.71235500  0.98212000  0.77468400  1
  O  O62  1  0.49693100  0.50532600  0.85163000  1
  O  O63  1  0.28633400  0.03178300  0.22480400  1
  O  O64  1  0.91211200  0.99584500  0.89163500  1
  O  O65  1  0.91253200  0.51994400  0.89200500  1
  O  O66  1  0.51465700  0.25900600  0.54507900  1
  O  O67  1  0.27325100  0.75674000  0.66897000  1
  O  O68  1  0.41211200  0.49584500  0.60836500  1
  O  O69  1  0.28400400  0.25799800  0.38035100  1
  O  O70  1  0.78764500  0.98212000  0.27468400  1
  O  O71  1  0.71599600  0.75799800  0.61964900  1
  O  O72  1  0.99693100  0.00532600  0.64837000  1
  O  O73  1  0.10951000  0.25963700  0.57020000  1
  O  O74  1  0.80828100  0.49782800  0.56809300  1
  O  O75  1  0.78502700  0.75752100  0.84295700  1
  O  O76  1  0.98534300  0.25900600  0.04507900  1
  O  O77  1  0.80260800  0.25831500  0.11952300  1
  O  O78  1  0.37533100  0.76248100  0.00348600  1
  O  O79  1  0.58746800  0.51994400  0.39200500  1
  O  O80  1  0.21366600  0.03178300  0.72480400  1
  O  O81  1  0.80915600  0.02112300  0.56769800  1
  O  O82  1  0.09001600  0.00723100  0.82081900  1
  O  O83  1  0.08746800  0.01994400  0.10799500  1
  O  O84  1  0.01465700  0.75900600  0.95492100  1
  O  O85  1  0.08788800  0.49584500  0.10836500  1
  O  O86  1  0.62466900  0.26248100  0.99651400  1
  O  O87  1  0.40821700  0.50821400  0.32132300  1
  O  O88  1  0.19739200  0.75831500  0.88047700  1
  O  O89  1  0.30915600  0.52112300  0.93230200  1
  O  O90  1  0.39049000  0.25963700  0.07020000  1
  O  O91  1  0.78633400  0.53178300  0.27519600  1
  O  O92  1  0.21235500  0.48212000  0.72531600  1
  O  O93  1  0.30260800  0.75831500  0.38047700  1
  O  O94  1  0.28502700  0.25752100  0.65704300  1
  O  O95  1  0.12466900  0.76248100  0.50348600  1
  O  O96  1  0.50306900  0.00532600  0.14837000  1
  O  O97  1  0.69171900  0.49782800  0.06809300  1
  O  O98  1  0.00306900  0.50532600  0.35163000  1
  O  O99  1  0.48534300  0.75900600  0.45492100  1
  O  O100  1  0.41253200  0.01994400  0.60799500  1
  O  O101  1  0.19171900  0.99782800  0.43190700  1
  O  O102  1  0.60951000  0.75963700  0.92980000  1
  O  O103  1  0.40998400  0.00723100  0.32081900  1
  O  O104  1  0.71366600  0.53178300  0.77519600  1
  O  O105  1  0.09178300  0.50821400  0.82132300  1
  O  O106  1  0.22674900  0.75674000  0.16897000  1
  O  O107  1  0.99421300  0.50967300  0.64926900  1
