# generated using pymatgen
data_UHg3(TeCl3)2
_symmetry_space_group_name_H-M   'P 1'
_cell_length_a   8.08207800
_cell_length_b   7.02615500
_cell_length_c   14.05187096
_cell_angle_alpha   88.07247120
_cell_angle_beta   90.00000000
_cell_angle_gamma   90.00000000
_symmetry_Int_Tables_number   1
_chemical_formula_structural   UHg3(TeCl3)2
_chemical_formula_sum   'U2 Hg6 Te4 Cl12'
_cell_volume   797.49709667
_cell_formula_units_Z   2
loop_
 _symmetry_equiv_pos_site_id
 _symmetry_equiv_pos_as_xyz
  1  'x, y, z'
loop_
 _atom_site_type_symbol
 _atom_site_label
 _atom_site_symmetry_multiplicity
 _atom_site_fract_x
 _atom_site_fract_y
 _atom_site_fract_z
 _atom_site_occupancy
  U  U0  1  0.00000000  0.00000000  0.00000000  1
  U  U1  1  0.50000000  0.00000000  0.50000000  1
  Hg  Hg2  1  0.78786400  0.49453500  0.75925100  1
  Hg  Hg3  1  0.28786400  0.50546500  0.74074900  1
  Hg  Hg4  1  0.21213600  0.50546500  0.24074900  1
  Hg  Hg5  1  0.71213600  0.49453500  0.25925100  1
  Hg  Hg6  1  0.00000000  0.50000000  0.50000000  1
  Hg  Hg7  1  0.50000000  0.50000000  0.00000000  1
  Te  Te8  1  0.46791500  0.30247800  0.17003800  1
  Te  Te9  1  0.03208500  0.30247800  0.67003800  1
  Te  Te10  1  0.96791500  0.69752200  0.32996200  1
  Te  Te11  1  0.53208500  0.69752200  0.82996200  1
  Cl  Cl12  1  0.33914500  0.30867600  0.44063600  1
  Cl  Cl13  1  0.54749900  0.15753300  0.66434100  1
  Cl  Cl14  1  0.04749900  0.84246700  0.83565900  1
  Cl  Cl15  1  0.22405000  0.84914300  0.56975600  1
  Cl  Cl16  1  0.95250100  0.15753300  0.16434100  1
  Cl  Cl17  1  0.27595000  0.84914300  0.06975600  1
  Cl  Cl18  1  0.66085500  0.69132400  0.55936400  1
  Cl  Cl19  1  0.45250100  0.84246700  0.33565900  1
  Cl  Cl20  1  0.77595000  0.15085700  0.43024400  1
  Cl  Cl21  1  0.83914500  0.69132400  0.05936400  1
  Cl  Cl22  1  0.72405000  0.15085700  0.93024400  1
  Cl  Cl23  1  0.16085500  0.30867600  0.94063600  1
