# generated using pymatgen
data_Sm3CuSiSe7
_symmetry_space_group_name_H-M   'P 1'
_cell_length_a   10.54698840
_cell_length_b   10.54698840
_cell_length_c   6.03637800
_cell_angle_alpha   90.00000000
_cell_angle_beta   90.00000000
_cell_angle_gamma   120.00000249
_symmetry_Int_Tables_number   1
_chemical_formula_structural   Sm3CuSiSe7
_chemical_formula_sum   'Sm6 Cu2 Si2 Se14'
_cell_volume   581.51910159
_cell_formula_units_Z   2
loop_
 _symmetry_equiv_pos_site_id
 _symmetry_equiv_pos_as_xyz
  1  'x, y, z'
loop_
 _atom_site_type_symbol
 _atom_site_label
 _atom_site_symmetry_multiplicity
 _atom_site_fract_x
 _atom_site_fract_y
 _atom_site_fract_z
 _atom_site_occupancy
  Sm  Sm0  1  0.64503900  0.77212500  0.74153300  1
  Sm  Sm1  1  0.22787500  0.87291400  0.74153300  1
  Sm  Sm2  1  0.35496100  0.22787500  0.24153300  1
  Sm  Sm3  1  0.87291400  0.64503900  0.24153300  1
  Sm  Sm4  1  0.12708600  0.35496100  0.74153300  1
  Sm  Sm5  1  0.77212500  0.12708600  0.24153300  1
  Cu  Cu6  1  0.00000000  0.00000000  0.72281900  1
  Cu  Cu7  1  0.00000000  0.00000000  0.22281900  1
  Si  Si8  1  0.66666700  0.33333300  0.82950300  1
  Si  Si9  1  0.33333300  0.66666700  0.32950300  1
  Se  Se10  1  0.89560600  0.41644900  0.98161100  1
  Se  Se11  1  0.66666700  0.33333300  0.45376300  1
  Se  Se12  1  0.90789400  0.74262000  0.72662400  1
  Se  Se13  1  0.83472600  0.09210600  0.72662400  1
  Se  Se14  1  0.33333300  0.66666700  0.95376300  1
  Se  Se15  1  0.25738000  0.16527400  0.72662400  1
  Se  Se16  1  0.41644900  0.52084300  0.48161100  1
  Se  Se17  1  0.74262000  0.83472600  0.22662400  1
  Se  Se18  1  0.09210600  0.25738000  0.22662400  1
  Se  Se19  1  0.47915700  0.89560600  0.48161100  1
  Se  Se20  1  0.58355100  0.47915700  0.98161100  1
  Se  Se21  1  0.16527400  0.90789400  0.22662400  1
  Se  Se22  1  0.52084300  0.10439400  0.98161100  1
  Se  Se23  1  0.10439400  0.58355100  0.48161100  1
