# generated using pymatgen
data_HoNiGe
_symmetry_space_group_name_H-M   'P 1'
_cell_length_a   4.22556900
_cell_length_b   6.89840200
_cell_length_c   7.27561300
_cell_angle_alpha   90.00000000
_cell_angle_beta   90.00000000
_cell_angle_gamma   90.00000000
_symmetry_Int_Tables_number   1
_chemical_formula_structural   HoNiGe
_chemical_formula_sum   'Ho4 Ni4 Ge4'
_cell_volume   212.08174449
_cell_formula_units_Z   4
loop_
 _symmetry_equiv_pos_site_id
 _symmetry_equiv_pos_as_xyz
  1  'x, y, z'
loop_
 _atom_site_type_symbol
 _atom_site_label
 _atom_site_symmetry_multiplicity
 _atom_site_fract_x
 _atom_site_fract_y
 _atom_site_fract_z
 _atom_site_occupancy
  Ho  Ho0  1  0.75000000  0.00809200  0.70706300  1
  Ho  Ho1  1  0.25000000  0.49190800  0.20706300  1
  Ho  Ho2  1  0.75000000  0.50809200  0.79293700  1
  Ho  Ho3  1  0.25000000  0.99190800  0.29293700  1
  Ni  Ni4  1  0.75000000  0.80321700  0.08100700  1
  Ni  Ni5  1  0.25000000  0.19678300  0.91899300  1
  Ni  Ni6  1  0.25000000  0.69678300  0.58100700  1
  Ni  Ni7  1  0.75000000  0.30321700  0.41899300  1
  Ge  Ge8  1  0.25000000  0.80357100  0.91069100  1
  Ge  Ge9  1  0.75000000  0.69642900  0.41069100  1
  Ge  Ge10  1  0.25000000  0.30357100  0.58930900  1
  Ge  Ge11  1  0.75000000  0.19642900  0.08930900  1
