# generated using pymatgen
data_Na3Ce(PO4)2
_symmetry_space_group_name_H-M   'P 1'
_cell_length_a   5.40932500
_cell_length_b   14.18686300
_cell_length_c   18.85947900
_cell_angle_alpha   90.00000000
_cell_angle_beta   90.00000000
_cell_angle_gamma   90.00000000
_symmetry_Int_Tables_number   1
_chemical_formula_structural   Na3Ce(PO4)2
_chemical_formula_sum   'Na24 Ce8 P16 O64'
_cell_volume   1447.30192963
_cell_formula_units_Z   8
loop_
 _symmetry_equiv_pos_site_id
 _symmetry_equiv_pos_as_xyz
  1  'x, y, z'
loop_
 _atom_site_type_symbol
 _atom_site_label
 _atom_site_symmetry_multiplicity
 _atom_site_fract_x
 _atom_site_fract_y
 _atom_site_fract_z
 _atom_site_occupancy
  Na  Na0  1  0.99833600  0.95326000  0.57338000  1
  Na  Na1  1  0.49872900  0.61551800  0.97370300  1
  Na  Na2  1  0.00871300  0.72009300  0.91642900  1
  Na  Na3  1  0.50127100  0.38448200  0.47370300  1
  Na  Na4  1  0.47120600  0.47095300  0.81253800  1
  Na  Na5  1  0.00871300  0.77990700  0.41642900  1
  Na  Na6  1  0.99128700  0.22009300  0.91642900  1
  Na  Na7  1  0.99128700  0.27990700  0.41642900  1
  Na  Na8  1  0.48186500  0.79635600  0.65407200  1
  Na  Na9  1  0.00166400  0.45326000  0.57338000  1
  Na  Na10  1  0.98794100  0.63543800  0.25225800  1
  Na  Na11  1  0.50127100  0.11551800  0.97370300  1
  Na  Na12  1  0.01205900  0.13543800  0.25225800  1
  Na  Na13  1  0.99833600  0.54674000  0.07338000  1
  Na  Na14  1  0.47120600  0.02904700  0.31253800  1
  Na  Na15  1  0.52879400  0.52904700  0.31253800  1
  Na  Na16  1  0.51813500  0.20364400  0.15407200  1
  Na  Na17  1  0.51813500  0.29635600  0.65407200  1
  Na  Na18  1  0.01205900  0.36456200  0.75225800  1
  Na  Na19  1  0.98794100  0.86456200  0.75225800  1
  Na  Na20  1  0.52879400  0.97095300  0.81253800  1
  Na  Na21  1  0.49872900  0.88448200  0.47370300  1
  Na  Na22  1  0.48186500  0.70364400  0.15407200  1
  Na  Na23  1  0.00166400  0.04674000  0.07338000  1
  Ce  Ce24  1  0.93963100  0.88556100  0.22641500  1
  Ce  Ce25  1  0.46070200  0.36500400  0.99969100  1
  Ce  Ce26  1  0.53929800  0.86500400  0.99969100  1
  Ce  Ce27  1  0.53929800  0.63499600  0.49969100  1
  Ce  Ce28  1  0.06036900  0.11443900  0.72641500  1
  Ce  Ce29  1  0.93963100  0.61443900  0.72641500  1
  Ce  Ce30  1  0.06036900  0.38556100  0.22641500  1
  Ce  Ce31  1  0.46070200  0.13499600  0.49969100  1
  P  P32  1  0.02096100  0.97913000  0.90529200  1
  P  P33  1  0.46206500  0.73016500  0.82101200  1
  P  P34  1  0.53793500  0.26983500  0.32101200  1
  P  P35  1  0.97903900  0.02087000  0.40529200  1
  P  P36  1  0.00418400  0.77063800  0.07763300  1
  P  P37  1  0.99581600  0.22936200  0.57763300  1
  P  P38  1  0.47695400  0.98009800  0.14888900  1
  P  P39  1  0.53793500  0.23016500  0.82101200  1
  P  P40  1  0.97903900  0.47913000  0.90529200  1
  P  P41  1  0.46206500  0.76983500  0.32101200  1
  P  P42  1  0.99581600  0.27063800  0.07763300  1
  P  P43  1  0.52304600  0.01990200  0.64888900  1
  P  P44  1  0.52304600  0.48009800  0.14888900  1
  P  P45  1  0.00418400  0.72936200  0.57763300  1
  P  P46  1  0.47695400  0.51990200  0.64888900  1
  P  P47  1  0.02096100  0.52087000  0.40529200  1
  O  O48  1  0.53237900  0.24809000  0.40214600  1
  O  O49  1  0.60493800  0.86416100  0.30892100  1
  O  O50  1  0.96976900  0.87930300  0.07721000  1
  O  O51  1  0.99890400  0.76409600  0.65588400  1
  O  O52  1  0.01025200  0.00010000  0.32447500  1
  O  O53  1  0.52546800  0.98654600  0.57014600  1
  O  O54  1  0.11673600  0.38447000  0.92065300  1
  O  O55  1  0.69745900  0.47238800  0.68835400  1
  O  O56  1  0.74797900  0.24129700  0.04254900  1
  O  O57  1  0.98974800  0.99990000  0.82447500  1
  O  O58  1  0.69687900  0.03245100  0.42260500  1
  O  O59  1  0.47453200  0.48654600  0.57014600  1
  O  O60  1  0.00109600  0.23590400  0.15588400  1
  O  O61  1  0.88326400  0.61553000  0.42065300  1
  O  O62  1  0.03023100  0.37930300  0.07721000  1
  O  O63  1  0.81701600  0.21750800  0.79980500  1
  O  O64  1  0.09107300  0.55889200  0.95086500  1
  O  O65  1  0.78681700  0.72431900  0.03586500  1
  O  O66  1  0.23161900  0.49105100  0.68552900  1
  O  O67  1  0.25202100  0.74129700  0.04254900  1
  O  O68  1  0.21318300  0.22431900  0.03586500  1
  O  O69  1  0.18298400  0.78249200  0.29980500  1
  O  O70  1  0.46762100  0.74809000  0.40214600  1
  O  O71  1  0.78681700  0.77568100  0.53586500  1
  O  O72  1  0.18298400  0.71750800  0.79980500  1
  O  O73  1  0.48696900  0.37147400  0.15047100  1
  O  O74  1  0.74797900  0.25870300  0.54254900  1
  O  O75  1  0.23161900  0.00894900  0.18552900  1
  O  O76  1  0.60493800  0.63583900  0.80892100  1
  O  O77  1  0.42191600  0.19050000  0.27620900  1
  O  O78  1  0.30312100  0.53245100  0.42260500  1
  O  O79  1  0.69745900  0.02761200  0.18835400  1
  O  O80  1  0.69687900  0.46754900  0.92260500  1
  O  O81  1  0.99890400  0.73590400  0.15588400  1
  O  O82  1  0.01025200  0.49990000  0.82447500  1
  O  O83  1  0.88326400  0.88447000  0.92065300  1
  O  O84  1  0.25202100  0.75870300  0.54254900  1
  O  O85  1  0.51303100  0.87147400  0.15047100  1
  O  O86  1  0.57808400  0.69050000  0.27620900  1
  O  O87  1  0.21318300  0.27568100  0.53586500  1
  O  O88  1  0.42191600  0.30950000  0.77620900  1
  O  O89  1  0.00109600  0.26409600  0.65588400  1
  O  O90  1  0.96976900  0.62069700  0.57721000  1
  O  O91  1  0.30312100  0.96754900  0.92260500  1
  O  O92  1  0.47453200  0.01345400  0.07014600  1
  O  O93  1  0.48696900  0.12852600  0.65047100  1
  O  O94  1  0.90892700  0.05889200  0.95086500  1
  O  O95  1  0.51303100  0.62852600  0.65047100  1
  O  O96  1  0.46762100  0.75191000  0.90214600  1
  O  O97  1  0.52546800  0.51345400  0.07014600  1
  O  O98  1  0.09107300  0.94110800  0.45086500  1
  O  O99  1  0.30254100  0.52761200  0.18835400  1
  O  O100  1  0.53237900  0.25191000  0.90214600  1
  O  O101  1  0.39506200  0.13583900  0.80892100  1
  O  O102  1  0.03023100  0.12069700  0.57721000  1
  O  O103  1  0.39506200  0.36416100  0.30892100  1
  O  O104  1  0.81701600  0.28249200  0.29980500  1
  O  O105  1  0.90892700  0.44110800  0.45086500  1
  O  O106  1  0.57808400  0.80950000  0.77620900  1
  O  O107  1  0.76838100  0.50894900  0.18552900  1
  O  O108  1  0.30254100  0.97238800  0.68835400  1
  O  O109  1  0.98974800  0.50010000  0.32447500  1
  O  O110  1  0.76838100  0.99105100  0.68552900  1
  O  O111  1  0.11673600  0.11553000  0.42065300  1
