# generated using pymatgen
data_K3AlP2
_symmetry_space_group_name_H-M   'P 1'
_cell_length_a   8.94646900
_cell_length_b   11.94799622
_cell_length_c   15.30210831
_cell_angle_alpha   72.58638928
_cell_angle_beta   73.32548150
_cell_angle_gamma   71.87463557
_symmetry_Int_Tables_number   1
_chemical_formula_structural   K3AlP2
_chemical_formula_sum   'K24 Al8 P16'
_cell_volume   1448.98800625
_cell_formula_units_Z   8
loop_
 _symmetry_equiv_pos_site_id
 _symmetry_equiv_pos_as_xyz
  1  'x, y, z'
loop_
 _atom_site_type_symbol
 _atom_site_label
 _atom_site_symmetry_multiplicity
 _atom_site_fract_x
 _atom_site_fract_y
 _atom_site_fract_z
 _atom_site_occupancy
  K  K0  1  0.34441700  0.91558500  0.69335300  1
  K  K1  1  0.65558300  0.08441500  0.30664700  1
  K  K2  1  0.81868800  0.39863500  0.69165900  1
  K  K3  1  0.18131200  0.60136500  0.30834100  1
  K  K4  1  0.81064100  0.76302800  0.68061100  1
  K  K5  1  0.18935900  0.23697200  0.31938900  1
  K  K6  1  0.22591000  0.74528900  0.61794000  1
  K  K7  1  0.77409000  0.25471100  0.38206000  1
  K  K8  1  0.16023100  0.41917300  0.75800200  1
  K  K9  1  0.83976900  0.58082700  0.24199800  1
  K  K10  1  0.98393300  0.10760100  0.58419400  1
  K  K11  1  0.01606700  0.89239900  0.41580600  1
  K  K12  1  0.53309500  0.08198300  0.74488600  1
  K  K13  1  0.46690500  0.91801700  0.25511400  1
  K  K14  1  0.48594400  0.57330400  0.83833600  1
  K  K15  1  0.51405600  0.42669600  0.16166400  1
  K  K16  1  0.03171900  0.09604300  0.84793300  1
  K  K17  1  0.96828100  0.90395700  0.15206700  1
  K  K18  1  0.50886000  0.37449200  0.58392500  1
  K  K19  1  0.49114000  0.62550800  0.41607500  1
  K  K20  1  0.31490000  0.08405600  0.02424200  1
  K  K21  1  0.68510000  0.91594400  0.97575800  1
  K  K22  1  0.82063900  0.61950200  0.97720500  1
  K  K23  1  0.17936100  0.38049800  0.02279500  1
  Al  Al24  1  0.15434900  0.38739400  0.50973200  1
  Al  Al25  1  0.84565100  0.61260600  0.49026800  1
  Al  Al26  1  0.40581700  0.14082500  0.50871900  1
  Al  Al27  1  0.59418300  0.85917500  0.49128100  1
  Al  Al28  1  0.15125200  0.77766000  0.92637800  1
  Al  Al29  1  0.84874800  0.22234000  0.07362200  1
  Al  Al30  1  0.64023500  0.26659700  0.94556900  1
  Al  Al31  1  0.35976500  0.73340300  0.05443100  1
  P  P32  1  0.21807100  0.21821200  0.64114900  1
  P  P33  1  0.78192900  0.78178800  0.35885100  1
  P  P34  1  0.33103600  0.98542400  0.46213700  1
  P  P35  1  0.66896400  0.01457600  0.53786300  1
  P  P36  1  0.59535600  0.66403700  0.60392300  1
  P  P37  1  0.40464400  0.33596300  0.39607700  1
  P  P38  1  0.09461500  0.58757500  0.54029100  1
  P  P39  1  0.90538500  0.41242500  0.45970900  1
  P  P40  1  0.99818700  0.82346700  0.81929800  1
  P  P41  1  0.00181300  0.17653300  0.18070200  1
  P  P42  1  0.48563400  0.29365600  0.84393400  1
  P  P43  1  0.51436600  0.70634400  0.15606600  1
  P  P44  1  0.84180500  0.36621800  0.92930000  1
  P  P45  1  0.15819500  0.63378200  0.07070000  1
  P  P46  1  0.36075300  0.87104100  0.90951800  1
  P  P47  1  0.63924700  0.12895900  0.09048200  1
