# generated using pymatgen
data_CsCu2ICl2
_symmetry_space_group_name_H-M   'P 1'
_cell_length_a   5.55818200
_cell_length_b   7.76227300
_cell_length_c   8.83039680
_cell_angle_alpha   69.79664068
_cell_angle_beta   90.00000000
_cell_angle_gamma   90.00000000
_symmetry_Int_Tables_number   1
_chemical_formula_structural   CsCu2ICl2
_chemical_formula_sum   'Cs2 Cu4 I2 Cl4'
_cell_volume   357.53912626
_cell_formula_units_Z   2
loop_
 _symmetry_equiv_pos_site_id
 _symmetry_equiv_pos_as_xyz
  1  'x, y, z'
loop_
 _atom_site_type_symbol
 _atom_site_label
 _atom_site_symmetry_multiplicity
 _atom_site_fract_x
 _atom_site_fract_y
 _atom_site_fract_z
 _atom_site_occupancy
  Cs  Cs0  1  0.75000000  0.32803700  0.36586100  1
  Cs  Cs1  1  0.25000000  0.67196300  0.63413900  1
  Cu  Cu2  1  0.49586600  0.11432200  0.85321400  1
  Cu  Cu3  1  0.00413400  0.11432200  0.85321400  1
  Cu  Cu4  1  0.99586600  0.88567800  0.14678600  1
  Cu  Cu5  1  0.50413400  0.88567800  0.14678600  1
  I  I6  1  0.25000000  0.19446300  0.08167300  1
  I  I7  1  0.75000000  0.80553700  0.91832700  1
  Cl  Cl8  1  0.25000000  0.13121100  0.62795000  1
  Cl  Cl9  1  0.25000000  0.62412000  0.25327800  1
  Cl  Cl10  1  0.75000000  0.86878900  0.37205000  1
  Cl  Cl11  1  0.75000000  0.37588000  0.74672200  1
