# generated using pymatgen
data_CaBiClO2
_symmetry_space_group_name_H-M   'P 1'
_cell_length_a   4.17146200
_cell_length_b   6.51339800
_cell_length_c   7.82548731
_cell_angle_alpha   75.21545230
_cell_angle_beta   90.00000000
_cell_angle_gamma   90.00000000
_symmetry_Int_Tables_number   1
_chemical_formula_structural   CaBiClO2
_chemical_formula_sum   'Ca2 Bi2 Cl2 O4'
_cell_volume   205.58213742
_cell_formula_units_Z   2
loop_
 _symmetry_equiv_pos_site_id
 _symmetry_equiv_pos_as_xyz
  1  'x, y, z'
loop_
 _atom_site_type_symbol
 _atom_site_label
 _atom_site_symmetry_multiplicity
 _atom_site_fract_x
 _atom_site_fract_y
 _atom_site_fract_z
 _atom_site_occupancy
  Ca  Ca0  1  0.25000000  0.67065000  0.07875800  1
  Ca  Ca1  1  0.75000000  0.32935000  0.92124200  1
  Bi  Bi2  1  0.25000000  0.67574300  0.59285100  1
  Bi  Bi3  1  0.75000000  0.32425700  0.40714900  1
  Cl  Cl4  1  0.25000000  0.05555000  0.18496900  1
  Cl  Cl5  1  0.75000000  0.94445000  0.81503100  1
  O  O6  1  0.75000000  0.52910400  0.59805800  1
  O  O7  1  0.25000000  0.47089600  0.40194200  1
  O  O8  1  0.75000000  0.51135600  0.14280500  1
  O  O9  1  0.25000000  0.48864400  0.85719500  1
