# generated using pymatgen
data_GdSeClO3
_symmetry_space_group_name_H-M   'P 1'
_cell_length_a   7.12221900
_cell_length_b   7.37168500
_cell_length_c   8.97909000
_cell_angle_alpha   90.00000000
_cell_angle_beta   90.00000000
_cell_angle_gamma   90.00000000
_symmetry_Int_Tables_number   1
_chemical_formula_structural   GdSeClO3
_chemical_formula_sum   'Gd4 Se4 Cl4 O12'
_cell_volume   471.42696211
_cell_formula_units_Z   4
loop_
 _symmetry_equiv_pos_site_id
 _symmetry_equiv_pos_as_xyz
  1  'x, y, z'
loop_
 _atom_site_type_symbol
 _atom_site_label
 _atom_site_symmetry_multiplicity
 _atom_site_fract_x
 _atom_site_fract_y
 _atom_site_fract_z
 _atom_site_occupancy
  Gd  Gd0  1  0.25000000  0.10819100  0.53973500  1
  Gd  Gd1  1  0.75000000  0.39180900  0.03973500  1
  Gd  Gd2  1  0.75000000  0.89180900  0.46026500  1
  Gd  Gd3  1  0.25000000  0.60819100  0.96026500  1
  Se  Se4  1  0.75000000  0.28931400  0.63193500  1
  Se  Se5  1  0.75000000  0.78931400  0.86806500  1
  Se  Se6  1  0.25000000  0.21068600  0.13193500  1
  Se  Se7  1  0.25000000  0.71068600  0.36806500  1
  Cl  Cl8  1  0.75000000  0.55415900  0.31882900  1
  Cl  Cl9  1  0.25000000  0.94584100  0.81882900  1
  Cl  Cl10  1  0.75000000  0.05415900  0.18117100  1
  Cl  Cl11  1  0.25000000  0.44584100  0.68117100  1
  O  O12  1  0.92605100  0.64286400  0.93259400  1
  O  O13  1  0.92605100  0.14286400  0.56740600  1
  O  O14  1  0.75000000  0.74766400  0.68156400  1
  O  O15  1  0.57394900  0.14286400  0.56740600  1
  O  O16  1  0.75000000  0.24766400  0.81843600  1
  O  O17  1  0.42605100  0.35713600  0.06740600  1
  O  O18  1  0.07394900  0.35713600  0.06740600  1
  O  O19  1  0.07394900  0.85713600  0.43259400  1
  O  O20  1  0.42605100  0.85713600  0.43259400  1
  O  O21  1  0.25000000  0.25233600  0.31843600  1
  O  O22  1  0.25000000  0.75233600  0.18156400  1
  O  O23  1  0.57394900  0.64286400  0.93259400  1
