# generated using pymatgen
data_KTeO2F
_symmetry_space_group_name_H-M   'P 1'
_cell_length_a   15.26837200
_cell_length_b   6.34961900
_cell_length_c   13.24373501
_cell_angle_alpha   65.66069565
_cell_angle_beta   90.00000000
_cell_angle_gamma   90.00000000
_symmetry_Int_Tables_number   1
_chemical_formula_structural   KTeO2F
_chemical_formula_sum   'K12 Te12 O24 F12'
_cell_volume   1169.84097101
_cell_formula_units_Z   12
loop_
 _symmetry_equiv_pos_site_id
 _symmetry_equiv_pos_as_xyz
  1  'x, y, z'
loop_
 _atom_site_type_symbol
 _atom_site_label
 _atom_site_symmetry_multiplicity
 _atom_site_fract_x
 _atom_site_fract_y
 _atom_site_fract_z
 _atom_site_occupancy
  K  K0  1  0.68452400  0.79305100  0.98533200  1
  K  K1  1  0.31498000  0.84054200  0.36802000  1
  K  K2  1  0.18502000  0.84054200  0.86802000  1
  K  K3  1  0.81498000  0.15945800  0.13198000  1
  K  K4  1  0.92872200  0.33746400  0.39895200  1
  K  K5  1  0.68502000  0.15945800  0.63198000  1
  K  K6  1  0.18452400  0.20694900  0.51466800  1
  K  K7  1  0.42872200  0.66253600  0.10104800  1
  K  K8  1  0.57127800  0.33746400  0.89895200  1
  K  K9  1  0.07127800  0.66253600  0.60104800  1
  K  K10  1  0.81547600  0.79305100  0.48533200  1
  K  K11  1  0.31547600  0.20694900  0.01466800  1
  Te  Te12  1  0.55127200  0.08197200  0.21795500  1
  Te  Te13  1  0.44872800  0.91802800  0.78204500  1
  Te  Te14  1  0.81573000  0.42653100  0.80257200  1
  Te  Te15  1  0.68427000  0.42653100  0.30257200  1
  Te  Te16  1  0.03843100  0.31930800  0.90681100  1
  Te  Te17  1  0.46156900  0.31930800  0.40681100  1
  Te  Te18  1  0.94872800  0.08197200  0.71795500  1
  Te  Te19  1  0.05127200  0.91802800  0.28204500  1
  Te  Te20  1  0.31573000  0.57346900  0.69742800  1
  Te  Te21  1  0.18427000  0.57346900  0.19742800  1
  Te  Te22  1  0.96156900  0.68069200  0.09318900  1
  Te  Te23  1  0.53843100  0.68069200  0.59318900  1
  O  O24  1  0.02354600  0.16058100  0.59903200  1
  O  O25  1  0.46896100  0.63124300  0.31616400  1
  O  O26  1  0.39362200  0.61591200  0.81985900  1
  O  O27  1  0.25481600  0.82193500  0.17791800  1
  O  O28  1  0.95093900  0.81738600  0.19876900  1
  O  O29  1  0.24518400  0.82193500  0.67791800  1
  O  O30  1  0.97645400  0.83941900  0.40096800  1
  O  O31  1  0.52354600  0.83941900  0.90096800  1
  O  O32  1  0.09809500  0.73416900  0.08223000  1
  O  O33  1  0.90190500  0.26583100  0.91777000  1
  O  O34  1  0.53103900  0.36875700  0.68383600  1
  O  O35  1  0.45093900  0.18261400  0.30123100  1
  O  O36  1  0.60637800  0.38408800  0.18014100  1
  O  O37  1  0.47645400  0.16058100  0.09903200  1
  O  O38  1  0.40190500  0.73416900  0.58223000  1
  O  O39  1  0.96896100  0.36875700  0.18383600  1
  O  O40  1  0.54906100  0.81738600  0.69876900  1
  O  O41  1  0.74518400  0.17806500  0.82208200  1
  O  O42  1  0.03103900  0.63124300  0.81616400  1
  O  O43  1  0.10637800  0.61591200  0.31985900  1
  O  O44  1  0.59809500  0.26583100  0.41777000  1
  O  O45  1  0.04906100  0.18261400  0.80123100  1
  O  O46  1  0.89362200  0.38408800  0.68014100  1
  O  O47  1  0.75481600  0.17806500  0.32208200  1
  F  F48  1  0.25759800  0.53059400  0.06934500  1
  F  F49  1  0.24240200  0.53059400  0.56934500  1
  F  F50  1  0.17696300  0.34046700  0.88949600  1
  F  F51  1  0.75759800  0.46940600  0.43065500  1
  F  F52  1  0.74240200  0.46940600  0.93065500  1
  F  F53  1  0.32303700  0.34046700  0.38949600  1
  F  F54  1  0.14830500  0.98383800  0.38334200  1
  F  F55  1  0.82303700  0.65953300  0.11050400  1
  F  F56  1  0.85169500  0.01616200  0.61665800  1
  F  F57  1  0.35169500  0.98383800  0.88334200  1
  F  F58  1  0.64830500  0.01616200  0.11665800  1
  F  F59  1  0.67696300  0.65953300  0.61050400  1
