# generated using pymatgen
data_La2C2N4O
_symmetry_space_group_name_H-M   'P 1'
_cell_length_a   7.48012739
_cell_length_b   7.48012739
_cell_length_c   6.14068267
_cell_angle_alpha   76.64346268
_cell_angle_beta   76.64346268
_cell_angle_gamma   49.64739160
_symmetry_Int_Tables_number   1
_chemical_formula_structural   La2C2N4O
_chemical_formula_sum   'La4 C4 N8 O2'
_cell_volume   253.21405063
_cell_formula_units_Z   2
loop_
 _symmetry_equiv_pos_site_id
 _symmetry_equiv_pos_as_xyz
  1  'x, y, z'
loop_
 _atom_site_type_symbol
 _atom_site_label
 _atom_site_symmetry_multiplicity
 _atom_site_fract_x
 _atom_site_fract_y
 _atom_site_fract_z
 _atom_site_occupancy
  La  La0  1  0.31530400  0.88522900  0.42451700  1
  La  La1  1  0.11477100  0.68469600  0.07548300  1
  La  La2  1  0.68469600  0.11477100  0.57548300  1
  La  La3  1  0.88522900  0.31530400  0.92451700  1
  C  C4  1  0.87876200  0.42637100  0.38852400  1
  C  C5  1  0.42637100  0.87876200  0.88852400  1
  C  C6  1  0.57362900  0.12123800  0.11147600  1
  C  C7  1  0.12123800  0.57362900  0.61147600  1
  N  N8  1  0.47496700  0.70936200  0.03101200  1
  N  N9  1  0.52503300  0.29063800  0.96898800  1
  N  N10  1  0.95019700  0.63286700  0.75354900  1
  N  N11  1  0.70936200  0.47496700  0.53101200  1
  N  N12  1  0.04980300  0.36713300  0.24645100  1
  N  N13  1  0.36713300  0.04980300  0.74645100  1
  N  N14  1  0.29063800  0.52503300  0.46898800  1
  N  N15  1  0.63286700  0.95019700  0.25354900  1
  O  O16  1  0.02610100  0.97389900  0.75000000  1
  O  O17  1  0.97389900  0.02610100  0.25000000  1
