# generated using pymatgen
data_Ce(TiAl10)2
_symmetry_space_group_name_H-M   'P 1'
_cell_length_a   10.39277121
_cell_length_b   10.39277121
_cell_length_c   10.39277121
_cell_angle_alpha   60.00000000
_cell_angle_beta   60.00000000
_cell_angle_gamma   60.00000000
_symmetry_Int_Tables_number   1
_chemical_formula_structural   Ce(TiAl10)2
_chemical_formula_sum   'Ce2 Ti4 Al40'
_cell_volume   793.74152747
_cell_formula_units_Z   2
loop_
 _symmetry_equiv_pos_site_id
 _symmetry_equiv_pos_as_xyz
  1  'x, y, z'
loop_
 _atom_site_type_symbol
 _atom_site_label
 _atom_site_symmetry_multiplicity
 _atom_site_fract_x
 _atom_site_fract_y
 _atom_site_fract_z
 _atom_site_occupancy
  Ce  Ce0  1  0.50000000  0.50000000  0.50000000  1
  Ce  Ce1  1  0.75000000  0.75000000  0.75000000  1
  Ti  Ti2  1  0.62500000  0.12500000  0.12500000  1
  Ti  Ti3  1  0.12500000  0.62500000  0.12500000  1
  Ti  Ti4  1  0.12500000  0.12500000  0.62500000  1
  Ti  Ti5  1  0.12500000  0.12500000  0.12500000  1
  Al  Al6  1  0.86400300  0.86400300  0.13599700  1
  Al  Al7  1  0.13599700  0.13599700  0.86400300  1
  Al  Al8  1  0.86400300  0.13599700  0.86400300  1
  Al  Al9  1  0.13599700  0.86400300  0.13599700  1
  Al  Al10  1  0.13599700  0.86400300  0.86400300  1
  Al  Al11  1  0.86400300  0.13599700  0.13599700  1
  Al  Al12  1  0.38599700  0.38599700  0.11400300  1
  Al  Al13  1  0.11400300  0.11400300  0.38599700  1
  Al  Al14  1  0.38599700  0.11400300  0.38599700  1
  Al  Al15  1  0.11400300  0.38599700  0.11400300  1
  Al  Al16  1  0.11400300  0.38599700  0.38599700  1
  Al  Al17  1  0.38599700  0.11400300  0.11400300  1
  Al  Al18  1  0.56811200  0.30041800  0.30041800  1
  Al  Al19  1  0.30041800  0.56811200  0.83105100  1
  Al  Al20  1  0.30041800  0.83105100  0.56811200  1
  Al  Al21  1  0.83105100  0.30041800  0.30041800  1
  Al  Al22  1  0.30041800  0.30041800  0.56811200  1
  Al  Al23  1  0.56811200  0.83105100  0.30041800  1
  Al  Al24  1  0.83105100  0.56811200  0.30041800  1
  Al  Al25  1  0.30041800  0.30041800  0.83105100  1
  Al  Al26  1  0.30041800  0.56811200  0.30041800  1
  Al  Al27  1  0.83105100  0.30041800  0.56811200  1
  Al  Al28  1  0.56811200  0.30041800  0.83105100  1
  Al  Al29  1  0.30041800  0.83105100  0.30041800  1
  Al  Al30  1  0.68188800  0.94958200  0.94958200  1
  Al  Al31  1  0.94958200  0.68188800  0.41894900  1
  Al  Al32  1  0.94958200  0.41894900  0.68188800  1
  Al  Al33  1  0.41894900  0.94958200  0.94958200  1
  Al  Al34  1  0.94958200  0.94958200  0.68188800  1
  Al  Al35  1  0.68188800  0.41894900  0.94958200  1
  Al  Al36  1  0.41894900  0.68188800  0.94958200  1
  Al  Al37  1  0.94958200  0.94958200  0.41894900  1
  Al  Al38  1  0.94958200  0.68188800  0.94958200  1
  Al  Al39  1  0.41894900  0.94958200  0.68188800  1
  Al  Al40  1  0.68188800  0.94958200  0.41894900  1
  Al  Al41  1  0.94958200  0.41894900  0.94958200  1
  Al  Al42  1  0.12500000  0.62500000  0.62500000  1
  Al  Al43  1  0.62500000  0.12500000  0.62500000  1
  Al  Al44  1  0.62500000  0.62500000  0.12500000  1
  Al  Al45  1  0.62500000  0.62500000  0.62500000  1
