# generated using pymatgen
data_Ca2VClO4
_symmetry_space_group_name_H-M   'P 1'
_cell_length_a   6.39796000
_cell_length_b   7.20438900
_cell_length_c   11.19028800
_cell_angle_alpha   90.00000000
_cell_angle_beta   90.00000000
_cell_angle_gamma   90.00000000
_symmetry_Int_Tables_number   1
_chemical_formula_structural   Ca2VClO4
_chemical_formula_sum   'Ca8 V4 Cl4 O16'
_cell_volume   515.79833861
_cell_formula_units_Z   4
loop_
 _symmetry_equiv_pos_site_id
 _symmetry_equiv_pos_as_xyz
  1  'x, y, z'
loop_
 _atom_site_type_symbol
 _atom_site_label
 _atom_site_symmetry_multiplicity
 _atom_site_fract_x
 _atom_site_fract_y
 _atom_site_fract_z
 _atom_site_occupancy
  Ca  Ca0  1  0.85888300  0.97259300  0.25000000  1
  Ca  Ca1  1  0.14111700  0.47259300  0.25000000  1
  Ca  Ca2  1  0.37933200  0.75000000  0.00000000  1
  Ca  Ca3  1  0.62066800  0.25000000  0.50000000  1
  Ca  Ca4  1  0.85888300  0.52740700  0.75000000  1
  Ca  Ca5  1  0.14111700  0.02740700  0.75000000  1
  Ca  Ca6  1  0.37933200  0.75000000  0.50000000  1
  Ca  Ca7  1  0.62066800  0.25000000  0.00000000  1
  V  V8  1  0.87314200  0.75000000  0.00000000  1
  V  V9  1  0.12685800  0.25000000  0.00000000  1
  V  V10  1  0.87314200  0.75000000  0.50000000  1
  V  V11  1  0.12685800  0.25000000  0.50000000  1
  Cl  Cl12  1  0.50959900  0.80481600  0.75000000  1
  Cl  Cl13  1  0.49040100  0.19518400  0.25000000  1
  Cl  Cl14  1  0.49040100  0.30481600  0.75000000  1
  Cl  Cl15  1  0.50959900  0.69518400  0.25000000  1
  O  O16  1  0.03499500  0.73067700  0.12475800  1
  O  O17  1  0.29132300  0.43605300  0.02906100  1
  O  O18  1  0.03499500  0.76932300  0.87524200  1
  O  O19  1  0.29132300  0.06394700  0.52906100  1
  O  O20  1  0.96500500  0.26932300  0.87524200  1
  O  O21  1  0.70867700  0.56394700  0.52906100  1
  O  O22  1  0.03499500  0.73067700  0.37524200  1
  O  O23  1  0.29132300  0.43605300  0.47093900  1
  O  O24  1  0.70867700  0.93605300  0.02906100  1
  O  O25  1  0.29132300  0.06394700  0.97093900  1
  O  O26  1  0.70867700  0.93605300  0.47093900  1
  O  O27  1  0.96500500  0.23067700  0.37524200  1
  O  O28  1  0.70867700  0.56394700  0.97093900  1
  O  O29  1  0.96500500  0.26932300  0.62475800  1
  O  O30  1  0.96500500  0.23067700  0.12475800  1
  O  O31  1  0.03499500  0.76932300  0.62475800  1
