# generated using pymatgen
data_NaFe(TeO3)2
_symmetry_space_group_name_H-M   'P 1'
_cell_length_a   7.92177400
_cell_length_b   10.61011800
_cell_length_c   13.68422100
_cell_angle_alpha   90.00000000
_cell_angle_beta   90.00000000
_cell_angle_gamma   90.00000000
_symmetry_Int_Tables_number   1
_chemical_formula_structural   NaFe(TeO3)2
_chemical_formula_sum   'Na8 Fe8 Te16 O48'
_cell_volume   1150.17186961
_cell_formula_units_Z   8
loop_
 _symmetry_equiv_pos_site_id
 _symmetry_equiv_pos_as_xyz
  1  'x, y, z'
loop_
 _atom_site_type_symbol
 _atom_site_label
 _atom_site_symmetry_multiplicity
 _atom_site_fract_x
 _atom_site_fract_y
 _atom_site_fract_z
 _atom_site_occupancy
  Na  Na0  1  0.33240700  0.75889500  0.86029100  1
  Na  Na1  1  0.16759300  0.25889500  0.13970900  1
  Na  Na2  1  0.83240700  0.74110500  0.86029100  1
  Na  Na3  1  0.66759300  0.24110500  0.13970900  1
  Na  Na4  1  0.66759300  0.74110500  0.36029100  1
  Na  Na5  1  0.33240700  0.25889500  0.63970900  1
  Na  Na6  1  0.83240700  0.24110500  0.63970900  1
  Na  Na7  1  0.16759300  0.75889500  0.36029100  1
  Fe  Fe8  1  0.80465000  0.00002500  0.97950500  1
  Fe  Fe9  1  0.19535000  0.49997500  0.47950500  1
  Fe  Fe10  1  0.69535000  0.50002500  0.02049500  1
  Fe  Fe11  1  0.30465000  0.49997500  0.97950500  1
  Fe  Fe12  1  0.80465000  0.50002500  0.52049500  1
  Fe  Fe13  1  0.30465000  0.99997500  0.52049500  1
  Fe  Fe14  1  0.69535000  0.00002500  0.47950500  1
  Fe  Fe15  1  0.19535000  0.99997500  0.02049500  1
  Te  Te16  1  0.45134900  0.71403600  0.57615300  1
  Te  Te17  1  0.41894900  0.50917200  0.23266500  1
  Te  Te18  1  0.58105100  0.49082800  0.76733500  1
  Te  Te19  1  0.41894900  0.00917200  0.26733500  1
  Te  Te20  1  0.95134900  0.28596400  0.92384700  1
  Te  Te21  1  0.04865100  0.21403600  0.42384700  1
  Te  Te22  1  0.08105100  0.50917200  0.73266500  1
  Te  Te23  1  0.54865100  0.78596400  0.07615300  1
  Te  Te24  1  0.91894900  0.99082800  0.23266500  1
  Te  Te25  1  0.08105100  0.00917200  0.76733500  1
  Te  Te26  1  0.58105100  0.99082800  0.73266500  1
  Te  Te27  1  0.91894900  0.49082800  0.26733500  1
  Te  Te28  1  0.54865100  0.28596400  0.42384700  1
  Te  Te29  1  0.95134900  0.78596400  0.57615300  1
  Te  Te30  1  0.45134900  0.21403600  0.92384700  1
  Te  Te31  1  0.04865100  0.71403600  0.07615300  1
  O  O32  1  0.62634800  0.46782900  0.16410500  1
  O  O33  1  0.68033200  0.65829800  0.55262800  1
  O  O34  1  0.81966800  0.65829800  0.05262800  1
  O  O35  1  0.18033200  0.34170200  0.94737200  1
  O  O36  1  0.43593400  0.18615800  0.26760700  1
  O  O37  1  0.06406600  0.18615800  0.76760700  1
  O  O38  1  0.76192400  0.01938000  0.12758900  1
  O  O39  1  0.50133600  0.37148400  0.98943400  1
  O  O40  1  0.87008600  0.37034200  0.03994900  1
  O  O41  1  0.23807600  0.48062000  0.62758900  1
  O  O42  1  0.12634800  0.53217100  0.33589500  1
  O  O43  1  0.93593400  0.31384200  0.26760700  1
  O  O44  1  0.43593400  0.68615800  0.23239300  1
  O  O45  1  0.73807600  0.01938000  0.62758900  1
  O  O46  1  0.37008600  0.12965800  0.03994900  1
  O  O47  1  0.00133600  0.12851600  0.98943400  1
  O  O48  1  0.50133600  0.87148400  0.51056600  1
  O  O49  1  0.49866400  0.12851600  0.48943400  1
  O  O50  1  0.37365200  0.03217100  0.66410500  1
  O  O51  1  0.37365200  0.53217100  0.83589500  1
  O  O52  1  0.99866400  0.87148400  0.01056600  1
  O  O53  1  0.56406600  0.31384200  0.76760700  1
  O  O54  1  0.56406600  0.81384200  0.73239300  1
  O  O55  1  0.76192400  0.51938000  0.37241100  1
  O  O56  1  0.68033200  0.15829800  0.94737200  1
  O  O57  1  0.37008600  0.62965800  0.46005100  1
  O  O58  1  0.18033200  0.84170200  0.55262800  1
  O  O59  1  0.99866400  0.37148400  0.48943400  1
  O  O60  1  0.23807600  0.98062000  0.87241100  1
  O  O61  1  0.12634800  0.03217100  0.16410500  1
  O  O62  1  0.62634800  0.96782900  0.33589500  1
  O  O63  1  0.12991400  0.12965800  0.53994900  1
  O  O64  1  0.62991400  0.37034200  0.53994900  1
  O  O65  1  0.49866400  0.62851600  0.01056600  1
  O  O66  1  0.73807600  0.51938000  0.87241100  1
  O  O67  1  0.00133600  0.62851600  0.51056600  1
  O  O68  1  0.87365200  0.96782900  0.83589500  1
  O  O69  1  0.81966800  0.15829800  0.44737200  1
  O  O70  1  0.26192400  0.48062000  0.12758900  1
  O  O71  1  0.06406600  0.68615800  0.73239300  1
  O  O72  1  0.87008600  0.87034200  0.46005100  1
  O  O73  1  0.26192400  0.98062000  0.37241100  1
  O  O74  1  0.31966800  0.34170200  0.44737200  1
  O  O75  1  0.31966800  0.84170200  0.05262800  1
  O  O76  1  0.93593400  0.81384200  0.23239300  1
  O  O77  1  0.62991400  0.87034200  0.96005100  1
  O  O78  1  0.12991400  0.62965800  0.96005100  1
  O  O79  1  0.87365200  0.46782900  0.66410500  1
