# generated using pymatgen
data_NaTi2Al5O12
_symmetry_space_group_name_H-M   'P 1'
_cell_length_a   2.94123200
_cell_length_b   9.16175500
_cell_length_c   15.54520200
_cell_angle_alpha   90.00000000
_cell_angle_beta   90.00000000
_cell_angle_gamma   90.00000000
_symmetry_Int_Tables_number   1
_chemical_formula_structural   NaTi2Al5O12
_chemical_formula_sum   'Na2 Ti4 Al10 O24'
_cell_volume   418.89417960
_cell_formula_units_Z   2
loop_
 _symmetry_equiv_pos_site_id
 _symmetry_equiv_pos_as_xyz
  1  'x, y, z'
loop_
 _atom_site_type_symbol
 _atom_site_label
 _atom_site_symmetry_multiplicity
 _atom_site_fract_x
 _atom_site_fract_y
 _atom_site_fract_z
 _atom_site_occupancy
  Na  Na0  1  0.50000000  0.50000000  0.00000000  1
  Na  Na1  1  0.50000000  0.00000000  0.50000000  1
  Ti  Ti2  1  0.50000000  0.72913700  0.35611000  1
  Ti  Ti3  1  0.50000000  0.27086300  0.64389000  1
  Ti  Ti4  1  0.50000000  0.77086300  0.85611000  1
  Ti  Ti5  1  0.50000000  0.22913700  0.14389000  1
  Al  Al6  1  0.00000000  0.00000000  0.00000000  1
  Al  Al7  1  0.00000000  0.49057700  0.80090600  1
  Al  Al8  1  0.00000000  0.00942300  0.30090600  1
  Al  Al9  1  0.00000000  0.50942300  0.19909400  1
  Al  Al10  1  0.50000000  0.19159900  0.85405300  1
  Al  Al11  1  0.50000000  0.80840100  0.14594700  1
  Al  Al12  1  0.00000000  0.99057700  0.69909400  1
  Al  Al13  1  0.50000000  0.69159900  0.64594700  1
  Al  Al14  1  0.50000000  0.30840100  0.35405300  1
  Al  Al15  1  0.00000000  0.50000000  0.50000000  1
  O  O16  1  0.50000000  0.39478000  0.55143900  1
  O  O17  1  0.00000000  0.13622700  0.90716900  1
  O  O18  1  0.50000000  0.11332900  0.35199700  1
  O  O19  1  0.00000000  0.36315500  0.70515500  1
  O  O20  1  0.50000000  0.38667100  0.85199700  1
  O  O21  1  0.50000000  0.61332900  0.14800300  1
  O  O22  1  0.50000000  0.10522000  0.05143900  1
  O  O23  1  0.00000000  0.86377300  0.09283100  1
  O  O24  1  0.00000000  0.63622700  0.59283100  1
  O  O25  1  0.00000000  0.86315500  0.79484500  1
  O  O26  1  0.00000000  0.13684500  0.20515500  1
  O  O27  1  0.00000000  0.13478200  0.60653500  1
  O  O28  1  0.50000000  0.60899300  0.75183500  1
  O  O29  1  0.00000000  0.86521800  0.39346500  1
  O  O30  1  0.00000000  0.63684500  0.29484500  1
  O  O31  1  0.00000000  0.63478200  0.89346500  1
  O  O32  1  0.50000000  0.89478000  0.94856100  1
  O  O33  1  0.50000000  0.10899300  0.74816500  1
  O  O34  1  0.50000000  0.60522000  0.44856100  1
  O  O35  1  0.50000000  0.89100700  0.25183500  1
  O  O36  1  0.00000000  0.36377300  0.40716900  1
  O  O37  1  0.50000000  0.39100700  0.24816500  1
  O  O38  1  0.00000000  0.36521800  0.10653500  1
  O  O39  1  0.50000000  0.88667100  0.64800300  1
