# generated using pymatgen
data_Sn5(PO5)2
_symmetry_space_group_name_H-M   'P 1'
_cell_length_a   7.28952700
_cell_length_b   7.32344838
_cell_length_c   13.23587264
_cell_angle_alpha   87.91509297
_cell_angle_beta   86.08414441
_cell_angle_gamma   61.81678687
_symmetry_Int_Tables_number   1
_chemical_formula_structural   Sn5(PO5)2
_chemical_formula_sum   'Sn10 P4 O20'
_cell_volume   621.35724057
_cell_formula_units_Z   2
loop_
 _symmetry_equiv_pos_site_id
 _symmetry_equiv_pos_as_xyz
  1  'x, y, z'
loop_
 _atom_site_type_symbol
 _atom_site_label
 _atom_site_symmetry_multiplicity
 _atom_site_fract_x
 _atom_site_fract_y
 _atom_site_fract_z
 _atom_site_occupancy
  Sn  Sn0  1  0.99435800  0.69726800  0.16825700  1
  Sn  Sn1  1  0.43685900  0.78365400  0.14044100  1
  Sn  Sn2  1  0.67352100  0.30524800  0.37641200  1
  Sn  Sn3  1  0.00564200  0.30273200  0.83174300  1
  Sn  Sn4  1  0.93243100  0.23906200  0.13143800  1
  Sn  Sn5  1  0.56314100  0.21634600  0.85955900  1
  Sn  Sn6  1  0.19310100  0.19679700  0.37882000  1
  Sn  Sn7  1  0.32647900  0.69475200  0.62358800  1
  Sn  Sn8  1  0.06756900  0.76093800  0.86856200  1
  Sn  Sn9  1  0.80689900  0.80320300  0.62118000  1
  P  P10  1  0.93833400  0.19847700  0.60385800  1
  P  P11  1  0.06166600  0.80152300  0.39614200  1
  P  P12  1  0.47087700  0.24288300  0.12266300  1
  P  P13  1  0.52912300  0.75711700  0.87733700  1
  O  O14  1  0.08324100  0.70581900  0.50613700  1
  O  O15  1  0.10814200  0.91279000  0.14636700  1
  O  O16  1  0.68820400  0.52349000  0.88702300  1
  O  O17  1  0.31179600  0.47651000  0.11297700  1
  O  O18  1  0.22312200  0.88195900  0.37817200  1
  O  O19  1  0.77687800  0.11804100  0.62182800  1
  O  O20  1  0.10847600  0.62620300  0.31956500  1
  O  O21  1  0.35558100  0.78371800  0.80531000  1
  O  O22  1  0.64441900  0.21628200  0.19469000  1
  O  O23  1  0.16760400  0.02814400  0.61230900  1
  O  O24  1  0.58477200  0.15305200  0.01945500  1
  O  O25  1  0.35449800  0.12208300  0.16665600  1
  O  O26  1  0.83239600  0.97185600  0.38769100  1
  O  O27  1  0.93205200  0.29869400  0.28731400  1
  O  O28  1  0.64550200  0.87791700  0.83334400  1
  O  O29  1  0.06794800  0.70130600  0.71268600  1
  O  O30  1  0.89152400  0.37379700  0.68043500  1
  O  O31  1  0.41522800  0.84694800  0.98054500  1
  O  O32  1  0.89185800  0.08721000  0.85363300  1
  O  O33  1  0.91675900  0.29418100  0.49386300  1
