# generated using pymatgen
data_Na5AlP2(O4F)2
_symmetry_space_group_name_H-M   'P 1'
_cell_length_a   10.58568154
_cell_length_b   10.58568154
_cell_length_c   6.67456800
_cell_angle_alpha   90.00000000
_cell_angle_beta   90.00000000
_cell_angle_gamma   119.99999714
_symmetry_Int_Tables_number   1
_chemical_formula_structural   Na5AlP2(O4F)2
_chemical_formula_sum   'Na15 Al3 P6 O24 F6'
_cell_volume   647.72618682
_cell_formula_units_Z   3
loop_
 _symmetry_equiv_pos_site_id
 _symmetry_equiv_pos_as_xyz
  1  'x, y, z'
loop_
 _atom_site_type_symbol
 _atom_site_label
 _atom_site_symmetry_multiplicity
 _atom_site_fract_x
 _atom_site_fract_y
 _atom_site_fract_z
 _atom_site_occupancy
  Na  Na0  1  0.66666700  0.33333300  0.91656500  1
  Na  Na1  1  0.33333300  0.66666700  0.52739500  1
  Na  Na2  1  0.16907700  0.85340900  0.26608100  1
  Na  Na3  1  0.14659100  0.31566900  0.26608100  1
  Na  Na4  1  0.83092300  0.14659100  0.73391900  1
  Na  Na5  1  0.85340900  0.68433100  0.73391900  1
  Na  Na6  1  0.68433100  0.83092300  0.26608100  1
  Na  Na7  1  0.00000000  0.50000000  0.00000000  1
  Na  Na8  1  0.66666700  0.33333300  0.47260500  1
  Na  Na9  1  0.31566900  0.16907700  0.73391900  1
  Na  Na10  1  0.00000000  0.00000000  0.00000000  1
  Na  Na11  1  0.33333300  0.66666700  0.08343500  1
  Na  Na12  1  0.50000000  0.00000000  0.00000000  1
  Na  Na13  1  0.00000000  0.00000000  0.50000000  1
  Na  Na14  1  0.50000000  0.50000000  0.00000000  1
  Al  Al15  1  0.50000000  0.50000000  0.50000000  1
  Al  Al16  1  0.50000000  0.00000000  0.50000000  1
  Al  Al17  1  0.00000000  0.50000000  0.50000000  1
  P  P18  1  0.81371800  0.18440500  0.25066500  1
  P  P19  1  0.37068700  0.18628200  0.25066500  1
  P  P20  1  0.62931300  0.81371800  0.74933500  1
  P  P21  1  0.18628200  0.81559500  0.74933500  1
  P  P22  1  0.81559500  0.62931300  0.25066500  1
  P  P23  1  0.18440500  0.37068700  0.74933500  1
  O  O24  1  0.56933700  0.69591500  0.57905900  1
  O  O25  1  0.42982700  0.08030400  0.29988000  1
  O  O26  1  0.12657800  0.43066300  0.57905900  1
  O  O27  1  0.69591500  0.12657800  0.42094100  1
  O  O28  1  0.57017300  0.91969600  0.70012000  1
  O  O29  1  0.90112800  0.79793500  0.25634900  1
  O  O30  1  0.43121700  0.25597300  0.04512200  1
  O  O31  1  0.08030400  0.65047600  0.70012000  1
  O  O32  1  0.56878300  0.74402700  0.95487800  1
  O  O33  1  0.89680700  0.09887200  0.25634900  1
  O  O34  1  0.10319300  0.90112800  0.74365100  1
  O  O35  1  0.65047600  0.57017300  0.29988000  1
  O  O36  1  0.20206500  0.10319300  0.25634900  1
  O  O37  1  0.87342200  0.56933700  0.42094100  1
  O  O38  1  0.91969600  0.34952400  0.29988000  1
  O  O39  1  0.30408500  0.87342200  0.57905900  1
  O  O40  1  0.74402700  0.17524400  0.04512200  1
  O  O41  1  0.43066300  0.30408500  0.42094100  1
  O  O42  1  0.25597300  0.82475600  0.95487800  1
  O  O43  1  0.09887200  0.20206500  0.74365100  1
  O  O44  1  0.82475600  0.56878300  0.04512200  1
  O  O45  1  0.79793500  0.89680700  0.74365100  1
  O  O46  1  0.34952400  0.42982700  0.70012000  1
  O  O47  1  0.17524400  0.43121700  0.95487800  1
  F  F48  1  0.86280600  0.38453300  0.68983100  1
  F  F49  1  0.61546700  0.47827300  0.68983100  1
  F  F50  1  0.38453300  0.52172700  0.31016900  1
  F  F51  1  0.47827300  0.86280600  0.31016900  1
  F  F52  1  0.52172700  0.13719400  0.68983100  1
  F  F53  1  0.13719400  0.61546700  0.31016900  1
