# generated using pymatgen
data_Nd4Mg3Co2
_symmetry_space_group_name_H-M   'P 1'
_cell_length_a   3.85035700
_cell_length_b   7.62643400
_cell_length_c   8.31146422
_cell_angle_alpha   70.20232331
_cell_angle_beta   90.00000000
_cell_angle_gamma   90.00000000
_symmetry_Int_Tables_number   1
_chemical_formula_structural   Nd4Mg3Co2
_chemical_formula_sum   'Nd4 Mg3 Co2'
_cell_volume   229.63653537
_cell_formula_units_Z   1
loop_
 _symmetry_equiv_pos_site_id
 _symmetry_equiv_pos_as_xyz
  1  'x, y, z'
loop_
 _atom_site_type_symbol
 _atom_site_label
 _atom_site_symmetry_multiplicity
 _atom_site_fract_x
 _atom_site_fract_y
 _atom_site_fract_z
 _atom_site_occupancy
  Nd  Nd0  1  0.50000000  0.60196400  0.18211200  1
  Nd  Nd1  1  0.50000000  0.90324800  0.72520200  1
  Nd  Nd2  1  0.50000000  0.09675200  0.27479800  1
  Nd  Nd3  1  0.50000000  0.39803600  0.81788800  1
  Mg  Mg4  1  0.00000000  0.70626900  0.50163600  1
  Mg  Mg5  1  0.00000000  0.29373100  0.49836400  1
  Mg  Mg6  1  0.00000000  0.00000000  0.00000000  1
  Co  Co7  1  0.00000000  0.35199600  0.10551400  1
  Co  Co8  1  0.00000000  0.64800400  0.89448600  1
