# generated using pymatgen
data_RuO4
_symmetry_space_group_name_H-M   'P 1'
_cell_length_a   9.08862800
_cell_length_b   9.08862800
_cell_length_c   9.08862800
_cell_angle_alpha   90.00000000
_cell_angle_beta   90.00000000
_cell_angle_gamma   90.00000000
_symmetry_Int_Tables_number   1
_chemical_formula_structural   RuO4
_chemical_formula_sum   'Ru8 O32'
_cell_volume   750.74938307
_cell_formula_units_Z   8
loop_
 _symmetry_equiv_pos_site_id
 _symmetry_equiv_pos_as_xyz
  1  'x, y, z'
loop_
 _atom_site_type_symbol
 _atom_site_label
 _atom_site_symmetry_multiplicity
 _atom_site_fract_x
 _atom_site_fract_y
 _atom_site_fract_z
 _atom_site_occupancy
  Ru  Ru0  1  0.75000000  0.50000000  0.00000000  1
  Ru  Ru1  1  0.50000000  0.50000000  0.50000000  1
  Ru  Ru2  1  0.50000000  0.00000000  0.25000000  1
  Ru  Ru3  1  0.00000000  0.25000000  0.50000000  1
  Ru  Ru4  1  0.00000000  0.00000000  0.00000000  1
  Ru  Ru5  1  0.25000000  0.50000000  0.00000000  1
  Ru  Ru6  1  0.50000000  0.00000000  0.75000000  1
  Ru  Ru7  1  0.00000000  0.75000000  0.50000000  1
  O  O8  1  0.61051500  0.89264600  0.64124700  1
  O  O9  1  0.10735400  0.35875300  0.61051500  1
  O  O10  1  0.39264600  0.88948500  0.85875300  1
  O  O11  1  0.60889900  0.39110100  0.60889900  1
  O  O12  1  0.89110100  0.10889900  0.10889900  1
  O  O13  1  0.61051500  0.10735400  0.35875300  1
  O  O14  1  0.60735400  0.11051500  0.85875300  1
  O  O15  1  0.11051500  0.85875300  0.60735400  1
  O  O16  1  0.10889900  0.10889900  0.89110100  1
  O  O17  1  0.14124700  0.60735400  0.88948500  1
  O  O18  1  0.89264600  0.35875300  0.38948500  1
  O  O19  1  0.14124700  0.39264600  0.11051500  1
  O  O20  1  0.10889900  0.89110100  0.10889900  1
  O  O21  1  0.35875300  0.61051500  0.10735400  1
  O  O22  1  0.38948500  0.89264600  0.35875300  1
  O  O23  1  0.10735400  0.64124700  0.38948500  1
  O  O24  1  0.39110100  0.60889900  0.60889900  1
  O  O25  1  0.88948500  0.85875300  0.39264600  1
  O  O26  1  0.64124700  0.61051500  0.89264600  1
  O  O27  1  0.35875300  0.38948500  0.89264600  1
  O  O28  1  0.85875300  0.39264600  0.88948500  1
  O  O29  1  0.60735400  0.88948500  0.14124700  1
  O  O30  1  0.39110100  0.39110100  0.39110100  1
  O  O31  1  0.60889900  0.60889900  0.39110100  1
  O  O32  1  0.64124700  0.38948500  0.10735400  1
  O  O33  1  0.88948500  0.14124700  0.60735400  1
  O  O34  1  0.11051500  0.14124700  0.39264600  1
  O  O35  1  0.38948500  0.10735400  0.64124700  1
  O  O36  1  0.85875300  0.60735400  0.11051500  1
  O  O37  1  0.89264600  0.64124700  0.61051500  1
  O  O38  1  0.39264600  0.11051500  0.14124700  1
  O  O39  1  0.89110100  0.89110100  0.89110100  1
