# generated using pymatgen
data_K3VSO3
_symmetry_space_group_name_H-M   'P 1'
_cell_length_a   5.99378400
_cell_length_b   6.70663800
_cell_length_c   8.86381029
_cell_angle_alpha   77.36141707
_cell_angle_beta   90.00000000
_cell_angle_gamma   90.00000000
_symmetry_Int_Tables_number   1
_chemical_formula_structural   K3VSO3
_chemical_formula_sum   'K6 V2 S2 O6'
_cell_volume   347.67519620
_cell_formula_units_Z   2
loop_
 _symmetry_equiv_pos_site_id
 _symmetry_equiv_pos_as_xyz
  1  'x, y, z'
loop_
 _atom_site_type_symbol
 _atom_site_label
 _atom_site_symmetry_multiplicity
 _atom_site_fract_x
 _atom_site_fract_y
 _atom_site_fract_z
 _atom_site_occupancy
  K  K0  1  0.75000000  0.68722100  0.46802400  1
  K  K1  1  0.25000000  0.24671700  0.00317400  1
  K  K2  1  0.25000000  0.31277900  0.53197600  1
  K  K3  1  0.75000000  0.75328300  0.99682600  1
  K  K4  1  0.25000000  0.78091500  0.72169600  1
  K  K5  1  0.75000000  0.21908500  0.27830400  1
  V  V6  1  0.75000000  0.30398800  0.79090600  1
  V  V7  1  0.25000000  0.69601200  0.20909400  1
  S  S8  1  0.75000000  0.05801700  0.65235800  1
  S  S9  1  0.25000000  0.94198300  0.34764200  1
  O  O10  1  0.25000000  0.80736300  0.01445500  1
  O  O11  1  0.75000000  0.19263700  0.98554500  1
  O  O12  1  0.98389500  0.45408500  0.74229800  1
  O  O13  1  0.01610500  0.54591500  0.25770200  1
  O  O14  1  0.51610500  0.45408500  0.74229800  1
  O  O15  1  0.48389500  0.54591500  0.25770200  1
