# generated using pymatgen
data_Cs4Tc6S13
_symmetry_space_group_name_H-M   'P 1'
_cell_length_a   10.05832220
_cell_length_b   10.05832220
_cell_length_c   13.93373496
_cell_angle_alpha   84.69517733
_cell_angle_beta   84.69517733
_cell_angle_gamma   119.01264520
_symmetry_Int_Tables_number   1
_chemical_formula_structural   Cs4Tc6S13
_chemical_formula_sum   'Cs8 Tc12 S26'
_cell_volume   1212.14357231
_cell_formula_units_Z   2
loop_
 _symmetry_equiv_pos_site_id
 _symmetry_equiv_pos_as_xyz
  1  'x, y, z'
loop_
 _atom_site_type_symbol
 _atom_site_label
 _atom_site_symmetry_multiplicity
 _atom_site_fract_x
 _atom_site_fract_y
 _atom_site_fract_z
 _atom_site_occupancy
  Cs  Cs0  1  0.34011100  0.08672800  0.08859000  1
  Cs  Cs1  1  0.08672800  0.34011100  0.58859000  1
  Cs  Cs2  1  0.91327200  0.65988900  0.41141000  1
  Cs  Cs3  1  0.27285000  0.31609600  0.28869800  1
  Cs  Cs4  1  0.68390400  0.72715000  0.21130200  1
  Cs  Cs5  1  0.65988900  0.91327200  0.91141000  1
  Cs  Cs6  1  0.31609600  0.27285000  0.78869800  1
  Cs  Cs7  1  0.72715000  0.68390400  0.71130200  1
  Tc  Tc8  1  0.31228700  0.99646100  0.52131500  1
  Tc  Tc9  1  0.99646100  0.31228700  0.02131500  1
  Tc  Tc10  1  0.15327400  0.56475700  0.89149500  1
  Tc  Tc11  1  0.14900900  0.58166600  0.07885400  1
  Tc  Tc12  1  0.84672600  0.43524300  0.10850500  1
  Tc  Tc13  1  0.85099100  0.41833400  0.92114600  1
  Tc  Tc14  1  0.68771300  0.00353900  0.47868500  1
  Tc  Tc15  1  0.43524300  0.84672600  0.60850500  1
  Tc  Tc16  1  0.00353900  0.68771300  0.97868500  1
  Tc  Tc17  1  0.58166600  0.14900900  0.57885400  1
  Tc  Tc18  1  0.41833400  0.85099100  0.42114600  1
  Tc  Tc19  1  0.56475700  0.15327400  0.39149500  1
  S  S20  1  0.27493000  0.46227300  0.99476800  1
  S  S21  1  0.00832200  0.65578100  0.80960400  1
  S  S22  1  0.35866200  0.64133800  0.75000000  1
  S  S23  1  0.72507000  0.53772700  0.00523200  1
  S  S24  1  0.00334300  0.68846800  0.15077700  1
  S  S25  1  0.64133800  0.35866200  0.25000000  1
  S  S26  1  0.65578100  0.00832200  0.30960400  1
  S  S27  1  0.80366500  0.27900100  0.45207400  1
  S  S28  1  0.19633500  0.72099900  0.54792600  1
  S  S29  1  0.27975200  0.64528500  0.32538900  1
  S  S30  1  0.97863600  0.04822800  0.06065300  1
  S  S31  1  0.53772700  0.72507000  0.50523200  1
  S  S32  1  0.99167800  0.34421900  0.19039600  1
  S  S33  1  0.02136400  0.95177200  0.93934700  1
  S  S34  1  0.99665700  0.31153200  0.84922300  1
  S  S35  1  0.64528500  0.27975200  0.82538900  1
  S  S36  1  0.68846800  0.00334300  0.65077700  1
  S  S37  1  0.95177200  0.02136400  0.43934700  1
  S  S38  1  0.34421900  0.99167800  0.69039600  1
  S  S39  1  0.72099900  0.19633500  0.04792600  1
  S  S40  1  0.46227300  0.27493000  0.49476800  1
  S  S41  1  0.04822800  0.97863600  0.56065300  1
  S  S42  1  0.27900100  0.80366500  0.95207400  1
  S  S43  1  0.72024800  0.35471500  0.67461100  1
  S  S44  1  0.31153200  0.99665700  0.34922300  1
  S  S45  1  0.35471500  0.72024800  0.17461100  1
