# generated using pymatgen
data_CsLa2CuSe4
_symmetry_space_group_name_H-M   'P 1'
_cell_length_a   7.89408608
_cell_length_b   7.89408608
_cell_length_c   14.89066300
_cell_angle_alpha   90.00000000
_cell_angle_beta   90.00000000
_cell_angle_gamma   148.05615734
_symmetry_Int_Tables_number   1
_chemical_formula_structural   CsLa2CuSe4
_chemical_formula_sum   'Cs2 La4 Cu2 Se8'
_cell_volume   490.95931938
_cell_formula_units_Z   2
loop_
 _symmetry_equiv_pos_site_id
 _symmetry_equiv_pos_as_xyz
  1  'x, y, z'
loop_
 _atom_site_type_symbol
 _atom_site_label
 _atom_site_symmetry_multiplicity
 _atom_site_fract_x
 _atom_site_fract_y
 _atom_site_fract_z
 _atom_site_occupancy
  Cs  Cs0  1  0.89464800  0.10535200  0.75000000  1
  Cs  Cs1  1  0.10535200  0.89464800  0.25000000  1
  La  La2  1  0.63463100  0.36536900  0.93903900  1
  La  La3  1  0.36536900  0.63463100  0.06096100  1
  La  La4  1  0.36536900  0.63463100  0.43903900  1
  La  La5  1  0.63463100  0.36536900  0.56096100  1
  Cu  Cu6  1  0.16536500  0.83463500  0.75000000  1
  Cu  Cu7  1  0.83463500  0.16536500  0.25000000  1
  Se  Se8  1  0.74096100  0.25903900  0.38803800  1
  Se  Se9  1  0.25903900  0.74096100  0.61196200  1
  Se  Se10  1  0.25903900  0.74096100  0.88803800  1
  Se  Se11  1  0.74096100  0.25903900  0.11196200  1
  Se  Se12  1  0.57951300  0.42048700  0.75000000  1
  Se  Se13  1  0.42048700  0.57951300  0.25000000  1
  Se  Se14  1  0.00000000  0.00000000  0.00000000  1
  Se  Se15  1  0.00000000  0.00000000  0.50000000  1
