# generated using pymatgen
data_Tb2InGe2
_symmetry_space_group_name_H-M   'P 1'
_cell_length_a   7.44599100
_cell_length_b   7.44599100
_cell_length_c   4.21616700
_cell_angle_alpha   90.00000000
_cell_angle_beta   90.00000000
_cell_angle_gamma   90.00000000
_symmetry_Int_Tables_number   1
_chemical_formula_structural   Tb2InGe2
_chemical_formula_sum   'Tb4 In2 Ge4'
_cell_volume   233.75602774
_cell_formula_units_Z   2
loop_
 _symmetry_equiv_pos_site_id
 _symmetry_equiv_pos_as_xyz
  1  'x, y, z'
loop_
 _atom_site_type_symbol
 _atom_site_label
 _atom_site_symmetry_multiplicity
 _atom_site_fract_x
 _atom_site_fract_y
 _atom_site_fract_z
 _atom_site_occupancy
  Tb  Tb0  1  0.32189400  0.82189400  0.50000000  1
  Tb  Tb1  1  0.67810600  0.17810600  0.50000000  1
  Tb  Tb2  1  0.17810600  0.32189400  0.50000000  1
  Tb  Tb3  1  0.82189400  0.67810600  0.50000000  1
  In  In4  1  0.00000000  0.00000000  0.00000000  1
  In  In5  1  0.50000000  0.50000000  0.00000000  1
  Ge  Ge6  1  0.62158200  0.87841800  0.00000000  1
  Ge  Ge7  1  0.37841800  0.12158200  0.00000000  1
  Ge  Ge8  1  0.87841800  0.37841800  0.00000000  1
  Ge  Ge9  1  0.12158200  0.62158200  0.00000000  1
