# generated using pymatgen
data_ErMoO4F
_symmetry_space_group_name_H-M   'P 1'
_cell_length_a   12.36896100
_cell_length_b   5.23592200
_cell_length_c   6.68302191
_cell_angle_alpha   66.66771946
_cell_angle_beta   90.00000000
_cell_angle_gamma   90.00000000
_symmetry_Int_Tables_number   1
_chemical_formula_structural   ErMoO4F
_chemical_formula_sum   'Er4 Mo4 O16 F4'
_cell_volume   397.41808134
_cell_formula_units_Z   4
loop_
 _symmetry_equiv_pos_site_id
 _symmetry_equiv_pos_as_xyz
  1  'x, y, z'
loop_
 _atom_site_type_symbol
 _atom_site_label
 _atom_site_symmetry_multiplicity
 _atom_site_fract_x
 _atom_site_fract_y
 _atom_site_fract_z
 _atom_site_occupancy
  Er  Er0  1  0.05072800  0.36057200  0.80035700  1
  Er  Er1  1  0.44927200  0.36057200  0.30035700  1
  Er  Er2  1  0.94927200  0.63942800  0.19964300  1
  Er  Er3  1  0.55072800  0.63942800  0.69964300  1
  Mo  Mo4  1  0.14352300  0.07959300  0.36938800  1
  Mo  Mo5  1  0.35647700  0.07959300  0.86938800  1
  Mo  Mo6  1  0.64352300  0.92040700  0.13061200  1
  Mo  Mo7  1  0.85647700  0.92040700  0.63061200  1
  O  O8  1  0.93501900  0.68920000  0.53763400  1
  O  O9  1  0.84739700  0.24010800  0.40514900  1
  O  O10  1  0.72133400  0.80718700  0.70447500  1
  O  O11  1  0.43501900  0.31080000  0.96236600  1
  O  O12  1  0.34739700  0.75989200  0.09485100  1
  O  O13  1  0.06498100  0.31080000  0.46236600  1
  O  O14  1  0.22133400  0.19281300  0.79552500  1
  O  O15  1  0.56498100  0.68920000  0.03763400  1
  O  O16  1  0.77866600  0.80718700  0.20447500  1
  O  O17  1  0.93142300  0.99779000  0.83864300  1
  O  O18  1  0.56857700  0.99779000  0.33864300  1
  O  O19  1  0.43142300  0.00221000  0.66135700  1
  O  O20  1  0.15260300  0.75989200  0.59485100  1
  O  O21  1  0.06857700  0.00221000  0.16135700  1
  O  O22  1  0.27866600  0.19281300  0.29552500  1
  O  O23  1  0.65260300  0.24010800  0.90514900  1
  F  F24  1  0.40242000  0.54261000  0.53650700  1
  F  F25  1  0.90242000  0.45739000  0.96349300  1
  F  F26  1  0.09758000  0.54261000  0.03650700  1
  F  F27  1  0.59758000  0.45739000  0.46349300  1
