# generated using pymatgen
data_Eu2(MoO4)3
_symmetry_space_group_name_H-M   'P 1'
_cell_length_a   7.06579971
_cell_length_b   7.06579971
_cell_length_c   11.65353812
_cell_angle_alpha   79.63653617
_cell_angle_beta   79.63653617
_cell_angle_gamma   112.56279430
_symmetry_Int_Tables_number   1
_chemical_formula_structural   Eu2(MoO4)3
_chemical_formula_sum   'Eu4 Mo6 O24'
_cell_volume   508.28326942
_cell_formula_units_Z   2
loop_
 _symmetry_equiv_pos_site_id
 _symmetry_equiv_pos_as_xyz
  1  'x, y, z'
loop_
 _atom_site_type_symbol
 _atom_site_label
 _atom_site_symmetry_multiplicity
 _atom_site_fract_x
 _atom_site_fract_y
 _atom_site_fract_z
 _atom_site_occupancy
  Eu  Eu0  1  0.45210900  0.19535900  0.09184400  1
  Eu  Eu1  1  0.80464100  0.54789100  0.40815600  1
  Eu  Eu2  1  0.54789100  0.80464100  0.90815600  1
  Eu  Eu3  1  0.19535900  0.45210900  0.59184400  1
  Mo  Mo4  1  0.62143200  0.37856800  0.75000000  1
  Mo  Mo5  1  0.37856800  0.62143200  0.25000000  1
  Mo  Mo6  1  0.98478800  0.69798400  0.05252500  1
  Mo  Mo7  1  0.30201600  0.01521200  0.44747500  1
  Mo  Mo8  1  0.01521200  0.30201600  0.94747500  1
  Mo  Mo9  1  0.69798400  0.98478800  0.55252500  1
  O  O10  1  0.55226400  0.47130300  0.61397700  1
  O  O11  1  0.52869700  0.44773600  0.88602300  1
  O  O12  1  0.44773600  0.52869700  0.38602300  1
  O  O13  1  0.47130300  0.55226400  0.11397700  1
  O  O14  1  0.89163700  0.82216600  0.94586000  1
  O  O15  1  0.17783400  0.10836300  0.55414000  1
  O  O16  1  0.10836300  0.17783400  0.05414000  1
  O  O17  1  0.82216600  0.89163700  0.44586000  1
  O  O18  1  0.28807400  0.14077100  0.30302200  1
  O  O19  1  0.85922900  0.71192600  0.19697800  1
  O  O20  1  0.71192600  0.85922900  0.69697800  1
  O  O21  1  0.14077100  0.28807400  0.80302200  1
  O  O22  1  0.17278800  0.59937300  0.92182300  1
  O  O23  1  0.40062700  0.82721200  0.57817700  1
  O  O24  1  0.82721200  0.40062700  0.07817700  1
  O  O25  1  0.59937300  0.17278800  0.42182300  1
  O  O26  1  0.48795500  0.90406700  0.21931500  1
  O  O27  1  0.09593300  0.51204500  0.28068500  1
  O  O28  1  0.51204500  0.09593300  0.78068500  1
  O  O29  1  0.90406700  0.48795500  0.71931500  1
  O  O30  1  0.86603300  0.27183200  0.54138900  1
  O  O31  1  0.72816800  0.13396700  0.95861100  1
  O  O32  1  0.13396700  0.72816800  0.45861100  1
  O  O33  1  0.27183200  0.86603300  0.04138900  1
