# generated using pymatgen
data_Rb3Pr3(PS4)4
_symmetry_space_group_name_H-M   'P 1'
_cell_length_a   9.43163100
_cell_length_b   10.77865495
_cell_length_c   14.81909965
_cell_angle_alpha   85.70929368
_cell_angle_beta   87.89052017
_cell_angle_gamma   80.69887329
_symmetry_Int_Tables_number   1
_chemical_formula_structural   Rb3Pr3(PS4)4
_chemical_formula_sum   'Rb6 Pr6 P8 S32'
_cell_volume   1482.07270434
_cell_formula_units_Z   2
loop_
 _symmetry_equiv_pos_site_id
 _symmetry_equiv_pos_as_xyz
  1  'x, y, z'
loop_
 _atom_site_type_symbol
 _atom_site_label
 _atom_site_symmetry_multiplicity
 _atom_site_fract_x
 _atom_site_fract_y
 _atom_site_fract_z
 _atom_site_occupancy
  Rb  Rb0  1  0.61848400  0.19824100  0.25473100  1
  Rb  Rb1  1  0.73562200  0.42366800  0.64619600  1
  Rb  Rb2  1  0.20849300  0.07863200  0.08492800  1
  Rb  Rb3  1  0.38151600  0.80175900  0.74526900  1
  Rb  Rb4  1  0.79150700  0.92136800  0.91507200  1
  Rb  Rb5  1  0.26437800  0.57633200  0.35380400  1
  Pr  Pr6  1  0.76609900  0.98480500  0.52477800  1
  Pr  Pr7  1  0.74685500  0.46952100  0.99709300  1
  Pr  Pr8  1  0.25314500  0.53047900  0.00290700  1
  Pr  Pr9  1  0.23390100  0.01519500  0.47522200  1
  Pr  Pr10  1  0.24463700  0.27840700  0.73701500  1
  Pr  Pr11  1  0.75536300  0.72159300  0.26298500  1
  P  P12  1  0.44765500  0.24900900  0.51387000  1
  P  P13  1  0.00331200  0.93444100  0.31852000  1
  P  P14  1  0.99183400  0.43371200  0.18010100  1
  P  P15  1  0.47233700  0.71758200  0.09625200  1
  P  P16  1  0.99668800  0.06555900  0.68148000  1
  P  P17  1  0.52766300  0.28241800  0.90374800  1
  P  P18  1  0.00816600  0.56628800  0.81989900  1
  P  P19  1  0.55234500  0.75099100  0.48613000  1
  S  S20  1  0.07566900  0.52491000  0.69286900  1
  S  S21  1  0.05492300  0.40007900  0.90450600  1
  S  S22  1  0.10705600  0.06036400  0.79881200  1
  S  S23  1  0.94507700  0.59992100  0.09549400  1
  S  S24  1  0.67756000  0.75436300  0.59620300  1
  S  S25  1  0.62658400  0.59679000  0.41717100  1
  S  S26  1  0.57967400  0.56249800  0.17070400  1
  S  S27  1  0.89230100  0.29609900  0.13264700  1
  S  S28  1  0.50281400  0.67493300  0.96189800  1
  S  S29  1  0.65539700  0.24617600  0.47016900  1
  S  S30  1  0.32244000  0.24563700  0.40379700  1
  S  S31  1  0.37341600  0.40321000  0.58282900  1
  S  S32  1  0.94417200  0.78944400  0.40389700  1
  S  S33  1  0.79128500  0.62439600  0.83227800  1
  S  S34  1  0.22012700  0.91679600  0.29942900  1
  S  S35  1  0.05076500  0.90285200  0.61406700  1
  S  S36  1  0.34460300  0.75382400  0.52983100  1
  S  S37  1  0.44179300  0.08814000  0.60224900  1
  S  S38  1  0.74380600  0.26198500  0.88323000  1
  S  S39  1  0.55820700  0.91186000  0.39775100  1
  S  S40  1  0.25619400  0.73801500  0.11677000  1
  S  S41  1  0.56380000  0.86948900  0.12447200  1
  S  S42  1  0.10769900  0.70390100  0.86735300  1
  S  S43  1  0.94923500  0.09714800  0.38593300  1
  S  S44  1  0.49718600  0.32506700  0.03810200  1
  S  S45  1  0.77987300  0.08320400  0.70057100  1
  S  S46  1  0.43620000  0.13051100  0.87552800  1
  S  S47  1  0.89294400  0.93963600  0.20118800  1
  S  S48  1  0.92433100  0.47509000  0.30713100  1
  S  S49  1  0.05582800  0.21055600  0.59610300  1
  S  S50  1  0.20871500  0.37560400  0.16772200  1
  S  S51  1  0.42032600  0.43750200  0.82929600  1
