# generated using pymatgen
data_Na2SnSe3
_symmetry_space_group_name_H-M   'P 1'
_cell_length_a   12.63012300
_cell_length_b   14.18343400
_cell_length_c   24.25102800
_cell_angle_alpha   90.00000000
_cell_angle_beta   90.00000000
_cell_angle_gamma   90.00000000
_symmetry_Int_Tables_number   1
_chemical_formula_structural   Na2SnSe3
_chemical_formula_sum   'Na48 Sn24 Se72'
_cell_volume   4344.29316697
_cell_formula_units_Z   24
loop_
 _symmetry_equiv_pos_site_id
 _symmetry_equiv_pos_as_xyz
  1  'x, y, z'
loop_
 _atom_site_type_symbol
 _atom_site_label
 _atom_site_symmetry_multiplicity
 _atom_site_fract_x
 _atom_site_fract_y
 _atom_site_fract_z
 _atom_site_occupancy
  Na  Na0  1  0.87877500  0.17008900  0.83167600  1
  Na  Na1  1  0.57336300  0.62249000  0.48363700  1
  Na  Na2  1  0.07567200  0.90703500  0.65387400  1
  Na  Na3  1  0.42432800  0.40703500  0.65387400  1
  Na  Na4  1  0.93668200  0.60719700  0.99186400  1
  Na  Na5  1  0.61655000  0.11402400  0.17261700  1
  Na  Na6  1  0.62122500  0.67008900  0.66832400  1
  Na  Na7  1  0.07336300  0.87751000  0.98363700  1
  Na  Na8  1  0.07192500  0.40081100  0.16866400  1
  Na  Na9  1  0.11655000  0.38597600  0.82738300  1
  Na  Na10  1  0.57336300  0.62249000  0.01636300  1
  Na  Na11  1  0.61655000  0.11402400  0.32738300  1
  Na  Na12  1  0.07336300  0.87751000  0.51636300  1
  Na  Na13  1  0.92807500  0.59918900  0.83133600  1
  Na  Na14  1  0.62122500  0.67008900  0.83167600  1
  Na  Na15  1  0.37877500  0.32991100  0.33167600  1
  Na  Na16  1  0.93668200  0.60719700  0.50813600  1
  Na  Na17  1  0.42432800  0.40703500  0.84612600  1
  Na  Na18  1  0.87877500  0.17008900  0.66832400  1
  Na  Na19  1  0.56331800  0.10719700  0.50813600  1
  Na  Na20  1  0.42663700  0.37751000  0.51636300  1
  Na  Na21  1  0.57192500  0.09918900  0.83133600  1
  Na  Na22  1  0.42807500  0.90081100  0.33133600  1
  Na  Na23  1  0.92432800  0.09296500  0.15387400  1
  Na  Na24  1  0.37877500  0.32991100  0.16832400  1
  Na  Na25  1  0.12122500  0.82991100  0.16832400  1
  Na  Na26  1  0.07567200  0.90703500  0.84612600  1
  Na  Na27  1  0.06331800  0.39280300  0.00813600  1
  Na  Na28  1  0.06331800  0.39280300  0.49186400  1
  Na  Na29  1  0.38345000  0.88597600  0.82738300  1
  Na  Na30  1  0.92663700  0.12249000  0.01636300  1
  Na  Na31  1  0.88345000  0.61402400  0.17261700  1
  Na  Na32  1  0.92807500  0.59918900  0.66866400  1
  Na  Na33  1  0.92432800  0.09296500  0.34612600  1
  Na  Na34  1  0.38345000  0.88597600  0.67261700  1
  Na  Na35  1  0.57567200  0.59296500  0.15387400  1
  Na  Na36  1  0.42807500  0.90081100  0.16866400  1
  Na  Na37  1  0.57567200  0.59296500  0.34612600  1
  Na  Na38  1  0.11655000  0.38597600  0.67261700  1
  Na  Na39  1  0.57192500  0.09918900  0.66866400  1
  Na  Na40  1  0.12122500  0.82991100  0.33167600  1
  Na  Na41  1  0.92663700  0.12249000  0.48363700  1
  Na  Na42  1  0.43668200  0.89280300  0.00813600  1
  Na  Na43  1  0.07192500  0.40081100  0.33133600  1
  Na  Na44  1  0.88345000  0.61402400  0.32738300  1
  Na  Na45  1  0.42663700  0.37751000  0.98363700  1
  Na  Na46  1  0.56331800  0.10719700  0.99186400  1
  Na  Na47  1  0.43668200  0.89280300  0.49186400  1
  Sn  Sn48  1  0.72021600  0.40871600  0.58273000  1
  Sn  Sn49  1  0.27978400  0.59128400  0.08273000  1
  Sn  Sn50  1  0.77978400  0.90871600  0.91727000  1
  Sn  Sn51  1  0.26917000  0.12389400  0.91609800  1
  Sn  Sn52  1  0.23083000  0.62389400  0.58390200  1
  Sn  Sn53  1  0.27325800  0.11792400  0.25000000  1
  Sn  Sn54  1  0.26917000  0.12389400  0.58390200  1
  Sn  Sn55  1  0.77978400  0.90871600  0.58273000  1
  Sn  Sn56  1  0.72021600  0.40871600  0.91727000  1
  Sn  Sn57  1  0.22021600  0.09128400  0.41727000  1
  Sn  Sn58  1  0.22674200  0.61792400  0.25000000  1
  Sn  Sn59  1  0.23083000  0.62389400  0.91609800  1
  Sn  Sn60  1  0.73083000  0.87610600  0.08390200  1
  Sn  Sn61  1  0.27425700  0.18170200  0.75000000  1
  Sn  Sn62  1  0.72574300  0.81829800  0.25000000  1
  Sn  Sn63  1  0.76917000  0.37610600  0.41609800  1
  Sn  Sn64  1  0.77325800  0.38207600  0.75000000  1
  Sn  Sn65  1  0.73083000  0.87610600  0.41609800  1
  Sn  Sn66  1  0.27978400  0.59128400  0.41727000  1
  Sn  Sn67  1  0.22021600  0.09128400  0.08273000  1
  Sn  Sn68  1  0.22574300  0.68170200  0.75000000  1
  Sn  Sn69  1  0.76917000  0.37610600  0.08390200  1
  Sn  Sn70  1  0.77425700  0.31829800  0.25000000  1
  Sn  Sn71  1  0.72674200  0.88207600  0.75000000  1
  Se  Se72  1  0.67264300  0.29890300  0.66786100  1
  Se  Se73  1  0.58505100  0.94505000  0.58550000  1
  Se  Se74  1  0.08505100  0.55495000  0.08550000  1
  Se  Se75  1  0.42978700  0.47332700  0.08730100  1
  Se  Se76  1  0.44081100  0.21401800  0.90731600  1
  Se  Se77  1  0.44081100  0.21401800  0.59268400  1
  Se  Se78  1  0.25432300  0.94145900  0.25000000  1
  Se  Se79  1  0.77095400  0.55310400  0.07293900  1
  Se  Se80  1  0.16649100  0.20068500  0.99953700  1
  Se  Se81  1  0.04560600  0.69287100  0.25000000  1
  Se  Se82  1  0.22904600  0.44689600  0.92706100  1
  Se  Se83  1  0.82735700  0.79890300  0.83213900  1
  Se  Se84  1  0.27095400  0.94689600  0.92706100  1
  Se  Se85  1  0.58769600  0.94537200  0.25000000  1
  Se  Se86  1  0.19465400  0.85721900  0.75000000  1
  Se  Se87  1  0.32735700  0.70109700  0.33213900  1
  Se  Se88  1  0.27095400  0.94689600  0.57293900  1
  Se  Se89  1  0.75432300  0.55854100  0.75000000  1
  Se  Se90  1  0.17264300  0.20109700  0.33213900  1
  Se  Se91  1  0.24567700  0.44145900  0.25000000  1
  Se  Se92  1  0.83350900  0.79931500  0.49953700  1
  Se  Se93  1  0.82735700  0.79890300  0.66786100  1
  Se  Se94  1  0.80534600  0.14278100  0.25000000  1
  Se  Se95  1  0.08769600  0.55462800  0.75000000  1
  Se  Se96  1  0.55918900  0.78598200  0.09268400  1
  Se  Se97  1  0.30534600  0.35721900  0.75000000  1
  Se  Se98  1  0.17264300  0.20109700  0.16786100  1
  Se  Se99  1  0.16649100  0.20068500  0.50046300  1
  Se  Se100  1  0.72904600  0.05310400  0.07293900  1
  Se  Se101  1  0.95439400  0.30712900  0.75000000  1
  Se  Se102  1  0.66649100  0.29931500  0.49953700  1
  Se  Se103  1  0.85955000  0.84203200  0.33323400  1
  Se  Se104  1  0.08505100  0.55495000  0.41450000  1
  Se  Se105  1  0.58505100  0.94505000  0.91450000  1
  Se  Se106  1  0.67264300  0.29890300  0.83213900  1
  Se  Se107  1  0.33350900  0.70068500  0.50046300  1
  Se  Se108  1  0.94081100  0.28598200  0.40731600  1
  Se  Se109  1  0.05918900  0.71401800  0.90731600  1
  Se  Se110  1  0.66649100  0.29931500  0.00046300  1
  Se  Se111  1  0.07021300  0.97332700  0.41269900  1
  Se  Se112  1  0.83350900  0.79931500  0.00046300  1
  Se  Se113  1  0.41230400  0.05462800  0.75000000  1
  Se  Se114  1  0.57021300  0.52667300  0.58730100  1
  Se  Se115  1  0.41494900  0.05495000  0.41450000  1
  Se  Se116  1  0.14045000  0.15796800  0.83323400  1
  Se  Se117  1  0.42978700  0.47332700  0.41269900  1
  Se  Se118  1  0.85955000  0.84203200  0.16676600  1
  Se  Se119  1  0.35955000  0.65796800  0.83323400  1
  Se  Se120  1  0.92978700  0.02667300  0.58730100  1
  Se  Se121  1  0.77095400  0.55310400  0.42706100  1
  Se  Se122  1  0.45439400  0.19287100  0.25000000  1
  Se  Se123  1  0.91230400  0.44537200  0.25000000  1
  Se  Se124  1  0.92978700  0.02667300  0.91269900  1
  Se  Se125  1  0.35955000  0.65796800  0.66676600  1
  Se  Se126  1  0.54560600  0.80712900  0.75000000  1
  Se  Se127  1  0.94081100  0.28598200  0.09268400  1
  Se  Se128  1  0.14045000  0.15796800  0.66676600  1
  Se  Se129  1  0.57021300  0.52667300  0.91269900  1
  Se  Se130  1  0.64045000  0.34203200  0.33323400  1
  Se  Se131  1  0.32735700  0.70109700  0.16786100  1
  Se  Se132  1  0.72904600  0.05310400  0.42706100  1
  Se  Se133  1  0.41494900  0.05495000  0.08550000  1
  Se  Se134  1  0.22904600  0.44689600  0.57293900  1
  Se  Se135  1  0.74567700  0.05854100  0.75000000  1
  Se  Se136  1  0.05918900  0.71401800  0.59268400  1
  Se  Se137  1  0.07021300  0.97332700  0.08730100  1
  Se  Se138  1  0.91494900  0.44505000  0.91450000  1
  Se  Se139  1  0.33350900  0.70068500  0.99953700  1
  Se  Se140  1  0.55918900  0.78598200  0.40731600  1
  Se  Se141  1  0.69465400  0.64278100  0.25000000  1
  Se  Se142  1  0.91494900  0.44505000  0.58550000  1
  Se  Se143  1  0.64045000  0.34203200  0.16676600  1
