# generated using pymatgen
data_Sm4Mg3Co2
_symmetry_space_group_name_H-M   'P 1'
_cell_length_a   3.80129200
_cell_length_b   7.57186600
_cell_length_c   8.26635577
_cell_angle_alpha   70.17333144
_cell_angle_beta   90.00000000
_cell_angle_gamma   90.00000000
_symmetry_Int_Tables_number   1
_chemical_formula_structural   Sm4Mg3Co2
_chemical_formula_sum   'Sm4 Mg3 Co2'
_cell_volume   223.82572830
_cell_formula_units_Z   1
loop_
 _symmetry_equiv_pos_site_id
 _symmetry_equiv_pos_as_xyz
  1  'x, y, z'
loop_
 _atom_site_type_symbol
 _atom_site_label
 _atom_site_symmetry_multiplicity
 _atom_site_fract_x
 _atom_site_fract_y
 _atom_site_fract_z
 _atom_site_occupancy
  Sm  Sm0  1  0.50000000  0.60243900  0.18124100  1
  Sm  Sm1  1  0.50000000  0.09649200  0.27443100  1
  Sm  Sm2  1  0.50000000  0.39756100  0.81875900  1
  Sm  Sm3  1  0.50000000  0.90350800  0.72556900  1
  Mg  Mg4  1  0.00000000  0.70759500  0.50161200  1
  Mg  Mg5  1  0.00000000  0.00000000  0.00000000  1
  Mg  Mg6  1  0.00000000  0.29240500  0.49838800  1
  Co  Co7  1  0.00000000  0.64836100  0.89415400  1
  Co  Co8  1  0.00000000  0.35163900  0.10584600  1
