# generated using pymatgen
data_Ce5Si3
_symmetry_space_group_name_H-M   'P 1'
_cell_length_a   8.46254299
_cell_length_b   8.46254299
_cell_length_c   8.46254299
_cell_angle_alpha   125.54009613
_cell_angle_beta   125.54009613
_cell_angle_gamma   80.64534733
_symmetry_Int_Tables_number   1
_chemical_formula_structural   Ce5Si3
_chemical_formula_sum   'Ce10 Si6'
_cell_volume   386.94924748
_cell_formula_units_Z   2
loop_
 _symmetry_equiv_pos_site_id
 _symmetry_equiv_pos_as_xyz
  1  'x, y, z'
loop_
 _atom_site_type_symbol
 _atom_site_label
 _atom_site_symmetry_multiplicity
 _atom_site_fract_x
 _atom_site_fract_y
 _atom_site_fract_z
 _atom_site_occupancy
  Ce  Ce0  1  0.52656700  0.66522400  0.50000000  1
  Ce  Ce1  1  0.83477600  0.97343300  0.50000000  1
  Ce  Ce2  1  0.33477600  0.83477600  0.86134300  1
  Ce  Ce3  1  0.47343300  0.33477600  0.50000000  1
  Ce  Ce4  1  0.16522400  0.02656700  0.50000000  1
  Ce  Ce5  1  0.50000000  0.50000000  0.00000000  1
  Ce  Ce6  1  0.97343300  0.47343300  0.13865700  1
  Ce  Ce7  1  0.66522400  0.16522400  0.13865700  1
  Ce  Ce8  1  0.00000000  0.00000000  0.00000000  1
  Ce  Ce9  1  0.02656700  0.52656700  0.86134300  1
  Si  Si10  1  0.88606400  0.61393600  0.50000000  1
  Si  Si11  1  0.38606400  0.88606400  0.27212800  1
  Si  Si12  1  0.61393600  0.11393600  0.72787200  1
  Si  Si13  1  0.11393600  0.38606400  0.50000000  1
  Si  Si14  1  0.25000000  0.25000000  0.00000000  1
  Si  Si15  1  0.75000000  0.75000000  0.00000000  1
