# generated using pymatgen
data_Hf2P
_symmetry_space_group_name_H-M   'P 1'
_cell_length_a   3.58884300
_cell_length_b   12.31456300
_cell_length_c   15.09832500
_cell_angle_alpha   90.00000000
_cell_angle_beta   90.00000000
_cell_angle_gamma   90.00000000
_symmetry_Int_Tables_number   1
_chemical_formula_structural   Hf2P
_chemical_formula_sum   'Hf24 P12'
_cell_volume   667.27097495
_cell_formula_units_Z   12
loop_
 _symmetry_equiv_pos_site_id
 _symmetry_equiv_pos_as_xyz
  1  'x, y, z'
loop_
 _atom_site_type_symbol
 _atom_site_label
 _atom_site_symmetry_multiplicity
 _atom_site_fract_x
 _atom_site_fract_y
 _atom_site_fract_z
 _atom_site_occupancy
  Hf  Hf0  1  0.00000000  0.52531000  0.10578600  1
  Hf  Hf1  1  0.00000000  0.09647600  0.75323800  1
  Hf  Hf2  1  0.00000000  0.81200700  0.70946500  1
  Hf  Hf3  1  0.50000000  0.97469000  0.60578600  1
  Hf  Hf4  1  0.50000000  0.40352400  0.25323800  1
  Hf  Hf5  1  0.00000000  0.11674100  0.08470000  1
  Hf  Hf6  1  0.50000000  0.66115600  0.97826000  1
  Hf  Hf7  1  0.50000000  0.91184000  0.07644400  1
  Hf  Hf8  1  0.50000000  0.08816000  0.92355600  1
  Hf  Hf9  1  0.50000000  0.02531000  0.39421400  1
  Hf  Hf10  1  0.50000000  0.61674100  0.41529900  1
  Hf  Hf11  1  0.00000000  0.90352400  0.24676200  1
  Hf  Hf12  1  0.50000000  0.68799300  0.20946500  1
  Hf  Hf13  1  0.50000000  0.31200700  0.79053500  1
  Hf  Hf14  1  0.00000000  0.47469000  0.89421400  1
  Hf  Hf15  1  0.00000000  0.88325900  0.91530000  1
  Hf  Hf16  1  0.00000000  0.58816000  0.57644400  1
  Hf  Hf17  1  0.00000000  0.41184000  0.42355600  1
  Hf  Hf18  1  0.00000000  0.83884400  0.47826000  1
  Hf  Hf19  1  0.00000000  0.18799300  0.29053500  1
  Hf  Hf20  1  0.50000000  0.33884400  0.02174000  1
  Hf  Hf21  1  0.50000000  0.38325900  0.58470000  1
  Hf  Hf22  1  0.00000000  0.16115600  0.52174000  1
  Hf  Hf23  1  0.50000000  0.59647600  0.74676200  1
  P  P24  1  0.50000000  0.05714900  0.21236400  1
  P  P25  1  0.00000000  0.75550000  0.09073900  1
  P  P26  1  0.50000000  0.94285100  0.78763600  1
  P  P27  1  0.00000000  0.55714900  0.28763600  1
  P  P28  1  0.50000000  0.25550000  0.40926100  1
  P  P29  1  0.50000000  0.18719700  0.64915100  1
  P  P30  1  0.50000000  0.74450000  0.59073900  1
  P  P31  1  0.00000000  0.68719700  0.85084900  1
  P  P32  1  0.50000000  0.81280300  0.35084900  1
  P  P33  1  0.00000000  0.24450000  0.90926100  1
  P  P34  1  0.00000000  0.31280300  0.14915100  1
  P  P35  1  0.00000000  0.44285100  0.71236400  1
