# generated using pymatgen
data_Ba5Si(Br3O2)2
_symmetry_space_group_name_H-M   'P 1'
_cell_length_a   9.22536823
_cell_length_b   9.22536823
_cell_length_c   12.17178245
_cell_angle_alpha   82.04850362
_cell_angle_beta   82.04850362
_cell_angle_gamma   114.43551699
_symmetry_Int_Tables_number   1
_chemical_formula_structural   Ba5Si(Br3O2)2
_chemical_formula_sum   'Ba10 Si2 Br12 O8'
_cell_volume   911.81925712
_cell_formula_units_Z   2
loop_
 _symmetry_equiv_pos_site_id
 _symmetry_equiv_pos_as_xyz
  1  'x, y, z'
loop_
 _atom_site_type_symbol
 _atom_site_label
 _atom_site_symmetry_multiplicity
 _atom_site_fract_x
 _atom_site_fract_y
 _atom_site_fract_z
 _atom_site_occupancy
  Ba  Ba0  1  0.56634300  0.32374400  0.98322200  1
  Ba  Ba1  1  0.79015100  0.20984900  0.25000000  1
  Ba  Ba2  1  0.91224900  0.75810500  0.13614200  1
  Ba  Ba3  1  0.08775100  0.24189500  0.86385800  1
  Ba  Ba4  1  0.32374400  0.56634300  0.48322200  1
  Ba  Ba5  1  0.24189500  0.08775100  0.36385800  1
  Ba  Ba6  1  0.20984900  0.79015100  0.75000000  1
  Ba  Ba7  1  0.43365700  0.67625600  0.01677800  1
  Ba  Ba8  1  0.75810500  0.91224900  0.63614200  1
  Ba  Ba9  1  0.67625600  0.43365700  0.51677800  1
  Si  Si10  1  0.57540100  0.42459900  0.25000000  1
  Si  Si11  1  0.42459900  0.57540100  0.75000000  1
  Br  Br12  1  0.75569600  0.24430400  0.75000000  1
  Br  Br13  1  0.71973300  0.01848300  0.04886700  1
  Br  Br14  1  0.84844400  0.78288200  0.86652600  1
  Br  Br15  1  0.78288200  0.84844400  0.36652600  1
  Br  Br16  1  0.98151700  0.28026700  0.45113300  1
  Br  Br17  1  0.28026700  0.98151700  0.95113300  1
  Br  Br18  1  0.15155600  0.21711800  0.13347400  1
  Br  Br19  1  0.24430400  0.75569600  0.25000000  1
  Br  Br20  1  0.50000000  0.00000000  0.50000000  1
  Br  Br21  1  0.01848300  0.71973300  0.54886700  1
  Br  Br22  1  0.21711800  0.15155600  0.63347400  1
  Br  Br23  1  0.00000000  0.50000000  0.00000000  1
  O  O24  1  0.24399800  0.52369900  0.71492300  1
  O  O25  1  0.55526400  0.59608300  0.63441100  1
  O  O26  1  0.52369900  0.24399800  0.21492300  1
  O  O27  1  0.59608300  0.55526400  0.13441100  1
  O  O28  1  0.44473600  0.40391700  0.36558900  1
  O  O29  1  0.75600200  0.47630100  0.28507700  1
  O  O30  1  0.40391700  0.44473600  0.86558900  1
  O  O31  1  0.47630100  0.75600200  0.78507700  1
