# generated using pymatgen
data_BaNd2PtO5
_symmetry_space_group_name_H-M   'P 1'
_cell_length_a   6.83145500
_cell_length_b   6.83145500
_cell_length_c   6.00082300
_cell_angle_alpha   90.00000000
_cell_angle_beta   90.00000000
_cell_angle_gamma   90.00000000
_symmetry_Int_Tables_number   1
_chemical_formula_structural   BaNd2PtO5
_chemical_formula_sum   'Ba2 Nd4 Pt2 O10'
_cell_volume   280.05107291
_cell_formula_units_Z   2
loop_
 _symmetry_equiv_pos_site_id
 _symmetry_equiv_pos_as_xyz
  1  'x, y, z'
loop_
 _atom_site_type_symbol
 _atom_site_label
 _atom_site_symmetry_multiplicity
 _atom_site_fract_x
 _atom_site_fract_y
 _atom_site_fract_z
 _atom_site_occupancy
  Ba  Ba0  1  0.00000000  0.00000000  0.00000000  1
  Ba  Ba1  1  0.50000000  0.50000000  0.00000000  1
  Nd  Nd2  1  0.67449800  0.17449800  0.50000000  1
  Nd  Nd3  1  0.82550200  0.67449800  0.50000000  1
  Nd  Nd4  1  0.17449800  0.32550200  0.50000000  1
  Nd  Nd5  1  0.32550200  0.82550200  0.50000000  1
  Pt  Pt6  1  0.00000000  0.50000000  0.00000000  1
  Pt  Pt7  1  0.50000000  0.00000000  0.00000000  1
  O  O8  1  0.00000000  0.00000000  0.50000000  1
  O  O9  1  0.36110900  0.13889100  0.25430600  1
  O  O10  1  0.63889100  0.86110900  0.25430600  1
  O  O11  1  0.13889100  0.63889100  0.74569400  1
  O  O12  1  0.86110900  0.36110900  0.25430600  1
  O  O13  1  0.50000000  0.50000000  0.50000000  1
  O  O14  1  0.63889100  0.86110900  0.74569400  1
  O  O15  1  0.36110900  0.13889100  0.74569400  1
  O  O16  1  0.86110900  0.36110900  0.74569400  1
  O  O17  1  0.13889100  0.63889100  0.25430600  1
