# generated using pymatgen
data_KCa10V7O28
_symmetry_space_group_name_H-M   'P 1'
_cell_length_a   14.23949873
_cell_length_b   14.23949873
_cell_length_c   14.23949853
_cell_angle_alpha   45.55360567
_cell_angle_beta   45.55360567
_cell_angle_gamma   45.55360905
_symmetry_Int_Tables_number   1
_chemical_formula_structural   KCa10V7O28
_chemical_formula_sum   'K2 Ca20 V14 O56'
_cell_volume   1340.92583073
_cell_formula_units_Z   2
loop_
 _symmetry_equiv_pos_site_id
 _symmetry_equiv_pos_as_xyz
  1  'x, y, z'
loop_
 _atom_site_type_symbol
 _atom_site_label
 _atom_site_symmetry_multiplicity
 _atom_site_fract_x
 _atom_site_fract_y
 _atom_site_fract_z
 _atom_site_occupancy
  K  K0  1  0.29688600  0.29688600  0.29688600  1
  K  K1  1  0.79688600  0.79688600  0.79688600  1
  Ca  Ca2  1  0.48027700  0.48027700  0.48027700  1
  Ca  Ca3  1  0.63705900  0.07477800  0.02728700  1
  Ca  Ca4  1  0.91124300  0.32440700  0.91452100  1
  Ca  Ca5  1  0.02728700  0.63705900  0.07477800  1
  Ca  Ca6  1  0.91452100  0.91124300  0.32440700  1
  Ca  Ca7  1  0.41919800  0.00225800  0.04473900  1
  Ca  Ca8  1  0.82440700  0.41124300  0.41452100  1
  Ca  Ca9  1  0.41124300  0.41452100  0.82440700  1
  Ca  Ca10  1  0.07477800  0.02728700  0.63705900  1
  Ca  Ca11  1  0.32440700  0.91452100  0.91124300  1
  Ca  Ca12  1  0.98027700  0.98027700  0.98027700  1
  Ca  Ca13  1  0.57477800  0.13705900  0.52728700  1
  Ca  Ca14  1  0.52728700  0.57477800  0.13705900  1
  Ca  Ca15  1  0.13705900  0.52728700  0.57477800  1
  Ca  Ca16  1  0.91919800  0.54473900  0.50225800  1
  Ca  Ca17  1  0.00225800  0.04473900  0.41919800  1
  Ca  Ca18  1  0.50225800  0.91919800  0.54473900  1
  Ca  Ca19  1  0.41452100  0.82440700  0.41124300  1
  Ca  Ca20  1  0.04473900  0.41919800  0.00225800  1
  Ca  Ca21  1  0.54473900  0.50225800  0.91919800  1
  V  V22  1  0.66956400  0.71116400  0.15752900  1
  V  V23  1  0.21116400  0.16956400  0.65752900  1
  V  V24  1  0.30197500  0.24762200  0.79682800  1
  V  V25  1  0.15752900  0.66956400  0.71116400  1
  V  V26  1  0.74762200  0.80197500  0.29682800  1
  V  V27  1  0.80197500  0.29682800  0.74762200  1
  V  V28  1  0.79682800  0.30197500  0.24762200  1
  V  V29  1  0.71184900  0.71184800  0.71184900  1
  V  V30  1  0.24762200  0.79682800  0.30197500  1
  V  V31  1  0.65752900  0.21116400  0.16956400  1
  V  V32  1  0.16956400  0.65752900  0.21116400  1
  V  V33  1  0.29682800  0.74762200  0.80197500  1
  V  V34  1  0.71116400  0.15752900  0.66956400  1
  V  V35  1  0.21184900  0.21184900  0.21184900  1
  O  O36  1  0.62089400  0.35985600  0.80322100  1
  O  O37  1  0.07205000  0.85658600  0.64235900  1
  O  O38  1  0.08313300  0.60065000  0.72537700  1
  O  O39  1  0.10386500  0.11608400  0.84323800  1
  O  O40  1  0.06192400  0.85027100  0.40436800  1
  O  O41  1  0.88183800  0.57931400  0.71543600  1
  O  O42  1  0.16619800  0.16619800  0.16619800  1
  O  O43  1  0.10826700  0.83238200  0.87081000  1
  O  O44  1  0.10065000  0.58313300  0.22537700  1
  O  O45  1  0.58313300  0.22537700  0.10065000  1
  O  O46  1  0.84323800  0.10386500  0.11608400  1
  O  O47  1  0.35658600  0.57205000  0.14235900  1
  O  O48  1  0.64235900  0.07205000  0.85658600  1
  O  O49  1  0.60386500  0.34323800  0.61608400  1
  O  O50  1  0.36734100  0.80026000  0.81210200  1
  O  O51  1  0.33238200  0.60826700  0.37081000  1
  O  O52  1  0.64821700  0.38514100  0.07676800  1
  O  O53  1  0.38514100  0.07676800  0.64821700  1
  O  O54  1  0.85985600  0.12089400  0.30322100  1
  O  O55  1  0.66619800  0.66619800  0.66619800  1
  O  O56  1  0.60065000  0.72537700  0.08313300  1
  O  O57  1  0.37081000  0.33238200  0.60826700  1
  O  O58  1  0.71543600  0.88183800  0.57931400  1
  O  O59  1  0.35985600  0.80322100  0.62089400  1
  O  O60  1  0.85027100  0.40436800  0.06192400  1
  O  O61  1  0.72537700  0.08313300  0.60065000  1
  O  O62  1  0.12089400  0.30322100  0.85985600  1
  O  O63  1  0.80322100  0.62089400  0.35985600  1
  O  O64  1  0.57931400  0.71543600  0.88183800  1
  O  O65  1  0.35027100  0.56192400  0.90436800  1
  O  O66  1  0.38183800  0.21543600  0.07931400  1
  O  O67  1  0.83238200  0.87081000  0.10826700  1
  O  O68  1  0.80026000  0.81210200  0.36734100  1
  O  O69  1  0.60826700  0.37081000  0.33238200  1
  O  O70  1  0.86734100  0.31210200  0.30026000  1
  O  O71  1  0.81210200  0.36734100  0.80026000  1
  O  O72  1  0.14235900  0.35658600  0.57205000  1
  O  O73  1  0.34323800  0.61608400  0.60386500  1
  O  O74  1  0.40436800  0.06192400  0.85027100  1
  O  O75  1  0.14821700  0.57676800  0.88514100  1
  O  O76  1  0.61608400  0.60386500  0.34323800  1
  O  O77  1  0.88514100  0.14821700  0.57676800  1
  O  O78  1  0.85658600  0.64235900  0.07205000  1
  O  O79  1  0.56192400  0.90436800  0.35027100  1
  O  O80  1  0.57676800  0.88514100  0.14821700  1
  O  O81  1  0.21543600  0.07931400  0.38183800  1
  O  O82  1  0.30322100  0.85985600  0.12089400  1
  O  O83  1  0.30026000  0.86734100  0.31210200  1
  O  O84  1  0.22537700  0.10065000  0.58313300  1
  O  O85  1  0.87081000  0.10826700  0.83238200  1
  O  O86  1  0.31210200  0.30026000  0.86734100  1
  O  O87  1  0.07931400  0.38183800  0.21543600  1
  O  O88  1  0.07676800  0.64821700  0.38514100  1
  O  O89  1  0.11608400  0.84323800  0.10386500  1
  O  O90  1  0.57205000  0.14235900  0.35658600  1
  O  O91  1  0.90436800  0.35027100  0.56192400  1
