# generated using pymatgen
data_Na2U2Si(O4F)2
_symmetry_space_group_name_H-M   'P 1'
_cell_length_a   10.53454832
_cell_length_b   10.53454832
_cell_length_c   10.53454832
_cell_angle_alpha   141.02614173
_cell_angle_beta   141.02614173
_cell_angle_gamma   56.29851241
_symmetry_Int_Tables_number   1
_chemical_formula_structural   Na2U2Si(O4F)2
_chemical_formula_sum   'Na4 U4 Si2 O16 F4'
_cell_volume   458.84921016
_cell_formula_units_Z   2
loop_
 _symmetry_equiv_pos_site_id
 _symmetry_equiv_pos_as_xyz
  1  'x, y, z'
loop_
 _atom_site_type_symbol
 _atom_site_label
 _atom_site_symmetry_multiplicity
 _atom_site_fract_x
 _atom_site_fract_y
 _atom_site_fract_z
 _atom_site_occupancy
  Na  Na0  1  0.37500000  0.12500000  0.25000000  1
  Na  Na1  1  0.87500000  0.12500000  0.25000000  1
  Na  Na2  1  0.87500000  0.12500000  0.75000000  1
  Na  Na3  1  0.87500000  0.62500000  0.75000000  1
  U  U4  1  0.67374100  0.67374100  0.00000000  1
  U  U5  1  0.07625900  0.57625900  0.50000000  1
  U  U6  1  0.42374100  0.92374100  0.50000000  1
  U  U7  1  0.32625900  0.32625900  0.00000000  1
  Si  Si8  1  0.25000000  0.75000000  0.50000000  1
  Si  Si9  1  0.50000000  0.50000000  0.00000000  1
  O  O10  1  0.44245700  0.61939100  0.17693400  1
  O  O11  1  0.36939100  0.69245700  0.67693400  1
  O  O12  1  0.67269500  0.93485000  0.26215500  1
  O  O13  1  0.58946000  0.32730500  0.26215500  1
  O  O14  1  0.07730500  0.83946000  0.76215500  1
  O  O15  1  0.38060900  0.55754300  0.82306600  1
  O  O16  1  0.06515000  0.32730500  0.73784500  1
  O  O17  1  0.44245700  0.26552300  0.82306600  1
  O  O18  1  0.68485000  0.92269500  0.76215500  1
  O  O19  1  0.01552300  0.69245700  0.32306600  1
  O  O20  1  0.16054000  0.92269500  0.23784500  1
  O  O21  1  0.30754300  0.98447700  0.67693400  1
  O  O22  1  0.67269500  0.41054000  0.73784500  1
  O  O23  1  0.30754300  0.63060900  0.32306600  1
  O  O24  1  0.73447700  0.55754300  0.17693400  1
  O  O25  1  0.07730500  0.31515000  0.23784500  1
  F  F26  1  0.95727600  0.45727600  0.50000000  1
  F  F27  1  0.54272400  0.04272400  0.50000000  1
  F  F28  1  0.79272400  0.79272400  0.00000000  1
  F  F29  1  0.20727600  0.20727600  0.00000000  1
