# generated using pymatgen
data_CrAg(PS3)2
_symmetry_space_group_name_H-M   'P 1'
_cell_length_a   10.67979500
_cell_length_b   5.96965300
_cell_length_c   7.36758116
_cell_angle_alpha   75.43178469
_cell_angle_beta   90.00000000
_cell_angle_gamma   90.00000000
_symmetry_Int_Tables_number   1
_chemical_formula_structural   CrAg(PS3)2
_chemical_formula_sum   'Cr2 Ag2 P4 S12'
_cell_volume   454.61574600
_cell_formula_units_Z   2
loop_
 _symmetry_equiv_pos_site_id
 _symmetry_equiv_pos_as_xyz
  1  'x, y, z'
loop_
 _atom_site_type_symbol
 _atom_site_label
 _atom_site_symmetry_multiplicity
 _atom_site_fract_x
 _atom_site_fract_y
 _atom_site_fract_z
 _atom_site_occupancy
  Cr  Cr0  1  0.91779100  0.75000000  0.00000000  1
  Cr  Cr1  1  0.08220900  0.25000000  0.00000000  1
  Ag  Ag2  1  0.56134900  0.75000000  0.00000000  1
  Ag  Ag3  1  0.43865100  0.25000000  0.00000000  1
  P  P4  1  0.24435600  0.79266100  0.84437300  1
  P  P5  1  0.75564400  0.20733900  0.15562700  1
  P  P6  1  0.75564400  0.29266100  0.84437300  1
  P  P7  1  0.24435600  0.70733900  0.15562700  1
  S  S8  1  0.07427900  0.98411400  0.79582000  1
  S  S9  1  0.76904800  0.52082000  0.21864500  1
  S  S10  1  0.23095200  0.47918000  0.78135500  1
  S  S11  1  0.39306200  0.52406000  0.26300900  1
  S  S12  1  0.92572100  0.01588600  0.20418000  1
  S  S13  1  0.23095200  0.02082000  0.21864500  1
  S  S14  1  0.60693800  0.47594000  0.73699100  1
  S  S15  1  0.92572100  0.48411400  0.79582000  1
  S  S16  1  0.07427900  0.51588600  0.20418000  1
  S  S17  1  0.39306200  0.97594000  0.73699100  1
  S  S18  1  0.60693800  0.02406000  0.26300900  1
  S  S19  1  0.76904800  0.97918000  0.78135500  1
