# generated using pymatgen
data_BaTcO3
_symmetry_space_group_name_H-M   'P 1'
_cell_length_a   5.84398300
_cell_length_b   5.84398298
_cell_length_c   14.11616300
_cell_angle_alpha   90.00000000
_cell_angle_beta   90.00000000
_cell_angle_gamma   119.99999447
_symmetry_Int_Tables_number   1
_chemical_formula_structural   BaTcO3
_chemical_formula_sum   'Ba6 Tc6 O18'
_cell_volume   417.50838939
_cell_formula_units_Z   6
loop_
 _symmetry_equiv_pos_site_id
 _symmetry_equiv_pos_as_xyz
  1  'x, y, z'
loop_
 _atom_site_type_symbol
 _atom_site_label
 _atom_site_symmetry_multiplicity
 _atom_site_fract_x
 _atom_site_fract_y
 _atom_site_fract_z
 _atom_site_occupancy
  Ba  Ba0  1  0.66666700  0.33333300  0.59252200  1
  Ba  Ba1  1  0.33333300  0.66666700  0.40747800  1
  Ba  Ba2  1  0.66666700  0.33333300  0.90747800  1
  Ba  Ba3  1  0.00000000  0.00000000  0.25000000  1
  Ba  Ba4  1  0.33333300  0.66666700  0.09252200  1
  Ba  Ba5  1  0.00000000  0.00000000  0.75000000  1
  Tc  Tc6  1  0.33333300  0.66666700  0.66129100  1
  Tc  Tc7  1  0.66666700  0.33333300  0.16129100  1
  Tc  Tc8  1  0.33333300  0.66666700  0.83870900  1
  Tc  Tc9  1  0.66666700  0.33333300  0.33870900  1
  Tc  Tc10  1  0.00000000  0.00000000  0.50000000  1
  Tc  Tc11  1  0.00000000  0.00000000  0.00000000  1
  O  O12  1  0.83442600  0.16557400  0.41844600  1
  O  O13  1  0.83442600  0.66885300  0.08155400  1
  O  O14  1  0.66885300  0.83442600  0.58155400  1
  O  O15  1  0.83442600  0.16557400  0.08155400  1
  O  O16  1  0.16557400  0.33114700  0.91844600  1
  O  O17  1  0.83442600  0.66885300  0.41844600  1
  O  O18  1  0.50712400  0.49287600  0.25000000  1
  O  O19  1  0.33114700  0.16557400  0.41844600  1
  O  O20  1  0.16557400  0.83442600  0.91844600  1
  O  O21  1  0.50712400  0.01424700  0.25000000  1
  O  O22  1  0.16557400  0.83442600  0.58155400  1
  O  O23  1  0.49287600  0.98575300  0.75000000  1
  O  O24  1  0.01424700  0.50712400  0.75000000  1
  O  O25  1  0.49287600  0.50712400  0.75000000  1
  O  O26  1  0.16557400  0.33114700  0.58155400  1
  O  O27  1  0.66885300  0.83442600  0.91844600  1
  O  O28  1  0.98575300  0.49287600  0.25000000  1
  O  O29  1  0.33114700  0.16557400  0.08155400  1
