# generated using pymatgen
data_SrI2
_symmetry_space_group_name_H-M   'P 1'
_cell_length_a   5.01549600
_cell_length_b   8.50097700
_cell_length_c   12.53623300
_cell_angle_alpha   90.00000000
_cell_angle_beta   90.00000000
_cell_angle_gamma   90.00000000
_symmetry_Int_Tables_number   1
_chemical_formula_structural   SrI2
_chemical_formula_sum   'Sr4 I8'
_cell_volume   534.50255426
_cell_formula_units_Z   4
loop_
 _symmetry_equiv_pos_site_id
 _symmetry_equiv_pos_as_xyz
  1  'x, y, z'
loop_
 _atom_site_type_symbol
 _atom_site_label
 _atom_site_symmetry_multiplicity
 _atom_site_fract_x
 _atom_site_fract_y
 _atom_site_fract_z
 _atom_site_occupancy
  Sr  Sr0  1  0.25000000  0.13190400  0.17017500  1
  Sr  Sr1  1  0.75000000  0.63190400  0.32982500  1
  Sr  Sr2  1  0.25000000  0.36809600  0.67017500  1
  Sr  Sr3  1  0.75000000  0.86809600  0.82982500  1
  I  I4  1  0.25000000  0.37697600  0.39184700  1
  I  I5  1  0.25000000  0.88056300  0.37753600  1
  I  I6  1  0.75000000  0.38056300  0.12246400  1
  I  I7  1  0.25000000  0.61943700  0.87753600  1
  I  I8  1  0.25000000  0.12302400  0.89184700  1
  I  I9  1  0.75000000  0.87697600  0.10815300  1
  I  I10  1  0.75000000  0.11943700  0.62246400  1
  I  I11  1  0.75000000  0.62302400  0.60815300  1
