# generated using pymatgen
data_K2CdSiO4
_symmetry_space_group_name_H-M   'P 1'
_cell_length_a   5.69295100
_cell_length_b   11.44653500
_cell_length_c   16.23032500
_cell_angle_alpha   90.00000000
_cell_angle_beta   90.00000000
_cell_angle_gamma   90.00000000
_symmetry_Int_Tables_number   1
_chemical_formula_structural   K2CdSiO4
_chemical_formula_sum   'K16 Cd8 Si8 O32'
_cell_volume   1057.64203394
_cell_formula_units_Z   8
loop_
 _symmetry_equiv_pos_site_id
 _symmetry_equiv_pos_as_xyz
  1  'x, y, z'
loop_
 _atom_site_type_symbol
 _atom_site_label
 _atom_site_symmetry_multiplicity
 _atom_site_fract_x
 _atom_site_fract_y
 _atom_site_fract_z
 _atom_site_occupancy
  K  K0  1  0.48951800  0.99128200  0.94023200  1
  K  K1  1  0.51048200  0.00871800  0.44023200  1
  K  K2  1  0.51048200  0.49128200  0.94023200  1
  K  K3  1  0.48951800  0.50871800  0.44023200  1
  K  K4  1  0.46112000  0.73917100  0.82025300  1
  K  K5  1  0.53888000  0.26082900  0.32025300  1
  K  K6  1  0.53888000  0.23917100  0.82025300  1
  K  K7  1  0.46112000  0.76082900  0.32025300  1
  K  K8  1  0.00521900  0.01452900  0.05996300  1
  K  K9  1  0.99478100  0.98547100  0.55996300  1
  K  K10  1  0.99478100  0.51452900  0.05996300  1
  K  K11  1  0.00521900  0.48547100  0.55996300  1
  K  K12  1  0.04747100  0.27200000  0.18708800  1
  K  K13  1  0.95252900  0.72800000  0.68708800  1
  K  K14  1  0.95252900  0.77200000  0.18708800  1
  K  K15  1  0.04747100  0.22800000  0.68708800  1
  Cd  Cd16  1  0.99005200  0.98862600  0.81179900  1
  Cd  Cd17  1  0.00994800  0.01137400  0.31179900  1
  Cd  Cd18  1  0.00994800  0.48862600  0.81179900  1
  Cd  Cd19  1  0.99005200  0.51137400  0.31179900  1
  Cd  Cd20  1  0.53512800  0.25818800  0.06443700  1
  Cd  Cd21  1  0.46487200  0.74181200  0.56443700  1
  Cd  Cd22  1  0.46487200  0.75818800  0.06443700  1
  Cd  Cd23  1  0.53512800  0.24181200  0.56443700  1
  Si  Si24  1  0.51463500  0.00788700  0.19001300  1
  Si  Si25  1  0.48536500  0.99211300  0.69001300  1
  Si  Si26  1  0.48536500  0.50788700  0.19001300  1
  Si  Si27  1  0.51463500  0.49211300  0.69001300  1
  Si  Si28  1  0.97720000  0.73226300  0.93340900  1
  Si  Si29  1  0.02280000  0.26773700  0.43340900  1
  Si  Si30  1  0.02280000  0.23226300  0.93340900  1
  Si  Si31  1  0.97720000  0.76773700  0.43340900  1
  O  O32  1  0.72307300  0.69326000  0.97491100  1
  O  O33  1  0.27692700  0.30674000  0.47491100  1
  O  O34  1  0.27692700  0.19326000  0.97491100  1
  O  O35  1  0.72307300  0.80674000  0.47491100  1
  O  O36  1  0.12261200  0.61046500  0.91030700  1
  O  O37  1  0.87738800  0.38953500  0.41030700  1
  O  O38  1  0.87738800  0.11046500  0.91030700  1
  O  O39  1  0.12261200  0.88953500  0.41030700  1
  O  O40  1  0.92922800  0.80611500  0.84736600  1
  O  O41  1  0.07077200  0.19388500  0.34736600  1
  O  O42  1  0.07077200  0.30611500  0.84736600  1
  O  O43  1  0.92922800  0.69388500  0.34736600  1
  O  O44  1  0.35555900  0.03064600  0.77768300  1
  O  O45  1  0.64444100  0.96935400  0.27768300  1
  O  O46  1  0.64444100  0.53064600  0.77768300  1
  O  O47  1  0.35555900  0.46935400  0.27768300  1
  O  O48  1  0.86037800  0.30908900  0.99870500  1
  O  O49  1  0.13962200  0.69091100  0.49870500  1
  O  O50  1  0.13962200  0.80908900  0.99870500  1
  O  O51  1  0.86037800  0.19091100  0.49870500  1
  O  O52  1  0.39504000  0.42663900  0.11137000  1
  O  O53  1  0.60496000  0.57336100  0.61137000  1
  O  O54  1  0.60496000  0.92663900  0.11137000  1
  O  O55  1  0.39504000  0.07336100  0.61137000  1
  O  O56  1  0.58839500  0.14642200  0.17188200  1
  O  O57  1  0.41160500  0.85357800  0.67188200  1
  O  O58  1  0.41160500  0.64642200  0.17188200  1
  O  O59  1  0.58839500  0.35357800  0.67188200  1
  O  O60  1  0.22773600  0.98855300  0.20058700  1
  O  O61  1  0.77226400  0.01144700  0.70058700  1
  O  O62  1  0.77226400  0.48855300  0.20058700  1
  O  O63  1  0.22773600  0.51144700  0.70058700  1
