# generated using pymatgen
data_NaAlCdF6
_symmetry_space_group_name_H-M   'P 1'
_cell_length_a   3.69908600
_cell_length_b   10.11562100
_cell_length_c   12.69617700
_cell_angle_alpha   90.00000000
_cell_angle_beta   90.00000000
_cell_angle_gamma   90.00000000
_symmetry_Int_Tables_number   1
_chemical_formula_structural   NaAlCdF6
_chemical_formula_sum   'Na4 Al4 Cd4 F24'
_cell_volume   475.07255956
_cell_formula_units_Z   4
loop_
 _symmetry_equiv_pos_site_id
 _symmetry_equiv_pos_as_xyz
  1  'x, y, z'
loop_
 _atom_site_type_symbol
 _atom_site_label
 _atom_site_symmetry_multiplicity
 _atom_site_fract_x
 _atom_site_fract_y
 _atom_site_fract_z
 _atom_site_occupancy
  Na  Na0  1  0.25000000  0.17429100  0.91483400  1
  Na  Na1  1  0.25000000  0.32570900  0.41483400  1
  Na  Na2  1  0.75000000  0.82570900  0.08516600  1
  Na  Na3  1  0.75000000  0.67429100  0.58516600  1
  Al  Al4  1  0.25000000  0.82003300  0.83565700  1
  Al  Al5  1  0.75000000  0.17996700  0.16434300  1
  Al  Al6  1  0.25000000  0.67996700  0.33565700  1
  Al  Al7  1  0.75000000  0.32003300  0.66434300  1
  Cd  Cd8  1  0.75000000  0.00006900  0.37967100  1
  Cd  Cd9  1  0.75000000  0.49993100  0.87967100  1
  Cd  Cd10  1  0.25000000  0.99993100  0.62032900  1
  Cd  Cd11  1  0.25000000  0.50006900  0.12032900  1
  F  F12  1  0.75000000  0.13967200  0.64359900  1
  F  F13  1  0.25000000  0.09813200  0.45754700  1
  F  F14  1  0.75000000  0.36032800  0.14359900  1
  F  F15  1  0.75000000  0.14489800  0.02688900  1
  F  F16  1  0.75000000  0.00468300  0.19921000  1
  F  F17  1  0.75000000  0.28663200  0.80724300  1
  F  F18  1  0.25000000  0.86032800  0.35640100  1
  F  F19  1  0.75000000  0.90186800  0.54245300  1
  F  F20  1  0.25000000  0.63967200  0.85640100  1
  F  F21  1  0.75000000  0.81361100  0.83385300  1
  F  F22  1  0.75000000  0.35510200  0.52688900  1
  F  F23  1  0.75000000  0.68638900  0.33385300  1
  F  F24  1  0.25000000  0.18638900  0.16614700  1
  F  F25  1  0.25000000  0.78663200  0.69275700  1
  F  F26  1  0.25000000  0.64489800  0.47311100  1
  F  F27  1  0.75000000  0.59813200  0.04245300  1
  F  F28  1  0.25000000  0.40186800  0.95754700  1
  F  F29  1  0.25000000  0.99531700  0.80079000  1
  F  F30  1  0.25000000  0.71336800  0.19275700  1
  F  F31  1  0.75000000  0.49531700  0.69921000  1
  F  F32  1  0.25000000  0.31361100  0.66614700  1
  F  F33  1  0.25000000  0.50468300  0.30079000  1
  F  F34  1  0.25000000  0.85510200  0.97311100  1
  F  F35  1  0.75000000  0.21336800  0.30724300  1
