# generated using pymatgen
data_Rb3Cu2(BiS2)5
_symmetry_space_group_name_H-M   'P 1'
_cell_length_a   4.08038700
_cell_length_b   14.79201000
_cell_length_c   18.02877800
_cell_angle_alpha   90.00000000
_cell_angle_beta   90.00000000
_cell_angle_gamma   90.00000000
_symmetry_Int_Tables_number   1
_chemical_formula_structural   Rb3Cu2(BiS2)5
_chemical_formula_sum   'Rb6 Cu4 Bi10 S20'
_cell_volume   1088.16521289
_cell_formula_units_Z   2
loop_
 _symmetry_equiv_pos_site_id
 _symmetry_equiv_pos_as_xyz
  1  'x, y, z'
loop_
 _atom_site_type_symbol
 _atom_site_label
 _atom_site_symmetry_multiplicity
 _atom_site_fract_x
 _atom_site_fract_y
 _atom_site_fract_z
 _atom_site_occupancy
  Rb  Rb0  1  0.50000000  0.02399100  0.75147600  1
  Rb  Rb1  1  0.00000000  0.52399100  0.74852400  1
  Rb  Rb2  1  0.50000000  0.50000000  0.00000000  1
  Rb  Rb3  1  0.50000000  0.97600900  0.24852400  1
  Rb  Rb4  1  0.00000000  0.47600900  0.25147600  1
  Rb  Rb5  1  0.00000000  0.00000000  0.50000000  1
  Cu  Cu6  1  0.00000000  0.77995200  0.75504600  1
  Cu  Cu7  1  0.00000000  0.22004800  0.24495400  1
  Cu  Cu8  1  0.50000000  0.72004800  0.25504600  1
  Cu  Cu9  1  0.50000000  0.27995200  0.74495400  1
  Bi  Bi10  1  0.00000000  0.73758500  0.10516600  1
  Bi  Bi11  1  0.50000000  0.78446200  0.90649700  1
  Bi  Bi12  1  0.50000000  0.23758500  0.39483400  1
  Bi  Bi13  1  0.50000000  0.21553800  0.09350300  1
  Bi  Bi14  1  0.00000000  0.71553800  0.40649700  1
  Bi  Bi15  1  0.00000000  0.28446200  0.59350300  1
  Bi  Bi16  1  0.50000000  0.76241500  0.60516600  1
  Bi  Bi17  1  0.50000000  0.50000000  0.50000000  1
  Bi  Bi18  1  0.00000000  0.26241500  0.89483400  1
  Bi  Bi19  1  0.00000000  0.00000000  0.00000000  1
  S  S20  1  0.50000000  0.40441100  0.63673000  1
  S  S21  1  0.00000000  0.12782900  0.35030400  1
  S  S22  1  0.00000000  0.32961600  0.03264200  1
  S  S23  1  0.00000000  0.67038400  0.96735800  1
  S  S24  1  0.50000000  0.88073500  0.05503000  1
  S  S25  1  0.50000000  0.17038400  0.53264200  1
  S  S26  1  0.00000000  0.87217100  0.64969600  1
  S  S27  1  0.00000000  0.38073500  0.44497000  1
  S  S28  1  0.50000000  0.82961600  0.46735800  1
  S  S29  1  0.50000000  0.29615400  0.22812000  1
  S  S30  1  0.50000000  0.37217100  0.85030400  1
  S  S31  1  0.00000000  0.79615400  0.27188000  1
  S  S32  1  0.50000000  0.62782900  0.14969600  1
  S  S33  1  0.50000000  0.70384600  0.77188000  1
  S  S34  1  0.00000000  0.20384600  0.72812000  1
  S  S35  1  0.00000000  0.09558900  0.13673000  1
  S  S36  1  0.00000000  0.61926500  0.55503000  1
  S  S37  1  0.50000000  0.59558900  0.36327000  1
  S  S38  1  0.00000000  0.90441100  0.86327000  1
  S  S39  1  0.50000000  0.11926500  0.94497000  1
