# generated using pymatgen
data_K5Li2NdF10
_symmetry_space_group_name_H-M   'P 1'
_cell_length_a   7.01387900
_cell_length_b   7.86770300
_cell_length_c   20.96485500
_cell_angle_alpha   90.00000000
_cell_angle_beta   90.00000000
_cell_angle_gamma   90.00000000
_symmetry_Int_Tables_number   1
_chemical_formula_structural   K5Li2NdF10
_chemical_formula_sum   'K20 Li8 Nd4 F40'
_cell_volume   1156.90604321
_cell_formula_units_Z   4
loop_
 _symmetry_equiv_pos_site_id
 _symmetry_equiv_pos_as_xyz
  1  'x, y, z'
loop_
 _atom_site_type_symbol
 _atom_site_label
 _atom_site_symmetry_multiplicity
 _atom_site_fract_x
 _atom_site_fract_y
 _atom_site_fract_z
 _atom_site_occupancy
  K  K0  1  0.24984700  0.52194800  0.54301700  1
  K  K1  1  0.92343300  0.52683200  0.78304000  1
  K  K2  1  0.56696500  0.25000000  0.14015400  1
  K  K3  1  0.43303500  0.75000000  0.85984600  1
  K  K4  1  0.07656700  0.47316800  0.21696000  1
  K  K5  1  0.42343300  0.47316800  0.71696000  1
  K  K6  1  0.93303500  0.25000000  0.64015400  1
  K  K7  1  0.24984700  0.97805200  0.54301700  1
  K  K8  1  0.07656700  0.02683200  0.21696000  1
  K  K9  1  0.06696500  0.75000000  0.35984600  1
  K  K10  1  0.74984700  0.47805200  0.95698300  1
  K  K11  1  0.57656700  0.52683200  0.28304000  1
  K  K12  1  0.75015300  0.02194800  0.45698300  1
  K  K13  1  0.92343300  0.97316800  0.78304000  1
  K  K14  1  0.75015300  0.47805200  0.45698300  1
  K  K15  1  0.74984700  0.02194800  0.95698300  1
  K  K16  1  0.25015300  0.52194800  0.04301700  1
  K  K17  1  0.57656700  0.97316800  0.28304000  1
  K  K18  1  0.25015300  0.97805200  0.04301700  1
  K  K19  1  0.42343300  0.02683200  0.71696000  1
  Li  Li20  1  0.97358900  0.25000000  0.07775800  1
  Li  Li21  1  0.34595100  0.75000000  0.17304800  1
  Li  Li22  1  0.84595100  0.25000000  0.32695200  1
  Li  Li23  1  0.65404900  0.25000000  0.82695200  1
  Li  Li24  1  0.47358900  0.75000000  0.42224200  1
  Li  Li25  1  0.15404900  0.75000000  0.67304800  1
  Li  Li26  1  0.52641100  0.25000000  0.57775800  1
  Li  Li27  1  0.02641100  0.75000000  0.92224200  1
  Nd  Nd28  1  0.73510500  0.75000000  0.60710800  1
  Nd  Nd29  1  0.76489500  0.75000000  0.10710800  1
  Nd  Nd30  1  0.26489500  0.25000000  0.39289200  1
  Nd  Nd31  1  0.23510500  0.25000000  0.89289200  1
  F  F32  1  0.04481100  0.25000000  0.99085600  1
  F  F33  1  0.70335100  0.25000000  0.74045000  1
  F  F34  1  0.99779400  0.92545900  0.64662700  1
  F  F35  1  0.39110100  0.75000000  0.63148400  1
  F  F36  1  0.49779400  0.07454100  0.85337300  1
  F  F37  1  0.60889900  0.25000000  0.36851600  1
  F  F38  1  0.95518900  0.75000000  0.00914400  1
  F  F39  1  0.00220600  0.07454100  0.35337300  1
  F  F40  1  0.29664900  0.75000000  0.25955000  1
  F  F41  1  0.80963700  0.75000000  0.21838600  1
  F  F42  1  0.49779400  0.42545900  0.85337300  1
  F  F43  1  0.89110100  0.25000000  0.86851600  1
  F  F44  1  0.15270500  0.95983500  0.90927300  1
  F  F45  1  0.50220600  0.57454100  0.14662700  1
  F  F46  1  0.15270500  0.54016500  0.90927300  1
  F  F47  1  0.19276800  0.25000000  0.12619400  1
  F  F48  1  0.45518900  0.25000000  0.49085600  1
  F  F49  1  0.20335100  0.75000000  0.75955000  1
  F  F50  1  0.54692400  0.75000000  0.01975700  1
  F  F51  1  0.30723200  0.25000000  0.62619400  1
  F  F52  1  0.65270500  0.04016500  0.59072700  1
  F  F53  1  0.34729500  0.54016500  0.40927300  1
  F  F54  1  0.45307600  0.25000000  0.98024300  1
  F  F55  1  0.84729500  0.45983500  0.09072700  1
  F  F56  1  0.19036300  0.25000000  0.78161400  1
  F  F57  1  0.54481100  0.75000000  0.50914400  1
  F  F58  1  0.00220600  0.42545900  0.35337300  1
  F  F59  1  0.04692400  0.25000000  0.48024300  1
  F  F60  1  0.95307600  0.75000000  0.51975700  1
  F  F61  1  0.99779400  0.57454100  0.64662700  1
  F  F62  1  0.10889900  0.75000000  0.13148400  1
  F  F63  1  0.69036300  0.75000000  0.71838600  1
  F  F64  1  0.80723200  0.75000000  0.87380600  1
  F  F65  1  0.79664900  0.25000000  0.24045000  1
  F  F66  1  0.65270500  0.45983500  0.59072700  1
  F  F67  1  0.69276800  0.75000000  0.37380600  1
  F  F68  1  0.34729500  0.95983500  0.40927300  1
  F  F69  1  0.84729500  0.04016500  0.09072700  1
  F  F70  1  0.50220600  0.92545900  0.14662700  1
  F  F71  1  0.30963700  0.25000000  0.28161400  1
