# generated using pymatgen
data_NbI4
_symmetry_space_group_name_H-M   'P 1'
_cell_length_a   8.06197749
_cell_length_b   8.06197749
_cell_length_c   14.89742900
_cell_angle_alpha   90.00000000
_cell_angle_beta   90.00000000
_cell_angle_gamma   121.93932847
_symmetry_Int_Tables_number   1
_chemical_formula_structural   NbI4
_chemical_formula_sum   'Nb4 I16'
_cell_volume   821.67864149
_cell_formula_units_Z   4
loop_
 _symmetry_equiv_pos_site_id
 _symmetry_equiv_pos_as_xyz
  1  'x, y, z'
loop_
 _atom_site_type_symbol
 _atom_site_label
 _atom_site_symmetry_multiplicity
 _atom_site_fract_x
 _atom_site_fract_y
 _atom_site_fract_z
 _atom_site_occupancy
  Nb  Nb0  1  0.09029200  0.33706800  0.62332300  1
  Nb  Nb1  1  0.90970800  0.66293200  0.12332300  1
  Nb  Nb2  1  0.66293200  0.90970800  0.62332300  1
  Nb  Nb3  1  0.33706800  0.09029200  0.12332300  1
  I  I4  1  0.77240900  0.74057100  0.97203800  1
  I  I5  1  0.26551600  0.73448400  0.55177300  1
  I  I6  1  0.25942900  0.22759100  0.97203800  1
  I  I7  1  0.51229500  0.48770500  0.19505100  1
  I  I8  1  0.74613400  0.25386600  0.53957100  1
  I  I9  1  0.22759100  0.25942900  0.47203800  1
  I  I10  1  0.47463100  0.00977700  0.27363100  1
  I  I11  1  0.99278500  0.00721500  0.20692100  1
  I  I12  1  0.25386600  0.74613400  0.03957100  1
  I  I13  1  0.99022300  0.52536900  0.27363100  1
  I  I14  1  0.52536900  0.99022300  0.77363100  1
  I  I15  1  0.00977700  0.47463100  0.77363100  1
  I  I16  1  0.48770500  0.51229500  0.69505100  1
  I  I17  1  0.00721500  0.99278500  0.70692100  1
  I  I18  1  0.74057100  0.77240900  0.47203800  1
  I  I19  1  0.73448400  0.26551600  0.05177300  1
