# generated using pymatgen
data_Na5SnAs3
_symmetry_space_group_name_H-M   'P 1'
_cell_length_a   7.69895800
_cell_length_b   8.63414400
_cell_length_c   16.17624560
_cell_angle_alpha   58.22566592
_cell_angle_beta   90.00000000
_cell_angle_gamma   90.00000000
_symmetry_Int_Tables_number   1
_chemical_formula_structural   Na5SnAs3
_chemical_formula_sum   'Na20 Sn4 As12'
_cell_volume   914.14192600
_cell_formula_units_Z   4
loop_
 _symmetry_equiv_pos_site_id
 _symmetry_equiv_pos_as_xyz
  1  'x, y, z'
loop_
 _atom_site_type_symbol
 _atom_site_label
 _atom_site_symmetry_multiplicity
 _atom_site_fract_x
 _atom_site_fract_y
 _atom_site_fract_z
 _atom_site_occupancy
  Na  Na0  1  0.15987100  0.99280000  0.58258800  1
  Na  Na1  1  0.49466900  0.90745300  0.75853500  1
  Na  Na2  1  0.99466900  0.09254700  0.74146500  1
  Na  Na3  1  0.50533100  0.09254700  0.24146500  1
  Na  Na4  1  0.00533100  0.90745300  0.25853500  1
  Na  Na5  1  0.04088700  0.58861400  0.58901100  1
  Na  Na6  1  0.54088700  0.41138600  0.91098900  1
  Na  Na7  1  0.95911300  0.41138600  0.41098900  1
  Na  Na8  1  0.45911300  0.58861400  0.08901100  1
  Na  Na9  1  0.52440500  0.74766900  0.58621800  1
  Na  Na10  1  0.02440500  0.25233100  0.91378200  1
  Na  Na11  1  0.47559500  0.25233100  0.41378200  1
  Na  Na12  1  0.85913300  0.68630500  0.74320500  1
  Na  Na13  1  0.35913300  0.31369500  0.75679500  1
  Na  Na14  1  0.14086700  0.31369500  0.25679500  1
  Na  Na15  1  0.64086700  0.68630500  0.24320500  1
  Na  Na16  1  0.84012900  0.00720000  0.41741200  1
  Na  Na17  1  0.34012900  0.99280000  0.08258800  1
  Na  Na18  1  0.65987100  0.00720000  0.91741200  1
  Na  Na19  1  0.97559500  0.74766900  0.08621800  1
  Sn  Sn20  1  0.85302400  0.33950200  0.09014500  1
  Sn  Sn21  1  0.35302400  0.66049800  0.40985500  1
  Sn  Sn22  1  0.14697600  0.66049800  0.90985500  1
  Sn  Sn23  1  0.64697600  0.33950200  0.59014500  1
  As  As24  1  0.75210800  0.36288000  0.23908600  1
  As  As25  1  0.70605100  0.66932600  0.42867700  1
  As  As26  1  0.20605100  0.33067400  0.07132300  1
  As  As27  1  0.29394900  0.33067400  0.57132300  1
  As  As28  1  0.79394900  0.66932600  0.92867700  1
  As  As29  1  0.76930800  0.06034900  0.58290200  1
  As  As30  1  0.26930800  0.93965100  0.91709800  1
  As  As31  1  0.23069200  0.93965100  0.41709800  1
  As  As32  1  0.73069200  0.06034900  0.08290200  1
  As  As33  1  0.74789200  0.36288000  0.73908600  1
  As  As34  1  0.24789200  0.63712000  0.76091400  1
  As  As35  1  0.25210800  0.63712000  0.26091400  1
