# generated using pymatgen
data_CsBe2BO3F2
_symmetry_space_group_name_H-M   'P 1'
_cell_length_a   7.81292659
_cell_length_b   7.81292659
_cell_length_c   7.81292701
_cell_angle_alpha   33.34089227
_cell_angle_beta   33.34089227
_cell_angle_gamma   33.34088738
_symmetry_Int_Tables_number   1
_chemical_formula_structural   CsBe2BO3F2
_chemical_formula_sum   'Cs1 Be2 B1 O3 F2'
_cell_volume   128.27848636
_cell_formula_units_Z   1
loop_
 _symmetry_equiv_pos_site_id
 _symmetry_equiv_pos_as_xyz
  1  'x, y, z'
loop_
 _atom_site_type_symbol
 _atom_site_label
 _atom_site_symmetry_multiplicity
 _atom_site_fract_x
 _atom_site_fract_y
 _atom_site_fract_z
 _atom_site_occupancy
  Cs  Cs0  1  0.00000000  0.00000000  0.00000000  1
  Be  Be1  1  0.19193700  0.19193700  0.19193700  1
  Be  Be2  1  0.80806300  0.80806300  0.80806300  1
  B  B3  1  0.50000000  0.50000000  0.50000000  1
  O  O4  1  0.50000000  0.19134000  0.80866000  1
  O  O5  1  0.19134000  0.80866000  0.50000000  1
  O  O6  1  0.80866000  0.50000000  0.19134000  1
  F  F7  1  0.26238100  0.26238100  0.26238100  1
  F  F8  1  0.73761900  0.73761900  0.73761900  1
