# generated using pymatgen
data_Cs2MnO4
_symmetry_space_group_name_H-M   'P 1'
_cell_length_a   6.40999900
_cell_length_b   8.57893000
_cell_length_c   11.39084400
_cell_angle_alpha   89.99993643
_cell_angle_beta   89.99998603
_cell_angle_gamma   90.00001562
_symmetry_Int_Tables_number   1
_chemical_formula_structural   Cs2MnO4
_chemical_formula_sum   'Cs8 Mn4 O16'
_cell_volume   626.39313604
_cell_formula_units_Z   4
loop_
 _symmetry_equiv_pos_site_id
 _symmetry_equiv_pos_as_xyz
  1  'x, y, z'
loop_
 _atom_site_type_symbol
 _atom_site_label
 _atom_site_symmetry_multiplicity
 _atom_site_fract_x
 _atom_site_fract_y
 _atom_site_fract_z
 _atom_site_occupancy
  Cs  Cs0  1  0.75000000  0.66901900  0.58866800  1
  Cs  Cs1  1  0.25000000  0.33098100  0.41133200  1
  Cs  Cs2  1  0.75000000  0.16901900  0.91133200  1
  Cs  Cs3  1  0.25000000  0.83098100  0.08866800  1
  Cs  Cs4  1  0.75000000  0.98732400  0.30651300  1
  Cs  Cs5  1  0.25000000  0.01267500  0.69348700  1
  Cs  Cs6  1  0.75000000  0.48732400  0.19348700  1
  Cs  Cs7  1  0.25000000  0.51267500  0.80651300  1
  Mn  Mn8  1  0.75000000  0.23612000  0.58041600  1
  Mn  Mn9  1  0.25000000  0.76387900  0.41958400  1
  Mn  Mn10  1  0.75000000  0.73612100  0.91958400  1
  Mn  Mn11  1  0.25000000  0.26388300  0.08042000  1
  O  O12  1  0.75000000  0.04255500  0.58477600  1
  O  O13  1  0.25000000  0.95744500  0.41522300  1
  O  O14  1  0.75000000  0.54255500  0.91522400  1
  O  O15  1  0.25000000  0.45744600  0.08477600  1
  O  O16  1  0.75000000  0.29244400  0.43987800  1
  O  O17  1  0.25000000  0.70755500  0.56012200  1
  O  O18  1  0.75000000  0.79244400  0.06012200  1
  O  O19  1  0.25000000  0.20755500  0.93987700  1
  O  O20  1  0.96149500  0.30685000  0.64712500  1
  O  O21  1  0.46149500  0.69315000  0.35287400  1
  O  O22  1  0.53850500  0.80685000  0.85287500  1
  O  O23  1  0.03850500  0.19315000  0.14712500  1
  O  O24  1  0.03850500  0.69315000  0.35287400  1
  O  O25  1  0.53850500  0.30685000  0.64712500  1
  O  O26  1  0.46149500  0.19315000  0.14712500  1
  O  O27  1  0.96149500  0.80685000  0.85287400  1
