# generated using pymatgen
data_K3Na2InO4
_symmetry_space_group_name_H-M   'P 1'
_cell_length_a   9.81555600
_cell_length_b   7.35206400
_cell_length_c   12.54969766
_cell_angle_alpha   54.98890173
_cell_angle_beta   90.00000000
_cell_angle_gamma   90.00000000
_symmetry_Int_Tables_number   1
_chemical_formula_structural   K3Na2InO4
_chemical_formula_sum   'K12 Na8 In4 O16'
_cell_volume   741.75938659
_cell_formula_units_Z   4
loop_
 _symmetry_equiv_pos_site_id
 _symmetry_equiv_pos_as_xyz
  1  'x, y, z'
loop_
 _atom_site_type_symbol
 _atom_site_label
 _atom_site_symmetry_multiplicity
 _atom_site_fract_x
 _atom_site_fract_y
 _atom_site_fract_z
 _atom_site_occupancy
  K  K0  1  0.99304500  0.78168100  0.48196400  1
  K  K1  1  0.66215800  0.07094600  0.60229900  1
  K  K2  1  0.25472800  0.44125300  0.66244800  1
  K  K3  1  0.16215800  0.92905400  0.89770100  1
  K  K4  1  0.33784200  0.92905400  0.39770100  1
  K  K5  1  0.50695500  0.78168100  0.98196400  1
  K  K6  1  0.83784200  0.07094600  0.10229900  1
  K  K7  1  0.00695500  0.21831900  0.51803600  1
  K  K8  1  0.49304500  0.21831900  0.01803600  1
  K  K9  1  0.75472800  0.55874700  0.83755200  1
  K  K10  1  0.74527200  0.55874700  0.33755200  1
  K  K11  1  0.24527200  0.44125300  0.16244800  1
  Na  Na12  1  0.83467800  0.74830400  0.00754200  1
  Na  Na13  1  0.06761400  0.68485000  0.77477400  1
  Na  Na14  1  0.93238600  0.31515000  0.22522600  1
  Na  Na15  1  0.43238600  0.68485000  0.27477400  1
  Na  Na16  1  0.56761400  0.31515000  0.72522600  1
  Na  Na17  1  0.66532200  0.74830400  0.50754200  1
  Na  Na18  1  0.16532200  0.25169600  0.99245800  1
  Na  Na19  1  0.33467800  0.25169600  0.49245800  1
  In  In20  1  0.36646000  0.79470900  0.72914300  1
  In  In21  1  0.13354000  0.79470900  0.22914300  1
  In  In22  1  0.63354000  0.20529100  0.27085700  1
  In  In23  1  0.86646000  0.20529100  0.77085700  1
  O  O24  1  0.47565200  0.33984600  0.31763500  1
  O  O25  1  0.91816400  0.90854000  0.79010800  1
  O  O26  1  0.70553900  0.10473700  0.90822200  1
  O  O27  1  0.02434800  0.33984600  0.81763500  1
  O  O28  1  0.71264000  0.43033800  0.08279000  1
  O  O29  1  0.21264000  0.56966200  0.41721000  1
  O  O30  1  0.79446100  0.10473700  0.40822200  1
  O  O31  1  0.20553900  0.89526300  0.59177800  1
  O  O32  1  0.97565200  0.66015400  0.18236500  1
  O  O33  1  0.41816400  0.09146000  0.70989200  1
  O  O34  1  0.52434800  0.66015400  0.68236500  1
  O  O35  1  0.58183600  0.90854000  0.29010800  1
  O  O36  1  0.08183600  0.09146000  0.20989200  1
  O  O37  1  0.78736000  0.43033800  0.58279000  1
  O  O38  1  0.28736000  0.56966200  0.91721000  1
  O  O39  1  0.29446100  0.89526300  0.09177800  1
