# generated using pymatgen
data_Cs2UP2O9
_symmetry_space_group_name_H-M   'P 1'
_cell_length_a   6.33681500
_cell_length_b   12.76852000
_cell_length_c   12.94088700
_cell_angle_alpha   90.00000000
_cell_angle_beta   90.00000000
_cell_angle_gamma   90.00000000
_symmetry_Int_Tables_number   1
_chemical_formula_structural   Cs2UP2O9
_chemical_formula_sum   'Cs8 U4 P8 O36'
_cell_volume   1047.06980161
_cell_formula_units_Z   4
loop_
 _symmetry_equiv_pos_site_id
 _symmetry_equiv_pos_as_xyz
  1  'x, y, z'
loop_
 _atom_site_type_symbol
 _atom_site_label
 _atom_site_symmetry_multiplicity
 _atom_site_fract_x
 _atom_site_fract_y
 _atom_site_fract_z
 _atom_site_occupancy
  Cs  Cs0  1  0.51446100  0.50000000  0.32317100  1
  Cs  Cs1  1  0.50749400  0.17832100  0.50000000  1
  Cs  Cs2  1  0.48553900  0.00000000  0.17682900  1
  Cs  Cs3  1  0.48553900  0.00000000  0.82317100  1
  Cs  Cs4  1  0.49250600  0.32167900  0.00000000  1
  Cs  Cs5  1  0.50749400  0.82167900  0.50000000  1
  Cs  Cs6  1  0.51446100  0.50000000  0.67682900  1
  Cs  Cs7  1  0.49250600  0.67832100  0.00000000  1
  U  U8  1  0.00000000  0.75000000  0.25000000  1
  U  U9  1  0.00000000  0.25000000  0.75000000  1
  U  U10  1  0.00000000  0.25000000  0.25000000  1
  U  U11  1  0.00000000  0.75000000  0.75000000  1
  P  P12  1  0.99123100  0.00000000  0.61719400  1
  P  P13  1  0.00876900  0.50000000  0.88280600  1
  P  P14  1  0.01476500  0.61898200  0.50000000  1
  P  P15  1  0.01476500  0.38101800  0.50000000  1
  P  P16  1  0.98523500  0.88101800  0.00000000  1
  P  P17  1  0.98523500  0.11898200  0.00000000  1
  P  P18  1  0.00876900  0.50000000  0.11719400  1
  P  P19  1  0.99123100  0.00000000  0.38280600  1
  O  O20  1  0.75497100  0.00000000  0.61639700  1
  O  O21  1  0.72831300  0.20492100  0.76156500  1
  O  O22  1  0.08370800  0.00000000  0.00000000  1
  O  O23  1  0.74900400  0.88224900  0.00000000  1
  O  O24  1  0.90343000  0.40134300  0.16542400  1
  O  O25  1  0.74900400  0.11775100  0.00000000  1
  O  O26  1  0.91099100  0.50000000  0.00000000  1
  O  O27  1  0.25099600  0.61775100  0.50000000  1
  O  O28  1  0.09657000  0.90134300  0.33457600  1
  O  O29  1  0.09657000  0.09865700  0.33457600  1
  O  O30  1  0.09020400  0.16946900  0.09664000  1
  O  O31  1  0.72831300  0.79507900  0.23843500  1
  O  O32  1  0.90979600  0.33053100  0.59664000  1
  O  O33  1  0.90979600  0.33053100  0.40336000  1
  O  O34  1  0.09020400  0.83053100  0.09664000  1
  O  O35  1  0.09020400  0.83053100  0.90336000  1
  O  O36  1  0.90343000  0.40134300  0.83457600  1
  O  O37  1  0.90979600  0.66946900  0.40336000  1
  O  O38  1  0.72831300  0.79507900  0.76156500  1
  O  O39  1  0.27168700  0.70492100  0.26156500  1
  O  O40  1  0.25099600  0.38224900  0.50000000  1
  O  O41  1  0.09020400  0.16946900  0.90336000  1
  O  O42  1  0.27168700  0.70492100  0.73843500  1
  O  O43  1  0.27168700  0.29507900  0.26156500  1
  O  O44  1  0.24502900  0.50000000  0.11639700  1
  O  O45  1  0.90979600  0.66946900  0.59664000  1
  O  O46  1  0.90343000  0.59865700  0.16542400  1
  O  O47  1  0.24502900  0.50000000  0.88360300  1
  O  O48  1  0.72831300  0.20492100  0.23843500  1
  O  O49  1  0.90343000  0.59865700  0.83457600  1
  O  O50  1  0.09657000  0.09865700  0.66542400  1
  O  O51  1  0.91629200  0.50000000  0.50000000  1
  O  O52  1  0.08900900  0.00000000  0.50000000  1
  O  O53  1  0.09657000  0.90134300  0.66542400  1
  O  O54  1  0.75497100  0.00000000  0.38360300  1
  O  O55  1  0.27168700  0.29507900  0.73843500  1
