# generated using pymatgen
data_Zn2B2PbO6
_symmetry_space_group_name_H-M   'P 1'
_cell_length_a   5.03378800
_cell_length_b   10.74117000
_cell_length_c   11.52302100
_cell_angle_alpha   90.00000000
_cell_angle_beta   90.00000000
_cell_angle_gamma   90.00000000
_symmetry_Int_Tables_number   1
_chemical_formula_structural   Zn2B2PbO6
_chemical_formula_sum   'Zn8 B8 Pb4 O24'
_cell_volume   623.03560271
_cell_formula_units_Z   4
loop_
 _symmetry_equiv_pos_site_id
 _symmetry_equiv_pos_as_xyz
  1  'x, y, z'
loop_
 _atom_site_type_symbol
 _atom_site_label
 _atom_site_symmetry_multiplicity
 _atom_site_fract_x
 _atom_site_fract_y
 _atom_site_fract_z
 _atom_site_occupancy
  Zn  Zn0  1  0.18117300  0.84958500  0.50072900  1
  Zn  Zn1  1  0.68117300  0.15041500  0.00072900  1
  Zn  Zn2  1  0.31882700  0.34958500  0.50072900  1
  Zn  Zn3  1  0.81882700  0.15041500  0.49927100  1
  Zn  Zn4  1  0.31882700  0.84958500  0.99927100  1
  Zn  Zn5  1  0.81882700  0.65041500  0.00072900  1
  Zn  Zn6  1  0.68117300  0.65041500  0.49927100  1
  Zn  Zn7  1  0.18117300  0.34958500  0.99927100  1
  B  B8  1  0.69372900  0.41594400  0.10171000  1
  B  B9  1  0.30627100  0.08405600  0.60171000  1
  B  B10  1  0.30627100  0.58405600  0.89829000  1
  B  B11  1  0.80627100  0.91594400  0.10171000  1
  B  B12  1  0.19372900  0.08405600  0.89829000  1
  B  B13  1  0.69372900  0.91594400  0.39829000  1
  B  B14  1  0.80627100  0.41594400  0.39829000  1
  B  B15  1  0.19372900  0.58405600  0.60171000  1
  Pb  Pb16  1  0.25000000  0.55941000  0.25000000  1
  Pb  Pb17  1  0.75000000  0.44059000  0.75000000  1
  Pb  Pb18  1  0.25000000  0.05941000  0.25000000  1
  Pb  Pb19  1  0.75000000  0.94059000  0.75000000  1
  O  O20  1  0.66038400  0.52252600  0.37652500  1
  O  O21  1  0.33961600  0.47747400  0.62347500  1
  O  O22  1  0.31814800  0.18686500  0.94681100  1
  O  O23  1  0.31814800  0.68686500  0.55318900  1
  O  O24  1  0.33961600  0.97747400  0.87652500  1
  O  O25  1  0.68185200  0.81313500  0.05318900  1
  O  O26  1  0.83961600  0.02252600  0.37652500  1
  O  O27  1  0.68185200  0.31313500  0.44681100  1
  O  O28  1  0.57797100  0.58943900  0.87535600  1
  O  O29  1  0.92202900  0.08943900  0.87535600  1
  O  O30  1  0.66038400  0.02252600  0.12347500  1
  O  O31  1  0.16038400  0.47747400  0.87652500  1
  O  O32  1  0.18185200  0.68686500  0.94681100  1
  O  O33  1  0.92202900  0.58943900  0.62464400  1
  O  O34  1  0.18185200  0.18686500  0.55318900  1
  O  O35  1  0.57797100  0.08943900  0.62464400  1
  O  O36  1  0.07797100  0.91056100  0.12464400  1
  O  O37  1  0.42202900  0.91056100  0.37535600  1
  O  O38  1  0.16038400  0.97747400  0.62347500  1
  O  O39  1  0.81814800  0.31313500  0.05318900  1
  O  O40  1  0.07797100  0.41056100  0.37535600  1
  O  O41  1  0.83961600  0.52252600  0.12347500  1
  O  O42  1  0.81814800  0.81313500  0.44681100  1
  O  O43  1  0.42202900  0.41056100  0.12464400  1
