# generated using pymatgen
data_SnHg6(As2Br3)2
_symmetry_space_group_name_H-M   'P 1'
_cell_length_a   12.74700600
_cell_length_b   12.74700600
_cell_length_c   12.74700600
_cell_angle_alpha   90.00000000
_cell_angle_beta   90.00000000
_cell_angle_gamma   90.00000000
_symmetry_Int_Tables_number   1
_chemical_formula_structural   SnHg6(As2Br3)2
_chemical_formula_sum   'Sn4 Hg24 As16 Br24'
_cell_volume   2071.21208147
_cell_formula_units_Z   4
loop_
 _symmetry_equiv_pos_site_id
 _symmetry_equiv_pos_as_xyz
  1  'x, y, z'
loop_
 _atom_site_type_symbol
 _atom_site_label
 _atom_site_symmetry_multiplicity
 _atom_site_fract_x
 _atom_site_fract_y
 _atom_site_fract_z
 _atom_site_occupancy
  Sn  Sn0  1  0.72659500  0.27340500  0.77340500  1
  Sn  Sn1  1  0.27340500  0.77340500  0.72659500  1
  Sn  Sn2  1  0.77340500  0.72659500  0.27340500  1
  Sn  Sn3  1  0.22659500  0.22659500  0.22659500  1
  Hg  Hg4  1  0.52825300  0.76551100  0.53811900  1
  Hg  Hg5  1  0.23448900  0.03811900  0.97174700  1
  Hg  Hg6  1  0.47347300  0.51781000  0.26193200  1
  Hg  Hg7  1  0.96188100  0.47174700  0.26551100  1
  Hg  Hg8  1  0.01781000  0.23806800  0.52652700  1
  Hg  Hg9  1  0.02825300  0.73448900  0.46188100  1
  Hg  Hg10  1  0.02652700  0.48219000  0.76193200  1
  Hg  Hg11  1  0.53811900  0.52825300  0.76551100  1
  Hg  Hg12  1  0.76193200  0.02652700  0.48219000  1
  Hg  Hg13  1  0.51781000  0.26193200  0.47347300  1
  Hg  Hg14  1  0.73806800  0.97347300  0.98219000  1
  Hg  Hg15  1  0.48219000  0.76193200  0.02652700  1
  Hg  Hg16  1  0.26193200  0.47347300  0.51781000  1
  Hg  Hg17  1  0.03811900  0.97174700  0.23448900  1
  Hg  Hg18  1  0.23806800  0.52652700  0.01781000  1
  Hg  Hg19  1  0.52652700  0.01781000  0.23806800  1
  Hg  Hg20  1  0.76551100  0.53811900  0.52825300  1
  Hg  Hg21  1  0.46188100  0.02825300  0.73448900  1
  Hg  Hg22  1  0.97347300  0.98219000  0.73806800  1
  Hg  Hg23  1  0.97174700  0.23448900  0.03811900  1
  Hg  Hg24  1  0.73448900  0.46188100  0.02825300  1
  Hg  Hg25  1  0.47174700  0.26551100  0.96188100  1
  Hg  Hg26  1  0.98219000  0.73806800  0.97347300  1
  Hg  Hg27  1  0.26551100  0.96188100  0.47174700  1
  As  As28  1  0.06730700  0.93269300  0.43269300  1
  As  As29  1  0.93171400  0.93171400  0.93171400  1
  As  As30  1  0.56730700  0.56730700  0.56730700  1
  As  As31  1  0.45665300  0.95665300  0.54334700  1
  As  As32  1  0.45591700  0.45591700  0.45591700  1
  As  As33  1  0.93269300  0.43269400  0.06730700  1
  As  As34  1  0.95591700  0.04408300  0.54408300  1
  As  As35  1  0.04334700  0.04334700  0.04334700  1
  As  As36  1  0.56828600  0.06828600  0.43171400  1
  As  As37  1  0.43171400  0.56828600  0.06828600  1
  As  As38  1  0.06828600  0.43171400  0.56828600  1
  As  As39  1  0.04408300  0.54408300  0.95591700  1
  As  As40  1  0.54408300  0.95591700  0.04408300  1
  As  As41  1  0.95665300  0.54334700  0.45665300  1
  As  As42  1  0.54334700  0.45665300  0.95665300  1
  As  As43  1  0.43269300  0.06730700  0.93269300  1
  Br  Br44  1  0.70686000  0.05561000  0.74146400  1
  Br  Br45  1  0.79314000  0.94439000  0.24146400  1
  Br  Br46  1  0.44439000  0.25853600  0.20686000  1
  Br  Br47  1  0.55561000  0.75853600  0.29314000  1
  Br  Br48  1  0.29710600  0.97365300  0.23245000  1
  Br  Br49  1  0.20686000  0.44439000  0.25853600  1
  Br  Br50  1  0.02634700  0.73245000  0.20289400  1
  Br  Br51  1  0.47365300  0.26755000  0.70289400  1
  Br  Br52  1  0.97365300  0.23245000  0.29710600  1
  Br  Br53  1  0.24146400  0.79314000  0.94439000  1
  Br  Br54  1  0.05561000  0.74146400  0.70686000  1
  Br  Br55  1  0.26755000  0.70289400  0.47365300  1
  Br  Br56  1  0.25853600  0.20686000  0.44439000  1
  Br  Br57  1  0.75853600  0.29314000  0.55561000  1
  Br  Br58  1  0.76755000  0.79710600  0.52634700  1
  Br  Br59  1  0.52634700  0.76755000  0.79710600  1
  Br  Br60  1  0.73245000  0.20289400  0.02634700  1
  Br  Br61  1  0.79710600  0.52634700  0.76755000  1
  Br  Br62  1  0.94439000  0.24146400  0.79314000  1
  Br  Br63  1  0.29314000  0.55561000  0.75853600  1
  Br  Br64  1  0.74146400  0.70686000  0.05561000  1
  Br  Br65  1  0.23245000  0.29710600  0.97365300  1
  Br  Br66  1  0.20289400  0.02634700  0.73245000  1
  Br  Br67  1  0.70289400  0.47365300  0.26755000  1
