# generated using pymatgen
data_K2Na(B3O5)3
_symmetry_space_group_name_H-M   'P 1'
_cell_length_a   6.70760700
_cell_length_b   9.21396500
_cell_length_c   20.92673170
_cell_angle_alpha   85.91947471
_cell_angle_beta   90.00000000
_cell_angle_gamma   90.00000000
_symmetry_Int_Tables_number   1
_chemical_formula_structural   K2Na(B3O5)3
_chemical_formula_sum   'K8 Na4 B36 O60'
_cell_volume   1290.06992634
_cell_formula_units_Z   4
loop_
 _symmetry_equiv_pos_site_id
 _symmetry_equiv_pos_as_xyz
  1  'x, y, z'
loop_
 _atom_site_type_symbol
 _atom_site_label
 _atom_site_symmetry_multiplicity
 _atom_site_fract_x
 _atom_site_fract_y
 _atom_site_fract_z
 _atom_site_occupancy
  K  K0  1  0.81396600  0.41104400  0.11945400  1
  K  K1  1  0.30351300  0.77841600  0.53301200  1
  K  K2  1  0.31396600  0.58895600  0.38054600  1
  K  K3  1  0.18603400  0.58895600  0.88054600  1
  K  K4  1  0.19648700  0.77841600  0.03301200  1
  K  K5  1  0.68603400  0.41104400  0.61945400  1
  K  K6  1  0.80351300  0.22158400  0.96698800  1
  K  K7  1  0.69648700  0.22158400  0.46698800  1
  Na  Na8  1  0.48733100  0.06507000  0.24565800  1
  Na  Na9  1  0.98733100  0.93493000  0.25434200  1
  Na  Na10  1  0.51266900  0.93493000  0.75434200  1
  Na  Na11  1  0.01266900  0.06507000  0.74565800  1
  B  B12  1  0.25637500  0.24567800  0.92319900  1
  B  B13  1  0.92937100  0.80419800  0.67479900  1
  B  B14  1  0.24910800  0.32458900  0.03451000  1
  B  B15  1  0.71729300  0.50985100  0.87553500  1
  B  B16  1  0.00556600  0.15370100  0.58855800  1
  B  B17  1  0.64233900  0.88730100  0.38966900  1
  B  B18  1  0.22102200  0.65107100  0.71547400  1
  B  B19  1  0.96291700  0.58620700  0.27788800  1
  B  B20  1  0.77897800  0.34892900  0.28452600  1
  B  B21  1  0.35766100  0.11269900  0.61033100  1
  B  B22  1  0.75637500  0.75432200  0.57680100  1
  B  B23  1  0.03708300  0.41379300  0.72211200  1
  B  B24  1  0.27897800  0.65107100  0.21547400  1
  B  B25  1  0.75089200  0.67541100  0.96549000  1
  B  B26  1  0.99443400  0.84629900  0.41144200  1
  B  B27  1  0.72102200  0.34892900  0.78452600  1
  B  B28  1  0.50556600  0.84629900  0.91144200  1
  B  B29  1  0.29989900  0.00663900  0.37574300  1
  B  B30  1  0.07062900  0.19580200  0.32520100  1
  B  B31  1  0.74910800  0.67541100  0.46549000  1
  B  B32  1  0.79989900  0.99336100  0.12425700  1
  B  B33  1  0.25089200  0.32458900  0.53451000  1
  B  B34  1  0.57062900  0.80419800  0.17479900  1
  B  B35  1  0.74362500  0.75432200  0.07680100  1
  B  B36  1  0.46291700  0.41379300  0.22211200  1
  B  B37  1  0.49443400  0.15370100  0.08855800  1
  B  B38  1  0.78270700  0.50985100  0.37553500  1
  B  B39  1  0.14233900  0.11269900  0.11033100  1
  B  B40  1  0.21729300  0.49014900  0.62446500  1
  B  B41  1  0.53708300  0.58620700  0.77788800  1
  B  B42  1  0.20010100  0.00663900  0.87574300  1
  B  B43  1  0.70010100  0.99336100  0.62425700  1
  B  B44  1  0.24362500  0.24567800  0.42319900  1
  B  B45  1  0.85766100  0.88730100  0.88966900  1
  B  B46  1  0.42937100  0.19580200  0.82520100  1
  B  B47  1  0.28270700  0.49014900  0.12446500  1
  O  O48  1  0.99726900  0.96848100  0.85522000  1
  O  O49  1  0.09591700  0.22457900  0.06655200  1
  O  O50  1  0.79192600  0.65291000  0.03438100  1
  O  O51  1  0.76994300  0.53352600  0.93706300  1
  O  O52  1  0.10282200  0.38684000  0.66039600  1
  O  O53  1  0.21834400  0.61338700  0.15079200  1
  O  O54  1  0.78165600  0.38661300  0.84920800  1
  O  O55  1  0.45128600  0.26143600  0.04233800  1
  O  O56  1  0.89717800  0.61316000  0.33960400  1
  O  O57  1  0.11621000  0.29079000  0.37265200  1
  O  O58  1  0.95128600  0.73856400  0.45766200  1
  O  O59  1  0.54871400  0.73856400  0.95766200  1
  O  O60  1  0.28165600  0.61338700  0.65079200  1
  O  O61  1  0.09152100  0.78265300  0.71301700  1
  O  O62  1  0.73005700  0.53352600  0.43706300  1
  O  O63  1  0.39873200  0.68542800  0.75337000  1
  O  O64  1  0.00273100  0.03151900  0.14478000  1
  O  O65  1  0.29192600  0.34709000  0.46561900  1
  O  O66  1  0.69496400  0.92269400  0.18189400  1
  O  O67  1  0.40847900  0.78265300  0.21301700  1
  O  O68  1  0.38379000  0.29079000  0.87265200  1
  O  O69  1  0.30859800  0.87660000  0.90100000  1
  O  O70  1  0.40408300  0.22457900  0.56655200  1
  O  O71  1  0.26994300  0.46647400  0.56293700  1
  O  O72  1  0.70807400  0.65291000  0.53438100  1
  O  O73  1  0.15648300  0.07543000  0.62240600  1
  O  O74  1  0.50273100  0.96848100  0.35522000  1
  O  O75  1  0.59152100  0.21734700  0.78698300  1
  O  O76  1  0.80859800  0.12340000  0.59900000  1
  O  O77  1  0.39223300  0.53047500  0.25132500  1
  O  O78  1  0.60282200  0.61316000  0.83960400  1
  O  O79  1  0.31968800  0.10805900  0.42755600  1
  O  O80  1  0.88379000  0.70921000  0.62734800  1
  O  O81  1  0.65648300  0.92457000  0.87759400  1
  O  O82  1  0.10126800  0.68542800  0.25337000  1
  O  O83  1  0.30503600  0.07730600  0.81810600  1
  O  O84  1  0.81968800  0.89194100  0.07244400  1
  O  O85  1  0.23005700  0.46647400  0.06293700  1
  O  O86  1  0.60126800  0.31457200  0.24663000  1
  O  O87  1  0.84351700  0.92457000  0.37759400  1
  O  O88  1  0.89873200  0.31457200  0.74663000  1
  O  O89  1  0.10776700  0.53047500  0.75132500  1
  O  O90  1  0.59591700  0.77542100  0.43344800  1
  O  O91  1  0.71834400  0.38661300  0.34920800  1
  O  O92  1  0.60776700  0.46952500  0.74867500  1
  O  O93  1  0.04871400  0.26143600  0.54233800  1
  O  O94  1  0.39717800  0.38684000  0.16039600  1
  O  O95  1  0.49726900  0.03151900  0.64478000  1
  O  O96  1  0.90408300  0.77542100  0.93344800  1
  O  O97  1  0.18031200  0.10805900  0.92755600  1
  O  O98  1  0.90847900  0.21734700  0.28698300  1
  O  O99  1  0.19140200  0.87660000  0.40100000  1
  O  O100  1  0.68031200  0.89194100  0.57244400  1
  O  O101  1  0.61621000  0.70921000  0.12734800  1
  O  O102  1  0.89223300  0.46952500  0.24867500  1
  O  O103  1  0.19496400  0.07730600  0.31810600  1
  O  O104  1  0.20807400  0.34709000  0.96561900  1
  O  O105  1  0.80503600  0.92269400  0.68189400  1
  O  O106  1  0.34351700  0.07543000  0.12240600  1
  O  O107  1  0.69140200  0.12340000  0.09900000  1
