# generated using pymatgen
data_As2Pb(XeF6)3
_symmetry_space_group_name_H-M   'P 1'
_cell_length_a   8.90984923
_cell_length_b   8.90984923
_cell_length_c   11.33864710
_cell_angle_alpha   83.91211878
_cell_angle_beta   83.91211878
_cell_angle_gamma   90.30152957
_symmetry_Int_Tables_number   1
_chemical_formula_structural   As2Pb(XeF6)3
_chemical_formula_sum   'As4 Pb2 Xe6 F36'
_cell_volume   889.87505927
_cell_formula_units_Z   2
loop_
 _symmetry_equiv_pos_site_id
 _symmetry_equiv_pos_as_xyz
  1  'x, y, z'
loop_
 _atom_site_type_symbol
 _atom_site_label
 _atom_site_symmetry_multiplicity
 _atom_site_fract_x
 _atom_site_fract_y
 _atom_site_fract_z
 _atom_site_occupancy
  As  As0  1  0.20001000  0.20001000  0.39835200  1
  As  As1  1  0.50000000  0.00000000  0.00000000  1
  As  As2  1  0.79999000  0.79999000  0.60164800  1
  As  As3  1  0.00000000  0.50000000  0.00000000  1
  Pb  Pb4  1  0.28635800  0.28635800  0.72141600  1
  Pb  Pb5  1  0.71364200  0.71364200  0.27858400  1
  Xe  Xe6  1  0.20470200  0.68349500  0.33585800  1
  Xe  Xe7  1  0.00000000  0.00000000  0.00000000  1
  Xe  Xe8  1  0.79529800  0.31650500  0.66414200  1
  Xe  Xe9  1  0.31650500  0.79529800  0.66414200  1
  Xe  Xe10  1  0.68349500  0.20470200  0.33585800  1
  Xe  Xe11  1  0.50000000  0.50000000  0.00000000  1
  F  F12  1  0.56930600  0.28186000  0.63670500  1
  F  F13  1  0.03174300  0.64183100  0.87909100  1
  F  F14  1  0.09535000  0.09535000  0.31208900  1
  F  F15  1  0.69077300  0.69077300  0.50955100  1
  F  F16  1  0.96825700  0.35816900  0.12090900  1
  F  F17  1  0.29999500  0.29999500  0.27133600  1
  F  F18  1  0.06134000  0.34135300  0.40195000  1
  F  F19  1  0.30922700  0.30922700  0.49044900  1
  F  F20  1  0.64183100  0.03174300  0.87909100  1
  F  F21  1  0.70000500  0.70000500  0.72866400  1
  F  F22  1  0.86192000  0.41323600  0.92731200  1
  F  F23  1  0.41323600  0.86192000  0.92731200  1
  F  F24  1  0.58676400  0.13808000  0.07268800  1
  F  F25  1  0.91035900  0.91035900  0.16997000  1
  F  F26  1  0.43069400  0.71814000  0.36329500  1
  F  F27  1  0.85599900  0.61294400  0.06992600  1
  F  F28  1  0.90465000  0.90465000  0.68791100  1
  F  F29  1  0.61294400  0.85599900  0.06992600  1
  F  F30  1  0.89024300  0.89024300  0.46523400  1
  F  F31  1  0.28186000  0.56930600  0.63670500  1
  F  F32  1  0.35598600  0.02068300  0.68551900  1
  F  F33  1  0.93866000  0.65864700  0.59805000  1
  F  F34  1  0.13808000  0.58676400  0.07268800  1
  F  F35  1  0.46084800  0.46084800  0.82738800  1
  F  F36  1  0.35816900  0.96825700  0.12090900  1
  F  F37  1  0.71814000  0.43069400  0.36329500  1
  F  F38  1  0.65864700  0.93866000  0.59805000  1
  F  F39  1  0.38705600  0.14400100  0.93007400  1
  F  F40  1  0.10975700  0.10975700  0.53476600  1
  F  F41  1  0.08964100  0.08964100  0.83003000  1
  F  F42  1  0.64401400  0.97931700  0.31448100  1
  F  F43  1  0.14400100  0.38705600  0.93007400  1
  F  F44  1  0.97931700  0.64401400  0.31448100  1
  F  F45  1  0.53915200  0.53915200  0.17261200  1
  F  F46  1  0.34135300  0.06134000  0.40195000  1
  F  F47  1  0.02068300  0.35598600  0.68551900  1
