# generated using pymatgen
data_K3Y(BO3)2
_symmetry_space_group_name_H-M   'P 1'
_cell_length_a   5.58181700
_cell_length_b   6.90723700
_cell_length_c   9.44738300
_cell_angle_alpha   90.00000000
_cell_angle_beta   90.00000000
_cell_angle_gamma   90.00000000
_symmetry_Int_Tables_number   1
_chemical_formula_structural   K3Y(BO3)2
_chemical_formula_sum   'K6 Y2 B4 O12'
_cell_volume   364.24321774
_cell_formula_units_Z   2
loop_
 _symmetry_equiv_pos_site_id
 _symmetry_equiv_pos_as_xyz
  1  'x, y, z'
loop_
 _atom_site_type_symbol
 _atom_site_label
 _atom_site_symmetry_multiplicity
 _atom_site_fract_x
 _atom_site_fract_y
 _atom_site_fract_z
 _atom_site_occupancy
  K  K0  1  0.00000000  0.23253700  0.33267500  1
  K  K1  1  0.00000000  0.76746300  0.66732500  1
  K  K2  1  0.50000000  0.73253700  0.16732500  1
  K  K3  1  0.50000000  0.50000000  0.50000000  1
  K  K4  1  0.50000000  0.26746300  0.83267500  1
  K  K5  1  0.00000000  0.00000000  0.00000000  1
  Y  Y6  1  0.00000000  0.50000000  0.00000000  1
  Y  Y7  1  0.50000000  0.00000000  0.50000000  1
  B  B8  1  0.00000000  0.76346600  0.33398700  1
  B  B9  1  0.00000000  0.23653400  0.66601300  1
  B  B10  1  0.50000000  0.73653400  0.83398700  1
  B  B11  1  0.50000000  0.26346600  0.16601300  1
  O  O12  1  0.71633100  0.29975500  0.09683100  1
  O  O13  1  0.21633100  0.20024500  0.59683100  1
  O  O14  1  0.50000000  0.19231900  0.30419500  1
  O  O15  1  0.71633100  0.70024500  0.90316900  1
  O  O16  1  0.28366900  0.29975500  0.09683100  1
  O  O17  1  0.21633100  0.79975500  0.40316900  1
  O  O18  1  0.78366900  0.20024500  0.59683100  1
  O  O19  1  0.28366900  0.70024500  0.90316900  1
  O  O20  1  0.78366900  0.79975500  0.40316900  1
  O  O21  1  0.00000000  0.30768100  0.80419500  1
  O  O22  1  0.00000000  0.69231900  0.19580500  1
  O  O23  1  0.50000000  0.80768100  0.69580500  1
