# generated using pymatgen
data_CsIOF4
_symmetry_space_group_name_H-M   'P 1'
_cell_length_a   6.15364100
_cell_length_b   6.33031900
_cell_length_c   15.79925400
_cell_angle_alpha   90.00000000
_cell_angle_beta   90.00000000
_cell_angle_gamma   90.00000000
_symmetry_Int_Tables_number   1
_chemical_formula_structural   CsIOF4
_chemical_formula_sum   'Cs4 I4 O4 F16'
_cell_volume   615.45220649
_cell_formula_units_Z   4
loop_
 _symmetry_equiv_pos_site_id
 _symmetry_equiv_pos_as_xyz
  1  'x, y, z'
loop_
 _atom_site_type_symbol
 _atom_site_label
 _atom_site_symmetry_multiplicity
 _atom_site_fract_x
 _atom_site_fract_y
 _atom_site_fract_z
 _atom_site_occupancy
  Cs  Cs0  1  0.75000000  0.77931100  0.89677700  1
  Cs  Cs1  1  0.75000000  0.27931100  0.60322300  1
  Cs  Cs2  1  0.25000000  0.72068900  0.39677700  1
  Cs  Cs3  1  0.25000000  0.22068900  0.10322300  1
  I  I4  1  0.75000000  0.77426000  0.16046100  1
  I  I5  1  0.75000000  0.27426000  0.33953900  1
  I  I6  1  0.25000000  0.22574000  0.83953900  1
  I  I7  1  0.25000000  0.72574000  0.66046100  1
  O  O8  1  0.25000000  0.98944800  0.89957400  1
  O  O9  1  0.25000000  0.48944800  0.60042600  1
  O  O10  1  0.75000000  0.01055200  0.10042600  1
  O  O11  1  0.75000000  0.51055200  0.39957400  1
  F  F12  1  0.02168000  0.84776800  0.58412900  1
  F  F13  1  0.52168000  0.65223200  0.08412900  1
  F  F14  1  0.97832000  0.65223200  0.08412900  1
  F  F15  1  0.51836700  0.89789300  0.23752500  1
  F  F16  1  0.47832000  0.84776800  0.58412900  1
  F  F17  1  0.98163300  0.39789300  0.26247500  1
  F  F18  1  0.02168000  0.34776800  0.91587100  1
  F  F19  1  0.01836700  0.60210700  0.73752500  1
  F  F20  1  0.97832000  0.15223200  0.41587100  1
  F  F21  1  0.48163300  0.60210700  0.73752500  1
  F  F22  1  0.47832000  0.34776800  0.91587100  1
  F  F23  1  0.48163300  0.10210700  0.76247500  1
  F  F24  1  0.51836700  0.39789300  0.26247500  1
  F  F25  1  0.98163300  0.89789300  0.23752500  1
  F  F26  1  0.52168000  0.15223200  0.41587100  1
  F  F27  1  0.01836700  0.10210700  0.76247500  1
