# generated using pymatgen
data_RbLu3F10
_symmetry_space_group_name_H-M   'P 1'
_cell_length_a   7.87167050
_cell_length_b   7.87167050
_cell_length_c   16.14132800
_cell_angle_alpha   90.00000000
_cell_angle_beta   90.00000000
_cell_angle_gamma   114.67485171
_symmetry_Int_Tables_number   1
_chemical_formula_structural   RbLu3F10
_chemical_formula_sum   'Rb4 Lu12 F40'
_cell_volume   908.84441394
_cell_formula_units_Z   4
loop_
 _symmetry_equiv_pos_site_id
 _symmetry_equiv_pos_as_xyz
  1  'x, y, z'
loop_
 _atom_site_type_symbol
 _atom_site_label
 _atom_site_symmetry_multiplicity
 _atom_site_fract_x
 _atom_site_fract_y
 _atom_site_fract_z
 _atom_site_occupancy
  Rb  Rb0  1  0.50000000  0.50000000  0.00000000  1
  Rb  Rb1  1  0.00000000  0.00000000  0.00000000  1
  Rb  Rb2  1  0.00000000  0.00000000  0.50000000  1
  Rb  Rb3  1  0.50000000  0.50000000  0.50000000  1
  Lu  Lu4  1  0.47993700  0.02346200  0.11289100  1
  Lu  Lu5  1  0.97653800  0.52006300  0.11289100  1
  Lu  Lu6  1  0.75104300  0.74895700  0.75000000  1
  Lu  Lu7  1  0.02346200  0.47993700  0.88710900  1
  Lu  Lu8  1  0.25104300  0.24895700  0.75000000  1
  Lu  Lu9  1  0.52006300  0.97653800  0.88710900  1
  Lu  Lu10  1  0.74895700  0.75104300  0.25000000  1
  Lu  Lu11  1  0.97993700  0.52346200  0.38710900  1
  Lu  Lu12  1  0.24895700  0.25104300  0.25000000  1
  Lu  Lu13  1  0.47653800  0.02006300  0.38710900  1
  Lu  Lu14  1  0.52346200  0.97993700  0.61289100  1
  Lu  Lu15  1  0.02006300  0.47653800  0.61289100  1
  F  F16  1  0.43054200  0.06945800  0.25000000  1
  F  F17  1  0.23192500  0.76807500  0.11349300  1
  F  F18  1  0.99515000  0.00485000  0.73218300  1
  F  F19  1  0.08911000  0.40748100  0.48752200  1
  F  F20  1  0.29170100  0.70829900  0.89424500  1
  F  F21  1  0.70222400  0.82994300  0.87287800  1
  F  F22  1  0.41089000  0.09251900  0.98752200  1
  F  F23  1  0.09251900  0.41089000  0.01247800  1
  F  F24  1  0.93054200  0.56945800  0.25000000  1
  F  F25  1  0.70829900  0.29170100  0.10575500  1
  F  F26  1  0.91089000  0.59251900  0.51247800  1
  F  F27  1  0.20829900  0.79170100  0.39424500  1
  F  F28  1  0.08194300  0.34326900  0.17222000  1
  F  F29  1  0.84326900  0.58194300  0.67222000  1
  F  F30  1  0.76807500  0.23192500  0.88650700  1
  F  F31  1  0.82994300  0.70222400  0.12712200  1
  F  F32  1  0.50485000  0.49515000  0.23218300  1
  F  F33  1  0.58194300  0.84326900  0.32778000  1
  F  F34  1  0.00485000  0.99515000  0.26781700  1
  F  F35  1  0.56945800  0.93054200  0.75000000  1
  F  F36  1  0.91805700  0.65673100  0.82778000  1
  F  F37  1  0.79777600  0.67005700  0.37287800  1
  F  F38  1  0.06945800  0.43054200  0.75000000  1
  F  F39  1  0.49515000  0.50485000  0.76781700  1
  F  F40  1  0.20222400  0.32994300  0.62712200  1
  F  F41  1  0.59251900  0.91089000  0.48752200  1
  F  F42  1  0.58911000  0.90748100  0.01247800  1
  F  F43  1  0.26807500  0.73192500  0.61349300  1
  F  F44  1  0.32994300  0.20222400  0.37287800  1
  F  F45  1  0.40748100  0.08911000  0.51247800  1
  F  F46  1  0.17005700  0.29777600  0.87287800  1
  F  F47  1  0.73192500  0.26807500  0.38650700  1
  F  F48  1  0.15673100  0.41805700  0.32778000  1
  F  F49  1  0.65673100  0.91805700  0.17222000  1
  F  F50  1  0.79170100  0.20829900  0.60575500  1
  F  F51  1  0.34326900  0.08194300  0.82778000  1
  F  F52  1  0.67005700  0.79777600  0.62712200  1
  F  F53  1  0.90748100  0.58911000  0.98752200  1
  F  F54  1  0.41805700  0.15673100  0.67222000  1
  F  F55  1  0.29777600  0.17005700  0.12712200  1
