# generated using pymatgen
data_Os2O3F7
_symmetry_space_group_name_H-M   'P 1'
_cell_length_a   10.39178400
_cell_length_b   5.73411300
_cell_length_c   12.66129297
_cell_angle_alpha   79.78363449
_cell_angle_beta   90.00000000
_cell_angle_gamma   90.00000000
_symmetry_Int_Tables_number   1
_chemical_formula_structural   Os2O3F7
_chemical_formula_sum   'Os8 O12 F28'
_cell_volume   742.49494409
_cell_formula_units_Z   4
loop_
 _symmetry_equiv_pos_site_id
 _symmetry_equiv_pos_as_xyz
  1  'x, y, z'
loop_
 _atom_site_type_symbol
 _atom_site_label
 _atom_site_symmetry_multiplicity
 _atom_site_fract_x
 _atom_site_fract_y
 _atom_site_fract_z
 _atom_site_occupancy
  Os  Os0  1  0.24940400  0.00882400  0.99877200  1
  Os  Os1  1  0.74940400  0.99117600  0.50122800  1
  Os  Os2  1  0.75059600  0.99117600  0.00122800  1
  Os  Os3  1  0.51167900  0.34378600  0.28353200  1
  Os  Os4  1  0.25059600  0.00882400  0.49877200  1
  Os  Os5  1  0.98832100  0.34378600  0.78353200  1
  Os  Os6  1  0.01167900  0.65621400  0.21646800  1
  Os  Os7  1  0.48832100  0.65621400  0.71646800  1
  O  O8  1  0.55854900  0.47861700  0.63788600  1
  O  O9  1  0.07454500  0.40250300  0.66724700  1
  O  O10  1  0.65663400  0.47604700  0.25037600  1
  O  O11  1  0.94145100  0.47861700  0.13788600  1
  O  O12  1  0.05854900  0.52138300  0.86211400  1
  O  O13  1  0.34336600  0.52395300  0.74962400  1
  O  O14  1  0.92545500  0.59749700  0.33275300  1
  O  O15  1  0.44145100  0.52138300  0.36211400  1
  O  O16  1  0.57454500  0.59749700  0.83275300  1
  O  O17  1  0.84336600  0.47604700  0.75037600  1
  O  O18  1  0.15663400  0.52395300  0.24962400  1
  O  O19  1  0.42545500  0.40250300  0.16724700  1
  F  F20  1  0.39114100  0.19240100  0.94277800  1
  F  F21  1  0.83124000  0.09081500  0.36842500  1
  F  F22  1  0.17611600  0.27012300  0.04971900  1
  F  F23  1  0.84359200  0.89771900  0.13920800  1
  F  F24  1  0.94487300  0.02754600  0.77598400  1
  F  F25  1  0.60885900  0.80759900  0.05722200  1
  F  F26  1  0.33124000  0.90918500  0.13157500  1
  F  F27  1  0.31621300  0.74543600  0.94489500  1
  F  F28  1  0.15640800  0.10228100  0.86079200  1
  F  F29  1  0.67611600  0.72987700  0.45028100  1
  F  F30  1  0.82388400  0.72987700  0.95028100  1
  F  F31  1  0.18378700  0.74543600  0.44489500  1
  F  F32  1  0.68378700  0.25456400  0.05510500  1
  F  F33  1  0.65640800  0.89771900  0.63920800  1
  F  F34  1  0.90215700  0.18960500  0.94667300  1
  F  F35  1  0.59784300  0.18960500  0.44667300  1
  F  F36  1  0.89114100  0.80759900  0.55722200  1
  F  F37  1  0.32388400  0.27012300  0.54971900  1
  F  F38  1  0.16876000  0.90918500  0.63157500  1
  F  F39  1  0.40215700  0.81039500  0.55332700  1
  F  F40  1  0.34359200  0.10228100  0.36079200  1
  F  F41  1  0.81621300  0.25456400  0.55510500  1
  F  F42  1  0.66876000  0.09081500  0.86842500  1
  F  F43  1  0.44487300  0.97245400  0.72401600  1
  F  F44  1  0.05512700  0.97245400  0.22401600  1
  F  F45  1  0.09784300  0.81039500  0.05332700  1
  F  F46  1  0.10885900  0.19240100  0.44277800  1
  F  F47  1  0.55512700  0.02754600  0.27598400  1
