# generated using pymatgen
data_Y(AlCl4)3
_symmetry_space_group_name_H-M   'P 1'
_cell_length_a   10.78764198
_cell_length_b   10.78764198
_cell_length_c   16.03433300
_cell_angle_alpha   90.00000000
_cell_angle_beta   90.00000000
_cell_angle_gamma   119.99999990
_symmetry_Int_Tables_number   1
_chemical_formula_structural   Y(AlCl4)3
_chemical_formula_sum   'Y3 Al9 Cl36'
_cell_volume   1615.97478713
_cell_formula_units_Z   3
loop_
 _symmetry_equiv_pos_site_id
 _symmetry_equiv_pos_as_xyz
  1  'x, y, z'
loop_
 _atom_site_type_symbol
 _atom_site_label
 _atom_site_symmetry_multiplicity
 _atom_site_fract_x
 _atom_site_fract_y
 _atom_site_fract_z
 _atom_site_occupancy
  Y  Y0  1  0.50350400  0.49649600  0.33333300  1
  Y  Y1  1  0.99299200  0.49649600  0.00000000  1
  Y  Y2  1  0.50350400  0.00700800  0.66666700  1
  Al  Al3  1  0.63451400  0.76057600  0.73086100  1
  Al  Al4  1  0.73216400  0.26783600  0.83333300  1
  Al  Al5  1  0.63451400  0.87393900  0.26913900  1
  Al  Al6  1  0.23942400  0.36548600  0.93580600  1
  Al  Al7  1  0.23942400  0.87393900  0.06419400  1
  Al  Al8  1  0.12606100  0.36548600  0.39752700  1
  Al  Al9  1  0.53567100  0.26783600  0.50000000  1
  Al  Al10  1  0.12606100  0.76057600  0.60247300  1
  Al  Al11  1  0.73216400  0.46432900  0.16666700  1
  Cl  Cl12  1  0.65328100  0.87687400  0.61216300  1
  Cl  Cl13  1  0.40757500  0.19851700  0.61262000  1
  Cl  Cl14  1  0.83406900  0.83930900  0.78944200  1
  Cl  Cl15  1  0.83583300  0.33919700  0.14883800  1
  Cl  Cl16  1  0.50400300  0.84005300  0.79558400  1
  Cl  Cl17  1  0.00524000  0.83930900  0.54389100  1
  Cl  Cl18  1  0.16069100  0.99476000  0.12277500  1
  Cl  Cl19  1  0.66080300  0.16416700  0.51782900  1
  Cl  Cl20  1  0.02756200  0.53814500  0.62245400  1
  Cl  Cl21  1  0.51058300  0.53814500  0.71088000  1
  Cl  Cl22  1  0.15994700  0.49599700  0.87108300  1
  Cl  Cl23  1  0.83406900  0.99476000  0.21055800  1
  Cl  Cl24  1  0.50336300  0.16416700  0.81550500  1
  Cl  Cl25  1  0.65328100  0.77640800  0.38783700  1
  Cl  Cl26  1  0.66080300  0.49663700  0.48217100  1
  Cl  Cl27  1  0.00524000  0.16593100  0.45610900  1
  Cl  Cl28  1  0.79094200  0.19851700  0.72071300  1
  Cl  Cl29  1  0.83583300  0.49663700  0.85116200  1
  Cl  Cl30  1  0.33605100  0.84005300  0.53775000  1
  Cl  Cl31  1  0.22359200  0.87687400  0.72117100  1
  Cl  Cl32  1  0.46185500  0.97243800  0.04421300  1
  Cl  Cl33  1  0.12312600  0.34671900  0.05450400  1
  Cl  Cl34  1  0.80148300  0.59242500  0.05404700  1
  Cl  Cl35  1  0.22359200  0.34671900  0.27882900  1
  Cl  Cl36  1  0.16069100  0.16593100  0.87722500  1
  Cl  Cl37  1  0.50336300  0.33919700  0.18449500  1
  Cl  Cl38  1  0.15994700  0.66394900  0.12891700  1
  Cl  Cl39  1  0.12312600  0.77640800  0.94549600  1
  Cl  Cl40  1  0.80148300  0.20905800  0.94595300  1
  Cl  Cl41  1  0.79094200  0.59242500  0.27928700  1
  Cl  Cl42  1  0.46185500  0.48941700  0.95578700  1
  Cl  Cl43  1  0.51058300  0.97243800  0.28912000  1
  Cl  Cl44  1  0.40757500  0.20905800  0.38738000  1
  Cl  Cl45  1  0.33605100  0.49599700  0.46225000  1
  Cl  Cl46  1  0.02756200  0.48941700  0.37754600  1
  Cl  Cl47  1  0.50400300  0.66394900  0.20441600  1
