# generated using pymatgen
data_SnSO4
_symmetry_space_group_name_H-M   'P 1'
_cell_length_a   5.41713100
_cell_length_b   7.36950800
_cell_length_c   9.11590200
_cell_angle_alpha   90.00000000
_cell_angle_beta   90.00000000
_cell_angle_gamma   90.00000000
_symmetry_Int_Tables_number   1
_chemical_formula_structural   SnSO4
_chemical_formula_sum   'Sn4 S4 O16'
_cell_volume   363.92130433
_cell_formula_units_Z   4
loop_
 _symmetry_equiv_pos_site_id
 _symmetry_equiv_pos_as_xyz
  1  'x, y, z'
loop_
 _atom_site_type_symbol
 _atom_site_label
 _atom_site_symmetry_multiplicity
 _atom_site_fract_x
 _atom_site_fract_y
 _atom_site_fract_z
 _atom_site_occupancy
  Sn  Sn0  1  0.75000000  0.72219500  0.29044700  1
  Sn  Sn1  1  0.25000000  0.27780500  0.70955300  1
  Sn  Sn2  1  0.25000000  0.22219500  0.20955300  1
  Sn  Sn3  1  0.75000000  0.77780500  0.79044700  1
  S  S4  1  0.75000000  0.32403200  0.91739700  1
  S  S5  1  0.25000000  0.67596800  0.08260300  1
  S  S6  1  0.25000000  0.82403200  0.58260300  1
  S  S7  1  0.75000000  0.17596800  0.41739700  1
  O  O8  1  0.75000000  0.39147900  0.06813000  1
  O  O9  1  0.25000000  0.60852100  0.93187000  1
  O  O10  1  0.25000000  0.89147900  0.43187000  1
  O  O11  1  0.75000000  0.10852100  0.56813000  1
  O  O12  1  0.75000000  0.47182000  0.80313900  1
  O  O13  1  0.25000000  0.52818000  0.19686100  1
  O  O14  1  0.25000000  0.97182000  0.69686100  1
  O  O15  1  0.75000000  0.02818000  0.30313900  1
  O  O16  1  0.97546700  0.20871100  0.89068500  1
  O  O17  1  0.47546700  0.79128900  0.10931500  1
  O  O18  1  0.02453300  0.70871100  0.60931500  1
  O  O19  1  0.52453300  0.29128900  0.39068500  1
  O  O20  1  0.02453300  0.79128900  0.10931500  1
  O  O21  1  0.52453300  0.20871100  0.89068500  1
  O  O22  1  0.97546700  0.29128900  0.39068500  1
  O  O23  1  0.47546700  0.70871100  0.60931500  1
