# generated using pymatgen
data_NaSrB5O9
_symmetry_space_group_name_H-M   'P 1'
_cell_length_a   14.10480000
_cell_length_b   6.56195000
_cell_length_c   8.17882616
_cell_angle_alpha   73.30939615
_cell_angle_beta   90.00000000
_cell_angle_gamma   90.00000000
_symmetry_Int_Tables_number   1
_chemical_formula_structural   NaSrB5O9
_chemical_formula_sum   'Na4 Sr4 B20 O36'
_cell_volume   725.09885634
_cell_formula_units_Z   4
loop_
 _symmetry_equiv_pos_site_id
 _symmetry_equiv_pos_as_xyz
  1  'x, y, z'
loop_
 _atom_site_type_symbol
 _atom_site_label
 _atom_site_symmetry_multiplicity
 _atom_site_fract_x
 _atom_site_fract_y
 _atom_site_fract_z
 _atom_site_occupancy
  Na  Na0  1  0.58409400  0.53433200  0.65012800  1
  Na  Na1  1  0.41590600  0.46566800  0.34987200  1
  Na  Na2  1  0.08409400  0.46566800  0.84987200  1
  Na  Na3  1  0.91590600  0.53433200  0.15012800  1
  Sr  Sr4  1  0.23004100  0.89793300  0.56078900  1
  Sr  Sr5  1  0.73004100  0.10206700  0.93921100  1
  Sr  Sr6  1  0.76995900  0.10206700  0.43921100  1
  Sr  Sr7  1  0.26995900  0.89793300  0.06078900  1
  B  B8  1  0.35448100  0.44229900  0.86960100  1
  B  B9  1  0.05650800  0.91045500  0.83382600  1
  B  B10  1  0.61249700  0.84167600  0.26729600  1
  B  B11  1  0.25288800  0.40975100  0.62554800  1
  B  B12  1  0.44888800  0.78545500  0.76733200  1
  B  B13  1  0.05111200  0.78545500  0.26733200  1
  B  B14  1  0.85448100  0.55770100  0.63039900  1
  B  B15  1  0.64551900  0.55770100  0.13039900  1
  B  B16  1  0.88750300  0.84167600  0.76729600  1
  B  B17  1  0.74711200  0.59024900  0.37445200  1
  B  B18  1  0.14551900  0.44229900  0.36960100  1
  B  B19  1  0.44349200  0.91045500  0.33382600  1
  B  B20  1  0.94349200  0.08954500  0.16617400  1
  B  B21  1  0.75288800  0.59024900  0.87445200  1
  B  B22  1  0.55111200  0.21454500  0.23266800  1
  B  B23  1  0.94888800  0.21454500  0.73266800  1
  B  B24  1  0.55650800  0.08954500  0.66617400  1
  B  B25  1  0.38750300  0.15832400  0.73270400  1
  B  B26  1  0.24711200  0.40975100  0.12554800  1
  B  B27  1  0.11249700  0.15832400  0.23270400  1
  O  O28  1  0.14610700  0.83843900  0.85403500  1
  O  O29  1  0.64610700  0.16156100  0.64596500  1
  O  O30  1  0.53764200  0.86862200  0.71038500  1
  O  O31  1  0.35389300  0.83843900  0.35403500  1
  O  O32  1  0.12521200  0.92040800  0.27783900  1
  O  O33  1  0.43929000  0.57212600  0.80293100  1
  O  O34  1  0.47924000  0.22661900  0.64975600  1
  O  O35  1  0.93929000  0.42787400  0.69706900  1
  O  O36  1  0.72660600  0.48616500  0.25457900  1
  O  O37  1  0.37259700  0.21795200  0.88837100  1
  O  O38  1  0.69075700  0.75320500  0.39620500  1
  O  O39  1  0.85389300  0.16156100  0.14596500  1
  O  O40  1  0.02076000  0.22661900  0.14975600  1
  O  O41  1  0.96235800  0.86862200  0.21038500  1
  O  O42  1  0.19075700  0.24679500  0.10379500  1
  O  O43  1  0.77339400  0.48616500  0.75457900  1
  O  O44  1  0.87259700  0.78204800  0.61162900  1
  O  O45  1  0.87478800  0.07959200  0.72216100  1
  O  O46  1  0.27339400  0.51383500  0.74542100  1
  O  O47  1  0.67380400  0.51466200  0.96976700  1
  O  O48  1  0.06071000  0.57212600  0.30293100  1
  O  O49  1  0.17380400  0.48533800  0.53023300  1
  O  O50  1  0.46235800  0.13137800  0.28961500  1
  O  O51  1  0.32619600  0.48533800  0.03023300  1
  O  O52  1  0.97924000  0.77338100  0.85024400  1
  O  O53  1  0.62521200  0.07959200  0.22216100  1
  O  O54  1  0.56071000  0.42787400  0.19706900  1
  O  O55  1  0.52076000  0.77338100  0.35024400  1
  O  O56  1  0.80924300  0.75320500  0.89620500  1
  O  O57  1  0.22660600  0.51383500  0.24542100  1
  O  O58  1  0.03764200  0.13137800  0.78961500  1
  O  O59  1  0.62740300  0.78204800  0.11162900  1
  O  O60  1  0.37478800  0.92040800  0.77783900  1
  O  O61  1  0.30924300  0.24679500  0.60379500  1
  O  O62  1  0.82619600  0.51466200  0.46976700  1
  O  O63  1  0.12740300  0.21795200  0.38837100  1
