# generated using pymatgen
data_CsNaSi2O5
_symmetry_space_group_name_H-M   'P 1'
_cell_length_a   4.98584400
_cell_length_b   13.56740100
_cell_length_c   17.39845700
_cell_angle_alpha   90.00000000
_cell_angle_beta   90.00000000
_cell_angle_gamma   90.00000000
_symmetry_Int_Tables_number   1
_chemical_formula_structural   CsNaSi2O5
_chemical_formula_sum   'Cs8 Na8 Si16 O40'
_cell_volume   1176.91766461
_cell_formula_units_Z   8
loop_
 _symmetry_equiv_pos_site_id
 _symmetry_equiv_pos_as_xyz
  1  'x, y, z'
loop_
 _atom_site_type_symbol
 _atom_site_label
 _atom_site_symmetry_multiplicity
 _atom_site_fract_x
 _atom_site_fract_y
 _atom_site_fract_z
 _atom_site_occupancy
  Cs  Cs0  1  0.73667800  0.50637800  0.26620200  1
  Cs  Cs1  1  0.75263500  0.64135200  0.51665600  1
  Cs  Cs2  1  0.24736500  0.14135200  0.48334400  1
  Cs  Cs3  1  0.74736500  0.64135200  0.01665600  1
  Cs  Cs4  1  0.23667800  0.00637800  0.23379800  1
  Cs  Cs5  1  0.26332200  0.00637800  0.73379800  1
  Cs  Cs6  1  0.76332200  0.50637800  0.76620200  1
  Cs  Cs7  1  0.25263500  0.14135200  0.98334400  1
  Na  Na8  1  0.26128900  0.73451100  0.65437600  1
  Na  Na9  1  0.74432400  0.91236100  0.09614400  1
  Na  Na10  1  0.25567600  0.41236100  0.90385600  1
  Na  Na11  1  0.75567600  0.91236100  0.59614400  1
  Na  Na12  1  0.23871100  0.73451100  0.15437600  1
  Na  Na13  1  0.73871100  0.23451100  0.34562400  1
  Na  Na14  1  0.24432400  0.41236100  0.40385600  1
  Na  Na15  1  0.76128900  0.23451100  0.84562400  1
  Si  Si16  1  0.27716700  0.68841500  0.85541100  1
  Si  Si17  1  0.72283300  0.18841500  0.14458900  1
  Si  Si18  1  0.27543400  0.86290300  0.47477000  1
  Si  Si19  1  0.22283300  0.68841500  0.35541100  1
  Si  Si20  1  0.77543400  0.36290300  0.02523000  1
  Si  Si21  1  0.27042800  0.45857600  0.10451300  1
  Si  Si22  1  0.22456600  0.86290300  0.97477000  1
  Si  Si23  1  0.21843400  0.28420400  0.22389800  1
  Si  Si24  1  0.28156600  0.28420400  0.72389800  1
  Si  Si25  1  0.72456600  0.36290300  0.52523000  1
  Si  Si26  1  0.71843400  0.78420400  0.27610200  1
  Si  Si27  1  0.77716700  0.18841500  0.64458900  1
  Si  Si28  1  0.72957200  0.95857600  0.89548700  1
  Si  Si29  1  0.22957200  0.45857600  0.60451300  1
  Si  Si30  1  0.77042800  0.95857600  0.39548700  1
  Si  Si31  1  0.78156600  0.78420400  0.77610200  1
  O  O32  1  0.69683600  0.35988300  0.93660200  1
  O  O33  1  0.09196300  0.73936700  0.78574300  1
  O  O34  1  0.91386600  0.90719600  0.96501500  1
  O  O35  1  0.78402600  0.89572900  0.81502500  1
  O  O36  1  0.80316400  0.35988300  0.43660200  1
  O  O37  1  0.28402600  0.39572900  0.68497500  1
  O  O38  1  0.21597400  0.39572900  0.18497500  1
  O  O39  1  0.77751500  0.25146600  0.06425700  1
  O  O40  1  0.91383400  0.43522800  0.57949200  1
  O  O41  1  0.77669900  0.07303500  0.88351500  1
  O  O42  1  0.30316400  0.85988300  0.06339800  1
  O  O43  1  0.72248500  0.25146600  0.56425700  1
  O  O44  1  0.22248500  0.75146600  0.93574300  1
  O  O45  1  0.90731800  0.71194400  0.33047800  1
  O  O46  1  0.08613400  0.40719600  0.03498500  1
  O  O47  1  0.22330100  0.57303500  0.11648500  1
  O  O48  1  0.40803700  0.73936700  0.28574300  1
  O  O49  1  0.70191000  0.78718500  0.68757200  1
  O  O50  1  0.20191000  0.28718500  0.81242800  1
  O  O51  1  0.72330100  0.07303500  0.38351500  1
  O  O52  1  0.59196300  0.23936700  0.71425700  1
  O  O53  1  0.41383400  0.93522800  0.92050800  1
  O  O54  1  0.27751500  0.75146600  0.43574300  1
  O  O55  1  0.79809000  0.78718500  0.18757200  1
  O  O56  1  0.90803700  0.23936700  0.21425700  1
  O  O57  1  0.71597400  0.89572900  0.31502500  1
  O  O58  1  0.27669900  0.57303500  0.61648500  1
  O  O59  1  0.59268200  0.71194400  0.83047800  1
  O  O60  1  0.26958200  0.57399900  0.36752000  1
  O  O61  1  0.76958200  0.07399900  0.13248000  1
  O  O62  1  0.19683600  0.85988300  0.56339800  1
  O  O63  1  0.58613400  0.90719600  0.46501500  1
  O  O64  1  0.40731800  0.21194400  0.16952200  1
  O  O65  1  0.23041800  0.57399900  0.86752000  1
  O  O66  1  0.09268200  0.21194400  0.66952200  1
  O  O67  1  0.73041800  0.07399900  0.63248000  1
  O  O68  1  0.08616600  0.93522800  0.42050800  1
  O  O69  1  0.41386600  0.40719600  0.53498500  1
  O  O70  1  0.58616600  0.43522800  0.07949200  1
  O  O71  1  0.29809000  0.28718500  0.31242800  1
