# generated using pymatgen
data_K2MoP2O9
_symmetry_space_group_name_H-M   'P 1'
_cell_length_a   8.13392760
_cell_length_b   8.13392760
_cell_length_c   15.75430912
_cell_angle_alpha   82.38692620
_cell_angle_beta   82.38692620
_cell_angle_gamma   60.52475736
_symmetry_Int_Tables_number   1
_chemical_formula_structural   K2MoP2O9
_chemical_formula_sum   'K8 Mo4 P8 O36'
_cell_volume   896.67074794
_cell_formula_units_Z   4
loop_
 _symmetry_equiv_pos_site_id
 _symmetry_equiv_pos_as_xyz
  1  'x, y, z'
loop_
 _atom_site_type_symbol
 _atom_site_label
 _atom_site_symmetry_multiplicity
 _atom_site_fract_x
 _atom_site_fract_y
 _atom_site_fract_z
 _atom_site_occupancy
  K  K0  1  0.98657600  0.30235400  0.76270200  1
  K  K1  1  0.69764600  0.01342400  0.73729800  1
  K  K2  1  0.01342400  0.69764600  0.23729800  1
  K  K3  1  0.30235400  0.98657600  0.26270200  1
  K  K4  1  0.22677200  0.06335600  0.52577300  1
  K  K5  1  0.93664400  0.77322800  0.97422700  1
  K  K6  1  0.77322800  0.93664400  0.47422700  1
  K  K7  1  0.06335600  0.22677200  0.02577300  1
  Mo  Mo8  1  0.24464500  0.52867000  0.63586200  1
  Mo  Mo9  1  0.47133000  0.75535500  0.86413800  1
  Mo  Mo10  1  0.75535500  0.47133000  0.36413800  1
  Mo  Mo11  1  0.52867000  0.24464500  0.13586200  1
  P  P12  1  0.54772000  0.70880600  0.65515800  1
  P  P13  1  0.29119400  0.45228000  0.84484200  1
  P  P14  1  0.45228000  0.29119400  0.34484200  1
  P  P15  1  0.70880600  0.54772000  0.15515800  1
  P  P16  1  0.73427500  0.34139200  0.57673600  1
  P  P17  1  0.65860800  0.26572500  0.92326400  1
  P  P18  1  0.26572500  0.65860800  0.42326400  1
  P  P19  1  0.34139200  0.73427500  0.07673600  1
  O  O20  1  0.55776900  0.88505200  0.62084100  1
  O  O21  1  0.11494800  0.44223100  0.87915900  1
  O  O22  1  0.44223100  0.11494800  0.37915900  1
  O  O23  1  0.88505200  0.55776900  0.12084100  1
  O  O24  1  0.35982600  0.71587800  0.64433500  1
  O  O25  1  0.28412200  0.64017400  0.85566500  1
  O  O26  1  0.64017400  0.28412200  0.35566500  1
  O  O27  1  0.71587800  0.35982600  0.14433500  1
  O  O28  1  0.87577200  0.17924200  0.63096700  1
  O  O29  1  0.82075800  0.12422800  0.86903300  1
  O  O30  1  0.12422800  0.82075800  0.36903300  1
  O  O31  1  0.17924200  0.87577200  0.13096700  1
  O  O32  1  0.53699500  0.35850600  0.58388700  1
  O  O33  1  0.64149400  0.46300500  0.91611300  1
  O  O34  1  0.46300500  0.64149400  0.41611300  1
  O  O35  1  0.35850600  0.53699500  0.08388700  1
  O  O36  1  0.81780400  0.32637600  0.48110100  1
  O  O37  1  0.67362400  0.18219600  0.01889900  1
  O  O38  1  0.18219600  0.67362400  0.51889900  1
  O  O39  1  0.32637600  0.81780400  0.98110100  1
  O  O40  1  0.71573700  0.53738100  0.60181400  1
  O  O41  1  0.46261900  0.28426300  0.89818600  1
  O  O42  1  0.28426300  0.46261900  0.39818600  1
  O  O43  1  0.53738100  0.71573700  0.10181400  1
  O  O44  1  0.60427600  0.64032400  0.75018300  1
  O  O45  1  0.35967600  0.39572400  0.74981700  1
  O  O46  1  0.39572400  0.35967600  0.24981700  1
  O  O47  1  0.64032400  0.60427600  0.25018300  1
  O  O48  1  0.20490000  0.34769200  0.61310200  1
  O  O49  1  0.65230800  0.79510000  0.88689800  1
  O  O50  1  0.79510000  0.65230800  0.38689800  1
  O  O51  1  0.34769200  0.20490000  0.11310200  1
  O  O52  1  0.02857400  0.68272500  0.68618800  1
  O  O53  1  0.31727500  0.97142600  0.81381200  1
  O  O54  1  0.97142600  0.31727500  0.31381200  1
  O  O55  1  0.68272500  0.02857400  0.18618800  1
