# generated using pymatgen
data_U(Cr3P2)2
_symmetry_space_group_name_H-M   'P 1'
_cell_length_a   3.49252700
_cell_length_b   6.89016700
_cell_length_c   11.87929300
_cell_angle_alpha   90.00000000
_cell_angle_beta   90.00000000
_cell_angle_gamma   90.00000000
_symmetry_Int_Tables_number   1
_chemical_formula_structural   U(Cr3P2)2
_chemical_formula_sum   'U2 Cr12 P8'
_cell_volume   285.86442676
_cell_formula_units_Z   2
loop_
 _symmetry_equiv_pos_site_id
 _symmetry_equiv_pos_as_xyz
  1  'x, y, z'
loop_
 _atom_site_type_symbol
 _atom_site_label
 _atom_site_symmetry_multiplicity
 _atom_site_fract_x
 _atom_site_fract_y
 _atom_site_fract_z
 _atom_site_occupancy
  U  U0  1  0.50000000  0.00000000  0.68139100  1
  U  U1  1  0.00000000  0.50000000  0.31860900  1
  Cr  Cr2  1  0.50000000  0.80592200  0.42385200  1
  Cr  Cr3  1  0.00000000  0.80329100  0.08942100  1
  Cr  Cr4  1  0.50000000  0.30329100  0.91057900  1
  Cr  Cr5  1  0.00000000  0.00000000  0.88407400  1
  Cr  Cr6  1  0.50000000  0.19407800  0.42385200  1
  Cr  Cr7  1  0.00000000  0.19670900  0.08942100  1
  Cr  Cr8  1  0.50000000  0.50000000  0.71879900  1
  Cr  Cr9  1  0.00000000  0.69407800  0.57614800  1
  Cr  Cr10  1  0.00000000  0.30592200  0.57614800  1
  Cr  Cr11  1  0.00000000  0.00000000  0.28120100  1
  Cr  Cr12  1  0.50000000  0.69670900  0.91057900  1
  Cr  Cr13  1  0.50000000  0.50000000  0.11592600  1
  P  P14  1  0.50000000  0.00000000  0.01140400  1
  P  P15  1  0.50000000  0.78294500  0.22631900  1
  P  P16  1  0.50000000  0.21705500  0.22631900  1
  P  P17  1  0.00000000  0.00000000  0.48971400  1
  P  P18  1  0.00000000  0.50000000  0.98859600  1
  P  P19  1  0.50000000  0.50000000  0.51028600  1
  P  P20  1  0.00000000  0.71705500  0.77368100  1
  P  P21  1  0.00000000  0.28294500  0.77368100  1
