# generated using pymatgen
data_Na3AsS3
_symmetry_space_group_name_H-M   'P 1'
_cell_length_a   8.63414000
_cell_length_b   8.63414000
_cell_length_c   8.63414000
_cell_angle_alpha   90.00000000
_cell_angle_beta   90.00000000
_cell_angle_gamma   90.00000000
_symmetry_Int_Tables_number   1
_chemical_formula_structural   Na3AsS3
_chemical_formula_sum   'Na12 As4 S12'
_cell_volume   643.66109391
_cell_formula_units_Z   4
loop_
 _symmetry_equiv_pos_site_id
 _symmetry_equiv_pos_as_xyz
  1  'x, y, z'
loop_
 _atom_site_type_symbol
 _atom_site_label
 _atom_site_symmetry_multiplicity
 _atom_site_fract_x
 _atom_site_fract_y
 _atom_site_fract_z
 _atom_site_occupancy
  Na  Na0  1  0.58164300  0.58164300  0.58164300  1
  Na  Na1  1  0.91835700  0.41835700  0.08164300  1
  Na  Na2  1  0.08164300  0.91835700  0.41835700  1
  Na  Na3  1  0.41835700  0.08164300  0.91835700  1
  Na  Na4  1  0.31765200  0.31765200  0.31765200  1
  Na  Na5  1  0.18234800  0.68234800  0.81765200  1
  Na  Na6  1  0.81765200  0.18234800  0.68234800  1
  Na  Na7  1  0.68234800  0.81765200  0.18234800  1
  Na  Na8  1  0.81024100  0.81024100  0.81024100  1
  Na  Na9  1  0.68975900  0.18975900  0.31024100  1
  Na  Na10  1  0.31024100  0.68975900  0.18975900  1
  Na  Na11  1  0.18975900  0.31024100  0.68975900  1
  As  As12  1  0.97222800  0.52777200  0.47222800  1
  As  As13  1  0.47222800  0.97222800  0.52777200  1
  As  As14  1  0.02777200  0.02777200  0.02777200  1
  As  As15  1  0.52777200  0.47222800  0.97222800  1
  S  S16  1  0.77611300  0.10545500  0.00131200  1
  S  S17  1  0.72388700  0.89454500  0.50131200  1
  S  S18  1  0.27611300  0.39454500  0.99868800  1
  S  S19  1  0.10545500  0.00131200  0.77611300  1
  S  S20  1  0.22388700  0.60545500  0.49868800  1
  S  S21  1  0.49868800  0.22388700  0.60545500  1
  S  S22  1  0.60545500  0.49868800  0.22388700  1
  S  S23  1  0.89454500  0.50131200  0.72388700  1
  S  S24  1  0.99868800  0.27611300  0.39454500  1
  S  S25  1  0.39454500  0.99868800  0.27611300  1
  S  S26  1  0.00131200  0.77611300  0.10545500  1
  S  S27  1  0.50131200  0.72388700  0.89454500  1
