# generated using pymatgen
data_Ge(PbS2)2
_symmetry_space_group_name_H-M   'P 1'
_cell_length_a   9.40718000
_cell_length_b   8.18382400
_cell_length_c   10.93046331
_cell_angle_alpha   65.82551751
_cell_angle_beta   90.00000000
_cell_angle_gamma   90.00000000
_symmetry_Int_Tables_number   1
_chemical_formula_structural   Ge(PbS2)2
_chemical_formula_sum   'Ge4 Pb8 S16'
_cell_volume   767.70295827
_cell_formula_units_Z   4
loop_
 _symmetry_equiv_pos_site_id
 _symmetry_equiv_pos_as_xyz
  1  'x, y, z'
loop_
 _atom_site_type_symbol
 _atom_site_label
 _atom_site_symmetry_multiplicity
 _atom_site_fract_x
 _atom_site_fract_y
 _atom_site_fract_z
 _atom_site_occupancy
  Ge  Ge0  1  0.80854300  0.28366800  0.00675400  1
  Ge  Ge1  1  0.30854300  0.71633200  0.49324600  1
  Ge  Ge2  1  0.19145700  0.71633200  0.99324600  1
  Ge  Ge3  1  0.69145700  0.28366800  0.50675400  1
  Pb  Pb4  1  0.54597100  0.59256700  0.15193500  1
  Pb  Pb5  1  0.32445000  0.03342900  0.66250700  1
  Pb  Pb6  1  0.82445000  0.96657100  0.83749300  1
  Pb  Pb7  1  0.67555000  0.96657100  0.33749300  1
  Pb  Pb8  1  0.45402900  0.40743300  0.84806500  1
  Pb  Pb9  1  0.95402900  0.59256700  0.65193500  1
  Pb  Pb10  1  0.04597100  0.40743300  0.34806500  1
  Pb  Pb11  1  0.17555000  0.03342900  0.16250700  1
  S  S12  1  0.20433000  0.44766600  0.59394900  1
  S  S13  1  0.08732400  0.78218000  0.79532600  1
  S  S14  1  0.02533700  0.75180700  0.12866000  1
  S  S15  1  0.86643800  0.08401500  0.55574500  1
  S  S16  1  0.70433000  0.55233400  0.90605100  1
  S  S17  1  0.79567000  0.55233400  0.40605100  1
  S  S18  1  0.58732400  0.21782000  0.70467400  1
  S  S19  1  0.29567000  0.44766600  0.09394900  1
  S  S20  1  0.52533700  0.24819300  0.37134000  1
  S  S21  1  0.97466300  0.24819300  0.87134000  1
  S  S22  1  0.41267600  0.78218000  0.29532600  1
  S  S23  1  0.36643800  0.91598500  0.94425500  1
  S  S24  1  0.63356200  0.08401500  0.05574500  1
  S  S25  1  0.91267600  0.21782000  0.20467400  1
  S  S26  1  0.47466300  0.75180700  0.62866000  1
  S  S27  1  0.13356200  0.91598500  0.44425500  1
