# generated using pymatgen
data_Cs2V(PO4)2
_symmetry_space_group_name_H-M   'P 1'
_cell_length_a   7.37288400
_cell_length_b   9.66028500
_cell_length_c   13.63813000
_cell_angle_alpha   90.00000000
_cell_angle_beta   90.00000000
_cell_angle_gamma   90.00000000
_symmetry_Int_Tables_number   1
_chemical_formula_structural   Cs2V(PO4)2
_chemical_formula_sum   'Cs8 V4 P8 O32'
_cell_volume   971.36436293
_cell_formula_units_Z   4
loop_
 _symmetry_equiv_pos_site_id
 _symmetry_equiv_pos_as_xyz
  1  'x, y, z'
loop_
 _atom_site_type_symbol
 _atom_site_label
 _atom_site_symmetry_multiplicity
 _atom_site_fract_x
 _atom_site_fract_y
 _atom_site_fract_z
 _atom_site_occupancy
  Cs  Cs0  1  0.25000000  0.91802400  0.40174400  1
  Cs  Cs1  1  0.75000000  0.08197600  0.59825600  1
  Cs  Cs2  1  0.75000000  0.41802400  0.09825600  1
  Cs  Cs3  1  0.25000000  0.58197600  0.90174400  1
  Cs  Cs4  1  0.25000000  0.12982700  0.09153500  1
  Cs  Cs5  1  0.75000000  0.87017300  0.90846500  1
  Cs  Cs6  1  0.75000000  0.62982700  0.40846500  1
  Cs  Cs7  1  0.25000000  0.37017300  0.59153500  1
  V  V8  1  0.25000000  0.48512400  0.28851800  1
  V  V9  1  0.75000000  0.51487600  0.71148200  1
  V  V10  1  0.75000000  0.98512400  0.21148200  1
  V  V11  1  0.25000000  0.01487600  0.78851800  1
  P  P12  1  0.04796500  0.73187000  0.15910400  1
  P  P13  1  0.54796500  0.26813000  0.84089600  1
  P  P14  1  0.95203500  0.23187000  0.34089600  1
  P  P15  1  0.45203500  0.76813000  0.65910400  1
  P  P16  1  0.95203500  0.26813000  0.84089600  1
  P  P17  1  0.45203500  0.73187000  0.15910400  1
  P  P18  1  0.04796500  0.76813000  0.65910400  1
  P  P19  1  0.54796500  0.23187000  0.34089600  1
  O  O20  1  0.25000000  0.54498000  0.40111800  1
  O  O21  1  0.75000000  0.45502000  0.59888200  1
  O  O22  1  0.75000000  0.04498000  0.09888200  1
  O  O23  1  0.25000000  0.95502000  0.90111800  1
  O  O24  1  0.93502200  0.83373700  0.22095900  1
  O  O25  1  0.43502200  0.16626300  0.77904100  1
  O  O26  1  0.06497800  0.33373700  0.27904100  1
  O  O27  1  0.56497800  0.66626300  0.72095900  1
  O  O28  1  0.06497800  0.16626300  0.77904100  1
  O  O29  1  0.56497800  0.83373700  0.22095900  1
  O  O30  1  0.93502200  0.66626300  0.72095900  1
  O  O31  1  0.43502200  0.33373700  0.27904100  1
  O  O32  1  0.98999300  0.71130300  0.05461500  1
  O  O33  1  0.48999300  0.28869700  0.94538500  1
  O  O34  1  0.01000700  0.21130300  0.44538500  1
  O  O35  1  0.51000700  0.78869700  0.55461500  1
  O  O36  1  0.01000700  0.28869700  0.94538500  1
  O  O37  1  0.51000700  0.71130300  0.05461500  1
  O  O38  1  0.98999300  0.78869700  0.55461500  1
  O  O39  1  0.48999300  0.21130300  0.44538500  1
  O  O40  1  0.06323800  0.59342800  0.21654500  1
  O  O41  1  0.56323800  0.40657200  0.78345500  1
  O  O42  1  0.93676200  0.09342800  0.28345500  1
  O  O43  1  0.43676200  0.90657200  0.71654500  1
  O  O44  1  0.93676200  0.40657200  0.78345500  1
  O  O45  1  0.43676200  0.59342800  0.21654500  1
  O  O46  1  0.06323800  0.90657200  0.71654500  1
  O  O47  1  0.56323800  0.09342800  0.28345500  1
  O  O48  1  0.25000000  0.80368000  0.16325500  1
  O  O49  1  0.75000000  0.19632000  0.83674500  1
  O  O50  1  0.75000000  0.30368000  0.33674500  1
  O  O51  1  0.25000000  0.69632000  0.66325500  1
