# generated using pymatgen
data_Gd(IO3)3
_symmetry_space_group_name_H-M   'P 1'
_cell_length_a   6.07865800
_cell_length_b   8.85851500
_cell_length_c   16.81490303
_cell_angle_alpha   65.28746236
_cell_angle_beta   90.00000000
_cell_angle_gamma   90.00000000
_symmetry_Int_Tables_number   1
_chemical_formula_structural   Gd(IO3)3
_chemical_formula_sum   'Gd4 I12 O36'
_cell_volume   822.52312922
_cell_formula_units_Z   4
loop_
 _symmetry_equiv_pos_site_id
 _symmetry_equiv_pos_as_xyz
  1  'x, y, z'
loop_
 _atom_site_type_symbol
 _atom_site_label
 _atom_site_symmetry_multiplicity
 _atom_site_fract_x
 _atom_site_fract_y
 _atom_site_fract_z
 _atom_site_occupancy
  Gd  Gd0  1  0.22047500  0.35568600  0.60235300  1
  Gd  Gd1  1  0.72047500  0.64431400  0.89764700  1
  Gd  Gd2  1  0.77952500  0.64431400  0.39764700  1
  Gd  Gd3  1  0.27952500  0.35568600  0.10235300  1
  I  I4  1  0.85838900  0.14263700  0.52119200  1
  I  I5  1  0.35838900  0.85736300  0.97880800  1
  I  I6  1  0.14161100  0.85736300  0.47880800  1
  I  I7  1  0.64161100  0.14263700  0.02119200  1
  I  I8  1  0.90797800  0.08202600  0.80191200  1
  I  I9  1  0.40797800  0.91797400  0.69808800  1
  I  I10  1  0.09202200  0.91797400  0.19808800  1
  I  I11  1  0.59202200  0.08202600  0.30191200  1
  I  I12  1  0.68685500  0.57064200  0.64522300  1
  I  I13  1  0.18685500  0.42935800  0.85477700  1
  I  I14  1  0.31314500  0.42935800  0.35477700  1
  I  I15  1  0.81314500  0.57064200  0.14522300  1
  O  O16  1  0.02924000  0.10423700  0.61827800  1
  O  O17  1  0.52924000  0.89576300  0.88172200  1
  O  O18  1  0.97076000  0.89576300  0.38172200  1
  O  O19  1  0.47076000  0.10423700  0.11827800  1
  O  O20  1  0.11091300  0.62940800  0.51303600  1
  O  O21  1  0.61091300  0.37059200  0.98696400  1
  O  O22  1  0.88908700  0.37059200  0.48696400  1
  O  O23  1  0.38908700  0.62940800  0.01303600  1
  O  O24  1  0.07976000  0.14271600  0.44384300  1
  O  O25  1  0.57976000  0.85728400  0.05615700  1
  O  O26  1  0.92024000  0.85728400  0.55615700  1
  O  O27  1  0.42024000  0.14271600  0.94384300  1
  O  O28  1  0.18133400  0.15532800  0.75521100  1
  O  O29  1  0.68133400  0.84467200  0.74478900  1
  O  O30  1  0.81866600  0.84467200  0.24478900  1
  O  O31  1  0.31866600  0.15532800  0.25521100  1
  O  O32  1  0.91505100  0.16338700  0.88607600  1
  O  O33  1  0.41505100  0.83661300  0.61392400  1
  O  O34  1  0.08494900  0.83661300  0.11392400  1
  O  O35  1  0.58494900  0.16338700  0.38607600  1
  O  O36  1  0.99460400  0.86482500  0.86755600  1
  O  O37  1  0.49460400  0.13517500  0.63244400  1
  O  O38  1  0.00539600  0.13517500  0.13244400  1
  O  O39  1  0.50539600  0.86482500  0.36755600  1
  O  O40  1  0.44492700  0.43911200  0.69421600  1
  O  O41  1  0.94492700  0.56088800  0.80578400  1
  O  O42  1  0.55507300  0.56088800  0.30578400  1
  O  O43  1  0.05507300  0.43911200  0.19421600  1
  O  O44  1  0.61093400  0.60450700  0.53371400  1
  O  O45  1  0.11093400  0.39549300  0.96628600  1
  O  O46  1  0.38906600  0.39549300  0.46628600  1
  O  O47  1  0.88906600  0.60450700  0.03371400  1
  O  O48  1  0.89305000  0.40274800  0.67066800  1
  O  O49  1  0.39305000  0.59725200  0.82933200  1
  O  O50  1  0.10695000  0.59725200  0.32933200  1
  O  O51  1  0.60695000  0.40274800  0.17066800  1
