# generated using pymatgen
data_RbZr6CCl15
_symmetry_space_group_name_H-M   'P 1'
_cell_length_a   9.96993000
_cell_length_b   14.21674800
_cell_length_c   18.93029700
_cell_angle_alpha   90.00000000
_cell_angle_beta   90.00000000
_cell_angle_gamma   90.00000000
_symmetry_Int_Tables_number   1
_chemical_formula_structural   RbZr6CCl15
_chemical_formula_sum   'Rb4 Zr24 C4 Cl60'
_cell_volume   2683.17996337
_cell_formula_units_Z   4
loop_
 _symmetry_equiv_pos_site_id
 _symmetry_equiv_pos_as_xyz
  1  'x, y, z'
loop_
 _atom_site_type_symbol
 _atom_site_label
 _atom_site_symmetry_multiplicity
 _atom_site_fract_x
 _atom_site_fract_y
 _atom_site_fract_z
 _atom_site_occupancy
  Rb  Rb0  1  0.32606100  0.74769800  0.25000000  1
  Rb  Rb1  1  0.67393900  0.74769800  0.75000000  1
  Rb  Rb2  1  0.32606100  0.25230200  0.25000000  1
  Rb  Rb3  1  0.67393900  0.25230200  0.75000000  1
  Zr  Zr4  1  0.34633700  0.61466000  0.53009200  1
  Zr  Zr5  1  0.60989200  0.00000000  0.25000000  1
  Zr  Zr6  1  0.41962700  0.50000000  0.11248200  1
  Zr  Zr7  1  0.34633700  0.38534000  0.53009200  1
  Zr  Zr8  1  0.16374700  0.11487800  0.83634400  1
  Zr  Zr9  1  0.83625300  0.11487800  0.16365600  1
  Zr  Zr10  1  0.16374700  0.88512200  0.83634400  1
  Zr  Zr11  1  0.16374700  0.88512200  0.66365600  1
  Zr  Zr12  1  0.16374700  0.11487800  0.66365600  1
  Zr  Zr13  1  0.65366300  0.38534000  0.03009200  1
  Zr  Zr14  1  0.65366300  0.38534000  0.46990800  1
  Zr  Zr15  1  0.83625300  0.11487800  0.33634400  1
  Zr  Zr16  1  0.06508300  0.00000000  0.25000000  1
  Zr  Zr17  1  0.41962700  0.50000000  0.38751800  1
  Zr  Zr18  1  0.58037300  0.50000000  0.61248200  1
  Zr  Zr19  1  0.39010800  0.00000000  0.75000000  1
  Zr  Zr20  1  0.34633700  0.61466000  0.96990800  1
  Zr  Zr21  1  0.93491700  0.00000000  0.75000000  1
  Zr  Zr22  1  0.65366300  0.61466000  0.46990800  1
  Zr  Zr23  1  0.58037300  0.50000000  0.88751800  1
  Zr  Zr24  1  0.83625300  0.88512200  0.33634400  1
  Zr  Zr25  1  0.83625300  0.88512200  0.16365600  1
  Zr  Zr26  1  0.65366300  0.61466000  0.03009200  1
  Zr  Zr27  1  0.34633700  0.38534000  0.96990800  1
  C  C28  1  0.50000000  0.50000000  0.00000000  1
  C  C29  1  0.83788800  0.00000000  0.25000000  1
  C  C30  1  0.16211200  0.00000000  0.75000000  1
  C  C31  1  0.50000000  0.50000000  0.50000000  1
  Cl  Cl32  1  0.50000000  0.75169700  0.00000000  1
  Cl  Cl33  1  0.41912800  0.87511600  0.84451900  1
  Cl  Cl34  1  0.50000000  0.75169700  0.50000000  1
  Cl  Cl35  1  0.09268900  0.87467900  0.15401500  1
  Cl  Cl36  1  0.50000000  0.24830300  0.00000000  1
  Cl  Cl37  1  0.66320700  0.00000000  0.75000000  1
  Cl  Cl38  1  0.41912800  0.12488400  0.65548100  1
  Cl  Cl39  1  0.33679300  0.00000000  0.25000000  1
  Cl  Cl40  1  0.83138700  0.25050700  0.43512100  1
  Cl  Cl41  1  0.57956700  0.37559400  0.15869000  1
  Cl  Cl42  1  0.90731100  0.87467900  0.84598500  1
  Cl  Cl43  1  0.42043300  0.62440600  0.65869000  1
  Cl  Cl44  1  0.42043300  0.62440600  0.84131000  1
  Cl  Cl45  1  0.83769800  0.50000000  0.43402200  1
  Cl  Cl46  1  0.09268900  0.12532100  0.34598500  1
  Cl  Cl47  1  0.42043300  0.37559400  0.84131000  1
  Cl  Cl48  1  0.83138700  0.74949300  0.06487900  1
  Cl  Cl49  1  0.42043300  0.37559400  0.65869000  1
  Cl  Cl50  1  0.75935900  0.62620200  0.59345100  1
  Cl  Cl51  1  0.15556300  0.74787300  0.75000000  1
  Cl  Cl52  1  0.41912800  0.87511600  0.65548100  1
  Cl  Cl53  1  0.90731100  0.12532100  0.84598500  1
  Cl  Cl54  1  0.24064100  0.62620200  0.40654900  1
  Cl  Cl55  1  0.50000000  0.24830300  0.50000000  1
  Cl  Cl56  1  0.83138700  0.74949300  0.43512100  1
  Cl  Cl57  1  0.58087200  0.12488400  0.15548100  1
  Cl  Cl58  1  0.09268900  0.12532100  0.15401500  1
  Cl  Cl59  1  0.83769800  0.50000000  0.06597800  1
  Cl  Cl60  1  0.84443700  0.25212700  0.25000000  1
  Cl  Cl61  1  0.57956700  0.37559400  0.34131000  1
  Cl  Cl62  1  0.32161900  0.50000000  0.25000000  1
  Cl  Cl63  1  0.83138700  0.25050700  0.06487900  1
  Cl  Cl64  1  0.16230200  0.50000000  0.56597800  1
  Cl  Cl65  1  0.09268900  0.87467900  0.34598500  1
  Cl  Cl66  1  0.84443700  0.74787300  0.25000000  1
  Cl  Cl67  1  0.16230200  0.50000000  0.93402200  1
  Cl  Cl68  1  0.75935900  0.37379800  0.59345100  1
  Cl  Cl69  1  0.83694900  0.00000000  0.06046100  1
  Cl  Cl70  1  0.16861300  0.74949300  0.93512100  1
  Cl  Cl71  1  0.16861300  0.25050700  0.56487900  1
  Cl  Cl72  1  0.16305100  0.00000000  0.93953900  1
  Cl  Cl73  1  0.57956700  0.62440600  0.15869000  1
  Cl  Cl74  1  0.15556300  0.25212700  0.75000000  1
  Cl  Cl75  1  0.58087200  0.87511600  0.15548100  1
  Cl  Cl76  1  0.75935900  0.62620200  0.90654900  1
  Cl  Cl77  1  0.24064100  0.62620200  0.09345100  1
  Cl  Cl78  1  0.90731100  0.87467900  0.65401500  1
  Cl  Cl79  1  0.24064100  0.37379800  0.40654900  1
  Cl  Cl80  1  0.41912800  0.12488400  0.84451900  1
  Cl  Cl81  1  0.16305100  0.00000000  0.56046100  1
  Cl  Cl82  1  0.67838100  0.50000000  0.75000000  1
  Cl  Cl83  1  0.90731100  0.12532100  0.65401500  1
  Cl  Cl84  1  0.24064100  0.37379800  0.09345100  1
  Cl  Cl85  1  0.58087200  0.87511600  0.34451900  1
  Cl  Cl86  1  0.57956700  0.62440600  0.34131000  1
  Cl  Cl87  1  0.16861300  0.74949300  0.56487900  1
  Cl  Cl88  1  0.16861300  0.25050700  0.93512100  1
  Cl  Cl89  1  0.83694900  0.00000000  0.43953900  1
  Cl  Cl90  1  0.75935900  0.37379800  0.90654900  1
  Cl  Cl91  1  0.58087200  0.12488400  0.34451900  1
