# generated using pymatgen
data_InGaS3
_symmetry_space_group_name_H-M   'P 1'
_cell_length_a   6.84357765
_cell_length_b   6.84357765
_cell_length_c   18.36269000
_cell_angle_alpha   90.00000000
_cell_angle_beta   90.00000000
_cell_angle_gamma   119.99999664
_symmetry_Int_Tables_number   1
_chemical_formula_structural   InGaS3
_chemical_formula_sum   'In6 Ga6 S18'
_cell_volume   744.78916128
_cell_formula_units_Z   6
loop_
 _symmetry_equiv_pos_site_id
 _symmetry_equiv_pos_as_xyz
  1  'x, y, z'
loop_
 _atom_site_type_symbol
 _atom_site_label
 _atom_site_symmetry_multiplicity
 _atom_site_fract_x
 _atom_site_fract_y
 _atom_site_fract_z
 _atom_site_occupancy
  In  In0  1  0.31878100  0.32578400  0.99164500  1
  In  In1  1  0.99299700  0.31878100  0.15831200  1
  In  In2  1  0.32578400  0.00700300  0.82497800  1
  In  In3  1  0.67421600  0.99299700  0.32497800  1
  In  In4  1  0.00700300  0.68121900  0.65831200  1
  In  In5  1  0.68121900  0.67421600  0.49164500  1
  Ga  Ga6  1  0.65971600  0.67157000  0.13051600  1
  Ga  Ga7  1  0.98814600  0.65971600  0.29718300  1
  Ga  Ga8  1  0.67157000  0.01185400  0.96384900  1
  Ga  Ga9  1  0.32843000  0.98814600  0.46384900  1
  Ga  Ga10  1  0.01185400  0.34028400  0.79718300  1
  Ga  Ga11  1  0.34028400  0.32843000  0.63051600  1
  S  S12  1  0.35612100  0.31340800  0.13757100  1
  S  S13  1  0.04271200  0.35612100  0.30423800  1
  S  S14  1  0.31340800  0.95728800  0.97090500  1
  S  S15  1  0.68659200  0.04271200  0.47090500  1
  S  S16  1  0.95728800  0.64387900  0.80423800  1
  S  S17  1  0.64387900  0.68659200  0.63757100  1
  S  S18  1  0.95660100  0.33462500  0.01234100  1
  S  S19  1  0.62197500  0.95660100  0.17900800  1
  S  S20  1  0.33462500  0.37802500  0.84567500  1
  S  S21  1  0.66537500  0.62197500  0.34567500  1
  S  S22  1  0.37802500  0.04339900  0.67900800  1
  S  S23  1  0.04339900  0.66537500  0.51234100  1
  S  S24  1  0.99384000  0.69494600  0.16992600  1
  S  S25  1  0.29889400  0.99384000  0.33659300  1
  S  S26  1  0.69494600  0.70110600  0.00326000  1
  S  S27  1  0.30505400  0.29889400  0.50326000  1
  S  S28  1  0.70110600  0.00616000  0.83659300  1
  S  S29  1  0.00616000  0.30505400  0.66992600  1
