# generated using pymatgen
data_CsLaZr6FeCl18
_symmetry_space_group_name_H-M   'P 1'
_cell_length_a   9.86218993
_cell_length_b   9.86218993
_cell_length_c   18.73291200
_cell_angle_alpha   90.00000000
_cell_angle_beta   90.00000000
_cell_angle_gamma   119.99999955
_symmetry_Int_Tables_number   1
_chemical_formula_structural   CsLaZr6FeCl18
_chemical_formula_sum   'Cs2 La2 Zr12 Fe2 Cl36'
_cell_volume   1577.91153539
_cell_formula_units_Z   2
loop_
 _symmetry_equiv_pos_site_id
 _symmetry_equiv_pos_as_xyz
  1  'x, y, z'
loop_
 _atom_site_type_symbol
 _atom_site_label
 _atom_site_symmetry_multiplicity
 _atom_site_fract_x
 _atom_site_fract_y
 _atom_site_fract_z
 _atom_site_occupancy
  Cs  Cs0  1  0.66666700  0.33333300  0.75000000  1
  Cs  Cs1  1  0.33333300  0.66666700  0.25000000  1
  La  La2  1  0.66666700  0.33333300  0.25000000  1
  La  La3  1  0.33333300  0.66666700  0.75000000  1
  Zr  Zr4  1  0.21985100  0.04197500  0.07486400  1
  Zr  Zr5  1  0.04197500  0.82212400  0.92513600  1
  Zr  Zr6  1  0.78014900  0.95802500  0.92513600  1
  Zr  Zr7  1  0.21985100  0.17787600  0.42513600  1
  Zr  Zr8  1  0.17787600  0.21985100  0.92513600  1
  Zr  Zr9  1  0.82212400  0.78014900  0.07486400  1
  Zr  Zr10  1  0.95802500  0.17787600  0.07486400  1
  Zr  Zr11  1  0.82212400  0.04197500  0.42513600  1
  Zr  Zr12  1  0.04197500  0.21985100  0.57486400  1
  Zr  Zr13  1  0.17787600  0.95802500  0.57486400  1
  Zr  Zr14  1  0.95802500  0.78014900  0.42513600  1
  Zr  Zr15  1  0.78014900  0.82212400  0.57486400  1
  Fe  Fe16  1  0.00000000  0.00000000  0.00000000  1
  Fe  Fe17  1  0.00000000  0.00000000  0.50000000  1
  Cl  Cl18  1  0.81177500  0.76744600  0.84159500  1
  Cl  Cl19  1  0.58053000  0.85346100  0.49881800  1
  Cl  Cl20  1  0.45628800  0.08112100  0.16335500  1
  Cl  Cl21  1  0.91887900  0.37516700  0.16335500  1
  Cl  Cl22  1  0.08112100  0.45628800  0.66335500  1
  Cl  Cl23  1  0.76744600  0.95567100  0.15840500  1
  Cl  Cl24  1  0.85346100  0.58053000  0.99881800  1
  Cl  Cl25  1  0.58053000  0.72706900  0.00118200  1
  Cl  Cl26  1  0.27293100  0.41947000  0.49881800  1
  Cl  Cl27  1  0.76744600  0.81177500  0.34159500  1
  Cl  Cl28  1  0.62483300  0.54371200  0.16335500  1
  Cl  Cl29  1  0.95567100  0.18822500  0.84159500  1
  Cl  Cl30  1  0.14653900  0.41947000  0.00118200  1
  Cl  Cl31  1  0.18822500  0.95567100  0.34159500  1
  Cl  Cl32  1  0.45628800  0.37516700  0.33664500  1
  Cl  Cl33  1  0.04432900  0.81177500  0.15840500  1
  Cl  Cl34  1  0.27293100  0.85346100  0.00118200  1
  Cl  Cl35  1  0.23255400  0.04432900  0.84159500  1
  Cl  Cl36  1  0.18822500  0.23255400  0.15840500  1
  Cl  Cl37  1  0.37516700  0.91887900  0.66335500  1
  Cl  Cl38  1  0.14653900  0.72706900  0.49881800  1
  Cl  Cl39  1  0.23255400  0.18822500  0.65840500  1
  Cl  Cl40  1  0.85346100  0.27293100  0.50118200  1
  Cl  Cl41  1  0.62483300  0.08112100  0.33664500  1
  Cl  Cl42  1  0.41947000  0.27293100  0.99881800  1
  Cl  Cl43  1  0.95567100  0.76744600  0.65840500  1
  Cl  Cl44  1  0.72706900  0.58053000  0.50118200  1
  Cl  Cl45  1  0.54371200  0.62483300  0.66335500  1
  Cl  Cl46  1  0.04432900  0.23255400  0.34159500  1
  Cl  Cl47  1  0.41947000  0.14653900  0.50118200  1
  Cl  Cl48  1  0.81177500  0.04432900  0.65840500  1
  Cl  Cl49  1  0.37516700  0.45628800  0.83664500  1
  Cl  Cl50  1  0.54371200  0.91887900  0.83664500  1
  Cl  Cl51  1  0.08112100  0.62483300  0.83664500  1
  Cl  Cl52  1  0.91887900  0.54371200  0.33664500  1
  Cl  Cl53  1  0.72706900  0.14653900  0.99881800  1
