# generated using pymatgen
data_Hg2NO4
_symmetry_space_group_name_H-M   'P 1'
_cell_length_a   6.81140400
_cell_length_b   5.66904300
_cell_length_c   12.21003930
_cell_angle_alpha   83.37020184
_cell_angle_beta   90.00000000
_cell_angle_gamma   90.00000000
_symmetry_Int_Tables_number   1
_chemical_formula_structural   Hg2NO4
_chemical_formula_sum   'Hg8 N4 O16'
_cell_volume   468.32733710
_cell_formula_units_Z   4
loop_
 _symmetry_equiv_pos_site_id
 _symmetry_equiv_pos_as_xyz
  1  'x, y, z'
loop_
 _atom_site_type_symbol
 _atom_site_label
 _atom_site_symmetry_multiplicity
 _atom_site_fract_x
 _atom_site_fract_y
 _atom_site_fract_z
 _atom_site_occupancy
  Hg  Hg0  1  0.19472000  0.50407500  0.25852000  1
  Hg  Hg1  1  0.69472000  0.49592500  0.24148000  1
  Hg  Hg2  1  0.80528000  0.49592500  0.74148000  1
  Hg  Hg3  1  0.30528000  0.50407500  0.75852000  1
  Hg  Hg4  1  0.51007800  0.17662600  0.55811700  1
  Hg  Hg5  1  0.01007800  0.82337400  0.94188300  1
  Hg  Hg6  1  0.48992200  0.82337400  0.44188300  1
  Hg  Hg7  1  0.98992200  0.17662600  0.05811700  1
  N  N8  1  0.02318700  0.03894400  0.63977400  1
  N  N9  1  0.52318700  0.96105600  0.86022600  1
  N  N10  1  0.47681300  0.03894400  0.13977400  1
  N  N11  1  0.97681300  0.96105600  0.36022600  1
  O  O12  1  0.37060900  0.96962300  0.79809900  1
  O  O13  1  0.87060900  0.03037700  0.70190100  1
  O  O14  1  0.62939100  0.03037700  0.20190100  1
  O  O15  1  0.12939100  0.96962300  0.29809900  1
  O  O16  1  0.95557700  0.48609700  0.14962400  1
  O  O17  1  0.45557700  0.51390300  0.35037600  1
  O  O18  1  0.04442300  0.51390300  0.85037600  1
  O  O19  1  0.54442300  0.48609700  0.64962400  1
  O  O20  1  0.39596200  0.23889200  0.11125500  1
  O  O21  1  0.89596200  0.76110800  0.38874500  1
  O  O22  1  0.10403800  0.23889200  0.61125500  1
  O  O23  1  0.60403800  0.76110800  0.88874500  1
  O  O24  1  0.41092300  0.85112200  0.10797500  1
  O  O25  1  0.91092300  0.14887800  0.39202500  1
  O  O26  1  0.58907700  0.14887800  0.89202500  1
  O  O27  1  0.08907700  0.85112200  0.60797500  1
