# generated using pymatgen
data_La6YbSe10
_symmetry_space_group_name_H-M   'P 1'
_cell_length_a   7.85731154
_cell_length_b   7.85502434
_cell_length_c   39.27334326
_cell_angle_alpha   109.31975472
_cell_angle_beta   109.55146910
_cell_angle_gamma   109.53406988
_symmetry_Int_Tables_number   1
_chemical_formula_structural   La6YbSe10
_chemical_formula_sum   'La24 Yb4 Se40'
_cell_volume   1866.12479388
_cell_formula_units_Z   4
loop_
 _symmetry_equiv_pos_site_id
 _symmetry_equiv_pos_as_xyz
  1  'x, y, z'
loop_
 _atom_site_type_symbol
 _atom_site_label
 _atom_site_symmetry_multiplicity
 _atom_site_fract_x
 _atom_site_fract_y
 _atom_site_fract_z
 _atom_site_occupancy
  La  La0  1  0.24214332  0.62564663  0.87301274  1
  La  La1  1  0.37516966  0.25205655  0.92442923  1
  La  La2  1  0.24629859  0.63060398  0.67778139  1
  La  La3  1  0.61414327  0.35804469  0.84832394  1
  La  La4  1  0.74579808  0.86751015  0.82262182  1
  La  La5  1  0.37582251  0.24864851  0.72547942  1
  La  La6  1  0.24199781  0.62509851  0.47285522  1
  La  La7  1  0.88398549  0.13547253  0.95162163  1
  La  La8  1  0.75242959  0.87649452  0.62440214  1
  La  La9  1  0.63305254  0.37813632  0.65245049  1
  La  La10  1  0.37440059  0.25151142  0.52452676  1
  La  La11  1  0.88413390  0.13222382  0.75145909  1
  La  La12  1  0.24566159  0.62962062  0.27741976  1
  La  La13  1  0.74491169  0.86659957  0.42222458  1
  La  La14  1  0.61347609  0.35725723  0.44809879  1
  La  La15  1  0.37513463  0.24808095  0.32522165  1
  La  La16  1  0.88174369  0.13100937  0.55064632  1
  La  La17  1  0.75110250  0.87563468  0.22409837  1
  La  La18  1  0.63319144  0.37781075  0.25221916  1
  La  La19  1  0.37390228  0.24875256  0.12460572  1
  La  La20  1  0.88378169  0.13177736  0.35126427  1
  La  La21  1  0.75004485  0.87445188  0.02435546  1
  La  La22  1  0.62740189  0.37554796  0.05072245  1
  La  La23  1  0.87416487  0.12444354  0.14978775  1
  Se  Se24  1  0.99812745  0.85527882  0.89963522  1
  Se  Se25  1  0.00482600  0.36151191  0.90175976  1
  Se  Se26  1  0.49580135  1.00078334  0.97078902  1
  Se  Se27  1  0.99490614  0.85140152  0.69814549  1
  Se  Se28  1  0.51306753  0.00732715  0.87335908  1
  Se  Se29  1  0.15154398  0.15928885  0.83204808  1
  Se  Se30  1  0.99900044  0.33820574  0.69882033  1
  Se  Se31  1  0.35550671  0.49360283  0.80069220  1
  Se  Se32  1  0.50261154  -0.00008748  0.76883467  1
  Se  Se33  1  0.64592818  0.65207471  0.92936370  1
  Se  Se34  1  0.99780018  0.85406149  0.49924164  1
  Se  Se35  1  0.50220164  0.99919510  0.67067747  1
  Se  Se36  1  0.15236664  0.14222963  0.62892609  1
  Se  Se37  1  0.00504042  0.36106989  0.50178738  1
  Se  Se38  1  0.35637396  0.49985503  0.60078001  1
  Se  Se39  1  0.99447810  0.85077713  0.29782014  1
  Se  Se40  1  0.63557859  0.64406073  0.72848373  1
  Se  Se41  1  0.84067119  0.49673881  0.79986618  1
  Se  Se42  1  0.51122704  0.00648857  0.47297923  1
  Se  Se43  1  0.15109841  0.15904891  0.43202753  1
  Se  Se44  1  0.99915514  0.33819597  0.29872069  1
  Se  Se45  1  0.35521696  0.49307280  0.40057493  1
  Se  Se46  1  0.49643180  0.00299387  0.57060794  1
  Se  Se47  1  0.99716069  0.85332878  0.09970818  1
  Se  Se48  1  0.64617238  0.65111823  0.52909770  1
  Se  Se49  1  0.85352284  0.50182765  0.59932418  1
  Se  Se50  1  0.50185566  0.99884936  0.27055782  1
  Se  Se51  1  0.15022706  0.14031276  0.22826625  1
  Se  Se52  1  0.00458643  0.35589404  0.10021632  1
  Se  Se53  1  0.35458075  0.49805386  0.20030690  1
  Se  Se54  1  0.50232619  -0.00032752  0.36871571  1
  Se  Se55  1  0.63503779  0.64363106  0.32832678  1
  Se  Se56  1  0.84052031  0.49632155  0.39976271  1
  Se  Se57  1  0.50020489  0.99553215  0.07064562  1
  Se  Se58  1  0.14967411  0.14150030  0.02954169  1
  Se  Se59  1  0.35644508  0.49898833  0.00015218  1
  Se  Se60  1  0.49703154  0.00438829  0.17086126  1
  Se  Se61  1  0.63947918  0.64735645  0.12869531  1
  Se  Se62  1  0.85329153  0.50062072  0.19882799  1
  Se  Se63  1  0.85653141  0.50554565  0.00062358  1
  Yb  Yb64  1  0.12573108  0.75009145  0.97579806  1
  Yb  Yb65  1  0.12697877  0.75103685  0.57503439  1
  Yb  Yb66  1  0.12737736  0.74921892  0.17446540  1
  Yb  Yb67  1  0.24841297  0.62710167  0.07550327  1
