# generated using pymatgen
data_Cs2NaTiF6
_symmetry_space_group_name_H-M   'P 1'
_cell_length_a   6.41840407
_cell_length_b   6.41840407
_cell_length_c   15.25034500
_cell_angle_alpha   90.00000000
_cell_angle_beta   90.00000000
_cell_angle_gamma   120.00000075
_symmetry_Int_Tables_number   1
_chemical_formula_structural   Cs2NaTiF6
_chemical_formula_sum   'Cs6 Na3 Ti3 F18'
_cell_volume   544.08206051
_cell_formula_units_Z   3
loop_
 _symmetry_equiv_pos_site_id
 _symmetry_equiv_pos_as_xyz
  1  'x, y, z'
loop_
 _atom_site_type_symbol
 _atom_site_label
 _atom_site_symmetry_multiplicity
 _atom_site_fract_x
 _atom_site_fract_y
 _atom_site_fract_z
 _atom_site_occupancy
  Cs  Cs0  1  0.33333300  0.66666700  0.08838200  1
  Cs  Cs1  1  0.00000000  0.00000000  0.75146300  1
  Cs  Cs2  1  0.33333300  0.66666700  0.39451500  1
  Cs  Cs3  1  0.00000000  0.00000000  0.24853700  1
  Cs  Cs4  1  0.66666700  0.33333300  0.91161800  1
  Cs  Cs5  1  0.66666700  0.33333300  0.60548500  1
  Na  Na6  1  0.66666700  0.33333300  0.35716700  1
  Na  Na7  1  0.33333300  0.66666700  0.64283300  1
  Na  Na8  1  0.00000000  0.00000000  0.00000000  1
  Ti  Ti9  1  0.33333300  0.66666700  0.83990500  1
  Ti  Ti10  1  0.00000000  0.00000000  0.50000000  1
  Ti  Ti11  1  0.66666700  0.33333300  0.16009500  1
  F  F12  1  0.18159400  0.81840600  0.91086900  1
  F  F13  1  0.36318800  0.18159400  0.08913100  1
  F  F14  1  0.47735700  0.95471300  0.76058400  1
  F  F15  1  0.15078400  0.30156800  0.57240900  1
  F  F16  1  0.69843200  0.84921600  0.57240900  1
  F  F17  1  0.18159400  0.36318800  0.91086900  1
  F  F18  1  0.15078400  0.84921600  0.57240900  1
  F  F19  1  0.81840600  0.63681200  0.08913100  1
  F  F20  1  0.52264300  0.04528700  0.23941600  1
  F  F21  1  0.30156800  0.15078400  0.42759100  1
  F  F22  1  0.84921600  0.15078400  0.42759100  1
  F  F23  1  0.95471300  0.47735700  0.23941600  1
  F  F24  1  0.63681200  0.81840600  0.91086900  1
  F  F25  1  0.52264300  0.47735700  0.23941600  1
  F  F26  1  0.84921600  0.69843200  0.42759100  1
  F  F27  1  0.81840600  0.18159400  0.08913100  1
  F  F28  1  0.47735700  0.52264300  0.76058400  1
  F  F29  1  0.04528700  0.52264300  0.76058400  1
