# generated using pymatgen
data_Na2Zn3(SiO4)2
_symmetry_space_group_name_H-M   'P 1'
_cell_length_a   5.18970000
_cell_length_b   8.93809741
_cell_length_c   13.61295821
_cell_angle_alpha   107.92848109
_cell_angle_beta   100.35028981
_cell_angle_gamma   88.94840371
_symmetry_Int_Tables_number   1
_chemical_formula_structural   Na2Zn3(SiO4)2
_chemical_formula_sum   'Na6 Zn9 Si6 O24'
_cell_volume   590.55192372
_cell_formula_units_Z   3
loop_
 _symmetry_equiv_pos_site_id
 _symmetry_equiv_pos_as_xyz
  1  'x, y, z'
loop_
 _atom_site_type_symbol
 _atom_site_label
 _atom_site_symmetry_multiplicity
 _atom_site_fract_x
 _atom_site_fract_y
 _atom_site_fract_z
 _atom_site_occupancy
  Na  Na0  1  0.56835500  0.59282900  0.23380200  1
  Na  Na1  1  0.59410600  0.96222000  0.30920300  1
  Na  Na2  1  0.72547200  0.07099200  0.55555400  1
  Na  Na3  1  0.28483800  0.97737600  0.63924100  1
  Na  Na4  1  0.40442000  0.12341000  0.90367400  1
  Na  Na5  1  0.52147600  0.22058600  0.15541500  1
  Zn  Zn6  1  0.06077700  0.44128700  0.31758500  1
  Zn  Zn7  1  0.73281800  0.71121400  0.50257500  1
  Zn  Zn8  1  0.38781300  0.48507800  0.96055400  1
  Zn  Zn9  1  0.06889700  0.74952300  0.14581100  1
  Zn  Zn10  1  0.72452900  0.53664900  0.67143400  1
  Zn  Zn11  1  0.13399300  0.18352200  0.46193100  1
  Zn  Zn12  1  0.99796700  0.00038100  0.99911700  1
  Zn  Zn13  1  0.31032200  0.73080100  0.80942200  1
  Zn  Zn14  1  0.80652400  0.28303500  0.82130700  1
  Si  Si15  1  0.60621500  0.35055600  0.41505300  1
  Si  Si16  1  0.81492900  0.89694700  0.74928100  1
  Si  Si17  1  0.96967800  0.37546500  0.06325800  1
  Si  Si18  1  0.24491000  0.36622000  0.71755500  1
  Si  Si19  1  0.16228800  0.81177600  0.39662700  1
  Si  Si20  1  0.52075400  0.84169900  0.05029200  1
  O  O21  1  0.11289600  0.53515400  0.71622000  1
  O  O22  1  0.64179400  0.99063000  0.02376200  1
  O  O23  1  0.56836300  0.38833300  0.73106900  1
  O  O24  1  0.23960700  0.90045500  0.09017900  1
  O  O25  1  0.60599800  0.75396200  0.74178300  1
  O  O26  1  0.89660100  0.30078700  0.38132900  1
  O  O27  1  0.42650800  0.84256300  0.48864500  1
  O  O28  1  0.85758600  0.40367400  0.17166500  1
  O  O29  1  0.46045100  0.68833200  0.94260500  1
  O  O30  1  0.71194100  0.35947400  0.96607500  1
  O  O31  1  0.42878100  0.39436500  0.31510300  1
  O  O32  1  0.98197600  0.96709600  0.42092500  1
  O  O33  1  0.14023200  0.21715300  0.03184900  1
  O  O34  1  0.63853200  0.50719700  0.52062000  1
  O  O35  1  0.07011700  0.91087400  0.84700100  1
  O  O36  1  0.70034700  0.79020500  0.14551400  1
  O  O37  1  0.12158300  0.22113100  0.61525700  1
  O  O38  1  0.18503200  0.32775500  0.82507900  1
  O  O39  1  0.92195900  0.85437100  0.63897700  1
  O  O40  1  0.26658400  0.77385400  0.28513900  1
  O  O41  1  0.96288500  0.66231900  0.39182400  1
  O  O42  1  0.16986100  0.52511800  0.07134200  1
  O  O43  1  0.66196500  0.06361300  0.77120700  1
  O  O44  1  0.49021900  0.19712300  0.43733900  1
