# generated using pymatgen
data_CsAl(MoO4)2
_symmetry_space_group_name_H-M   'P 1'
_cell_length_a   5.65032389
_cell_length_b   5.65032389
_cell_length_c   8.26478600
_cell_angle_alpha   90.00000000
_cell_angle_beta   90.00000000
_cell_angle_gamma   119.99999875
_symmetry_Int_Tables_number   1
_chemical_formula_structural   CsAl(MoO4)2
_chemical_formula_sum   'Cs1 Al1 Mo2 O8'
_cell_volume   228.51196094
_cell_formula_units_Z   1
loop_
 _symmetry_equiv_pos_site_id
 _symmetry_equiv_pos_as_xyz
  1  'x, y, z'
loop_
 _atom_site_type_symbol
 _atom_site_label
 _atom_site_symmetry_multiplicity
 _atom_site_fract_x
 _atom_site_fract_y
 _atom_site_fract_z
 _atom_site_occupancy
  Cs  Cs0  1  0.00000000  0.00000000  0.00000000  1
  Al  Al1  1  0.00000000  0.00000000  0.50000000  1
  Mo  Mo2  1  0.33333300  0.66666700  0.70220900  1
  Mo  Mo3  1  0.66666700  0.33333300  0.29779100  1
  O  O4  1  0.33333300  0.66666700  0.91434500  1
  O  O5  1  0.66666700  0.33333300  0.08565500  1
  O  O6  1  0.15750300  0.31500600  0.63583700  1
  O  O7  1  0.68499400  0.84249700  0.63583700  1
  O  O8  1  0.15750300  0.84249700  0.63583700  1
  O  O9  1  0.84249700  0.68499400  0.36416300  1
  O  O10  1  0.84249700  0.15750300  0.36416300  1
  O  O11  1  0.31500600  0.15750300  0.36416300  1
