# generated using pymatgen
data_Rb2CuH12(SeO7)2
_symmetry_space_group_name_H-M   'P 1'
_cell_length_a   12.76890300
_cell_length_b   6.41074100
_cell_length_c   9.48938793
_cell_angle_alpha   75.78437885
_cell_angle_beta   90.00000000
_cell_angle_gamma   90.00000000
_symmetry_Int_Tables_number   1
_chemical_formula_structural   Rb2CuH12(SeO7)2
_chemical_formula_sum   'Rb4 Cu2 H24 Se4 O28'
_cell_volume   752.99722099
_cell_formula_units_Z   2
loop_
 _symmetry_equiv_pos_site_id
 _symmetry_equiv_pos_as_xyz
  1  'x, y, z'
loop_
 _atom_site_type_symbol
 _atom_site_label
 _atom_site_symmetry_multiplicity
 _atom_site_fract_x
 _atom_site_fract_y
 _atom_site_fract_z
 _atom_site_occupancy
  Rb  Rb0  1  0.34925200  0.65352700  0.12393900  1
  Rb  Rb1  1  0.84925200  0.34647300  0.37606100  1
  Rb  Rb2  1  0.65074800  0.34647300  0.87606100  1
  Rb  Rb3  1  0.15074800  0.65352700  0.62393900  1
  Cu  Cu4  1  0.00000000  0.00000000  0.00000000  1
  Cu  Cu5  1  0.50000000  0.00000000  0.50000000  1
  H  H6  1  0.86493500  0.69138900  0.03189900  1
  H  H7  1  0.36493500  0.30861100  0.46810100  1
  H  H8  1  0.13506500  0.30861100  0.96810100  1
  H  H9  1  0.63506500  0.69138900  0.53189900  1
  H  H10  1  0.94206400  0.67964000  0.90098200  1
  H  H11  1  0.44206400  0.32036000  0.59901800  1
  H  H12  1  0.05793600  0.32036000  0.09901800  1
  H  H13  1  0.55793600  0.67964000  0.40098200  1
  H  H14  1  0.87554200  0.08615400  0.77268400  1
  H  H15  1  0.37554200  0.91384600  0.72731600  1
  H  H16  1  0.12445800  0.91384600  0.22731600  1
  H  H17  1  0.62445800  0.08615400  0.27268400  1
  H  H18  1  0.91051500  0.31010800  0.80881800  1
  H  H19  1  0.41051500  0.68989200  0.69118200  1
  H  H20  1  0.08948500  0.68989200  0.19118200  1
  H  H21  1  0.58948500  0.31010800  0.30881800  1
  H  H22  1  0.81177100  0.00382700  0.16750100  1
  H  H23  1  0.31177100  0.99617300  0.33249900  1
  H  H24  1  0.18822900  0.99617300  0.83249900  1
  H  H25  1  0.68822900  0.00382700  0.66750100  1
  H  H26  1  0.89920200  0.92638900  0.28660300  1
  H  H27  1  0.39920200  0.07361100  0.21339700  1
  H  H28  1  0.10079800  0.07361100  0.71339700  1
  H  H29  1  0.60079800  0.92638900  0.78660300  1
  Se  Se30  1  0.35864200  0.27002000  0.89144700  1
  Se  Se31  1  0.85864200  0.72998000  0.60855300  1
  Se  Se32  1  0.64135800  0.72998000  0.10855300  1
  Se  Se33  1  0.14135800  0.27002000  0.39144700  1
  O  O34  1  0.93894900  0.71948600  0.99679600  1
  O  O35  1  0.43894900  0.28051400  0.50320400  1
  O  O36  1  0.06105100  0.28051400  0.00320400  1
  O  O37  1  0.56105100  0.71948600  0.49679600  1
  O  O38  1  0.88981200  0.15768000  0.85305300  1
  O  O39  1  0.38981200  0.84232000  0.64694700  1
  O  O40  1  0.11018800  0.84232000  0.14694700  1
  O  O41  1  0.61018800  0.15768000  0.35305300  1
  O  O42  1  0.88458200  0.03292400  0.19345700  1
  O  O43  1  0.38458200  0.96707600  0.30654300  1
  O  O44  1  0.11541800  0.96707600  0.80654300  1
  O  O45  1  0.61541800  0.03292400  0.69345700  1
  O  O46  1  0.43009000  0.24015400  0.04227100  1
  O  O47  1  0.93009000  0.75984600  0.45772900  1
  O  O48  1  0.56991000  0.75984600  0.95772900  1
  O  O49  1  0.06991000  0.24015400  0.54227100  1
  O  O50  1  0.25065400  0.41386500  0.90339400  1
  O  O51  1  0.75065400  0.58613500  0.59660600  1
  O  O52  1  0.74934600  0.58613500  0.09660600  1
  O  O53  1  0.24934600  0.41386500  0.40339400  1
  O  O54  1  0.43101700  0.40963000  0.75087800  1
  O  O55  1  0.93101700  0.59037000  0.74912200  1
  O  O56  1  0.56898300  0.59037000  0.24912200  1
  O  O57  1  0.06898300  0.40963000  0.25087800  1
  O  O58  1  0.32485000  0.02979000  0.86283200  1
  O  O59  1  0.82485000  0.97021000  0.63716800  1
  O  O60  1  0.67515000  0.97021000  0.13716800  1
  O  O61  1  0.17515000  0.02979000  0.36283200  1
