# generated using pymatgen
data_Sb2ClF17
_symmetry_space_group_name_H-M   'P 1'
_cell_length_a   8.57911900
_cell_length_b   12.02601600
_cell_length_c   15.98662505
_cell_angle_alpha   49.60206056
_cell_angle_beta   90.00000000
_cell_angle_gamma   90.00000000
_symmetry_Int_Tables_number   1
_chemical_formula_structural   Sb2ClF17
_chemical_formula_sum   'Sb8 Cl4 F68'
_cell_volume   1256.10604271
_cell_formula_units_Z   4
loop_
 _symmetry_equiv_pos_site_id
 _symmetry_equiv_pos_as_xyz
  1  'x, y, z'
loop_
 _atom_site_type_symbol
 _atom_site_label
 _atom_site_symmetry_multiplicity
 _atom_site_fract_x
 _atom_site_fract_y
 _atom_site_fract_z
 _atom_site_occupancy
  Sb  Sb0  1  0.52453000  0.53544900  0.15549400  1
  Sb  Sb1  1  0.97547000  0.53544900  0.65549400  1
  Sb  Sb2  1  0.47547000  0.46455100  0.84450600  1
  Sb  Sb3  1  0.02453000  0.46455100  0.34450600  1
  Sb  Sb4  1  0.50838700  0.91972600  0.85572000  1
  Sb  Sb5  1  0.99161300  0.91972600  0.35572000  1
  Sb  Sb6  1  0.49161300  0.08027400  0.14428000  1
  Sb  Sb7  1  0.00838700  0.08027400  0.64428000  1
  Cl  Cl8  1  0.50000000  0.50000000  0.50000000  1
  Cl  Cl9  1  0.00000000  0.50000000  0.00000000  1
  Cl  Cl10  1  0.50000000  0.00000000  0.50000000  1
  Cl  Cl11  1  0.00000000  0.00000000  0.00000000  1
  F  F12  1  0.30123200  0.93435500  0.89052300  1
  F  F13  1  0.19876800  0.93435500  0.39052300  1
  F  F14  1  0.69876800  0.06564500  0.10947700  1
  F  F15  1  0.80123200  0.06564500  0.60947700  1
  F  F16  1  0.53227900  0.12056700  0.73165100  1
  F  F17  1  0.96772100  0.12056700  0.23165100  1
  F  F18  1  0.46772100  0.87943300  0.26834900  1
  F  F19  1  0.03227900  0.87943300  0.76834900  1
  F  F20  1  0.47925000  0.69855200  0.98941900  1
  F  F21  1  0.02075000  0.69855200  0.48941900  1
  F  F22  1  0.52075000  0.30144800  0.01058100  1
  F  F23  1  0.97925000  0.30144800  0.51058100  1
  F  F24  1  0.71216800  0.86201900  0.84858900  1
  F  F25  1  0.78783200  0.86201900  0.34858900  1
  F  F26  1  0.28783200  0.13798100  0.15141100  1
  F  F27  1  0.21216800  0.13798100  0.65141100  1
  F  F28  1  0.43011900  0.87265000  0.77088800  1
  F  F29  1  0.06988100  0.87265000  0.27088800  1
  F  F30  1  0.56988100  0.12735000  0.22911200  1
  F  F31  1  0.93011900  0.12735000  0.72911200  1
  F  F32  1  0.55897000  0.38529600  0.30855700  1
  F  F33  1  0.94103000  0.38529600  0.80855700  1
  F  F34  1  0.44103000  0.61470400  0.69144300  1
  F  F35  1  0.05897000  0.61470400  0.19144300  1
  F  F36  1  0.58727300  0.93982000  0.95652700  1
  F  F37  1  0.91272700  0.93982000  0.45652700  1
  F  F38  1  0.41272700  0.06018000  0.04347300  1
  F  F39  1  0.08727300  0.06018000  0.54347300  1
  F  F40  1  0.63735700  0.61856800  0.45381800  1
  F  F41  1  0.86264300  0.61856800  0.95381800  1
  F  F42  1  0.36264300  0.38143200  0.54618200  1
  F  F43  1  0.13735700  0.38143200  0.04618200  1
  F  F44  1  0.52984100  0.44081400  0.62269400  1
  F  F45  1  0.97015900  0.44081400  0.12269400  1
  F  F46  1  0.47015900  0.55918600  0.37730600  1
  F  F47  1  0.02984100  0.55918600  0.87730600  1
  F  F48  1  0.62410100  0.38321500  0.52134500  1
  F  F49  1  0.87589900  0.38321500  0.02134500  1
  F  F50  1  0.37589900  0.61678500  0.47865500  1
  F  F51  1  0.12410100  0.61678500  0.97865500  1
  F  F52  1  0.51819800  0.90600100  0.46156200  1
  F  F53  1  0.98180200  0.90600100  0.96156200  1
  F  F54  1  0.48180200  0.09399900  0.53843800  1
  F  F55  1  0.01819800  0.09399900  0.03843800  1
  F  F56  1  0.60901900  0.88531500  0.60416700  1
  F  F57  1  0.89098100  0.88531500  0.10416700  1
  F  F58  1  0.39098100  0.11468500  0.39583300  1
  F  F59  1  0.10901900  0.11468500  0.89583300  1
  F  F60  1  0.65071000  0.09355100  0.42948400  1
  F  F61  1  0.84929000  0.09355100  0.92948400  1
  F  F62  1  0.34929000  0.90644900  0.57051600  1
  F  F63  1  0.15071000  0.90644900  0.07051600  1
  F  F64  1  0.71440000  0.63615400  0.12834500  1
  F  F65  1  0.78560000  0.63615400  0.62834500  1
  F  F66  1  0.28560000  0.36384600  0.87165500  1
  F  F67  1  0.21440000  0.36384600  0.37165500  1
  F  F68  1  0.33193000  0.45617700  0.15603400  1
  F  F69  1  0.16807000  0.45617700  0.65603400  1
  F  F70  1  0.66807000  0.54382300  0.84396600  1
  F  F71  1  0.83193000  0.54382300  0.34396600  1
  F  F72  1  0.41777700  0.65718900  0.17437600  1
  F  F73  1  0.08222300  0.65718900  0.67437600  1
  F  F74  1  0.58222300  0.34281100  0.82562400  1
  F  F75  1  0.91777700  0.34281100  0.32562400  1
  F  F76  1  0.62743500  0.43777200  0.11383800  1
  F  F77  1  0.87256500  0.43777200  0.61383800  1
  F  F78  1  0.37256500  0.56222800  0.88616200  1
  F  F79  1  0.12743500  0.56222800  0.38616200  1
