# generated using pymatgen
data_K6HgS4
_symmetry_space_group_name_H-M   'P 1'
_cell_length_a   10.10284798
_cell_length_b   10.10284798
_cell_length_c   7.79280700
_cell_angle_alpha   90.00000000
_cell_angle_beta   90.00000000
_cell_angle_gamma   119.99999989
_symmetry_Int_Tables_number   1
_chemical_formula_structural   K6HgS4
_chemical_formula_sum   'K12 Hg2 S8'
_cell_volume   688.83021547
_cell_formula_units_Z   2
loop_
 _symmetry_equiv_pos_site_id
 _symmetry_equiv_pos_as_xyz
  1  'x, y, z'
loop_
 _atom_site_type_symbol
 _atom_site_label
 _atom_site_symmetry_multiplicity
 _atom_site_fract_x
 _atom_site_fract_y
 _atom_site_fract_z
 _atom_site_occupancy
  K  K0  1  0.85137200  0.70274500  0.29160300  1
  K  K1  1  0.53029700  0.06059300  0.62393100  1
  K  K2  1  0.06059300  0.53029700  0.12393100  1
  K  K3  1  0.93940700  0.46970300  0.62393100  1
  K  K4  1  0.53029700  0.46970300  0.62393100  1
  K  K5  1  0.46970300  0.93940700  0.12393100  1
  K  K6  1  0.70274500  0.85137200  0.79160300  1
  K  K7  1  0.29725500  0.14862800  0.29160300  1
  K  K8  1  0.85137200  0.14862800  0.29160300  1
  K  K9  1  0.14862800  0.29725500  0.79160300  1
  K  K10  1  0.46970300  0.53029700  0.12393100  1
  K  K11  1  0.14862800  0.85137200  0.79160300  1
  Hg  Hg12  1  0.66666700  0.33333300  0.00262700  1
  Hg  Hg13  1  0.33333300  0.66666700  0.50262700  1
  S  S14  1  0.18950900  0.37901800  0.39807300  1
  S  S15  1  0.81049100  0.18950900  0.89807300  1
  S  S16  1  0.18950900  0.81049100  0.39807300  1
  S  S17  1  0.81049100  0.62098200  0.89807300  1
  S  S18  1  0.66666700  0.33333300  0.34455100  1
  S  S19  1  0.33333300  0.66666700  0.84455100  1
  S  S20  1  0.37901800  0.18950900  0.89807300  1
  S  S21  1  0.62098200  0.81049100  0.39807300  1
