# generated using pymatgen
data_Na3MoN3
_symmetry_space_group_name_H-M   'P 1'
_cell_length_a   8.87876307
_cell_length_b   8.87876307
_cell_length_c   6.42521981
_cell_angle_alpha   69.00165240
_cell_angle_beta   69.00165240
_cell_angle_gamma   76.34624673
_symmetry_Int_Tables_number   1
_chemical_formula_structural   Na3MoN3
_chemical_formula_sum   'Na12 Mo4 N12'
_cell_volume   438.09496498
_cell_formula_units_Z   4
loop_
 _symmetry_equiv_pos_site_id
 _symmetry_equiv_pos_as_xyz
  1  'x, y, z'
loop_
 _atom_site_type_symbol
 _atom_site_label
 _atom_site_symmetry_multiplicity
 _atom_site_fract_x
 _atom_site_fract_y
 _atom_site_fract_z
 _atom_site_occupancy
  Na  Na0  1  0.72635600  0.29206700  0.02142600  1
  Na  Na1  1  0.29206700  0.72635600  0.52142600  1
  Na  Na2  1  0.63756000  0.60067700  0.57582600  1
  Na  Na3  1  0.60067700  0.63756000  0.07582600  1
  Na  Na4  1  0.39578300  0.35597000  0.80850800  1
  Na  Na5  1  0.35597000  0.39578300  0.30850800  1
  Na  Na6  1  0.00763000  0.52479300  0.03900600  1
  Na  Na7  1  0.52479300  0.00763000  0.53900600  1
  Na  Na8  1  0.90958600  0.85856900  0.62321000  1
  Na  Na9  1  0.85856900  0.90958600  0.12321000  1
  Na  Na10  1  0.12441500  0.14557800  0.11734800  1
  Na  Na11  1  0.14557800  0.12441500  0.61734800  1
  Mo  Mo12  1  0.24067400  0.76220200  0.00367200  1
  Mo  Mo13  1  0.76220200  0.24067400  0.50367200  1
  Mo  Mo14  1  0.00545700  0.49529100  0.57816200  1
  Mo  Mo15  1  0.49529100  0.00545700  0.07816200  1
  N  N16  1  0.38645000  0.59896100  0.90865300  1
  N  N17  1  0.59896100  0.38645000  0.40865300  1
  N  N18  1  0.10301200  0.84019100  0.82373800  1
  N  N19  1  0.84019100  0.10301200  0.32373800  1
  N  N20  1  0.14674000  0.36780400  0.73833900  1
  N  N21  1  0.36780400  0.14674000  0.23833900  1
  N  N22  1  0.83336400  0.57996200  0.78004500  1
  N  N23  1  0.57996200  0.83336400  0.28004500  1
  N  N24  1  0.67595700  0.11249100  0.82618300  1
  N  N25  1  0.11249100  0.67595700  0.32618300  1
  N  N26  1  0.93820300  0.35837500  0.45908300  1
  N  N27  1  0.35837500  0.93820300  0.95908300  1
