# generated using pymatgen
data_KPSe3
_symmetry_space_group_name_H-M   'P 1'
_cell_length_a   14.95111130
_cell_length_b   14.95111130
_cell_length_c   19.27501300
_cell_angle_alpha   90.00000000
_cell_angle_beta   90.00000000
_cell_angle_gamma   119.99999691
_symmetry_Int_Tables_number   1
_chemical_formula_structural   KPSe3
_chemical_formula_sum   'K24 P24 Se72'
_cell_volume   3731.40401015
_cell_formula_units_Z   24
loop_
 _symmetry_equiv_pos_site_id
 _symmetry_equiv_pos_as_xyz
  1  'x, y, z'
loop_
 _atom_site_type_symbol
 _atom_site_label
 _atom_site_symmetry_multiplicity
 _atom_site_fract_x
 _atom_site_fract_y
 _atom_site_fract_z
 _atom_site_occupancy
  K  K0  1  0.07640300  0.55150800  0.54300600  1
  K  K1  1  0.97507300  0.95910000  0.20581200  1
  K  K2  1  0.19288300  0.81706500  0.69953600  1
  K  K3  1  0.69156500  0.28152200  0.69671100  1
  K  K4  1  0.09368700  0.81134500  0.36244800  1
  K  K5  1  0.47510500  0.92359700  0.20967200  1
  K  K6  1  0.44849200  0.52489500  0.87633900  1
  K  K7  1  0.18865500  0.28234200  0.69578100  1
  K  K8  1  0.69621700  0.81819600  0.70223600  1
  K  K9  1  0.04090000  0.01597300  0.53914500  1
  K  K10  1  0.58995700  0.30843500  0.36337800  1
  K  K11  1  0.71765800  0.90631300  0.02911500  1
  K  K12  1  0.98172900  0.52885400  0.87201500  1
  K  K13  1  0.57440500  0.55211700  0.54631600  1
  K  K14  1  0.62418200  0.80711700  0.36620300  1
  K  K15  1  0.47114600  0.45287400  0.20534900  1
  K  K16  1  0.97771100  0.42559500  0.21298300  1
  K  K17  1  0.44788300  0.02228900  0.87964900  1
  K  K18  1  0.18180400  0.87802200  0.03556900  1
  K  K19  1  0.12197800  0.30378300  0.36890300  1
  K  K20  1  0.98402700  0.02492700  0.87247900  1
  K  K21  1  0.18293500  0.37581800  0.03286900  1
  K  K22  1  0.54712600  0.01827100  0.53868200  1
  K  K23  1  0.71847800  0.41004300  0.03004400  1
  P  P24  1  0.76993200  0.63382400  0.34072400  1
  P  P25  1  0.86636400  0.13364900  0.67329900  1
  P  P26  1  0.29778100  0.09166700  0.23262000  1
  P  P27  1  0.79585500  0.20180300  0.89895800  1
  P  P28  1  0.86389200  0.23006800  0.00739100  1
  P  P29  1  0.86635100  0.73271400  0.00663300  1
  P  P30  1  0.36617600  0.13610800  0.67405700  1
  P  P31  1  0.37329200  0.24215500  0.00683500  1
  P  P32  1  0.79981300  0.10312100  0.23227200  1
  P  P33  1  0.90833300  0.20611400  0.56595300  1
  P  P34  1  0.37106400  0.63234700  0.67594200  1
  P  P35  1  0.40117100  0.70244700  0.56796700  1
  P  P36  1  0.36765300  0.73871700  0.00927500  1
  P  P37  1  0.86886300  0.62670800  0.67350200  1
  P  P38  1  0.29755300  0.69872300  0.90130100  1
  P  P39  1  0.79819700  0.59405200  0.23229200  1
  P  P40  1  0.75784500  0.13113700  0.34016900  1
  P  P41  1  0.30330800  0.20018700  0.89893800  1
  P  P42  1  0.79388600  0.70221900  0.89928600  1
  P  P43  1  0.26728600  0.13363600  0.33996600  1
  P  P44  1  0.40594800  0.20414500  0.56562500  1
  P  P45  1  0.89687900  0.69669200  0.56560500  1
  P  P46  1  0.26128300  0.62893600  0.34260900  1
  P  P47  1  0.30127700  0.59882900  0.23463400  1
  Se  Se48  1  0.70577200  0.51525100  0.67765600  1
  Se  Se49  1  0.42419200  0.40111000  0.03248500  1
  Se  Se50  1  0.82055600  0.78753700  0.56286400  1
  Se  Se51  1  0.42742700  0.29843300  0.72942200  1
  Se  Se52  1  0.75520400  0.71116900  0.17795900  1
  Se  Se53  1  0.93970800  0.39100800  0.03675600  1
  Se  Se54  1  0.22109500  0.78411000  0.87391600  1
  Se  Se55  1  0.41385200  0.79113100  0.73162000  1
  Se  Se56  1  0.68364400  0.53903200  0.89537900  1
  Se  Se57  1  0.70156700  0.12899400  0.06275500  1
  Se  Se58  1  0.96155400  0.64520300  0.22988500  1
  Se  Se59  1  0.30411200  0.54075800  0.51122800  1
  Se  Se60  1  0.32468300  0.79286100  0.56263800  1
  Se  Se61  1  0.87100600  0.57257300  0.39608800  1
  Se  Se62  1  0.93127600  0.29363100  0.73206100  1
  Se  Se63  1  0.23664600  0.69588800  0.17789500  1
  Se  Se64  1  0.20886900  0.62272100  0.06495300  1
  Se  Se65  1  0.31240800  0.79215300  0.34383100  1
  Se  Se66  1  0.95596500  0.24479600  0.84462600  1
  Se  Se67  1  0.69951800  0.04352400  0.67776600  1
  Se  Se68  1  0.84539000  0.80112300  0.34336600  1
  Se  Se69  1  0.68364900  0.03844600  0.89655100  1
  Se  Se70  1  0.79652700  0.04727600  0.50889800  1
  Se  Se71  1  0.19085300  0.93212300  0.20728300  1
  Se  Se72  1  0.19887700  0.04426800  0.67670000  1
  Se  Se73  1  0.85538800  0.31635600  0.56204600  1
  Se  Se74  1  0.41989600  0.89731200  0.03708700  1
  Se  Se75  1  0.95056600  0.05545400  0.69974500  1
  Se  Se76  1  0.56301500  0.77890500  0.54058200  1
  Se  Se77  1  0.95272400  0.74925100  0.84223100  1
  Se  Se78  1  0.97691800  0.57580800  0.69915200  1
  Se  Se79  1  0.46508700  0.26266900  0.84279900  1
  Se  Se80  1  0.74127000  0.80914700  0.87394900  1
  Se  Se81  1  0.22608600  0.28446600  0.87044700  1
  Se  Se82  1  0.45130000  0.06029200  0.70342300  1
  Se  Se83  1  0.80947900  0.29422800  0.34432200  1
  Se  Se84  1  0.60899200  0.54870000  0.37009000  1
  Se  Se85  1  0.28883100  0.04403500  0.51129300  1
  Se  Se86  1  0.79758100  0.53491300  0.50946500  1
  Se  Se87  1  0.34400700  0.30048200  0.34443300  1
  Se  Se88  1  0.71553400  0.94162000  0.20378000  1
  Se  Se89  1  0.10488800  0.04943400  0.36641100  1
  Se  Se90  1  0.06787700  0.25873000  0.54061600  1
  Se  Se91  1  0.47974600  0.68759200  0.01049700  1
  Se  Se92  1  0.46817700  0.67531700  0.22930400  1
  Se  Se93  1  0.36235500  0.06872400  0.39872700  1
  Se  Se94  1  0.91425100  0.78565500  0.72990800  1
  Se  Se95  1  0.21246300  0.03302000  0.89619800  1
  Se  Se96  1  0.74481900  0.30890500  0.87097300  1
  Se  Se97  1  0.37727900  0.58614800  0.39828600  1
  Se  Se98  1  0.20713900  0.53182300  0.89597100  1
  Se  Se99  1  0.21589000  0.43698500  0.20724900  1
  Se  Se100  1  0.21434500  0.12859600  0.06324100  1
  Se  Se101  1  0.95573200  0.15461000  0.01003300  1
  Se  Se102  1  0.94454600  0.89511200  0.03307800  1
  Se  Se103  1  0.48474900  0.19052100  0.01098900  1
  Se  Se104  1  0.05838000  0.77391400  0.53711400  1
  Se  Se105  1  0.10268800  0.52258300  0.37042000  1
  Se  Se106  1  0.45924200  0.76335400  0.84456100  1
  Se  Se107  1  0.59889000  0.02308200  0.36581800  1
  Se  Se108  1  0.73733100  0.20241900  0.17613200  1
  Se  Se109  1  0.46096800  0.14461200  0.22871300  1
  Se  Se110  1  0.20784700  0.52025400  0.67716400  1
  Se  Se111  1  0.25074900  0.20347300  0.17556400  1
  Se  Se112  1  0.35479700  0.31635100  0.56321800  1
  Se  Se113  1  0.69109500  0.43591400  0.20430700  1
  Se  Se114  1  0.56408600  0.25518100  0.53764000  1
  Se  Se115  1  0.95647600  0.65599300  0.01110000  1
  Se  Se116  1  0.96698000  0.17944400  0.22953100  1
  Se  Se117  1  0.87140400  0.08574900  0.39657500  1
  Se  Se118  1  0.47741700  0.58010400  0.70375400  1
  Se  Se119  1  0.70636900  0.63764500  0.06539400  1
