# generated using pymatgen
data_CeZr6(PO4)9
_symmetry_space_group_name_H-M   'P 1'
_cell_length_a   8.96255001
_cell_length_b   8.96255001
_cell_length_c   23.18763500
_cell_angle_alpha   90.00000000
_cell_angle_beta   90.00000000
_cell_angle_gamma   120.00000011
_symmetry_Int_Tables_number   1
_chemical_formula_structural   CeZr6(PO4)9
_chemical_formula_sum   'Ce2 Zr12 P18 O72'
_cell_volume   1613.05906874
_cell_formula_units_Z   2
loop_
 _symmetry_equiv_pos_site_id
 _symmetry_equiv_pos_as_xyz
  1  'x, y, z'
loop_
 _atom_site_type_symbol
 _atom_site_label
 _atom_site_symmetry_multiplicity
 _atom_site_fract_x
 _atom_site_fract_y
 _atom_site_fract_z
 _atom_site_occupancy
  Ce  Ce0  1  0.00000000  0.00000000  0.50000000  1
  Ce  Ce1  1  0.00000000  0.00000000  0.00000000  1
  Zr  Zr2  1  0.33333300  0.66666700  0.52842400  1
  Zr  Zr3  1  0.33333300  0.66666700  0.02842400  1
  Zr  Zr4  1  0.66666700  0.33333300  0.18772400  1
  Zr  Zr5  1  0.66666700  0.33333300  0.68772400  1
  Zr  Zr6  1  0.00000000  0.00000000  0.65029400  1
  Zr  Zr7  1  0.00000000  0.00000000  0.84970600  1
  Zr  Zr8  1  0.00000000  0.00000000  0.15029400  1
  Zr  Zr9  1  0.66666700  0.33333300  0.97157600  1
  Zr  Zr10  1  0.33333300  0.66666700  0.81227600  1
  Zr  Zr11  1  0.00000000  0.00000000  0.34970600  1
  Zr  Zr12  1  0.66666700  0.33333300  0.47157600  1
  Zr  Zr13  1  0.33333300  0.66666700  0.31227600  1
  P  P14  1  0.00000000  0.70900800  0.75000000  1
  P  P15  1  0.05336600  0.67717800  0.42029500  1
  P  P16  1  0.32282200  0.37618700  0.42029500  1
  P  P17  1  0.67717800  0.62381300  0.57970500  1
  P  P18  1  0.00000000  0.29099200  0.25000000  1
  P  P19  1  0.94663400  0.62381300  0.07970500  1
  P  P20  1  0.37618700  0.05336600  0.57970500  1
  P  P21  1  0.94663400  0.32282200  0.57970500  1
  P  P22  1  0.29099200  0.00000000  0.25000000  1
  P  P23  1  0.37618700  0.32282200  0.07970500  1
  P  P24  1  0.70900800  0.70900800  0.25000000  1
  P  P25  1  0.67717800  0.05336600  0.07970500  1
  P  P26  1  0.70900800  0.00000000  0.75000000  1
  P  P27  1  0.32282200  0.94663400  0.92029500  1
  P  P28  1  0.62381300  0.67717800  0.92029500  1
  P  P29  1  0.62381300  0.94663400  0.42029500  1
  P  P30  1  0.05336600  0.37618700  0.92029500  1
  P  P31  1  0.29099200  0.29099200  0.75000000  1
  O  O32  1  0.16110300  0.18679000  0.41821400  1
  O  O33  1  0.02568700  0.83889700  0.41821400  1
  O  O34  1  0.51440400  0.63963900  0.57604300  1
  O  O35  1  0.36036100  0.87476600  0.57604300  1
  O  O36  1  0.32682600  0.47274400  0.36561800  1
  O  O37  1  0.15858300  0.69206000  0.76066400  1
  O  O38  1  0.79477800  0.82789700  0.19674000  1
  O  O39  1  0.17210300  0.96688100  0.19674000  1
  O  O40  1  0.47274400  0.14591900  0.63438200  1
  O  O41  1  0.81321000  0.83889700  0.91821400  1
  O  O42  1  0.96688100  0.17210300  0.30326000  1
  O  O43  1  0.45837300  0.29851400  0.02490400  1
  O  O44  1  0.36036100  0.48559600  0.07604300  1
  O  O45  1  0.83889700  0.81321000  0.58178600  1
  O  O46  1  0.63963900  0.12523400  0.42395700  1
  O  O47  1  0.20522200  0.17210300  0.80326000  1
  O  O48  1  0.15986000  0.45837300  0.97509600  1
  O  O49  1  0.45837300  0.15986000  0.52490400  1
  O  O50  1  0.84141700  0.53347800  0.73933600  1
  O  O51  1  0.69206000  0.53347800  0.23933600  1
  O  O52  1  0.18679000  0.16110300  0.08178600  1
  O  O53  1  0.53347800  0.69206000  0.26066400  1
  O  O54  1  0.30794000  0.84141700  0.26066400  1
  O  O55  1  0.70148600  0.54162700  0.52490400  1
  O  O56  1  0.84014000  0.29851400  0.52490400  1
  O  O57  1  0.85408100  0.32682600  0.63438200  1
  O  O58  1  0.63963900  0.51440400  0.92395700  1
  O  O59  1  0.97431300  0.81321000  0.08178600  1
  O  O60  1  0.03311900  0.20522200  0.19674000  1
  O  O61  1  0.14591900  0.47274400  0.86561800  1
  O  O62  1  0.84014000  0.54162700  0.02490400  1
  O  O63  1  0.52725600  0.67317400  0.86561800  1
  O  O64  1  0.54162700  0.84014000  0.47509600  1
  O  O65  1  0.52725600  0.85408100  0.36561800  1
  O  O66  1  0.79477800  0.96688100  0.69674000  1
  O  O67  1  0.29851400  0.45837300  0.47509600  1
  O  O68  1  0.18679000  0.02568700  0.58178600  1
  O  O69  1  0.82789700  0.03311900  0.80326000  1
  O  O70  1  0.84141700  0.30794000  0.23933600  1
  O  O71  1  0.46652200  0.15858300  0.23933600  1
  O  O72  1  0.70148600  0.15986000  0.02490400  1
  O  O73  1  0.20522200  0.03311900  0.30326000  1
  O  O74  1  0.97431300  0.16110300  0.58178600  1
  O  O75  1  0.82789700  0.79477800  0.30326000  1
  O  O76  1  0.46652200  0.30794000  0.73933600  1
  O  O77  1  0.17210300  0.20522200  0.69674000  1
  O  O78  1  0.85408100  0.52725600  0.13438200  1
  O  O79  1  0.81321000  0.97431300  0.41821400  1
  O  O80  1  0.53347800  0.84141700  0.76066400  1
  O  O81  1  0.03311900  0.82789700  0.69674000  1
  O  O82  1  0.30794000  0.46652200  0.76066400  1
  O  O83  1  0.67317400  0.52725600  0.63438200  1
  O  O84  1  0.15986000  0.70148600  0.47509600  1
  O  O85  1  0.32682600  0.85408100  0.86561800  1
  O  O86  1  0.48559600  0.12523400  0.92395700  1
  O  O87  1  0.12523400  0.63963900  0.07604300  1
  O  O88  1  0.12523400  0.48559600  0.57604300  1
  O  O89  1  0.87476600  0.51440400  0.42395700  1
  O  O90  1  0.96688100  0.79477800  0.80326000  1
  O  O91  1  0.48559600  0.36036100  0.42395700  1
  O  O92  1  0.51440400  0.87476600  0.07604300  1
  O  O93  1  0.67317400  0.14591900  0.13438200  1
  O  O94  1  0.54162700  0.70148600  0.97509600  1
  O  O95  1  0.14591900  0.67317400  0.36561800  1
  O  O96  1  0.15858300  0.46652200  0.26066400  1
  O  O97  1  0.47274400  0.32682600  0.13438200  1
  O  O98  1  0.16110300  0.97431300  0.91821400  1
  O  O99  1  0.29851400  0.84014000  0.97509600  1
  O  O100  1  0.83889700  0.02568700  0.08178600  1
  O  O101  1  0.69206000  0.15858300  0.73933600  1
  O  O102  1  0.87476600  0.36036100  0.92395700  1
  O  O103  1  0.02568700  0.18679000  0.91821400  1
