# generated using pymatgen
data_Na5TiP2O9F
_symmetry_space_group_name_H-M   'P 1'
_cell_length_a   11.13887000
_cell_length_b   11.87026800
_cell_length_c   13.83084800
_cell_angle_alpha   90.00000000
_cell_angle_beta   90.00000000
_cell_angle_gamma   90.00000000
_symmetry_Int_Tables_number   1
_chemical_formula_structural   Na5TiP2O9F
_chemical_formula_sum   'Na40 Ti8 P16 O72 F8'
_cell_volume   1828.73370010
_cell_formula_units_Z   8
loop_
 _symmetry_equiv_pos_site_id
 _symmetry_equiv_pos_as_xyz
  1  'x, y, z'
loop_
 _atom_site_type_symbol
 _atom_site_label
 _atom_site_symmetry_multiplicity
 _atom_site_fract_x
 _atom_site_fract_y
 _atom_site_fract_z
 _atom_site_occupancy
  Na  Na0  1  0.74758300  0.33824500  0.75591700  1
  Na  Na1  1  0.25241700  0.16175500  0.25591700  1
  Na  Na2  1  0.24170700  0.66754400  0.00216400  1
  Na  Na3  1  0.24758300  0.66175500  0.74408300  1
  Na  Na4  1  0.51246800  0.24976400  0.87483000  1
  Na  Na5  1  0.75829300  0.33245600  0.99783600  1
  Na  Na6  1  0.50000000  0.00000000  0.00000000  1
  Na  Na7  1  0.24719100  0.42263000  0.12457400  1
  Na  Na8  1  0.24170700  0.16754400  0.49783600  1
  Na  Na9  1  0.98753200  0.24976400  0.37483000  1
  Na  Na10  1  0.48753200  0.25023600  0.37483000  1
  Na  Na11  1  0.75241700  0.33824500  0.25591700  1
  Na  Na12  1  0.50000000  0.50000000  0.00000000  1
  Na  Na13  1  0.25829300  0.66754400  0.50216400  1
  Na  Na14  1  0.48753200  0.75023600  0.12517000  1
  Na  Na15  1  0.75280900  0.07737000  0.62457400  1
  Na  Na16  1  0.74719100  0.57737000  0.37542600  1
  Na  Na17  1  0.01246800  0.75023600  0.62517000  1
  Na  Na18  1  0.74758300  0.83824500  0.74408300  1
  Na  Na19  1  0.74170700  0.33245600  0.49783600  1
  Na  Na20  1  0.00000000  0.00000000  0.50000000  1
  Na  Na21  1  0.74170700  0.83245600  0.00216400  1
  Na  Na22  1  0.24758300  0.16175500  0.75591700  1
  Na  Na23  1  0.74719100  0.07737000  0.12457400  1
  Na  Na24  1  0.25280900  0.42263000  0.62457400  1
  Na  Na25  1  0.75280900  0.57737000  0.87542600  1
  Na  Na26  1  0.01246800  0.25023600  0.87483000  1
  Na  Na27  1  0.51246800  0.74976400  0.62517000  1
  Na  Na28  1  0.00000000  0.50000000  0.00000000  1
  Na  Na29  1  0.00000000  0.50000000  0.50000000  1
  Na  Na30  1  0.50000000  0.00000000  0.50000000  1
  Na  Na31  1  0.50000000  0.50000000  0.50000000  1
  Na  Na32  1  0.25241700  0.66175500  0.24408300  1
  Na  Na33  1  0.75241700  0.83824500  0.24408300  1
  Na  Na34  1  0.25280900  0.92263000  0.87542600  1
  Na  Na35  1  0.25829300  0.16754400  0.99783600  1
  Na  Na36  1  0.00000000  0.00000000  0.00000000  1
  Na  Na37  1  0.24719100  0.92263000  0.37542600  1
  Na  Na38  1  0.98753200  0.74976400  0.12517000  1
  Na  Na39  1  0.75829300  0.83245600  0.50216400  1
  Ti  Ti40  1  0.48681200  0.00254800  0.26426100  1
  Ti  Ti41  1  0.51318800  0.49745200  0.76426100  1
  Ti  Ti42  1  0.48681200  0.50254800  0.23573900  1
  Ti  Ti43  1  0.98681200  0.99745200  0.23573900  1
  Ti  Ti44  1  0.01318800  0.50254800  0.73573900  1
  Ti  Ti45  1  0.98681200  0.49745200  0.26426100  1
  Ti  Ti46  1  0.01318800  0.00254800  0.76426100  1
  Ti  Ti47  1  0.51318800  0.99745200  0.73573900  1
  P  P48  1  0.51447500  0.74459100  0.37069000  1
  P  P49  1  0.98552500  0.74459100  0.87069000  1
  P  P50  1  0.01447500  0.75540900  0.37069000  1
  P  P51  1  0.24893800  0.42265400  0.87311500  1
  P  P52  1  0.48552500  0.25540900  0.62931000  1
  P  P53  1  0.74893800  0.07734600  0.87311500  1
  P  P54  1  0.74893800  0.57734600  0.62688500  1
  P  P55  1  0.25106200  0.42265400  0.37311500  1
  P  P56  1  0.98552500  0.24459100  0.62931000  1
  P  P57  1  0.51447500  0.24459100  0.12931000  1
  P  P58  1  0.75106200  0.07734600  0.37311500  1
  P  P59  1  0.01447500  0.25540900  0.12931000  1
  P  P60  1  0.24893800  0.92265400  0.62688500  1
  P  P61  1  0.25106200  0.92265400  0.12688500  1
  P  P62  1  0.75106200  0.57734600  0.12688500  1
  P  P63  1  0.48552500  0.75540900  0.87069000  1
  O  O64  1  0.95872200  0.63529200  0.35002800  1
  O  O65  1  0.96319900  0.79872000  0.46673200  1
  O  O66  1  0.77001000  0.20484000  0.37250800  1
  O  O67  1  0.38663700  0.94817700  0.64279400  1
  O  O68  1  0.84762100  0.25258900  0.62893500  1
  O  O69  1  0.88663700  0.05182300  0.85720600  1
  O  O70  1  0.03680100  0.70128000  0.96673200  1
  O  O71  1  0.15237900  0.24741100  0.12893500  1
  O  O72  1  0.77001000  0.70484000  0.12749200  1
  O  O73  1  0.31794400  0.97780300  0.21566500  1
  O  O74  1  0.96319900  0.29872000  0.03326800  1
  O  O75  1  0.79176100  0.02172300  0.46724200  1
  O  O76  1  0.61336300  0.05182300  0.35720600  1
  O  O77  1  0.68205600  0.52219700  0.71566500  1
  O  O78  1  0.72999000  0.70484000  0.62749200  1
  O  O79  1  0.54127800  0.63529200  0.85002800  1
  O  O80  1  0.95872200  0.13529200  0.14997200  1
  O  O81  1  0.52719200  0.33432800  0.71543000  1
  O  O82  1  0.31794400  0.47780300  0.28433500  1
  O  O83  1  0.18205600  0.47780300  0.78433500  1
  O  O84  1  0.97280800  0.83432800  0.28457000  1
  O  O85  1  0.20823900  0.47827700  0.96724200  1
  O  O86  1  0.52719200  0.83432800  0.78457000  1
  O  O87  1  0.53680100  0.29872000  0.53326800  1
  O  O88  1  0.11336300  0.44817700  0.35720600  1
  O  O89  1  0.20823900  0.97827700  0.53275800  1
  O  O90  1  0.57046400  0.44298300  0.32647500  1
  O  O91  1  0.57046400  0.94298300  0.17352500  1
  O  O92  1  0.42953600  0.05701700  0.82647500  1
  O  O93  1  0.38663700  0.44817700  0.85720600  1
  O  O94  1  0.70823900  0.02172300  0.96724200  1
  O  O95  1  0.45872200  0.36470800  0.14997200  1
  O  O96  1  0.04127800  0.36470800  0.64997200  1
  O  O97  1  0.02719200  0.66567200  0.78457000  1
  O  O98  1  0.61336300  0.55182300  0.14279400  1
  O  O99  1  0.45872200  0.86470800  0.35002800  1
  O  O100  1  0.47280800  0.66567200  0.28457000  1
  O  O101  1  0.02719200  0.16567200  0.71543000  1
  O  O102  1  0.18205600  0.97780300  0.71566500  1
  O  O103  1  0.04127800  0.86470800  0.85002800  1
  O  O104  1  0.47280800  0.16567200  0.21543000  1
  O  O105  1  0.29176100  0.97827700  0.03275800  1
  O  O106  1  0.27001000  0.29516000  0.37250800  1
  O  O107  1  0.72999000  0.20484000  0.87250800  1
  O  O108  1  0.54127800  0.13529200  0.64997200  1
  O  O109  1  0.15237900  0.74741100  0.37106500  1
  O  O110  1  0.65237900  0.25258900  0.12893500  1
  O  O111  1  0.81794400  0.02219700  0.28433500  1
  O  O112  1  0.68205600  0.02219700  0.78433500  1
  O  O113  1  0.34762100  0.24741100  0.62893500  1
  O  O114  1  0.03680100  0.20128000  0.53326800  1
  O  O115  1  0.46319900  0.20128000  0.03326800  1
  O  O116  1  0.65237900  0.75258900  0.37106500  1
  O  O117  1  0.84762100  0.75258900  0.87106500  1
  O  O118  1  0.34762100  0.74741100  0.87106500  1
  O  O119  1  0.22999000  0.79516000  0.62749200  1
  O  O120  1  0.46319900  0.70128000  0.46673200  1
  O  O121  1  0.29176100  0.47827700  0.46724200  1
  O  O122  1  0.97280800  0.33432800  0.21543000  1
  O  O123  1  0.88663700  0.55182300  0.64279400  1
  O  O124  1  0.53680100  0.79872000  0.96673200  1
  O  O125  1  0.22999000  0.29516000  0.87250800  1
  O  O126  1  0.92953600  0.94298300  0.67352500  1
  O  O127  1  0.81794400  0.52219700  0.21566500  1
  O  O128  1  0.11336300  0.94817700  0.14279400  1
  O  O129  1  0.07046400  0.05701700  0.32647500  1
  O  O130  1  0.42953600  0.55701700  0.67352500  1
  O  O131  1  0.70823900  0.52172300  0.53275800  1
  O  O132  1  0.07046400  0.55701700  0.17352500  1
  O  O133  1  0.92953600  0.44298300  0.82647500  1
  O  O134  1  0.79176100  0.52172300  0.03275800  1
  O  O135  1  0.27001000  0.79516000  0.12749200  1
  F  F136  1  0.87744100  0.42117900  0.38515400  1
  F  F137  1  0.62255900  0.92117900  0.61484600  1
  F  F138  1  0.62255900  0.42117900  0.88515400  1
  F  F139  1  0.37744100  0.57882100  0.11484600  1
  F  F140  1  0.12255900  0.57882100  0.61484600  1
  F  F141  1  0.87744100  0.92117900  0.11484600  1
  F  F142  1  0.12255900  0.07882100  0.88515400  1
  F  F143  1  0.37744100  0.07882100  0.38515400  1
