# generated using pymatgen
data_KLa(PS3)2
_symmetry_space_group_name_H-M   'P 1'
_cell_length_a   7.66184100
_cell_length_b   11.48706700
_cell_length_c   12.18850575
_cell_angle_alpha   70.31961396
_cell_angle_beta   90.00000000
_cell_angle_gamma   90.00000000
_symmetry_Int_Tables_number   1
_chemical_formula_structural   KLa(PS3)2
_chemical_formula_sum   'K4 La4 P8 S24'
_cell_volume   1010.07284687
_cell_formula_units_Z   4
loop_
 _symmetry_equiv_pos_site_id
 _symmetry_equiv_pos_as_xyz
  1  'x, y, z'
loop_
 _atom_site_type_symbol
 _atom_site_label
 _atom_site_symmetry_multiplicity
 _atom_site_fract_x
 _atom_site_fract_y
 _atom_site_fract_z
 _atom_site_occupancy
  K  K0  1  0.09420700  0.37460900  0.86949300  1
  K  K1  1  0.59420700  0.12539100  0.13050700  1
  K  K2  1  0.90579300  0.62539100  0.13050700  1
  K  K3  1  0.40579300  0.87460900  0.86949300  1
  La  La4  1  0.60710800  0.59717200  0.64842000  1
  La  La5  1  0.89289200  0.09717200  0.64842000  1
  La  La6  1  0.10710800  0.90282800  0.35158000  1
  La  La7  1  0.39289200  0.40282800  0.35158000  1
  P  P8  1  0.39984600  0.25371200  0.67069200  1
  P  P9  1  0.10015400  0.75371200  0.67069200  1
  P  P10  1  0.88178800  0.76674900  0.78885100  1
  P  P11  1  0.89984600  0.24628800  0.32930800  1
  P  P12  1  0.11821200  0.23325100  0.21114900  1
  P  P13  1  0.38178800  0.73325100  0.21114900  1
  P  P14  1  0.60015400  0.74628800  0.32930800  1
  P  P15  1  0.61821200  0.26674900  0.78885100  1
  S  S16  1  0.19501400  0.63843800  0.32544500  1
  S  S17  1  0.71352600  0.35517800  0.22680500  1
  S  S18  1  0.28647400  0.64482200  0.77319500  1
  S  S19  1  0.52590200  0.36675500  0.88333400  1
  S  S20  1  0.51736100  0.18395400  0.55469900  1
  S  S21  1  0.01736100  0.31604600  0.44530100  1
  S  S22  1  0.20381000  0.40839200  0.13155000  1
  S  S23  1  0.78647400  0.85517800  0.22680500  1
  S  S24  1  0.81808700  0.06894000  0.41141400  1
  S  S25  1  0.68191300  0.56894000  0.41141400  1
  S  S26  1  0.97409800  0.86675500  0.88333400  1
  S  S27  1  0.98263900  0.68395400  0.55469900  1
  S  S28  1  0.30498600  0.13843800  0.32544500  1
  S  S29  1  0.21352600  0.14482200  0.77319500  1
  S  S30  1  0.69501400  0.86156200  0.67455500  1
  S  S31  1  0.48263900  0.81604600  0.44530100  1
  S  S32  1  0.18191300  0.93106000  0.58858600  1
  S  S33  1  0.79619000  0.59160800  0.86845000  1
  S  S34  1  0.80498600  0.36156200  0.67455500  1
  S  S35  1  0.70381000  0.09160800  0.86845000  1
  S  S36  1  0.02590200  0.13324500  0.11666600  1
  S  S37  1  0.29619000  0.90839200  0.13155000  1
  S  S38  1  0.47409800  0.63324500  0.11666600  1
  S  S39  1  0.31808700  0.43106000  0.58858600  1
