# generated using pymatgen
data_CuP4Se4I
_symmetry_space_group_name_H-M   'P 1'
_cell_length_a   9.83523970
_cell_length_b   9.83523970
_cell_length_c   12.60900500
_cell_angle_alpha   90.00000000
_cell_angle_beta   90.00000000
_cell_angle_gamma   98.75043239
_symmetry_Int_Tables_number   1
_chemical_formula_structural   CuP4Se4I
_chemical_formula_sum   'Cu4 P16 Se16 I4'
_cell_volume   1205.49672299
_cell_formula_units_Z   4
loop_
 _symmetry_equiv_pos_site_id
 _symmetry_equiv_pos_as_xyz
  1  'x, y, z'
loop_
 _atom_site_type_symbol
 _atom_site_label
 _atom_site_symmetry_multiplicity
 _atom_site_fract_x
 _atom_site_fract_y
 _atom_site_fract_z
 _atom_site_occupancy
  Cu  Cu0  1  0.09914700  0.90085300  0.50000000  1
  Cu  Cu1  1  0.40085300  0.59914700  0.00000000  1
  Cu  Cu2  1  0.59914700  0.40085300  0.00000000  1
  Cu  Cu3  1  0.90085300  0.09914700  0.50000000  1
  P  P4  1  0.72148900  0.35604900  0.14537300  1
  P  P5  1  0.22148900  0.85604900  0.35462700  1
  P  P6  1  0.85604900  0.22148900  0.35462700  1
  P  P7  1  0.25397100  0.03590300  0.24505800  1
  P  P8  1  0.14395100  0.77851100  0.64537300  1
  P  P9  1  0.96409700  0.74602900  0.75494200  1
  P  P10  1  0.27851100  0.64395100  0.85462700  1
  P  P11  1  0.64395100  0.27851100  0.85462700  1
  P  P12  1  0.74602900  0.96409700  0.75494200  1
  P  P13  1  0.24602900  0.46409700  0.74505800  1
  P  P14  1  0.35604900  0.72148900  0.14537300  1
  P  P15  1  0.46409700  0.24602900  0.74505800  1
  P  P16  1  0.75397100  0.53590300  0.25494200  1
  P  P17  1  0.03590300  0.25397100  0.24505800  1
  P  P18  1  0.53590200  0.75397100  0.25494200  1
  P  P19  1  0.77851100  0.14395100  0.64537300  1
  Se  Se20  1  0.33339200  0.83339200  0.75000000  1
  Se  Se21  1  0.16660800  0.66660800  0.25000000  1
  Se  Se22  1  0.47028800  0.47028800  0.69113100  1
  Se  Se23  1  0.05381400  0.64801600  0.90008200  1
  Se  Se24  1  0.64801600  0.05381400  0.90008200  1
  Se  Se25  1  0.52971200  0.52971200  0.30886900  1
  Se  Se26  1  0.83339200  0.33339200  0.75000000  1
  Se  Se27  1  0.66660800  0.16660800  0.25000000  1
  Se  Se28  1  0.97028800  0.97028800  0.80886900  1
  Se  Se29  1  0.85198400  0.44618600  0.40008200  1
  Se  Se30  1  0.35198400  0.94618600  0.09991800  1
  Se  Se31  1  0.55381400  0.14801600  0.59991800  1
  Se  Se32  1  0.02971200  0.02971200  0.19113100  1
  Se  Se33  1  0.94618600  0.35198400  0.09991800  1
  Se  Se34  1  0.14801600  0.55381400  0.59991800  1
  Se  Se35  1  0.44618600  0.85198400  0.40008200  1
  I  I36  1  0.82984400  0.82984400  0.47590900  1
  I  I37  1  0.17015600  0.17015600  0.52409100  1
  I  I38  1  0.32984400  0.32984400  0.02409100  1
  I  I39  1  0.67015600  0.67015600  0.97590900  1
