# generated using pymatgen
data_Cs2NaVF6
_symmetry_space_group_name_H-M   'P 1'
_cell_length_a   11.06308821
_cell_length_b   11.06308839
_cell_length_c   11.06308824
_cell_angle_alpha   33.48535604
_cell_angle_beta   33.48535692
_cell_angle_gamma   33.48535471
_symmetry_Int_Tables_number   1
_chemical_formula_structural   Cs2NaVF6
_chemical_formula_sum   'Cs4 Na2 V2 F12'
_cell_volume   367.08295659
_cell_formula_units_Z   2
loop_
 _symmetry_equiv_pos_site_id
 _symmetry_equiv_pos_as_xyz
  1  'x, y, z'
loop_
 _atom_site_type_symbol
 _atom_site_label
 _atom_site_symmetry_multiplicity
 _atom_site_fract_x
 _atom_site_fract_y
 _atom_site_fract_z
 _atom_site_occupancy
  Cs  Cs0  1  0.71761700  0.71761700  0.71761700  1
  Cs  Cs1  1  0.28238300  0.28238300  0.28238300  1
  Cs  Cs2  1  0.12800000  0.12800000  0.12800000  1
  Cs  Cs3  1  0.87200000  0.87200000  0.87200000  1
  Na  Na4  1  0.59707000  0.59707000  0.59707000  1
  Na  Na5  1  0.40293000  0.40293000  0.40293000  1
  V  V6  1  0.00000000  0.00000000  0.00000000  1
  V  V7  1  0.50000000  0.50000000  0.50000000  1
  F  F8  1  0.18495100  0.73864800  0.18495100  1
  F  F9  1  0.60432800  0.60432800  0.17556300  1
  F  F10  1  0.26135200  0.81504900  0.81504900  1
  F  F11  1  0.17556300  0.60432800  0.60432800  1
  F  F12  1  0.81504900  0.26135200  0.81504900  1
  F  F13  1  0.60432800  0.17556300  0.60432800  1
  F  F14  1  0.73864800  0.18495100  0.18495100  1
  F  F15  1  0.18495100  0.18495100  0.73864800  1
  F  F16  1  0.82443700  0.39567200  0.39567200  1
  F  F17  1  0.81504900  0.81504900  0.26135200  1
  F  F18  1  0.39567200  0.39567200  0.82443700  1
  F  F19  1  0.39567200  0.82443700  0.39567200  1
