# generated using pymatgen
data_Ba5Li2(WO5)3
_symmetry_space_group_name_H-M   'P 1'
_cell_length_a   5.84644311
_cell_length_b   5.84644311
_cell_length_c   24.33998800
_cell_angle_alpha   90.00000000
_cell_angle_beta   90.00000000
_cell_angle_gamma   119.99998995
_symmetry_Int_Tables_number   1
_chemical_formula_structural   Ba5Li2(WO5)3
_chemical_formula_sum   'Ba10 Li4 W6 O30'
_cell_volume   720.50084055
_cell_formula_units_Z   2
loop_
 _symmetry_equiv_pos_site_id
 _symmetry_equiv_pos_as_xyz
  1  'x, y, z'
loop_
 _atom_site_type_symbol
 _atom_site_label
 _atom_site_symmetry_multiplicity
 _atom_site_fract_x
 _atom_site_fract_y
 _atom_site_fract_z
 _atom_site_occupancy
  Ba  Ba0  1  0.00000000  0.00000000  0.14973400  1
  Ba  Ba1  1  0.00000000  0.00000000  0.84987700  1
  Ba  Ba2  1  0.66666700  0.33333300  0.95771100  1
  Ba  Ba3  1  0.66666700  0.33333300  0.55302600  1
  Ba  Ba4  1  0.00000000  0.00000000  0.64973400  1
  Ba  Ba5  1  0.33333300  0.66666700  0.05302600  1
  Ba  Ba6  1  0.00000000  0.00000000  0.34987700  1
  Ba  Ba7  1  0.66666700  0.33333300  0.24238200  1
  Ba  Ba8  1  0.33333300  0.66666700  0.45771100  1
  Ba  Ba9  1  0.33333300  0.66666700  0.74238200  1
  Li  Li10  1  0.66666700  0.33333300  0.68120800  1
  Li  Li11  1  0.33333300  0.66666700  0.18120800  1
  Li  Li12  1  0.00000000  0.00000000  0.00921100  1
  Li  Li13  1  0.00000000  0.00000000  0.50921100  1
  W  W14  1  0.33333300  0.66666700  0.90241200  1
  W  W15  1  0.66666700  0.33333300  0.79910400  1
  W  W16  1  0.33333300  0.66666700  0.29910400  1
  W  W17  1  0.66666700  0.33333300  0.40241200  1
  W  W18  1  0.33333300  0.66666700  0.59928200  1
  W  W19  1  0.66666700  0.33333300  0.09928200  1
  O  O20  1  0.35170600  0.17585300  0.05281800  1
  O  O21  1  0.17683100  0.82316900  0.94283700  1
  O  O22  1  0.50017800  0.00035600  0.35088300  1
  O  O23  1  0.82414700  0.64829400  0.05281800  1
  O  O24  1  0.49066500  0.98133000  0.64681600  1
  O  O25  1  0.64633700  0.82316900  0.94283700  1
  O  O26  1  0.17736500  0.35472900  0.25866400  1
  O  O27  1  0.35472900  0.17736500  0.75866400  1
  O  O28  1  0.82263500  0.64527100  0.75866400  1
  O  O29  1  0.17736500  0.82263500  0.25866400  1
  O  O30  1  0.00035600  0.50017800  0.85088300  1
  O  O31  1  0.82316900  0.17683100  0.44283700  1
  O  O32  1  0.35366300  0.17683100  0.44283700  1
  O  O33  1  0.50017800  0.49982200  0.35088300  1
  O  O34  1  0.99964400  0.49982200  0.35088300  1
  O  O35  1  0.49982200  0.50017800  0.85088300  1
  O  O36  1  0.17683100  0.35366300  0.94283700  1
  O  O37  1  0.01867000  0.50933500  0.64681600  1
  O  O38  1  0.17585300  0.35170600  0.55281800  1
  O  O39  1  0.82414700  0.17585300  0.05281800  1
  O  O40  1  0.49066500  0.50933500  0.64681600  1
  O  O41  1  0.64829400  0.82414700  0.55281800  1
  O  O42  1  0.98133000  0.49066500  0.14681600  1
  O  O43  1  0.82263500  0.17736500  0.75866400  1
  O  O44  1  0.50933500  0.49066500  0.14681600  1
  O  O45  1  0.50933500  0.01867000  0.14681600  1
  O  O46  1  0.49982200  0.99964400  0.85088300  1
  O  O47  1  0.64527100  0.82263500  0.25866400  1
  O  O48  1  0.82316900  0.64633700  0.44283700  1
  O  O49  1  0.17585300  0.82414700  0.55281800  1
