# generated using pymatgen
data_K2NbCl6
_symmetry_space_group_name_H-M   'P 1'
_cell_length_a   7.06261100
_cell_length_b   7.06261100
_cell_length_c   10.61161800
_cell_angle_alpha   90.00000000
_cell_angle_beta   90.00000000
_cell_angle_gamma   90.00000000
_symmetry_Int_Tables_number   1
_chemical_formula_structural   K2NbCl6
_chemical_formula_sum   'K4 Nb2 Cl12'
_cell_volume   529.31253720
_cell_formula_units_Z   2
loop_
 _symmetry_equiv_pos_site_id
 _symmetry_equiv_pos_as_xyz
  1  'x, y, z'
loop_
 _atom_site_type_symbol
 _atom_site_label
 _atom_site_symmetry_multiplicity
 _atom_site_fract_x
 _atom_site_fract_y
 _atom_site_fract_z
 _atom_site_occupancy
  K  K0  1  0.50000000  0.00000000  0.75000000  1
  K  K1  1  0.00000000  0.50000000  0.75000000  1
  K  K2  1  0.50000000  0.00000000  0.25000000  1
  K  K3  1  0.00000000  0.50000000  0.25000000  1
  Nb  Nb4  1  0.00000000  0.00000000  0.00000000  1
  Nb  Nb5  1  0.50000000  0.50000000  0.50000000  1
  Cl  Cl6  1  0.50000000  0.50000000  0.73203900  1
  Cl  Cl7  1  0.00000000  0.00000000  0.76796100  1
  Cl  Cl8  1  0.69559300  0.21731200  0.50000000  1
  Cl  Cl9  1  0.50000000  0.50000000  0.26796100  1
  Cl  Cl10  1  0.80440700  0.71731200  0.00000000  1
  Cl  Cl11  1  0.19559300  0.28268800  0.00000000  1
  Cl  Cl12  1  0.71731200  0.19559300  0.00000000  1
  Cl  Cl13  1  0.21731200  0.30440700  0.50000000  1
  Cl  Cl14  1  0.28268800  0.80440700  0.00000000  1
  Cl  Cl15  1  0.30440700  0.78268800  0.50000000  1
  Cl  Cl16  1  0.78268800  0.69559300  0.50000000  1
  Cl  Cl17  1  0.00000000  0.00000000  0.23203900  1
