# generated using pymatgen
data_VIr
_symmetry_space_group_name_H-M   'P 1'
_cell_length_a   4.46341358
_cell_length_b   4.46341358
_cell_length_c   2.82268700
_cell_angle_alpha   90.00000000
_cell_angle_beta   90.00000000
_cell_angle_gamma   98.69654106
_symmetry_Int_Tables_number   1
_chemical_formula_structural   VIr
_chemical_formula_sum   'V2 Ir2'
_cell_volume   55.58722362
_cell_formula_units_Z   2
loop_
 _symmetry_equiv_pos_site_id
 _symmetry_equiv_pos_as_xyz
  1  'x, y, z'
loop_
 _atom_site_type_symbol
 _atom_site_label
 _atom_site_symmetry_multiplicity
 _atom_site_fract_x
 _atom_site_fract_y
 _atom_site_fract_z
 _atom_site_occupancy
  V  V0  1  0.29575700  0.29575700  0.00000000  1
  V  V1  1  0.70424300  0.70424300  0.00000000  1
  Ir  Ir2  1  0.21641200  0.78358800  0.50000000  1
  Ir  Ir3  1  0.78358800  0.21641200  0.50000000  1
