# generated using pymatgen
data_CsSb
_symmetry_space_group_name_H-M   'P 1'
_cell_length_a   7.55911500
_cell_length_b   7.78656700
_cell_length_c   13.49537600
_cell_angle_alpha   90.00000000
_cell_angle_beta   90.00000000
_cell_angle_gamma   90.00000000
_symmetry_Int_Tables_number   1
_chemical_formula_structural   CsSb
_chemical_formula_sum   'Cs8 Sb8'
_cell_volume   794.33183143
_cell_formula_units_Z   8
loop_
 _symmetry_equiv_pos_site_id
 _symmetry_equiv_pos_as_xyz
  1  'x, y, z'
loop_
 _atom_site_type_symbol
 _atom_site_label
 _atom_site_symmetry_multiplicity
 _atom_site_fract_x
 _atom_site_fract_y
 _atom_site_fract_z
 _atom_site_occupancy
  Cs  Cs0  1  0.59283500  0.89456700  0.58342000  1
  Cs  Cs1  1  0.82594300  0.33646500  0.71681900  1
  Cs  Cs2  1  0.40716500  0.39456700  0.91658000  1
  Cs  Cs3  1  0.32594300  0.16353500  0.28318100  1
  Cs  Cs4  1  0.09283500  0.60543300  0.41658000  1
  Cs  Cs5  1  0.90716500  0.10543300  0.08342000  1
  Cs  Cs6  1  0.17405700  0.83646500  0.78318100  1
  Cs  Cs7  1  0.67405700  0.66353500  0.21681900  1
  Sb  Sb8  1  0.58925200  0.43401900  0.46949800  1
  Sb  Sb9  1  0.08925200  0.06598100  0.53050200  1
  Sb  Sb10  1  0.67598900  0.82403700  0.88701200  1
  Sb  Sb11  1  0.41074800  0.93401900  0.03050200  1
  Sb  Sb12  1  0.32401100  0.32403700  0.61298800  1
  Sb  Sb13  1  0.82401100  0.17596300  0.38701200  1
  Sb  Sb14  1  0.91074800  0.56598100  0.96949800  1
  Sb  Sb15  1  0.17598900  0.67596300  0.11298800  1
