# generated using pymatgen
data_Ti6Tl5AgSe27
_symmetry_space_group_name_H-M   'P 1'
_cell_length_a   13.40680773
_cell_length_b   13.40680773
_cell_length_c   13.99532300
_cell_angle_alpha   90.00000000
_cell_angle_beta   90.00000000
_cell_angle_gamma   119.99999867
_symmetry_Int_Tables_number   1
_chemical_formula_structural   Ti6Tl5AgSe27
_chemical_formula_sum   'Ti12 Tl10 Ag2 Se54'
_cell_volume   2178.53391739
_cell_formula_units_Z   2
loop_
 _symmetry_equiv_pos_site_id
 _symmetry_equiv_pos_as_xyz
  1  'x, y, z'
loop_
 _atom_site_type_symbol
 _atom_site_label
 _atom_site_symmetry_multiplicity
 _atom_site_fract_x
 _atom_site_fract_y
 _atom_site_fract_z
 _atom_site_occupancy
  Ti  Ti0  1  0.98450400  0.33446200  0.89609200  1
  Ti  Ti1  1  0.67318600  0.66085500  0.63625600  1
  Ti  Ti2  1  0.34995900  0.01549600  0.89609200  1
  Ti  Ti3  1  0.33914500  0.01233100  0.63625600  1
  Ti  Ti4  1  0.32681400  0.98766900  0.13625600  1
  Ti  Ti5  1  0.66553800  0.65004100  0.89609200  1
  Ti  Ti6  1  0.01549600  0.34995900  0.39609200  1
  Ti  Ti7  1  0.01233100  0.33914500  0.13625600  1
  Ti  Ti8  1  0.98766900  0.32681400  0.63625600  1
  Ti  Ti9  1  0.66085500  0.67318600  0.13625600  1
  Ti  Ti10  1  0.65004100  0.66553800  0.39609200  1
  Ti  Ti11  1  0.33446200  0.98450400  0.39609200  1
  Tl  Tl12  1  0.66666700  0.33333300  0.56680000  1
  Tl  Tl13  1  0.93779200  0.63013900  0.76656700  1
  Tl  Tl14  1  0.33333300  0.66666700  0.43342000  1
  Tl  Tl15  1  0.30765300  0.36986100  0.26656700  1
  Tl  Tl16  1  0.66666700  0.33333300  0.93342000  1
  Tl  Tl17  1  0.69234700  0.06220800  0.76656700  1
  Tl  Tl18  1  0.63013900  0.93779200  0.26656700  1
  Tl  Tl19  1  0.33333300  0.66666700  0.06680000  1
  Tl  Tl20  1  0.06220800  0.69234700  0.26656700  1
  Tl  Tl21  1  0.36986100  0.30765300  0.76656700  1
  Ag  Ag22  1  0.00000000  0.00000000  0.01185700  1
  Ag  Ag23  1  0.00000000  0.00000000  0.51185700  1
  Se  Se24  1  0.55044200  0.12874200  0.40056400  1
  Se  Se25  1  0.87952100  0.20425900  0.26592100  1
  Se  Se26  1  0.10902500  0.89798600  0.12198300  1
  Se  Se27  1  0.84055500  0.18863600  0.01248100  1
  Se  Se28  1  0.32473800  0.12047900  0.26592100  1
  Se  Se29  1  0.10201400  0.21103900  0.12198300  1
  Se  Se30  1  0.78896100  0.89097500  0.12198300  1
  Se  Se31  1  0.12047900  0.32473800  0.76592100  1
  Se  Se32  1  0.79550600  0.63308800  0.51163700  1
  Se  Se33  1  0.34128500  0.85913000  0.26267700  1
  Se  Se34  1  0.50168300  0.18873900  0.17861400  1
  Se  Se35  1  0.15944500  0.34808000  0.51248100  1
  Se  Se36  1  0.65192000  0.81136400  0.51248100  1
  Se  Se37  1  0.51784500  0.65871500  0.26267700  1
  Se  Se38  1  0.08168000  0.19858800  0.39141800  1
  Se  Se39  1  0.18863600  0.84055500  0.51248100  1
  Se  Se40  1  0.11690800  0.91832000  0.39141800  1
  Se  Se41  1  0.63308800  0.79550600  0.01163700  1
  Se  Se42  1  0.18873900  0.50168300  0.67861400  1
  Se  Se43  1  0.44955800  0.57830000  0.90056400  1
  Se  Se44  1  0.01797700  0.49775700  0.52110300  1
  Se  Se45  1  0.89798600  0.10902500  0.62198300  1
  Se  Se46  1  0.79574100  0.67526200  0.26592100  1
  Se  Se47  1  0.12874200  0.55044200  0.90056400  1
  Se  Se48  1  0.89097500  0.78896100  0.62198300  1
  Se  Se49  1  0.31294400  0.81126100  0.67861400  1
  Se  Se50  1  0.67526200  0.79574100  0.76592100  1
  Se  Se51  1  0.34808000  0.15944500  0.01248100  1
  Se  Se52  1  0.19858800  0.08168000  0.89141800  1
  Se  Se53  1  0.65871500  0.51784500  0.76267700  1
  Se  Se54  1  0.49831700  0.68705600  0.67861400  1
  Se  Se55  1  0.88309200  0.80141200  0.89141800  1
  Se  Se56  1  0.21103900  0.10201400  0.62198300  1
  Se  Se57  1  0.16241800  0.36691200  0.01163700  1
  Se  Se58  1  0.81126100  0.31294400  0.17861400  1
  Se  Se59  1  0.87125800  0.42170000  0.40056400  1
  Se  Se60  1  0.48215500  0.14087000  0.76267700  1
  Se  Se61  1  0.50224300  0.52022000  0.52110300  1
  Se  Se62  1  0.98202300  0.47978000  0.02110300  1
  Se  Se63  1  0.20425900  0.87952100  0.76592100  1
  Se  Se64  1  0.42170000  0.87125800  0.90056400  1
  Se  Se65  1  0.20449400  0.83758200  0.01163700  1
  Se  Se66  1  0.49775700  0.01797700  0.02110300  1
  Se  Se67  1  0.57830000  0.44955800  0.40056400  1
  Se  Se68  1  0.52022000  0.50224300  0.02110300  1
  Se  Se69  1  0.83758200  0.20449400  0.51163700  1
  Se  Se70  1  0.68705600  0.49831700  0.17861400  1
  Se  Se71  1  0.36691200  0.16241800  0.51163700  1
  Se  Se72  1  0.91832000  0.11690800  0.89141800  1
  Se  Se73  1  0.85913000  0.34128500  0.76267700  1
  Se  Se74  1  0.14087000  0.48215500  0.26267700  1
  Se  Se75  1  0.47978000  0.98202300  0.52110300  1
  Se  Se76  1  0.81136400  0.65192000  0.01248100  1
  Se  Se77  1  0.80141200  0.88309200  0.39141800  1
