# generated using pymatgen
data_SrNiF6
_symmetry_space_group_name_H-M   'P 1'
_cell_length_a   4.74553579
_cell_length_b   4.74553579
_cell_length_c   4.74553565
_cell_angle_alpha   99.60672016
_cell_angle_beta   99.60672016
_cell_angle_gamma   99.60671973
_symmetry_Int_Tables_number   1
_chemical_formula_structural   SrNiF6
_chemical_formula_sum   'Sr1 Ni1 F6'
_cell_volume   101.78787935
_cell_formula_units_Z   1
loop_
 _symmetry_equiv_pos_site_id
 _symmetry_equiv_pos_as_xyz
  1  'x, y, z'
loop_
 _atom_site_type_symbol
 _atom_site_label
 _atom_site_symmetry_multiplicity
 _atom_site_fract_x
 _atom_site_fract_y
 _atom_site_fract_z
 _atom_site_occupancy
  Sr  Sr0  1  0.50000000  0.50000000  0.50000000  1
  Ni  Ni1  1  0.00000000  0.00000000  0.00000000  1
  F  F2  1  0.72347800  0.72347800  0.06571700  1
  F  F3  1  0.06571700  0.72347800  0.72347800  1
  F  F4  1  0.93428300  0.27652200  0.27652200  1
  F  F5  1  0.27652200  0.27652200  0.93428300  1
  F  F6  1  0.27652200  0.93428300  0.27652200  1
  F  F7  1  0.72347800  0.06571700  0.72347800  1
