# generated using pymatgen
data_SrLuCuSe3
_symmetry_space_group_name_H-M   'P 1'
_cell_length_a   7.07137180
_cell_length_b   7.07137180
_cell_length_c   10.44620200
_cell_angle_alpha   90.00000000
_cell_angle_beta   90.00000000
_cell_angle_gamma   146.63921654
_symmetry_Int_Tables_number   1
_chemical_formula_structural   SrLuCuSe3
_chemical_formula_sum   'Sr2 Lu2 Cu2 Se6'
_cell_volume   287.24782162
_cell_formula_units_Z   2
loop_
 _symmetry_equiv_pos_site_id
 _symmetry_equiv_pos_as_xyz
  1  'x, y, z'
loop_
 _atom_site_type_symbol
 _atom_site_label
 _atom_site_symmetry_multiplicity
 _atom_site_fract_x
 _atom_site_fract_y
 _atom_site_fract_z
 _atom_site_occupancy
  Sr  Sr0  1  0.75129500  0.24870500  0.25000000  1
  Sr  Sr1  1  0.24870500  0.75129500  0.75000000  1
  Lu  Lu2  1  0.00000000  0.00000000  0.00000000  1
  Lu  Lu3  1  0.00000000  0.00000000  0.50000000  1
  Cu  Cu4  1  0.52923800  0.47076200  0.75000000  1
  Cu  Cu5  1  0.47076200  0.52923800  0.25000000  1
  Se  Se6  1  0.36220600  0.63779400  0.43847000  1
  Se  Se7  1  0.92258500  0.07741500  0.75000000  1
  Se  Se8  1  0.63779400  0.36220600  0.93847000  1
  Se  Se9  1  0.36220600  0.63779400  0.06153000  1
  Se  Se10  1  0.07741500  0.92258500  0.25000000  1
  Se  Se11  1  0.63779400  0.36220600  0.56153000  1
