# generated using pymatgen
data_Na3LuSi2O7
_symmetry_space_group_name_H-M   'P 1'
_cell_length_a   9.42917827
_cell_length_b   9.42917827
_cell_length_c   13.77283300
_cell_angle_alpha   90.00000000
_cell_angle_beta   90.00000000
_cell_angle_gamma   120.00000192
_symmetry_Int_Tables_number   1
_chemical_formula_structural   Na3LuSi2O7
_chemical_formula_sum   'Na18 Lu6 Si12 O42'
_cell_volume   1060.47784164
_cell_formula_units_Z   6
loop_
 _symmetry_equiv_pos_site_id
 _symmetry_equiv_pos_as_xyz
  1  'x, y, z'
loop_
 _atom_site_type_symbol
 _atom_site_label
 _atom_site_symmetry_multiplicity
 _atom_site_fract_x
 _atom_site_fract_y
 _atom_site_fract_z
 _atom_site_occupancy
  Na  Na0  1  0.33184400  0.31651900  0.90980600  1
  Na  Na1  1  0.31651900  0.98467500  0.40980600  1
  Na  Na2  1  0.33184400  0.31651900  0.59019400  1
  Na  Na3  1  0.66815600  0.68348100  0.09019400  1
  Na  Na4  1  0.01532500  0.33184400  0.40980600  1
  Na  Na5  1  0.68348100  0.01532500  0.90980600  1
  Na  Na6  1  0.98467500  0.66815600  0.90980600  1
  Na  Na7  1  0.66666700  0.33333300  0.75000000  1
  Na  Na8  1  0.98467500  0.66815600  0.59019400  1
  Na  Na9  1  0.01532500  0.33184400  0.09019400  1
  Na  Na10  1  0.68348100  0.01532500  0.59019400  1
  Na  Na11  1  0.66815600  0.68348100  0.40980600  1
  Na  Na12  1  0.31651900  0.98467500  0.09019400  1
  Na  Na13  1  0.33333300  0.66666700  0.25000000  1
  Na  Na14  1  0.00000000  0.00000000  0.00000000  1
  Na  Na15  1  0.66666700  0.33333300  0.25000000  1
  Na  Na16  1  0.00000000  0.00000000  0.50000000  1
  Na  Na17  1  0.33333300  0.66666700  0.75000000  1
  Lu  Lu18  1  0.66666700  0.33333300  0.98161000  1
  Lu  Lu19  1  0.00000000  0.00000000  0.25000000  1
  Lu  Lu20  1  0.66666700  0.33333300  0.51839000  1
  Lu  Lu21  1  0.33333300  0.66666700  0.01839000  1
  Lu  Lu22  1  0.33333300  0.66666700  0.48161000  1
  Lu  Lu23  1  0.00000000  0.00000000  0.75000000  1
  Si  Si24  1  0.65303700  0.67141100  0.64015200  1
  Si  Si25  1  0.34696300  0.32858900  0.14015200  1
  Si  Si26  1  0.67141100  0.01837400  0.35984800  1
  Si  Si27  1  0.32858900  0.98162600  0.85984800  1
  Si  Si28  1  0.01837400  0.34696300  0.64015200  1
  Si  Si29  1  0.01837400  0.34696300  0.85984800  1
  Si  Si30  1  0.98162600  0.65303700  0.35984800  1
  Si  Si31  1  0.32858900  0.98162600  0.64015200  1
  Si  Si32  1  0.34696300  0.32858900  0.35984800  1
  Si  Si33  1  0.67141100  0.01837400  0.14015200  1
  Si  Si34  1  0.65303700  0.67141100  0.85984800  1
  Si  Si35  1  0.98162600  0.65303700  0.14015200  1
  O  O36  1  0.17230100  0.44395000  0.56467800  1
  O  O37  1  0.84949600  0.80436300  0.85843100  1
  O  O38  1  0.72835100  0.17230100  0.06467800  1
  O  O39  1  0.44395000  0.27164900  0.06467800  1
  O  O40  1  0.17230100  0.44395000  0.93532200  1
  O  O41  1  0.61411600  0.48525900  0.61840700  1
  O  O42  1  0.27164900  0.82769900  0.93532200  1
  O  O43  1  0.80436300  0.95486700  0.35843100  1
  O  O44  1  0.67521900  0.09891700  0.25000000  1
  O  O45  1  0.48525900  0.87114300  0.11840700  1
  O  O46  1  0.82769900  0.55605000  0.43532200  1
  O  O47  1  0.87114300  0.38588400  0.61840700  1
  O  O48  1  0.55605000  0.72835100  0.93532200  1
  O  O49  1  0.51474100  0.12885700  0.88159300  1
  O  O50  1  0.04513300  0.84949600  0.14156900  1
  O  O51  1  0.57630200  0.67521900  0.75000000  1
  O  O52  1  0.12885700  0.61411600  0.38159300  1
  O  O53  1  0.44395000  0.27164900  0.43532200  1
  O  O54  1  0.48525900  0.87114300  0.38159300  1
  O  O55  1  0.87114300  0.38588400  0.88159300  1
  O  O56  1  0.80436300  0.95486700  0.14156900  1
  O  O57  1  0.72835100  0.17230100  0.43532200  1
  O  O58  1  0.09891700  0.42369800  0.75000000  1
  O  O59  1  0.19563700  0.04513300  0.85843100  1
  O  O60  1  0.90108300  0.57630200  0.25000000  1
  O  O61  1  0.82769900  0.55605000  0.06467800  1
  O  O62  1  0.04513300  0.84949600  0.35843100  1
  O  O63  1  0.51474100  0.12885700  0.61840700  1
  O  O64  1  0.95486700  0.15050400  0.64156900  1
  O  O65  1  0.55605000  0.72835100  0.56467800  1
  O  O66  1  0.42369800  0.32478100  0.25000000  1
  O  O67  1  0.19563700  0.04513300  0.64156900  1
  O  O68  1  0.15050400  0.19563700  0.35843100  1
  O  O69  1  0.38588400  0.51474100  0.38159300  1
  O  O70  1  0.84949600  0.80436300  0.64156900  1
  O  O71  1  0.61411600  0.48525900  0.88159300  1
  O  O72  1  0.38588400  0.51474100  0.11840700  1
  O  O73  1  0.15050400  0.19563700  0.14156900  1
  O  O74  1  0.95486700  0.15050400  0.85843100  1
  O  O75  1  0.32478100  0.90108300  0.75000000  1
  O  O76  1  0.27164900  0.82769900  0.56467800  1
  O  O77  1  0.12885700  0.61411600  0.11840700  1
