# generated using pymatgen
data_Y3CuGeS7
_symmetry_space_group_name_H-M   'P 1'
_cell_length_a   9.89241415
_cell_length_b   9.89241415
_cell_length_c   5.82526600
_cell_angle_alpha   90.00000000
_cell_angle_beta   90.00000000
_cell_angle_gamma   120.00000099
_symmetry_Int_Tables_number   1
_chemical_formula_structural   Y3CuGeS7
_chemical_formula_sum   'Y6 Cu2 Ge2 S14'
_cell_volume   493.68617843
_cell_formula_units_Z   2
loop_
 _symmetry_equiv_pos_site_id
 _symmetry_equiv_pos_as_xyz
  1  'x, y, z'
loop_
 _atom_site_type_symbol
 _atom_site_label
 _atom_site_symmetry_multiplicity
 _atom_site_fract_x
 _atom_site_fract_y
 _atom_site_fract_z
 _atom_site_occupancy
  Y  Y0  1  0.13379600  0.77633500  0.75138500  1
  Y  Y1  1  0.77633500  0.64253900  0.25138500  1
  Y  Y2  1  0.35746100  0.13379600  0.25138500  1
  Y  Y3  1  0.64253900  0.86620400  0.75138500  1
  Y  Y4  1  0.86620400  0.22366500  0.25138500  1
  Y  Y5  1  0.22366500  0.35746100  0.75138500  1
  Cu  Cu6  1  0.00000000  0.00000000  0.19306200  1
  Cu  Cu7  1  0.00000000  0.00000000  0.69306200  1
  Ge  Ge8  1  0.66666700  0.33333300  0.83262300  1
  Ge  Ge9  1  0.33333300  0.66666700  0.33262300  1
  S  S10  1  0.47985200  0.57779300  0.49401700  1
  S  S11  1  0.90205900  0.47985200  0.99401700  1
  S  S12  1  0.90035200  0.15953600  0.71534900  1
  S  S13  1  0.09964800  0.84046400  0.21534900  1
  S  S14  1  0.09794100  0.52014800  0.49401700  1
  S  S15  1  0.33333300  0.66666700  0.95366300  1
  S  S16  1  0.74081600  0.90035200  0.21534900  1
  S  S17  1  0.66666700  0.33333300  0.45366300  1
  S  S18  1  0.57779300  0.09794100  0.99401700  1
  S  S19  1  0.25918400  0.09964800  0.71534900  1
  S  S20  1  0.15953600  0.25918400  0.21534900  1
  S  S21  1  0.42220700  0.90205900  0.49401700  1
  S  S22  1  0.84046400  0.74081600  0.71534900  1
  S  S23  1  0.52014800  0.42220700  0.99401700  1
