# generated using pymatgen
data_KBi6IO9
_symmetry_space_group_name_H-M   'P 1'
_cell_length_a   15.26866180
_cell_length_b   15.26866180
_cell_length_c   15.26866180
_cell_angle_alpha   109.47122063
_cell_angle_beta   109.47122063
_cell_angle_gamma   109.47122063
_symmetry_Int_Tables_number   1
_chemical_formula_structural   KBi6IO9
_chemical_formula_sum   'K8 Bi48 I8 O72'
_cell_volume   2740.19226463
_cell_formula_units_Z   8
loop_
 _symmetry_equiv_pos_site_id
 _symmetry_equiv_pos_as_xyz
  1  'x, y, z'
loop_
 _atom_site_type_symbol
 _atom_site_label
 _atom_site_symmetry_multiplicity
 _atom_site_fract_x
 _atom_site_fract_y
 _atom_site_fract_z
 _atom_site_occupancy
  K  K0  1  0.00000000  0.50000000  0.50000000  1
  K  K1  1  0.00000000  0.50000000  0.00000000  1
  K  K2  1  0.50000000  0.50000000  0.50000000  1
  K  K3  1  0.50000000  0.00000000  0.00000000  1
  K  K4  1  0.00000000  0.00000000  0.50000000  1
  K  K5  1  0.50000000  0.00000000  0.50000000  1
  K  K6  1  0.00000000  0.00000000  0.00000000  1
  K  K7  1  0.50000000  0.50000000  0.00000000  1
  Bi  Bi8  1  0.73951100  0.25000000  0.98951100  1
  Bi  Bi9  1  0.01959000  0.48041000  0.25000000  1
  Bi  Bi10  1  0.98951100  0.75000000  0.73951100  1
  Bi  Bi11  1  0.26959000  0.23041000  0.75000000  1
  Bi  Bi12  1  0.76048900  0.75000000  0.51048900  1
  Bi  Bi13  1  0.98041000  0.96082000  0.23041000  1
  Bi  Bi14  1  0.25000000  0.76048900  0.51048900  1
  Bi  Bi15  1  0.25000000  0.73041000  0.76959000  1
  Bi  Bi16  1  0.23041000  0.98041000  0.96082000  1
  Bi  Bi17  1  0.48041000  0.73041000  0.46082000  1
  Bi  Bi18  1  0.75000000  0.01048900  0.26048900  1
  Bi  Bi19  1  0.48951100  0.75000000  0.23951100  1
  Bi  Bi20  1  0.75000000  0.98041000  0.51959000  1
  Bi  Bi21  1  0.25000000  0.26048900  0.01048900  1
  Bi  Bi22  1  0.51959000  0.26959000  0.53918000  1
  Bi  Bi23  1  0.26048900  0.01048900  0.25000000  1
  Bi  Bi24  1  0.76048900  0.51048900  0.25000000  1
  Bi  Bi25  1  0.23951100  0.25000000  0.48951100  1
  Bi  Bi26  1  0.26959000  0.53918000  0.51959000  1
  Bi  Bi27  1  0.48951100  0.23951100  0.25000000  1
  Bi  Bi28  1  0.98041000  0.51959000  0.75000000  1
  Bi  Bi29  1  0.23951100  0.48951100  0.75000000  1
  Bi  Bi30  1  0.96082000  0.23041000  0.98041000  1
  Bi  Bi31  1  0.25000000  0.48951100  0.23951100  1
  Bi  Bi32  1  0.73041000  0.46082000  0.48041000  1
  Bi  Bi33  1  0.51048900  0.76048900  0.75000000  1
  Bi  Bi34  1  0.73041000  0.76959000  0.25000000  1
  Bi  Bi35  1  0.51959000  0.75000000  0.98041000  1
  Bi  Bi36  1  0.53918000  0.51959000  0.26959000  1
  Bi  Bi37  1  0.98951100  0.73951100  0.25000000  1
  Bi  Bi38  1  0.25000000  0.98951100  0.73951100  1
  Bi  Bi39  1  0.76959000  0.25000000  0.73041000  1
  Bi  Bi40  1  0.75000000  0.51048900  0.76048900  1
  Bi  Bi41  1  0.01959000  0.03918000  0.76959000  1
  Bi  Bi42  1  0.46082000  0.48041000  0.73041000  1
  Bi  Bi43  1  0.23041000  0.75000000  0.26959000  1
  Bi  Bi44  1  0.75000000  0.23951100  0.48951100  1
  Bi  Bi45  1  0.26048900  0.75000000  0.01048900  1
  Bi  Bi46  1  0.48041000  0.25000000  0.01959000  1
  Bi  Bi47  1  0.75000000  0.73951100  0.98951100  1
  Bi  Bi48  1  0.51048900  0.25000000  0.76048900  1
  Bi  Bi49  1  0.75000000  0.26959000  0.23041000  1
  Bi  Bi50  1  0.03918000  0.76959000  0.01959000  1
  Bi  Bi51  1  0.76959000  0.01959000  0.03918000  1
  Bi  Bi52  1  0.01048900  0.26048900  0.75000000  1
  Bi  Bi53  1  0.73951100  0.98951100  0.75000000  1
  Bi  Bi54  1  0.01048900  0.25000000  0.26048900  1
  Bi  Bi55  1  0.25000000  0.01959000  0.48041000  1
  I  I56  1  0.25000000  0.25000000  0.25000000  1
  I  I57  1  0.25000000  0.50000000  0.00000000  1
  I  I58  1  0.50000000  0.00000000  0.75000000  1
  I  I59  1  0.00000000  0.25000000  0.50000000  1
  I  I60  1  0.75000000  0.75000000  0.75000000  1
  I  I61  1  0.00000000  0.75000000  0.50000000  1
  I  I62  1  0.75000000  0.50000000  0.00000000  1
  I  I63  1  0.50000000  0.00000000  0.25000000  1
  O  O64  1  0.71080900  0.60540500  0.35540500  1
  O  O65  1  0.06244700  0.71481100  0.15058500  1
  O  O66  1  0.91186200  0.34941500  0.06422600  1
  O  O67  1  0.43755300  0.58813800  0.65236400  1
  O  O68  1  0.28919100  0.39459500  0.64459500  1
  O  O69  1  0.64459500  0.85540500  0.25000000  1
  O  O70  1  0.41186200  0.34763600  0.56244700  1
  O  O71  1  0.35540500  0.71080900  0.60540500  1
  O  O72  1  0.35540500  0.14459500  0.75000000  1
  O  O73  1  0.08813800  0.93755300  0.15236400  1
  O  O74  1  0.34941500  0.78518900  0.43755300  1
  O  O75  1  0.21481100  0.15236400  0.56422600  1
  O  O76  1  0.34763600  0.28518900  0.93577400  1
  O  O77  1  0.71481100  0.06422600  0.65236400  1
  O  O78  1  0.65058500  0.21481100  0.56244700  1
  O  O79  1  0.15236400  0.08813800  0.93755300  1
  O  O80  1  0.58813800  0.43577400  0.15058500  1
  O  O81  1  0.56422600  0.21481100  0.15236400  1
  O  O82  1  0.06422600  0.65236400  0.71481100  1
  O  O83  1  0.93577400  0.08813800  0.65058500  1
  O  O84  1  0.14459500  0.75000000  0.35540500  1
  O  O85  1  0.93755300  0.15236400  0.08813800  1
  O  O86  1  0.34763600  0.56244700  0.41186200  1
  O  O87  1  0.56422600  0.84941500  0.41186200  1
  O  O88  1  0.75000000  0.35540500  0.14459500  1
  O  O89  1  0.65058500  0.93577400  0.08813800  1
  O  O90  1  0.89459500  0.78919100  0.14459500  1
  O  O91  1  0.65236400  0.71481100  0.06422600  1
  O  O92  1  0.93755300  0.28518900  0.84941500  1
  O  O93  1  0.43577400  0.15058500  0.58813800  1
  O  O94  1  0.25000000  0.64459500  0.85540500  1
  O  O95  1  0.34941500  0.06422600  0.91186200  1
  O  O96  1  0.15058500  0.06244700  0.71481100  1
  O  O97  1  0.43755300  0.34941500  0.78518900  1
  O  O98  1  0.21481100  0.56244700  0.65058500  1
  O  O99  1  0.78919100  0.14459500  0.89459500  1
  O  O100  1  0.84763600  0.91186200  0.06244700  1
  O  O101  1  0.10540500  0.39459500  0.25000000  1
  O  O102  1  0.78518900  0.43755300  0.34941500  1
  O  O103  1  0.60540500  0.35540500  0.71080900  1
  O  O104  1  0.85540500  0.10540500  0.21080900  1
  O  O105  1  0.39459500  0.64459500  0.28919100  1
  O  O106  1  0.84941500  0.93755300  0.28518900  1
  O  O107  1  0.64459500  0.28919100  0.39459500  1
  O  O108  1  0.71481100  0.15058500  0.06244700  1
  O  O109  1  0.15236400  0.56422600  0.21481100  1
  O  O110  1  0.84941500  0.41186200  0.56422600  1
  O  O111  1  0.85540500  0.25000000  0.64459500  1
  O  O112  1  0.39459500  0.25000000  0.10540500  1
  O  O113  1  0.84763600  0.43577400  0.78518900  1
  O  O114  1  0.78518900  0.84763600  0.43577400  1
  O  O115  1  0.06422600  0.91186200  0.34941500  1
  O  O116  1  0.43577400  0.78518900  0.84763600  1
  O  O117  1  0.14459500  0.89459500  0.78919100  1
  O  O118  1  0.93577400  0.34763600  0.28518900  1
  O  O119  1  0.56244700  0.65058500  0.21481100  1
  O  O120  1  0.89459500  0.60540500  0.75000000  1
  O  O121  1  0.06244700  0.84763600  0.91186200  1
  O  O122  1  0.75000000  0.89459500  0.60540500  1
  O  O123  1  0.41186200  0.56422600  0.84941500  1
  O  O124  1  0.21080900  0.85540500  0.10540500  1
  O  O125  1  0.56244700  0.41186200  0.34763600  1
  O  O126  1  0.08813800  0.65058500  0.93577400  1
  O  O127  1  0.28518900  0.84941500  0.93755300  1
  O  O128  1  0.65236400  0.43755300  0.58813800  1
  O  O129  1  0.25000000  0.10540500  0.39459500  1
  O  O130  1  0.10540500  0.21080900  0.85540500  1
  O  O131  1  0.91186200  0.06244700  0.84763600  1
  O  O132  1  0.28518900  0.93577400  0.34763600  1
  O  O133  1  0.15058500  0.58813800  0.43577400  1
  O  O134  1  0.58813800  0.65236400  0.43755300  1
  O  O135  1  0.60540500  0.75000000  0.89459500  1
