# generated using pymatgen
data_ErHO2
_symmetry_space_group_name_H-M   'P 1'
_cell_length_a   3.61623600
_cell_length_b   4.30773900
_cell_length_c   5.95160305
_cell_angle_alpha   70.28900898
_cell_angle_beta   90.00000000
_cell_angle_gamma   90.00000000
_symmetry_Int_Tables_number   1
_chemical_formula_structural   ErHO2
_chemical_formula_sum   'Er2 H2 O4'
_cell_volume   87.28045536
_cell_formula_units_Z   2
loop_
 _symmetry_equiv_pos_site_id
 _symmetry_equiv_pos_as_xyz
  1  'x, y, z'
loop_
 _atom_site_type_symbol
 _atom_site_label
 _atom_site_symmetry_multiplicity
 _atom_site_fract_x
 _atom_site_fract_y
 _atom_site_fract_z
 _atom_site_occupancy
  Er  Er0  1  0.75000000  0.83622500  0.81122100  1
  Er  Er1  1  0.25000000  0.16377500  0.18877900  1
  H  H2  1  0.75000000  0.48354300  0.40366300  1
  H  H3  1  0.25000000  0.51645700  0.59633700  1
  O  O4  1  0.75000000  0.26742700  0.94665000  1
  O  O5  1  0.25000000  0.73257300  0.05335000  1
  O  O6  1  0.75000000  0.24723900  0.43326300  1
  O  O7  1  0.25000000  0.75276100  0.56673700  1
