# generated using pymatgen
data_Zr2Al3C4
_symmetry_space_group_name_H-M   'P 1'
_cell_length_a   3.36286430
_cell_length_b   3.36286430
_cell_length_c   22.32051700
_cell_angle_alpha   90.00000000
_cell_angle_beta   90.00000000
_cell_angle_gamma   120.00000590
_symmetry_Int_Tables_number   1
_chemical_formula_structural   Zr2Al3C4
_chemical_formula_sum   'Zr4 Al6 C8'
_cell_volume   218.60170313
_cell_formula_units_Z   2
loop_
 _symmetry_equiv_pos_site_id
 _symmetry_equiv_pos_as_xyz
  1  'x, y, z'
loop_
 _atom_site_type_symbol
 _atom_site_label
 _atom_site_symmetry_multiplicity
 _atom_site_fract_x
 _atom_site_fract_y
 _atom_site_fract_z
 _atom_site_occupancy
  Zr  Zr0  1  0.33333300  0.66666700  0.05870300  1
  Zr  Zr1  1  0.66666700  0.33333300  0.94129700  1
  Zr  Zr2  1  0.33333300  0.66666700  0.44129700  1
  Zr  Zr3  1  0.66666700  0.33333300  0.55870300  1
  Al  Al4  1  0.00000000  0.00000000  0.34036000  1
  Al  Al5  1  0.00000000  0.00000000  0.84036000  1
  Al  Al6  1  0.00000000  0.00000000  0.65964000  1
  Al  Al7  1  0.66666700  0.33333300  0.25000000  1
  Al  Al8  1  0.00000000  0.00000000  0.15964000  1
  Al  Al9  1  0.33333300  0.66666700  0.75000000  1
  C  C10  1  0.66666700  0.33333300  0.37090900  1
  C  C11  1  0.33333300  0.66666700  0.62909100  1
  C  C12  1  0.33333300  0.66666700  0.87090900  1
  C  C13  1  0.00000000  0.00000000  0.00000000  1
  C  C14  1  0.66666700  0.33333300  0.12909100  1
  C  C15  1  0.00000000  0.00000000  0.25000000  1
  C  C16  1  0.00000000  0.00000000  0.50000000  1
  C  C17  1  0.00000000  0.00000000  0.75000000  1
