# generated using pymatgen
data_Yb2PbAu2
_symmetry_space_group_name_H-M   'P 1'
_cell_length_a   8.18857900
_cell_length_b   8.18857900
_cell_length_c   7.31990000
_cell_angle_alpha   90.00000000
_cell_angle_beta   90.00000000
_cell_angle_gamma   90.00000000
_symmetry_Int_Tables_number   1
_chemical_formula_structural   Yb2PbAu2
_chemical_formula_sum   'Yb8 Pb4 Au8'
_cell_volume   490.81998132
_cell_formula_units_Z   4
loop_
 _symmetry_equiv_pos_site_id
 _symmetry_equiv_pos_as_xyz
  1  'x, y, z'
loop_
 _atom_site_type_symbol
 _atom_site_label
 _atom_site_symmetry_multiplicity
 _atom_site_fract_x
 _atom_site_fract_y
 _atom_site_fract_z
 _atom_site_occupancy
  Yb  Yb0  1  0.67919900  0.32080100  0.00000000  1
  Yb  Yb1  1  0.82080100  0.82080100  0.50000000  1
  Yb  Yb2  1  0.17919900  0.17919900  0.50000000  1
  Yb  Yb3  1  0.32080100  0.67919900  0.00000000  1
  Yb  Yb4  1  0.16508300  0.16508300  0.00000000  1
  Yb  Yb5  1  0.66508300  0.33491700  0.50000000  1
  Yb  Yb6  1  0.33491700  0.66508300  0.50000000  1
  Yb  Yb7  1  0.83491700  0.83491700  0.00000000  1
  Pb  Pb8  1  0.50000000  0.00000000  0.25000000  1
  Pb  Pb9  1  0.50000000  0.00000000  0.75000000  1
  Pb  Pb10  1  0.00000000  0.50000000  0.25000000  1
  Pb  Pb11  1  0.00000000  0.50000000  0.75000000  1
  Au  Au12  1  0.37588000  0.37588000  0.23606900  1
  Au  Au13  1  0.87588000  0.12412000  0.73606900  1
  Au  Au14  1  0.12412000  0.87588000  0.73606900  1
  Au  Au15  1  0.62412000  0.62412000  0.23606900  1
  Au  Au16  1  0.12412000  0.87588000  0.26393100  1
  Au  Au17  1  0.87588000  0.12412000  0.26393100  1
  Au  Au18  1  0.37588000  0.37588000  0.76393100  1
  Au  Au19  1  0.62412000  0.62412000  0.76393100  1
