# generated using pymatgen
data_Ce(CoAs)2
_symmetry_space_group_name_H-M   'P 1'
_cell_length_a   5.83614512
_cell_length_b   5.83614512
_cell_length_c   5.83614512
_cell_angle_alpha   139.52750647
_cell_angle_beta   139.52750647
_cell_angle_gamma   58.57142021
_symmetry_Int_Tables_number   1
_chemical_formula_structural   Ce(CoAs)2
_chemical_formula_sum   'Ce1 Co2 As2'
_cell_volume   82.97182321
_cell_formula_units_Z   1
loop_
 _symmetry_equiv_pos_site_id
 _symmetry_equiv_pos_as_xyz
  1  'x, y, z'
loop_
 _atom_site_type_symbol
 _atom_site_label
 _atom_site_symmetry_multiplicity
 _atom_site_fract_x
 _atom_site_fract_y
 _atom_site_fract_z
 _atom_site_occupancy
  Ce  Ce0  1  0.00000000  0.00000000  0.00000000  1
  Co  Co1  1  0.75000000  0.25000000  0.50000000  1
  Co  Co2  1  0.25000000  0.75000000  0.50000000  1
  As  As3  1  0.36649600  0.36649600  0.00000000  1
  As  As4  1  0.63350400  0.63350400  0.00000000  1
