# generated using pymatgen
data_Cu3P4S4I3
_symmetry_space_group_name_H-M   'P 1'
_cell_length_a   19.44566845
_cell_length_b   19.44566845
_cell_length_c   6.89233800
_cell_angle_alpha   90.00000000
_cell_angle_beta   90.00000000
_cell_angle_gamma   120.00000153
_symmetry_Int_Tables_number   1
_chemical_formula_structural   Cu3P4S4I3
_chemical_formula_sum   'Cu18 P24 S24 I18'
_cell_volume   2257.05917529
_cell_formula_units_Z   6
loop_
 _symmetry_equiv_pos_site_id
 _symmetry_equiv_pos_as_xyz
  1  'x, y, z'
loop_
 _atom_site_type_symbol
 _atom_site_label
 _atom_site_symmetry_multiplicity
 _atom_site_fract_x
 _atom_site_fract_y
 _atom_site_fract_z
 _atom_site_occupancy
  Cu  Cu0  1  0.87178700  0.87178700  0.80961100  1
  Cu  Cu1  1  0.87178700  0.00000000  0.30961100  1
  Cu  Cu2  1  0.33255500  0.53623100  0.98758900  1
  Cu  Cu3  1  0.00000000  0.12821300  0.80961100  1
  Cu  Cu4  1  0.46376900  0.79632400  0.98758900  1
  Cu  Cu5  1  0.66744500  0.20367600  0.98758900  1
  Cu  Cu6  1  0.46376900  0.66744500  0.48758900  1
  Cu  Cu7  1  0.53623100  0.20367600  0.48758900  1
  Cu  Cu8  1  0.66744500  0.46376900  0.48758900  1
  Cu  Cu9  1  0.79632400  0.33255500  0.48758900  1
  Cu  Cu10  1  0.33255500  0.79632400  0.48758900  1
  Cu  Cu11  1  0.12821300  0.00000000  0.80961100  1
  Cu  Cu12  1  0.20367600  0.53623100  0.48758900  1
  Cu  Cu13  1  0.79632400  0.46376900  0.98758900  1
  Cu  Cu14  1  0.12821300  0.12821300  0.30961100  1
  Cu  Cu15  1  0.53623100  0.33255500  0.98758900  1
  Cu  Cu16  1  0.00000000  0.87178700  0.30961100  1
  Cu  Cu17  1  0.20367600  0.66744500  0.98758900  1
  P  P18  1  0.42723400  0.33551600  0.06895200  1
  P  P19  1  0.42723400  0.09171900  0.56895200  1
  P  P20  1  0.33551600  0.90828100  0.56895200  1
  P  P21  1  0.39994500  0.00000000  0.81038800  1
  P  P22  1  0.09171900  0.66448400  0.06895200  1
  P  P23  1  0.00000000  0.76301300  0.21819900  1
  P  P24  1  0.33551600  0.42723400  0.06895200  1
  P  P25  1  0.00000000  0.23698700  0.71819900  1
  P  P26  1  0.60005500  0.60005500  0.81038800  1
  P  P27  1  0.76301300  0.00000000  0.21819900  1
  P  P28  1  0.76301300  0.76301300  0.71819900  1
  P  P29  1  0.66448400  0.57276600  0.56895200  1
  P  P30  1  0.90828100  0.33551600  0.56895200  1
  P  P31  1  0.00000000  0.39994500  0.81038800  1
  P  P32  1  0.60005500  0.00000000  0.31038800  1
  P  P33  1  0.09171900  0.42723400  0.56895200  1
  P  P34  1  0.39994500  0.39994500  0.31038800  1
  P  P35  1  0.90828100  0.57276600  0.06895200  1
  P  P36  1  0.00000000  0.60005500  0.31038800  1
  P  P37  1  0.57276600  0.90828100  0.06895200  1
  P  P38  1  0.57276600  0.66448400  0.56895200  1
  P  P39  1  0.66448400  0.09171900  0.06895200  1
  P  P40  1  0.23698700  0.23698700  0.21819900  1
  P  P41  1  0.23698700  0.00000000  0.71819900  1
  S  S42  1  0.30736900  0.30736900  0.45792000  1
  S  S43  1  0.89770300  0.67635000  0.06671800  1
  S  S44  1  0.41040900  0.41040900  0.86993600  1
  S  S45  1  0.41040900  0.00000000  0.36993600  1
  S  S46  1  0.69263100  0.00000000  0.45792000  1
  S  S47  1  0.89770300  0.22135200  0.56671800  1
  S  S48  1  0.00000000  0.41040900  0.36993600  1
  S  S49  1  0.67635000  0.77864800  0.56671800  1
  S  S50  1  0.58959100  0.00000000  0.86993600  1
  S  S51  1  0.00000000  0.69263100  0.45792000  1
  S  S52  1  0.00000000  0.58959100  0.86993600  1
  S  S53  1  0.67635000  0.89770300  0.06671800  1
  S  S54  1  0.10229700  0.77864800  0.06671800  1
  S  S55  1  0.77864800  0.67635000  0.56671800  1
  S  S56  1  0.22135200  0.89770300  0.56671800  1
  S  S57  1  0.10229700  0.32365000  0.56671800  1
  S  S58  1  0.32365000  0.22135200  0.06671800  1
  S  S59  1  0.69263100  0.69263100  0.95792000  1
  S  S60  1  0.30736900  0.00000000  0.95792000  1
  S  S61  1  0.32365000  0.10229700  0.56671800  1
  S  S62  1  0.58959100  0.58959100  0.36993600  1
  S  S63  1  0.00000000  0.30736900  0.95792000  1
  S  S64  1  0.22135200  0.32365000  0.06671800  1
  S  S65  1  0.77864800  0.10229700  0.06671800  1
  I  I66  1  0.33415500  0.79713200  0.09943000  1
  I  I67  1  0.20286800  0.66584500  0.59943000  1
  I  I68  1  0.66584500  0.46297700  0.09943000  1
  I  I69  1  0.87089900  0.00000000  0.69398700  1
  I  I70  1  0.33415500  0.53702300  0.59943000  1
  I  I71  1  0.46297700  0.79713200  0.59943000  1
  I  I72  1  0.53702300  0.20286800  0.09943000  1
  I  I73  1  0.53702300  0.33415500  0.59943000  1
  I  I74  1  0.87089900  0.87089900  0.19398700  1
  I  I75  1  0.79713200  0.46297700  0.59943000  1
  I  I76  1  0.00000000  0.87089900  0.69398700  1
  I  I77  1  0.46297700  0.66584500  0.09943000  1
  I  I78  1  0.66584500  0.20286800  0.59943000  1
  I  I79  1  0.12910100  0.12910100  0.69398700  1
  I  I80  1  0.20286800  0.53702300  0.09943000  1
  I  I81  1  0.00000000  0.12910100  0.19398700  1
  I  I82  1  0.12910100  0.00000000  0.19398700  1
  I  I83  1  0.79713200  0.33415500  0.09943000  1
