# generated using pymatgen
data_IrF6
_symmetry_space_group_name_H-M   'P 1'
_cell_length_a   5.13438800
_cell_length_b   8.85650400
_cell_length_c   9.74950300
_cell_angle_alpha   90.00000000
_cell_angle_beta   90.00000000
_cell_angle_gamma   90.00000000
_symmetry_Int_Tables_number   1
_chemical_formula_structural   IrF6
_chemical_formula_sum   'Ir4 F24'
_cell_volume   443.33649668
_cell_formula_units_Z   4
loop_
 _symmetry_equiv_pos_site_id
 _symmetry_equiv_pos_as_xyz
  1  'x, y, z'
loop_
 _atom_site_type_symbol
 _atom_site_label
 _atom_site_symmetry_multiplicity
 _atom_site_fract_x
 _atom_site_fract_y
 _atom_site_fract_z
 _atom_site_occupancy
  Ir  Ir0  1  0.59412800  0.25000000  0.87306300  1
  Ir  Ir1  1  0.90587200  0.25000000  0.37306300  1
  Ir  Ir2  1  0.40587200  0.75000000  0.12693700  1
  Ir  Ir3  1  0.09412800  0.75000000  0.62693700  1
  F  F4  1  0.24967000  0.60022300  0.51825600  1
  F  F5  1  0.25033000  0.89977700  0.01825600  1
  F  F6  1  0.93899200  0.89956800  0.73583400  1
  F  F7  1  0.19754600  0.25000000  0.48889900  1
  F  F8  1  0.74967000  0.10022300  0.98174400  1
  F  F9  1  0.56100800  0.89956800  0.23583400  1
  F  F10  1  0.30245400  0.25000000  0.98889900  1
  F  F11  1  0.24967000  0.89977700  0.51825600  1
  F  F12  1  0.75033000  0.39977700  0.48174400  1
  F  F13  1  0.43899200  0.39956800  0.76416600  1
  F  F14  1  0.74967000  0.39977700  0.98174400  1
  F  F15  1  0.80245400  0.75000000  0.51110100  1
  F  F16  1  0.69754600  0.75000000  0.01110100  1
  F  F17  1  0.25033000  0.60022300  0.01825600  1
  F  F18  1  0.43899200  0.10043200  0.76416600  1
  F  F19  1  0.06100800  0.39956800  0.26416600  1
  F  F20  1  0.61339000  0.25000000  0.25768800  1
  F  F21  1  0.56100800  0.60043200  0.23583400  1
  F  F22  1  0.88661000  0.25000000  0.75768800  1
  F  F23  1  0.11339000  0.75000000  0.24231200  1
  F  F24  1  0.06100800  0.10043200  0.26416600  1
  F  F25  1  0.93899200  0.60043200  0.73583400  1
  F  F26  1  0.38661000  0.75000000  0.74231200  1
  F  F27  1  0.75033000  0.10022300  0.48174400  1
