# generated using pymatgen
data_CuSeO4
_symmetry_space_group_name_H-M   'P 1'
_cell_length_a   5.06949800
_cell_length_b   6.84438100
_cell_length_c   8.94017600
_cell_angle_alpha   90.00000000
_cell_angle_beta   90.00000000
_cell_angle_gamma   90.00000000
_symmetry_Int_Tables_number   1
_chemical_formula_structural   CuSeO4
_chemical_formula_sum   'Cu4 Se4 O16'
_cell_volume   310.20243434
_cell_formula_units_Z   4
loop_
 _symmetry_equiv_pos_site_id
 _symmetry_equiv_pos_as_xyz
  1  'x, y, z'
loop_
 _atom_site_type_symbol
 _atom_site_label
 _atom_site_symmetry_multiplicity
 _atom_site_fract_x
 _atom_site_fract_y
 _atom_site_fract_z
 _atom_site_occupancy
  Cu  Cu0  1  0.00000000  0.50000000  0.00000000  1
  Cu  Cu1  1  0.50000000  0.00000000  0.50000000  1
  Cu  Cu2  1  0.00000000  0.00000000  0.00000000  1
  Cu  Cu3  1  0.50000000  0.50000000  0.50000000  1
  Se  Se4  1  0.45657800  0.25000000  0.81842000  1
  Se  Se5  1  0.04342200  0.25000000  0.31842000  1
  Se  Se6  1  0.54342200  0.75000000  0.18158000  1
  Se  Se7  1  0.95657800  0.75000000  0.68158000  1
  O  O8  1  0.73132400  0.25000000  0.37353100  1
  O  O9  1  0.80719300  0.95653200  0.62655100  1
  O  O10  1  0.57114400  0.75000000  0.37647500  1
  O  O11  1  0.30719300  0.04346800  0.87344900  1
  O  O12  1  0.69280700  0.54346800  0.12655100  1
  O  O13  1  0.92885600  0.75000000  0.87647500  1
  O  O14  1  0.42885600  0.25000000  0.62352500  1
  O  O15  1  0.69280700  0.95653200  0.12655100  1
  O  O16  1  0.26867600  0.75000000  0.62646900  1
  O  O17  1  0.80719300  0.54346800  0.62655100  1
  O  O18  1  0.76867600  0.25000000  0.87353100  1
  O  O19  1  0.07114400  0.25000000  0.12352500  1
  O  O20  1  0.30719300  0.45653200  0.87344900  1
  O  O21  1  0.23132400  0.75000000  0.12646900  1
  O  O22  1  0.19280700  0.04346800  0.37344900  1
  O  O23  1  0.19280700  0.45653200  0.37344900  1
