# generated using pymatgen
data_Y2Be2GeO7
_symmetry_space_group_name_H-M   'P 1'
_cell_length_a   7.46130800
_cell_length_b   7.46130800
_cell_length_c   4.83343800
_cell_angle_alpha   90.00000000
_cell_angle_beta   90.00000000
_cell_angle_gamma   90.00000000
_symmetry_Int_Tables_number   1
_chemical_formula_structural   Y2Be2GeO7
_chemical_formula_sum   'Y4 Be4 Ge2 O14'
_cell_volume   269.08289275
_cell_formula_units_Z   2
loop_
 _symmetry_equiv_pos_site_id
 _symmetry_equiv_pos_as_xyz
  1  'x, y, z'
loop_
 _atom_site_type_symbol
 _atom_site_label
 _atom_site_symmetry_multiplicity
 _atom_site_fract_x
 _atom_site_fract_y
 _atom_site_fract_z
 _atom_site_occupancy
  Y  Y0  1  0.34175000  0.15825000  0.50594000  1
  Y  Y1  1  0.84175000  0.34175000  0.49406000  1
  Y  Y2  1  0.15825000  0.65825000  0.49406000  1
  Y  Y3  1  0.65825000  0.84175000  0.50594000  1
  Be  Be4  1  0.13488200  0.36511800  0.95226400  1
  Be  Be5  1  0.63488200  0.13488200  0.04773600  1
  Be  Be6  1  0.36511800  0.86511800  0.04773600  1
  Be  Be7  1  0.86511800  0.63488200  0.95226400  1
  Ge  Ge8  1  0.00000000  0.00000000  0.00000000  1
  Ge  Ge9  1  0.50000000  0.50000000  0.00000000  1
  O  O10  1  0.00000000  0.50000000  0.81305700  1
  O  O11  1  0.50000000  0.00000000  0.18694300  1
  O  O12  1  0.14207600  0.35792400  0.28117000  1
  O  O13  1  0.64207600  0.14207600  0.71883000  1
  O  O14  1  0.35792400  0.85792400  0.71883000  1
  O  O15  1  0.85792400  0.64207600  0.28117000  1
  O  O16  1  0.08205400  0.17151000  0.78433400  1
  O  O17  1  0.82849000  0.08205400  0.21566600  1
  O  O18  1  0.17151000  0.91794600  0.21566600  1
  O  O19  1  0.91794600  0.82849000  0.78433400  1
  O  O20  1  0.58205400  0.32849000  0.21566600  1
  O  O21  1  0.41794600  0.67151000  0.21566600  1
  O  O22  1  0.67151000  0.58205400  0.78433400  1
  O  O23  1  0.32849000  0.41794600  0.78433400  1
