# generated using pymatgen
data_Sr(InAu)2
_symmetry_space_group_name_H-M   'P 1'
_cell_length_a   4.75122400
_cell_length_b   8.69026800
_cell_length_c   12.47522100
_cell_angle_alpha   90.00000000
_cell_angle_beta   90.00000000
_cell_angle_gamma   90.00000000
_symmetry_Int_Tables_number   1
_chemical_formula_structural   Sr(InAu)2
_chemical_formula_sum   'Sr4 In8 Au8'
_cell_volume   515.09451331
_cell_formula_units_Z   4
loop_
 _symmetry_equiv_pos_site_id
 _symmetry_equiv_pos_as_xyz
  1  'x, y, z'
loop_
 _atom_site_type_symbol
 _atom_site_label
 _atom_site_symmetry_multiplicity
 _atom_site_fract_x
 _atom_site_fract_y
 _atom_site_fract_z
 _atom_site_occupancy
  Sr  Sr0  1  0.25000000  0.78948000  0.83240000  1
  Sr  Sr1  1  0.25000000  0.28948000  0.66760000  1
  Sr  Sr2  1  0.75000000  0.21052000  0.16760000  1
  Sr  Sr3  1  0.75000000  0.71052000  0.33240000  1
  In  In4  1  0.25000000  0.40613500  0.94676900  1
  In  In5  1  0.75000000  0.59386500  0.05323100  1
  In  In6  1  0.75000000  0.09386500  0.44676900  1
  In  In7  1  0.25000000  0.90613500  0.55323100  1
  In  In8  1  0.25000000  0.84620900  0.13900500  1
  In  In9  1  0.75000000  0.65379100  0.63900500  1
  In  In10  1  0.75000000  0.15379100  0.86099500  1
  In  In11  1  0.25000000  0.34620900  0.36099500  1
  Au  Au12  1  0.25000000  0.50950500  0.16911600  1
  Au  Au13  1  0.25000000  0.09340500  0.98408400  1
  Au  Au14  1  0.75000000  0.99049500  0.66911600  1
  Au  Au15  1  0.75000000  0.90659500  0.01591600  1
  Au  Au16  1  0.25000000  0.00950500  0.33088400  1
  Au  Au17  1  0.75000000  0.40659500  0.48408400  1
  Au  Au18  1  0.25000000  0.59340500  0.51591600  1
  Au  Au19  1  0.75000000  0.49049500  0.83088400  1
