# generated using pymatgen
data_La4C2Cl5
_symmetry_space_group_name_H-M   'P 1'
_cell_length_a   9.84004989
_cell_length_b   9.84004989
_cell_length_c   9.84004989
_cell_angle_alpha   156.66623860
_cell_angle_beta   132.17793019
_cell_angle_gamma   53.86794297
_symmetry_Int_Tables_number   1
_chemical_formula_structural   La4C2Cl5
_chemical_formula_sum   'La4 C2 Cl5'
_cell_volume   278.49006149
_cell_formula_units_Z   1
loop_
 _symmetry_equiv_pos_site_id
 _symmetry_equiv_pos_as_xyz
  1  'x, y, z'
loop_
 _atom_site_type_symbol
 _atom_site_label
 _atom_site_symmetry_multiplicity
 _atom_site_fract_x
 _atom_site_fract_y
 _atom_site_fract_z
 _atom_site_occupancy
  La  La0  1  0.32843700  0.32843700  0.00000000  1
  La  La1  1  0.71309400  0.00000000  0.71309400  1
  La  La2  1  0.67156300  0.67156300  0.00000000  1
  La  La3  1  0.28690600  0.00000000  0.28690600  1
  C  C4  1  0.45952900  0.45952900  0.00000000  1
  C  C5  1  0.54047100  0.54047100  0.00000000  1
  Cl  Cl6  1  0.60482300  0.83255200  0.77227100  1
  Cl  Cl7  1  0.39517700  0.16744800  0.22772900  1
  Cl  Cl8  1  0.06028000  0.83255200  0.22772900  1
  Cl  Cl9  1  0.00000000  0.50000000  0.50000000  1
  Cl  Cl10  1  0.93971900  0.16744800  0.77227100  1
