# generated using pymatgen
data_Cs3Ta2S11
_symmetry_space_group_name_H-M   'P 1'
_cell_length_a   8.34414500
_cell_length_b   12.32683700
_cell_length_c   20.08221432
_cell_angle_alpha   77.74177988
_cell_angle_beta   90.00000000
_cell_angle_gamma   90.00000000
_symmetry_Int_Tables_number   1
_chemical_formula_structural   Cs3Ta2S11
_chemical_formula_sum   'Cs12 Ta8 S44'
_cell_volume   2018.50041472
_cell_formula_units_Z   4
loop_
 _symmetry_equiv_pos_site_id
 _symmetry_equiv_pos_as_xyz
  1  'x, y, z'
loop_
 _atom_site_type_symbol
 _atom_site_label
 _atom_site_symmetry_multiplicity
 _atom_site_fract_x
 _atom_site_fract_y
 _atom_site_fract_z
 _atom_site_occupancy
  Cs  Cs0  1  0.84063900  0.96373300  0.64189500  1
  Cs  Cs1  1  0.81829000  0.50339000  0.66269100  1
  Cs  Cs2  1  0.68171000  0.50339000  0.16269100  1
  Cs  Cs3  1  0.68729600  0.72903000  0.38171900  1
  Cs  Cs4  1  0.18171000  0.49661000  0.33730900  1
  Cs  Cs5  1  0.65936100  0.96373300  0.14189500  1
  Cs  Cs6  1  0.31829000  0.49661000  0.83730900  1
  Cs  Cs7  1  0.18729600  0.27097000  0.11828100  1
  Cs  Cs8  1  0.81270400  0.72903000  0.88171900  1
  Cs  Cs9  1  0.15936100  0.03626700  0.35810500  1
  Cs  Cs10  1  0.31270400  0.27097000  0.61828100  1
  Cs  Cs11  1  0.34063900  0.03626700  0.85810500  1
  Ta  Ta12  1  0.14338000  0.78978700  0.15673700  1
  Ta  Ta13  1  0.77822200  0.30683200  0.49341900  1
  Ta  Ta14  1  0.27822200  0.69316800  0.00658100  1
  Ta  Ta15  1  0.22177800  0.69316800  0.50658100  1
  Ta  Ta16  1  0.35662000  0.78978700  0.65673700  1
  Ta  Ta17  1  0.64338000  0.21021300  0.34326300  1
  Ta  Ta18  1  0.72177800  0.30683200  0.99341900  1
  Ta  Ta19  1  0.85662000  0.21021300  0.84326300  1
  S  S20  1  0.47046800  0.58453400  0.54413700  1
  S  S21  1  0.94899300  0.74711500  0.53092600  1
  S  S22  1  0.72605300  0.38833900  0.84557700  1
  S  S23  1  0.12223200  0.50001700  0.51271700  1
  S  S24  1  0.42287400  0.97814100  0.59278400  1
  S  S25  1  0.74531800  0.24991100  0.60606300  1
  S  S26  1  0.02953200  0.58453400  0.04413700  1
  S  S27  1  0.11350000  0.70880700  0.71488800  1
  S  S28  1  0.98563600  0.24757300  0.95188900  1
  S  S29  1  0.37776800  0.50001700  0.01271700  1
  S  S30  1  0.48563600  0.75242700  0.54811100  1
  S  S31  1  0.93651700  0.73629700  0.22714500  1
  S  S32  1  0.06348300  0.26370300  0.77285500  1
  S  S33  1  0.01436400  0.75242700  0.04811100  1
  S  S34  1  0.38650000  0.70880700  0.21488800  1
  S  S35  1  0.62223200  0.49998300  0.98728300  1
  S  S36  1  0.92287400  0.02185900  0.90721600  1
  S  S37  1  0.55100700  0.74711500  0.03092600  1
  S  S38  1  0.43651700  0.26370300  0.27285500  1
  S  S39  1  0.71841800  0.02793300  0.32057400  1
  S  S40  1  0.51436400  0.24757300  0.45188900  1
  S  S41  1  0.21841800  0.97206700  0.17942600  1
  S  S42  1  0.88650000  0.29119300  0.28511200  1
  S  S43  1  0.61350000  0.29119300  0.78511200  1
  S  S44  1  0.22605300  0.61166100  0.65442300  1
  S  S45  1  0.12867500  0.86222400  0.54080400  1
  S  S46  1  0.56348300  0.73629700  0.72714500  1
  S  S47  1  0.07712600  0.97814100  0.09278400  1
  S  S48  1  0.44899300  0.25288500  0.96907400  1
  S  S49  1  0.87132500  0.13777600  0.45919600  1
  S  S50  1  0.87776800  0.49998300  0.48728300  1
  S  S51  1  0.97046800  0.41546600  0.95586300  1
  S  S52  1  0.28158200  0.97206700  0.67942600  1
  S  S53  1  0.27394700  0.61166100  0.15442300  1
  S  S54  1  0.52953200  0.41546600  0.45586300  1
  S  S55  1  0.75468200  0.24991100  0.10606300  1
  S  S56  1  0.05100700  0.25288500  0.46907400  1
  S  S57  1  0.25468200  0.75008900  0.39393700  1
  S  S58  1  0.62867500  0.13777600  0.95919600  1
  S  S59  1  0.37132500  0.86222400  0.04080400  1
  S  S60  1  0.77394700  0.38833900  0.34557700  1
  S  S61  1  0.57712600  0.02185900  0.40721600  1
  S  S62  1  0.24531800  0.75008900  0.89393700  1
  S  S63  1  0.78158200  0.02793300  0.82057400  1
