# generated using pymatgen
data_Rb2BaNb2Se11
_symmetry_space_group_name_H-M   'P 1'
_cell_length_a   14.30379800
_cell_length_b   8.01111800
_cell_length_c   17.29627385
_cell_angle_alpha   83.73888388
_cell_angle_beta   90.00000000
_cell_angle_gamma   90.00000000
_symmetry_Int_Tables_number   1
_chemical_formula_structural   Rb2BaNb2Se11
_chemical_formula_sum   'Rb8 Ba4 Nb8 Se44'
_cell_volume   1970.14782036
_cell_formula_units_Z   4
loop_
 _symmetry_equiv_pos_site_id
 _symmetry_equiv_pos_as_xyz
  1  'x, y, z'
loop_
 _atom_site_type_symbol
 _atom_site_label
 _atom_site_symmetry_multiplicity
 _atom_site_fract_x
 _atom_site_fract_y
 _atom_site_fract_z
 _atom_site_occupancy
  Rb  Rb0  1  0.54142700  0.26226100  0.91523000  1
  Rb  Rb1  1  0.45857300  0.73773900  0.08477000  1
  Rb  Rb2  1  0.95857300  0.26226100  0.41523000  1
  Rb  Rb3  1  0.88344600  0.29241100  0.73294900  1
  Rb  Rb4  1  0.04142700  0.73773900  0.58477000  1
  Rb  Rb5  1  0.38344600  0.70758900  0.76705100  1
  Rb  Rb6  1  0.61655400  0.29241100  0.23294900  1
  Rb  Rb7  1  0.11655400  0.70758900  0.26705100  1
  Ba  Ba8  1  0.87762600  0.24912500  0.03289700  1
  Ba  Ba9  1  0.62237400  0.24912500  0.53289700  1
  Ba  Ba10  1  0.37762600  0.75087500  0.46710300  1
  Ba  Ba11  1  0.12237400  0.75087500  0.96710300  1
  Nb  Nb12  1  0.32754800  0.14290200  0.19487000  1
  Nb  Nb13  1  0.17245200  0.14290200  0.69487000  1
  Nb  Nb14  1  0.71692200  0.72138300  0.60582200  1
  Nb  Nb15  1  0.67245200  0.85709800  0.80513000  1
  Nb  Nb16  1  0.21692200  0.27861700  0.89417800  1
  Nb  Nb17  1  0.78307800  0.72138300  0.10582200  1
  Nb  Nb18  1  0.82754800  0.85709800  0.30513000  1
  Nb  Nb19  1  0.28307800  0.27861700  0.39417800  1
  Se  Se20  1  0.16445000  0.14628900  0.30166900  1
  Se  Se21  1  0.12355000  0.16302600  0.02354500  1
  Se  Se22  1  0.28239100  0.96096500  0.61094300  1
  Se  Se23  1  0.87645000  0.83697400  0.97645500  1
  Se  Se24  1  0.19382100  0.49574300  0.44486300  1
  Se  Se25  1  0.82327600  0.55895900  0.25089700  1
  Se  Se26  1  0.44648700  0.20652000  0.10120700  1
  Se  Se27  1  0.54617500  0.60091600  0.60560800  1
  Se  Se28  1  0.78239100  0.03903500  0.88905700  1
  Se  Se29  1  0.21760900  0.96096500  0.11094300  1
  Se  Se30  1  0.29473000  0.37661500  0.65447500  1
  Se  Se31  1  0.57544100  0.92227600  0.67524700  1
  Se  Se32  1  0.81188400  0.99137200  0.56697000  1
  Se  Se33  1  0.45382500  0.39908400  0.39439200  1
  Se  Se34  1  0.04617500  0.39908400  0.89439200  1
  Se  Se35  1  0.70527000  0.62338500  0.34552500  1
  Se  Se36  1  0.62355000  0.83697400  0.47645500  1
  Se  Se37  1  0.63763800  0.16006600  0.73578300  1
  Se  Se38  1  0.66445000  0.85371100  0.19833100  1
  Se  Se39  1  0.05351300  0.20652000  0.60120700  1
  Se  Se40  1  0.83555000  0.85371100  0.69833100  1
  Se  Se41  1  0.20527000  0.37661500  0.15447500  1
  Se  Se42  1  0.30617900  0.49574300  0.94486300  1
  Se  Se43  1  0.13763800  0.83993400  0.76421700  1
  Se  Se44  1  0.86236200  0.16006600  0.23578300  1
  Se  Se45  1  0.42455900  0.07772400  0.32475300  1
  Se  Se46  1  0.94648700  0.79348000  0.39879300  1
  Se  Se47  1  0.36236200  0.83993400  0.26421700  1
  Se  Se48  1  0.33555000  0.14628900  0.80166900  1
  Se  Se49  1  0.95382500  0.60091600  0.10560800  1
  Se  Se50  1  0.32327600  0.44104100  0.24910300  1
  Se  Se51  1  0.17672400  0.44104100  0.74910300  1
  Se  Se52  1  0.92455900  0.92227600  0.17524700  1
  Se  Se53  1  0.55351300  0.79348000  0.89879300  1
  Se  Se54  1  0.79473000  0.62338500  0.84552500  1
  Se  Se55  1  0.67672400  0.55895900  0.75089700  1
  Se  Se56  1  0.18811600  0.00862800  0.43303000  1
  Se  Se57  1  0.71760900  0.03903500  0.38905700  1
  Se  Se58  1  0.68811600  0.99137200  0.06697000  1
  Se  Se59  1  0.80617900  0.50425700  0.55513700  1
  Se  Se60  1  0.07544100  0.07772400  0.82475300  1
  Se  Se61  1  0.31188400  0.00862800  0.93303000  1
  Se  Se62  1  0.69382100  0.50425700  0.05513700  1
  Se  Se63  1  0.37645000  0.16302600  0.52354500  1
