# generated using pymatgen
data_AlPH8(CCl2)2
_symmetry_space_group_name_H-M   'P 1'
_cell_length_a   11.67634100
_cell_length_b   12.79528500
_cell_length_c   14.87062826
_cell_angle_alpha   89.96208697
_cell_angle_beta   90.00000000
_cell_angle_gamma   90.00000000
_symmetry_Int_Tables_number   1
_chemical_formula_structural   AlPH8(CCl2)2
_chemical_formula_sum   'Al8 P8 H64 C16 Cl32'
_cell_volume   2221.70276469
_cell_formula_units_Z   8
loop_
 _symmetry_equiv_pos_site_id
 _symmetry_equiv_pos_as_xyz
  1  'x, y, z'
loop_
 _atom_site_type_symbol
 _atom_site_label
 _atom_site_symmetry_multiplicity
 _atom_site_fract_x
 _atom_site_fract_y
 _atom_site_fract_z
 _atom_site_occupancy
  Al  Al0  1  0.21454800  0.03331800  0.12770100  1
  Al  Al1  1  0.28545200  0.53331800  0.12770100  1
  Al  Al2  1  0.26069700  0.08285600  0.62496600  1
  Al  Al3  1  0.23930300  0.58285600  0.62496600  1
  Al  Al4  1  0.78545200  0.96668200  0.87229900  1
  Al  Al5  1  0.73930300  0.91714400  0.37503400  1
  Al  Al6  1  0.71454800  0.46668200  0.87229900  1
  Al  Al7  1  0.76069700  0.41714400  0.37503400  1
  P  P8  1  0.63909200  0.64823600  0.60793300  1
  P  P9  1  0.36090800  0.35176400  0.39206700  1
  P  P10  1  0.35479600  0.34270900  0.85904900  1
  P  P11  1  0.86090800  0.14823600  0.60793300  1
  P  P12  1  0.85479600  0.15729100  0.14095100  1
  P  P13  1  0.64520400  0.65729100  0.14095100  1
  P  P14  1  0.13909200  0.85176400  0.39206700  1
  P  P15  1  0.14520400  0.84270900  0.85904900  1
  H  H16  1  0.15659100  0.29581100  0.85633500  1
  H  H17  1  0.67727100  0.06531200  0.13857600  1
  H  H18  1  0.19739600  0.36814300  0.29655100  1
  H  H19  1  0.31097000  0.95264600  0.39295100  1
  H  H20  1  0.83900100  0.68432500  0.59513400  1
  H  H21  1  0.99519700  0.71795800  0.87714000  1
  H  H22  1  0.82272900  0.56531200  0.13857600  1
  H  H23  1  0.34340900  0.79581100  0.85633500  1
  H  H24  1  0.13306400  0.84941700  0.76509700  1
  H  H25  1  0.08258000  0.92650400  0.89555900  1
  H  H26  1  0.18903000  0.45264600  0.39295100  1
  H  H27  1  0.90731900  0.28329100  0.02919800  1
  H  H28  1  0.17727100  0.43468800  0.86142400  1
  H  H29  1  0.80307400  0.64367900  0.03932000  1
  H  H30  1  0.32272900  0.93468800  0.86142400  1
  H  H31  1  0.19692600  0.35632100  0.96068000  1
  H  H32  1  0.64261700  0.83398700  0.60923400  1
  H  H33  1  0.00480300  0.28204200  0.12286000  1
  H  H34  1  0.14261700  0.66601300  0.39076600  1
  H  H35  1  0.57297300  0.57005100  0.64966200  1
  H  H36  1  0.89661300  0.28170500  0.71694600  1
  H  H37  1  0.63306400  0.65058300  0.23490300  1
  H  H38  1  0.13329400  0.65689300  0.86649300  1
  H  H39  1  0.37983300  0.36192800  0.48506000  1
  H  H40  1  0.09268100  0.71670900  0.97080200  1
  H  H41  1  0.39661300  0.21829500  0.28305400  1
  H  H42  1  0.36693600  0.34941700  0.76509700  1
  H  H43  1  0.69692600  0.14367900  0.03932000  1
  H  H44  1  0.85738300  0.33398700  0.60923400  1
  H  H45  1  0.91742000  0.07349600  0.10444100  1
  H  H46  1  0.65659100  0.20418900  0.14366500  1
  H  H47  1  0.66099900  0.18432500  0.59513400  1
  H  H48  1  0.60338700  0.78170500  0.71694600  1
  H  H49  1  0.16099900  0.31567500  0.40486600  1
  H  H50  1  0.07297300  0.92994900  0.35033800  1
  H  H51  1  0.35738300  0.16601300  0.39076600  1
  H  H52  1  0.30307400  0.85632100  0.96068000  1
  H  H53  1  0.81097000  0.54735400  0.60704900  1
  H  H54  1  0.40731900  0.21670900  0.97080200  1
  H  H55  1  0.92702700  0.07005100  0.64966200  1
  H  H56  1  0.63329400  0.84310700  0.13350700  1
  H  H57  1  0.68903000  0.04735400  0.60704900  1
  H  H58  1  0.00058600  0.71587900  0.37304400  1
  H  H59  1  0.10338700  0.71829500  0.28305400  1
  H  H60  1  0.84340900  0.70418900  0.14366500  1
  H  H61  1  0.80260400  0.63185700  0.70344900  1
  H  H62  1  0.50058600  0.78412100  0.62695600  1
  H  H63  1  0.86670600  0.34310700  0.13350700  1
  H  H64  1  0.99941400  0.28412100  0.62695600  1
  H  H65  1  0.87983300  0.13807200  0.51494000  1
  H  H66  1  0.36670600  0.15689300  0.86649300  1
  H  H67  1  0.30260400  0.86814300  0.29655100  1
  H  H68  1  0.49519700  0.78204200  0.12286000  1
  H  H69  1  0.86693600  0.15058300  0.23490300  1
  H  H70  1  0.33900100  0.81567500  0.40486600  1
  H  H71  1  0.62016700  0.63807200  0.51494000  1
  H  H72  1  0.50480300  0.21795800  0.87714000  1
  H  H73  1  0.12016700  0.86192800  0.48506000  1
  H  H74  1  0.58258000  0.57349600  0.10444100  1
  H  H75  1  0.69739600  0.13185700  0.70344900  1
  H  H76  1  0.49941400  0.21587900  0.37304400  1
  H  H77  1  0.42702700  0.42994900  0.35033800  1
  H  H78  1  0.59268100  0.78329100  0.02919800  1
  H  H79  1  0.41742000  0.42650400  0.89555900  1
  C  C80  1  0.79357200  0.64106700  0.11270200  1
  C  C81  1  0.91448700  0.27859000  0.10268200  1
  C  C82  1  0.08551300  0.72141000  0.89731800  1
  C  C83  1  0.78772500  0.62562700  0.63079200  1
  C  C84  1  0.20642800  0.35893300  0.88729800  1
  C  C85  1  0.21227500  0.37437300  0.36920800  1
  C  C86  1  0.90861300  0.27449700  0.64401300  1
  C  C87  1  0.59138700  0.77449700  0.64401300  1
  C  C88  1  0.70642800  0.14106700  0.11270200  1
  C  C89  1  0.29357200  0.85893300  0.88729800  1
  C  C90  1  0.71227500  0.12562700  0.63079200  1
  C  C91  1  0.58551300  0.77859000  0.10268200  1
  C  C92  1  0.41448700  0.22141000  0.89731800  1
  C  C93  1  0.40861300  0.22550300  0.35598700  1
  C  C94  1  0.28772500  0.87437300  0.36920800  1
  C  C95  1  0.09138700  0.72550300  0.35598700  1
  Cl  Cl96  1  0.31109000  0.92103500  0.62164100  1
  Cl  Cl97  1  0.66447100  0.62963000  0.87013900  1
  Cl  Cl98  1  0.60173900  0.95613500  0.86610100  1
  Cl  Cl99  1  0.65384200  0.38596900  0.49163900  1
  Cl  Cl100  1  0.35033200  0.60370400  0.00605300  1
  Cl  Cl101  1  0.63765300  0.38867200  0.75793500  1
  Cl  Cl102  1  0.83870000  0.89085000  0.25438500  1
  Cl  Cl103  1  0.10173900  0.54386500  0.13389900  1
  Cl  Cl104  1  0.15384200  0.11403100  0.50836100  1
  Cl  Cl105  1  0.86234700  0.88867200  0.75793500  1
  Cl  Cl106  1  0.83552900  0.12963000  0.87013900  1
  Cl  Cl107  1  0.33870000  0.60915000  0.74561500  1
  Cl  Cl108  1  0.90742100  0.31552200  0.37719000  1
  Cl  Cl109  1  0.68891000  0.07896500  0.37835900  1
  Cl  Cl110  1  0.09257900  0.68447800  0.62281000  1
  Cl  Cl111  1  0.66130000  0.39085000  0.25438500  1
  Cl  Cl112  1  0.34615800  0.61403100  0.50836100  1
  Cl  Cl113  1  0.13765300  0.11132800  0.24206500  1
  Cl  Cl114  1  0.16447100  0.87037000  0.12986100  1
  Cl  Cl115  1  0.64966800  0.39629600  0.99394700  1
  Cl  Cl116  1  0.16130000  0.10915000  0.74561500  1
  Cl  Cl117  1  0.14966800  0.10370400  0.00605300  1
  Cl  Cl118  1  0.85033200  0.89629600  0.99394700  1
  Cl  Cl119  1  0.39826100  0.04386500  0.13389900  1
  Cl  Cl120  1  0.36234700  0.61132800  0.24206500  1
  Cl  Cl121  1  0.59257900  0.81552200  0.37719000  1
  Cl  Cl122  1  0.89826100  0.45613500  0.86610100  1
  Cl  Cl123  1  0.40742100  0.18447800  0.62281000  1
  Cl  Cl124  1  0.84615800  0.88596900  0.49163900  1
  Cl  Cl125  1  0.33552900  0.37037000  0.12986100  1
  Cl  Cl126  1  0.18891000  0.42103500  0.62164100  1
  Cl  Cl127  1  0.81109000  0.57896500  0.37835900  1
