# generated using pymatgen
data_Ba2Eu2ZnPtO8
_symmetry_space_group_name_H-M   'P 1'
_cell_length_a   5.85260400
_cell_length_b   10.53613000
_cell_length_c   13.61798700
_cell_angle_alpha   90.00000000
_cell_angle_beta   90.00000000
_cell_angle_gamma   90.00000000
_symmetry_Int_Tables_number   1
_chemical_formula_structural   Ba2Eu2ZnPtO8
_chemical_formula_sum   'Ba8 Eu8 Zn4 Pt4 O32'
_cell_volume   839.73678023
_cell_formula_units_Z   4
loop_
 _symmetry_equiv_pos_site_id
 _symmetry_equiv_pos_as_xyz
  1  'x, y, z'
loop_
 _atom_site_type_symbol
 _atom_site_label
 _atom_site_symmetry_multiplicity
 _atom_site_fract_x
 _atom_site_fract_y
 _atom_site_fract_z
 _atom_site_occupancy
  Ba  Ba0  1  0.25000000  0.39887900  0.08261900  1
  Ba  Ba1  1  0.75000000  0.17721100  0.21520500  1
  Ba  Ba2  1  0.25000000  0.10112100  0.58261900  1
  Ba  Ba3  1  0.25000000  0.82278900  0.78479500  1
  Ba  Ba4  1  0.75000000  0.32278900  0.71520500  1
  Ba  Ba5  1  0.75000000  0.60112100  0.91738100  1
  Ba  Ba6  1  0.25000000  0.67721100  0.28479500  1
  Ba  Ba7  1  0.75000000  0.89887900  0.41738100  1
  Eu  Eu8  1  0.25000000  0.19041000  0.86003300  1
  Eu  Eu9  1  0.25000000  0.30959000  0.36003300  1
  Eu  Eu10  1  0.75000000  0.80959000  0.13996700  1
  Eu  Eu11  1  0.75000000  0.98710200  0.91833300  1
  Eu  Eu12  1  0.25000000  0.48710200  0.58166700  1
  Eu  Eu13  1  0.75000000  0.69041000  0.63996700  1
  Eu  Eu14  1  0.75000000  0.51289800  0.41833300  1
  Eu  Eu15  1  0.25000000  0.01289800  0.08166700  1
  Zn  Zn16  1  0.75000000  0.27841900  0.97389300  1
  Zn  Zn17  1  0.25000000  0.72158100  0.02610700  1
  Zn  Zn18  1  0.75000000  0.22158100  0.47389300  1
  Zn  Zn19  1  0.25000000  0.77841900  0.52610700  1
  Pt  Pt20  1  0.75000000  0.52790700  0.19218600  1
  Pt  Pt21  1  0.75000000  0.97209300  0.69218600  1
  Pt  Pt22  1  0.25000000  0.47209300  0.80781400  1
  Pt  Pt23  1  0.25000000  0.02790700  0.30781400  1
  O  O24  1  0.48945100  0.55927100  0.72320200  1
  O  O25  1  0.75000000  0.82206400  0.78949200  1
  O  O26  1  0.50583100  0.35731700  0.49477400  1
  O  O27  1  0.99485800  0.62362800  0.11157300  1
  O  O28  1  0.00583100  0.85731700  0.00522600  1
  O  O29  1  0.98945100  0.44072900  0.27679800  1
  O  O30  1  0.50514200  0.62362800  0.11157300  1
  O  O31  1  0.99416900  0.35731700  0.49477400  1
  O  O32  1  0.49485800  0.37637200  0.88842700  1
  O  O33  1  0.98945100  0.05927100  0.77679800  1
  O  O34  1  0.25000000  0.62067300  0.90359800  1
  O  O35  1  0.50514200  0.87637200  0.61157300  1
  O  O36  1  0.75000000  0.37932700  0.09640200  1
  O  O37  1  0.51054900  0.44072900  0.27679800  1
  O  O38  1  0.49416900  0.85731700  0.00522600  1
  O  O39  1  0.75000000  0.67793600  0.28949200  1
  O  O40  1  0.51054900  0.05927100  0.77679800  1
  O  O41  1  0.01054900  0.55927100  0.72320200  1
  O  O42  1  0.48945100  0.94072900  0.22320200  1
  O  O43  1  0.00583100  0.64268300  0.50522600  1
  O  O44  1  0.99485800  0.87637200  0.61157300  1
  O  O45  1  0.75000000  0.12067300  0.59640200  1
  O  O46  1  0.00514200  0.37637200  0.88842700  1
  O  O47  1  0.49416900  0.64268300  0.50522600  1
  O  O48  1  0.99416900  0.14268300  0.99477400  1
  O  O49  1  0.25000000  0.17793600  0.21050800  1
  O  O50  1  0.50583100  0.14268300  0.99477400  1
  O  O51  1  0.25000000  0.32206400  0.71050800  1
  O  O52  1  0.01054900  0.94072900  0.22320200  1
  O  O53  1  0.49485800  0.12362800  0.38842700  1
  O  O54  1  0.25000000  0.87932700  0.40359800  1
  O  O55  1  0.00514200  0.12362800  0.38842700  1
