# generated using pymatgen
data_Sm2(SeO3)3
_symmetry_space_group_name_H-M   'P 1'
_cell_length_a   7.07644800
_cell_length_b   8.02232194
_cell_length_c   9.21817691
_cell_angle_alpha   70.23532014
_cell_angle_beta   75.93468248
_cell_angle_gamma   64.12160596
_symmetry_Int_Tables_number   1
_chemical_formula_structural   Sm2(SeO3)3
_chemical_formula_sum   'Sm4 Se6 O18'
_cell_volume   440.27458088
_cell_formula_units_Z   2
loop_
 _symmetry_equiv_pos_site_id
 _symmetry_equiv_pos_as_xyz
  1  'x, y, z'
loop_
 _atom_site_type_symbol
 _atom_site_label
 _atom_site_symmetry_multiplicity
 _atom_site_fract_x
 _atom_site_fract_y
 _atom_site_fract_z
 _atom_site_occupancy
  Sm  Sm0  1  0.62717000  0.35018100  0.32374900  1
  Sm  Sm1  1  0.37283000  0.64981900  0.67625100  1
  Sm  Sm2  1  0.22820400  0.31126200  0.12826500  1
  Sm  Sm3  1  0.77179600  0.68873800  0.87173500  1
  Se  Se4  1  0.45363000  0.17595900  0.74382300  1
  Se  Se5  1  0.19086900  0.76560500  0.03536100  1
  Se  Se6  1  0.87089600  0.78045800  0.48968700  1
  Se  Se7  1  0.80913100  0.23439500  0.96463900  1
  Se  Se8  1  0.54637000  0.82404100  0.25617700  1
  Se  Se9  1  0.12910400  0.21954200  0.51031300  1
  O  O10  1  0.67478600  0.01854700  0.83470900  1
  O  O11  1  0.32521400  0.98145300  0.16529100  1
  O  O12  1  0.64120100  0.78451700  0.61699200  1
  O  O13  1  0.35879900  0.21548300  0.38300800  1
  O  O14  1  0.39112100  0.78562400  0.89019000  1
  O  O15  1  0.32098600  0.33713700  0.85677400  1
  O  O16  1  0.90284200  0.34352100  0.05370000  1
  O  O17  1  0.53996600  0.33571800  0.59278800  1
  O  O18  1  0.69760800  0.43932700  0.82269000  1
  O  O19  1  0.09715800  0.65647900  0.94630000  1
  O  O20  1  0.17158500  0.98598400  0.58509500  1
  O  O21  1  0.03074400  0.68623500  0.64188100  1
  O  O22  1  0.60887900  0.21437600  0.10981000  1
  O  O23  1  0.67901400  0.66286300  0.14322600  1
  O  O24  1  0.46003400  0.66428200  0.40721200  1
  O  O25  1  0.30239200  0.56067300  0.17731000  1
  O  O26  1  0.82841500  0.01401600  0.41490500  1
  O  O27  1  0.96925600  0.31376500  0.35811900  1
