# generated using pymatgen
data_Hf2Al3C4
_symmetry_space_group_name_H-M   'P 1'
_cell_length_a   3.33529818
_cell_length_b   3.33529818
_cell_length_c   22.16093600
_cell_angle_alpha   90.00000000
_cell_angle_beta   90.00000000
_cell_angle_gamma   120.00000348
_symmetry_Int_Tables_number   1
_chemical_formula_structural   Hf2Al3C4
_chemical_formula_sum   'Hf4 Al6 C8'
_cell_volume   213.49516684
_cell_formula_units_Z   2
loop_
 _symmetry_equiv_pos_site_id
 _symmetry_equiv_pos_as_xyz
  1  'x, y, z'
loop_
 _atom_site_type_symbol
 _atom_site_label
 _atom_site_symmetry_multiplicity
 _atom_site_fract_x
 _atom_site_fract_y
 _atom_site_fract_z
 _atom_site_occupancy
  Hf  Hf0  1  0.66666700  0.33333300  0.05765200  1
  Hf  Hf1  1  0.33333300  0.66666700  0.94234800  1
  Hf  Hf2  1  0.33333300  0.66666700  0.55765200  1
  Hf  Hf3  1  0.66666700  0.33333300  0.44234800  1
  Al  Al4  1  0.00000000  0.00000000  0.15847200  1
  Al  Al5  1  0.00000000  0.00000000  0.34152700  1
  Al  Al6  1  0.00000000  0.00000000  0.84152700  1
  Al  Al7  1  0.00000000  0.00000000  0.65847300  1
  Al  Al8  1  0.66666700  0.33333300  0.75000000  1
  Al  Al9  1  0.33333300  0.66666700  0.25000000  1
  C  C10  1  0.66666700  0.33333300  0.62675600  1
  C  C11  1  0.33333300  0.66666700  0.37324400  1
  C  C12  1  0.00000000  0.00000000  0.25000000  1
  C  C13  1  0.33333300  0.66666700  0.12675600  1
  C  C14  1  0.00000000  0.00000000  0.00000000  1
  C  C15  1  0.66666700  0.33333300  0.87324400  1
  C  C16  1  0.00000000  0.00000000  0.50000000  1
  C  C17  1  0.00000000  0.00000000  0.75000000  1
