# generated using pymatgen
data_K2CaAs2O7
_symmetry_space_group_name_H-M   'P 1'
_cell_length_a   5.93171000
_cell_length_b   9.37101100
_cell_length_c   14.91904080
_cell_angle_alpha   74.06394500
_cell_angle_beta   90.00000000
_cell_angle_gamma   90.00000000
_symmetry_Int_Tables_number   1
_chemical_formula_structural   K2CaAs2O7
_chemical_formula_sum   'K8 Ca4 As8 O28'
_cell_volume   797.42085183
_cell_formula_units_Z   4
loop_
 _symmetry_equiv_pos_site_id
 _symmetry_equiv_pos_as_xyz
  1  'x, y, z'
loop_
 _atom_site_type_symbol
 _atom_site_label
 _atom_site_symmetry_multiplicity
 _atom_site_fract_x
 _atom_site_fract_y
 _atom_site_fract_z
 _atom_site_occupancy
  K  K0  1  0.23293200  0.46622500  0.33583700  1
  K  K1  1  0.75385000  0.96724000  0.11355900  1
  K  K2  1  0.24615000  0.03276000  0.88644100  1
  K  K3  1  0.73293200  0.53377500  0.16416300  1
  K  K4  1  0.26706800  0.46622500  0.83583700  1
  K  K5  1  0.25385000  0.03276000  0.38644100  1
  K  K6  1  0.74615000  0.96724000  0.61355900  1
  K  K7  1  0.76706800  0.53377500  0.66416300  1
  Ca  Ca8  1  0.27189700  0.26572500  0.13742300  1
  Ca  Ca9  1  0.72810300  0.73427500  0.86257700  1
  Ca  Ca10  1  0.77189700  0.73427500  0.36257700  1
  Ca  Ca11  1  0.22810300  0.26572500  0.63742300  1
  As  As12  1  0.70686700  0.31484400  0.47234900  1
  As  As13  1  0.26043600  0.82445700  0.19819800  1
  As  As14  1  0.29313300  0.68515600  0.52765100  1
  As  As15  1  0.73956400  0.17554300  0.80180200  1
  As  As16  1  0.23956400  0.82445700  0.69819800  1
  As  As17  1  0.76043600  0.17554300  0.30180200  1
  As  As18  1  0.79313300  0.31484400  0.97234900  1
  As  As19  1  0.20686700  0.68515600  0.02765100  1
  O  O20  1  0.98864200  0.27340600  0.24940300  1
  O  O21  1  0.51135800  0.27340600  0.74940300  1
  O  O22  1  0.24795300  0.52517800  0.61248000  1
  O  O23  1  0.25204700  0.52517800  0.11248000  1
  O  O24  1  0.42981100  0.27541900  0.49916700  1
  O  O25  1  0.26581300  0.00671800  0.19442500  1
  O  O26  1  0.13017000  0.71524400  0.43076100  1
  O  O27  1  0.92981100  0.72458100  0.00083300  1
  O  O28  1  0.80056200  0.16323300  0.42557400  1
  O  O29  1  0.01135800  0.72659400  0.75059700  1
  O  O30  1  0.00774900  0.73860500  0.22858300  1
  O  O31  1  0.57018900  0.72458100  0.50083300  1
  O  O32  1  0.99225100  0.26139500  0.77141700  1
  O  O33  1  0.74795300  0.47482200  0.88752000  1
  O  O34  1  0.86983000  0.28475600  0.56923900  1
  O  O35  1  0.23418700  0.00671800  0.69442500  1
  O  O36  1  0.07018900  0.27541900  0.99916700  1
  O  O37  1  0.48864200  0.72659400  0.25059700  1
  O  O38  1  0.49225100  0.73860500  0.72858300  1
  O  O39  1  0.50774900  0.26139500  0.27141700  1
  O  O40  1  0.76581300  0.99328200  0.30557500  1
  O  O41  1  0.73418700  0.99328200  0.80557500  1
  O  O42  1  0.19943800  0.83676700  0.57442600  1
  O  O43  1  0.36983000  0.71524400  0.93076100  1
  O  O44  1  0.30056200  0.83676700  0.07442600  1
  O  O45  1  0.69943800  0.16323300  0.92557400  1
  O  O46  1  0.63017000  0.28475600  0.06923900  1
  O  O47  1  0.75204700  0.47482200  0.38752000  1
