# generated using pymatgen
data_Ag5GeO4
_symmetry_space_group_name_H-M   'P 1'
_cell_length_a   10.07194300
_cell_length_b   6.54620900
_cell_length_c   11.25999791
_cell_angle_alpha   55.50837226
_cell_angle_beta   90.00000000
_cell_angle_gamma   90.00000000
_symmetry_Int_Tables_number   1
_chemical_formula_structural   Ag5GeO4
_chemical_formula_sum   'Ag20 Ge4 O16'
_cell_volume   611.89761395
_cell_formula_units_Z   4
loop_
 _symmetry_equiv_pos_site_id
 _symmetry_equiv_pos_as_xyz
  1  'x, y, z'
loop_
 _atom_site_type_symbol
 _atom_site_label
 _atom_site_symmetry_multiplicity
 _atom_site_fract_x
 _atom_site_fract_y
 _atom_site_fract_z
 _atom_site_occupancy
  Ag  Ag0  1  0.41549300  0.07582000  0.09015000  1
  Ag  Ag1  1  0.91549300  0.92418000  0.40985000  1
  Ag  Ag2  1  0.58450700  0.92418000  0.90985000  1
  Ag  Ag3  1  0.08450700  0.07582000  0.59015000  1
  Ag  Ag4  1  0.35471800  0.60327000  0.12136800  1
  Ag  Ag5  1  0.85471800  0.39673000  0.37863200  1
  Ag  Ag6  1  0.64528200  0.39673000  0.87863200  1
  Ag  Ag7  1  0.14528200  0.60327000  0.62136800  1
  Ag  Ag8  1  0.40763300  0.32273000  0.69890000  1
  Ag  Ag9  1  0.90763300  0.67727000  0.80110000  1
  Ag  Ag10  1  0.59236700  0.67727000  0.30110000  1
  Ag  Ag11  1  0.09236700  0.32273000  0.19890000  1
  Ag  Ag12  1  0.37732500  0.80156200  0.42431600  1
  Ag  Ag13  1  0.87732500  0.19843800  0.07568400  1
  Ag  Ag14  1  0.62267500  0.19843800  0.57568400  1
  Ag  Ag15  1  0.12267500  0.80156200  0.92431600  1
  Ag  Ag16  1  0.37517200  0.34730000  0.44280400  1
  Ag  Ag17  1  0.87517200  0.65270000  0.05719600  1
  Ag  Ag18  1  0.62482800  0.65270000  0.55719600  1
  Ag  Ag19  1  0.12482800  0.34730000  0.94280400  1
  Ge  Ge20  1  0.38645700  0.75093800  0.75942100  1
  Ge  Ge21  1  0.88645700  0.24906200  0.74057900  1
  Ge  Ge22  1  0.61354300  0.24906200  0.24057900  1
  Ge  Ge23  1  0.11354300  0.75093800  0.25942100  1
  O  O24  1  0.43901000  0.22222200  0.27774200  1
  O  O25  1  0.93901000  0.77777800  0.22225800  1
  O  O26  1  0.56099000  0.77777800  0.72225800  1
  O  O27  1  0.06099000  0.22222200  0.77774200  1
  O  O28  1  0.29014300  0.91964600  0.59669300  1
  O  O29  1  0.79014300  0.08035400  0.90330700  1
  O  O30  1  0.70985700  0.08035400  0.40330700  1
  O  O31  1  0.20985700  0.91964600  0.09669300  1
  O  O32  1  0.34316500  0.43075800  0.85693900  1
  O  O33  1  0.13971600  0.88161400  0.36150900  1
  O  O34  1  0.84316500  0.56924200  0.64306100  1
  O  O35  1  0.15683500  0.43075800  0.35693900  1
  O  O36  1  0.36028400  0.88161400  0.86150900  1
  O  O37  1  0.86028400  0.11838600  0.63849100  1
  O  O38  1  0.63971600  0.11838600  0.13849100  1
  O  O39  1  0.65683500  0.56924200  0.14306100  1
