# generated using pymatgen
data_Nd2Fe12P7
_symmetry_space_group_name_H-M   'P 1'
_cell_length_a   9.04562608
_cell_length_b   9.04562608
_cell_length_c   3.67660400
_cell_angle_alpha   90.00000000
_cell_angle_beta   90.00000000
_cell_angle_gamma   120.00000058
_symmetry_Int_Tables_number   1
_chemical_formula_structural   Nd2Fe12P7
_chemical_formula_sum   'Nd2 Fe12 P7'
_cell_volume   260.52820485
_cell_formula_units_Z   1
loop_
 _symmetry_equiv_pos_site_id
 _symmetry_equiv_pos_as_xyz
  1  'x, y, z'
loop_
 _atom_site_type_symbol
 _atom_site_label
 _atom_site_symmetry_multiplicity
 _atom_site_fract_x
 _atom_site_fract_y
 _atom_site_fract_z
 _atom_site_occupancy
  Nd  Nd0  1  0.66666700  0.33333300  0.00000000  1
  Nd  Nd1  1  0.33333300  0.66666700  0.50000000  1
  Fe  Fe2  1  0.05465500  0.62918000  0.00000000  1
  Fe  Fe3  1  0.57452500  0.94534500  0.00000000  1
  Fe  Fe4  1  0.37082000  0.42547500  0.00000000  1
  Fe  Fe5  1  0.27301800  0.12019200  0.00000000  1
  Fe  Fe6  1  0.84717400  0.72698200  0.00000000  1
  Fe  Fe7  1  0.87980800  0.15282600  0.00000000  1
  Fe  Fe8  1  0.43075300  0.04786000  0.50000000  1
  Fe  Fe9  1  0.61710700  0.56924700  0.50000000  1
  Fe  Fe10  1  0.95214000  0.38289300  0.50000000  1
  Fe  Fe11  1  0.09710300  0.88139900  0.50000000  1
  Fe  Fe12  1  0.78429600  0.90289700  0.50000000  1
  Fe  Fe13  1  0.11860100  0.21570400  0.50000000  1
  P  P14  1  0.29680700  0.89123300  0.00000000  1
  P  P15  1  0.59442600  0.70319300  0.00000000  1
  P  P16  1  0.10876700  0.40557400  0.00000000  1
  P  P17  1  0.39657200  0.28912000  0.50000000  1
  P  P18  1  0.89254800  0.60342800  0.50000000  1
  P  P19  1  0.71088000  0.10745200  0.50000000  1
  P  P20  1  0.00000000  0.00000000  0.00000000  1
