# generated using pymatgen
data_Na2Ca2(CO3)3
_symmetry_space_group_name_H-M   'P 1'
_cell_length_a   6.63845401
_cell_length_b   6.63845401
_cell_length_c   5.00689700
_cell_angle_alpha   90.00000000
_cell_angle_beta   90.00000000
_cell_angle_gamma   114.34372355
_symmetry_Int_Tables_number   1
_chemical_formula_structural   Na2Ca2(CO3)3
_chemical_formula_sum   'Na2 Ca2 C3 O9'
_cell_volume   201.03114706
_cell_formula_units_Z   1
loop_
 _symmetry_equiv_pos_site_id
 _symmetry_equiv_pos_as_xyz
  1  'x, y, z'
loop_
 _atom_site_type_symbol
 _atom_site_label
 _atom_site_symmetry_multiplicity
 _atom_site_fract_x
 _atom_site_fract_y
 _atom_site_fract_z
 _atom_site_occupancy
  Na  Na0  1  0.07412300  0.07412300  0.00000000  1
  Na  Na1  1  0.38762900  0.38762900  0.50000000  1
  Ca  Ca2  1  0.78499100  0.21775300  0.50000000  1
  Ca  Ca3  1  0.21775300  0.78499100  0.50000000  1
  C  C4  1  0.12609800  0.53428900  0.00000000  1
  C  C5  1  0.53428900  0.12609800  0.00000000  1
  C  C6  1  0.77427500  0.77427500  0.50000000  1
  O  O7  1  0.58677500  0.78981800  0.50000000  1
  O  O8  1  0.78981800  0.58677500  0.50000000  1
  O  O9  1  0.12337400  0.72753600  0.00000000  1
  O  O10  1  0.95816300  0.95816300  0.50000000  1
  O  O11  1  0.72753600  0.12337400  0.00000000  1
  O  O12  1  0.13038200  0.43915500  0.77389300  1
  O  O13  1  0.43915500  0.13038200  0.22610700  1
  O  O14  1  0.13038200  0.43915500  0.22610700  1
  O  O15  1  0.43915500  0.13038200  0.77389300  1
