# generated using pymatgen
data_YbAlPd
_symmetry_space_group_name_H-M   'P 1'
_cell_length_a   4.25594400
_cell_length_b   7.17761300
_cell_length_c   7.91238800
_cell_angle_alpha   90.00000000
_cell_angle_beta   90.00000000
_cell_angle_gamma   90.00000000
_symmetry_Int_Tables_number   1
_chemical_formula_structural   YbAlPd
_chemical_formula_sum   'Yb4 Al4 Pd4'
_cell_volume   241.70382262
_cell_formula_units_Z   4
loop_
 _symmetry_equiv_pos_site_id
 _symmetry_equiv_pos_as_xyz
  1  'x, y, z'
loop_
 _atom_site_type_symbol
 _atom_site_label
 _atom_site_symmetry_multiplicity
 _atom_site_fract_x
 _atom_site_fract_y
 _atom_site_fract_z
 _atom_site_occupancy
  Yb  Yb0  1  0.25000000  0.02708200  0.32282400  1
  Yb  Yb1  1  0.25000000  0.52708200  0.17717600  1
  Yb  Yb2  1  0.75000000  0.97291800  0.67717600  1
  Yb  Yb3  1  0.75000000  0.47291800  0.82282400  1
  Al  Al4  1  0.25000000  0.14145700  0.93611500  1
  Al  Al5  1  0.25000000  0.64145700  0.56388500  1
  Al  Al6  1  0.75000000  0.85854300  0.06388500  1
  Al  Al7  1  0.75000000  0.35854300  0.43611500  1
  Pd  Pd8  1  0.25000000  0.28287500  0.61837600  1
  Pd  Pd9  1  0.25000000  0.78287500  0.88162400  1
  Pd  Pd10  1  0.75000000  0.71712500  0.38162400  1
  Pd  Pd11  1  0.75000000  0.21712500  0.11837600  1
