# generated using pymatgen
data_Tb3CuSiSe7
_symmetry_space_group_name_H-M   'P 1'
_cell_length_a   10.38304771
_cell_length_b   10.38304771
_cell_length_c   6.03198000
_cell_angle_alpha   90.00000000
_cell_angle_beta   90.00000000
_cell_angle_gamma   119.99999814
_symmetry_Int_Tables_number   1
_chemical_formula_structural   Tb3CuSiSe7
_chemical_formula_sum   'Tb6 Cu2 Si2 Se14'
_cell_volume   563.17093346
_cell_formula_units_Z   2
loop_
 _symmetry_equiv_pos_site_id
 _symmetry_equiv_pos_as_xyz
  1  'x, y, z'
loop_
 _atom_site_type_symbol
 _atom_site_label
 _atom_site_symmetry_multiplicity
 _atom_site_fract_x
 _atom_site_fract_y
 _atom_site_fract_z
 _atom_site_occupancy
  Tb  Tb0  1  0.12993200  0.35533900  0.74079700  1
  Tb  Tb1  1  0.64466100  0.77459300  0.74079700  1
  Tb  Tb2  1  0.22540700  0.87006800  0.74079700  1
  Tb  Tb3  1  0.77459300  0.12993200  0.24079700  1
  Tb  Tb4  1  0.87006800  0.64466100  0.24079700  1
  Tb  Tb5  1  0.35533900  0.22540700  0.24079700  1
  Cu  Cu6  1  0.00000000  0.00000000  0.18394200  1
  Cu  Cu7  1  0.00000000  0.00000000  0.68394200  1
  Si  Si8  1  0.66666700  0.33333300  0.82942800  1
  Si  Si9  1  0.33333300  0.66666700  0.32942800  1
  Se  Se10  1  0.66666700  0.33333300  0.45267000  1
  Se  Se11  1  0.83637400  0.09696000  0.71098500  1
  Se  Se12  1  0.16362600  0.90304000  0.21098500  1
  Se  Se13  1  0.89850900  0.41879400  0.98467100  1
  Se  Se14  1  0.90304000  0.73941400  0.71098500  1
  Se  Se15  1  0.52028500  0.10149100  0.98467100  1
  Se  Se16  1  0.33333300  0.66666700  0.95267000  1
  Se  Se17  1  0.26058600  0.16362600  0.71098500  1
  Se  Se18  1  0.09696000  0.26058600  0.21098500  1
  Se  Se19  1  0.73941400  0.83637400  0.21098500  1
  Se  Se20  1  0.47971500  0.89850900  0.48467100  1
  Se  Se21  1  0.41879400  0.52028500  0.48467100  1
  Se  Se22  1  0.58120600  0.47971500  0.98467100  1
  Se  Se23  1  0.10149100  0.58120600  0.48467100  1
