# generated using pymatgen
data_La6P17Pd6
_symmetry_space_group_name_H-M   'P 1'
_cell_length_a   9.07808185
_cell_length_b   9.07808185
_cell_length_c   9.07808185
_cell_angle_alpha   109.47122063
_cell_angle_beta   109.47122063
_cell_angle_gamma   109.47122063
_symmetry_Int_Tables_number   1
_chemical_formula_structural   La6P17Pd6
_chemical_formula_sum   'La6 P17 Pd6'
_cell_volume   575.91765425
_cell_formula_units_Z   1
loop_
 _symmetry_equiv_pos_site_id
 _symmetry_equiv_pos_as_xyz
  1  'x, y, z'
loop_
 _atom_site_type_symbol
 _atom_site_label
 _atom_site_symmetry_multiplicity
 _atom_site_fract_x
 _atom_site_fract_y
 _atom_site_fract_z
 _atom_site_occupancy
  La  La0  1  0.28576800  0.28576800  0.00000000  1
  La  La1  1  0.00000000  0.71423200  0.71423200  1
  La  La2  1  0.00000000  0.28576800  0.28576800  1
  La  La3  1  0.28576800  0.00000000  0.28576800  1
  La  La4  1  0.71423200  0.00000000  0.71423200  1
  La  La5  1  0.71423200  0.71423200  0.00000000  1
  P  P6  1  0.63763100  0.41958300  0.63763100  1
  P  P7  1  0.78195200  0.00000000  0.36236900  1
  P  P8  1  0.36236900  0.00000000  0.78195200  1
  P  P9  1  0.78195200  0.36236900  0.00000000  1
  P  P10  1  0.21804800  0.21804800  0.58041700  1
  P  P11  1  0.58041700  0.21804800  0.21804800  1
  P  P12  1  0.00000000  0.36236900  0.78195200  1
  P  P13  1  0.00000000  0.78195200  0.36236900  1
  P  P14  1  0.36236900  0.78195200  0.00000000  1
  P  P15  1  0.63763100  0.63763100  0.41958300  1
  P  P16  1  0.41958300  0.63763100  0.63763100  1
  P  P17  1  0.21804800  0.58041700  0.21804800  1
  P  P18  1  0.43263300  0.43263300  0.43263300  1
  P  P19  1  0.00000000  0.00000000  0.56736700  1
  P  P20  1  0.56736700  0.00000000  0.00000000  1
  P  P21  1  0.00000000  0.56736700  0.00000000  1
  P  P22  1  0.00000000  0.00000000  0.00000000  1
  Pd  Pd23  1  0.25000000  0.75000000  0.50000000  1
  Pd  Pd24  1  0.50000000  0.25000000  0.75000000  1
  Pd  Pd25  1  0.50000000  0.75000000  0.25000000  1
  Pd  Pd26  1  0.25000000  0.50000000  0.75000000  1
  Pd  Pd27  1  0.75000000  0.50000000  0.25000000  1
  Pd  Pd28  1  0.75000000  0.25000000  0.50000000  1
