# generated using pymatgen
data_Zn5B3Rh7
_symmetry_space_group_name_H-M   'P 1'
_cell_length_a   2.86281900
_cell_length_b   11.13086800
_cell_length_c   11.84137200
_cell_angle_alpha   90.00000000
_cell_angle_beta   90.00000000
_cell_angle_gamma   90.00000000
_symmetry_Int_Tables_number   1
_chemical_formula_structural   Zn5B3Rh7
_chemical_formula_sum   'Zn10 B6 Rh14'
_cell_volume   377.33313879
_cell_formula_units_Z   2
loop_
 _symmetry_equiv_pos_site_id
 _symmetry_equiv_pos_as_xyz
  1  'x, y, z'
loop_
 _atom_site_type_symbol
 _atom_site_label
 _atom_site_symmetry_multiplicity
 _atom_site_fract_x
 _atom_site_fract_y
 _atom_site_fract_z
 _atom_site_occupancy
  Zn  Zn0  1  0.50000000  0.25000000  0.80873100  1
  Zn  Zn1  1  0.50000000  0.75000000  0.19126900  1
  Zn  Zn2  1  0.50000000  0.95113800  0.86632600  1
  Zn  Zn3  1  0.50000000  0.04886200  0.13367400  1
  Zn  Zn4  1  0.50000000  0.45113800  0.13367400  1
  Zn  Zn5  1  0.50000000  0.54886200  0.86632600  1
  Zn  Zn6  1  0.50000000  0.86916600  0.65094700  1
  Zn  Zn7  1  0.50000000  0.13083400  0.34905300  1
  Zn  Zn8  1  0.50000000  0.36916600  0.34905300  1
  Zn  Zn9  1  0.50000000  0.63083400  0.65094700  1
  B  B10  1  0.50000000  0.25000000  0.04034300  1
  B  B11  1  0.50000000  0.75000000  0.95965700  1
  B  B12  1  0.50000000  0.38330600  0.59373800  1
  B  B13  1  0.50000000  0.61669400  0.40626200  1
  B  B14  1  0.50000000  0.88330600  0.40626200  1
  B  B15  1  0.50000000  0.11669400  0.59373800  1
  Rh  Rh16  1  0.00000000  0.50000000  0.50000000  1
  Rh  Rh17  1  0.00000000  0.00000000  0.50000000  1
  Rh  Rh18  1  0.00000000  0.25000000  0.18200500  1
  Rh  Rh19  1  0.00000000  0.75000000  0.81799500  1
  Rh  Rh20  1  0.00000000  0.25000000  0.52801800  1
  Rh  Rh21  1  0.00000000  0.75000000  0.47198200  1
  Rh  Rh22  1  0.00000000  0.37369000  0.96250500  1
  Rh  Rh23  1  0.00000000  0.62631000  0.03749500  1
  Rh  Rh24  1  0.00000000  0.87369000  0.03749500  1
  Rh  Rh25  1  0.00000000  0.12631000  0.96250500  1
  Rh  Rh26  1  0.00000000  0.42321500  0.72056800  1
  Rh  Rh27  1  0.00000000  0.57678500  0.27943200  1
  Rh  Rh28  1  0.00000000  0.92321500  0.27943200  1
  Rh  Rh29  1  0.00000000  0.07678500  0.72056800  1
