# generated using pymatgen
data_VOF3
_symmetry_space_group_name_H-M   'P 1'
_cell_length_a   5.38240300
_cell_length_b   5.87112700
_cell_length_c   9.69663164
_cell_angle_alpha   89.64833358
_cell_angle_beta   90.00000000
_cell_angle_gamma   90.00000000
_symmetry_Int_Tables_number   1
_chemical_formula_structural   VOF3
_chemical_formula_sum   'V4 O4 F12'
_cell_volume   306.41526997
_cell_formula_units_Z   4
loop_
 _symmetry_equiv_pos_site_id
 _symmetry_equiv_pos_as_xyz
  1  'x, y, z'
loop_
 _atom_site_type_symbol
 _atom_site_label
 _atom_site_symmetry_multiplicity
 _atom_site_fract_x
 _atom_site_fract_y
 _atom_site_fract_z
 _atom_site_occupancy
  V  V0  1  0.58931600  0.66873200  0.87886200  1
  V  V1  1  0.91068400  0.66873200  0.37886200  1
  V  V2  1  0.08931600  0.33126800  0.62113800  1
  V  V3  1  0.41068400  0.33126800  0.12113800  1
  O  O4  1  0.17873000  0.20295300  0.05682600  1
  O  O5  1  0.67873000  0.79704700  0.44317400  1
  O  O6  1  0.32127000  0.20295300  0.55682600  1
  O  O7  1  0.82127000  0.79704700  0.94317400  1
  F  F8  1  0.40080100  0.88952600  0.81397300  1
  F  F9  1  0.59919900  0.11047400  0.18602700  1
  F  F10  1  0.20954700  0.44607000  0.77937200  1
  F  F11  1  0.29045300  0.44607000  0.27937200  1
  F  F12  1  0.36870400  0.64273300  0.04044800  1
  F  F13  1  0.79045300  0.55393000  0.22062800  1
  F  F14  1  0.86870400  0.35726700  0.45955200  1
  F  F15  1  0.13129600  0.64273300  0.54044800  1
  F  F16  1  0.90080100  0.11047400  0.68602700  1
  F  F17  1  0.70954700  0.55393000  0.72062800  1
  F  F18  1  0.63129600  0.35726700  0.95955200  1
  F  F19  1  0.09919900  0.88952600  0.31397300  1
