# generated using pymatgen
data_LiCaNiF6
_symmetry_space_group_name_H-M   'P 1'
_cell_length_a   5.14801408
_cell_length_b   5.14801408
_cell_length_c   9.87019300
_cell_angle_alpha   90.00000000
_cell_angle_beta   90.00000000
_cell_angle_gamma   120.00000108
_symmetry_Int_Tables_number   1
_chemical_formula_structural   LiCaNiF6
_chemical_formula_sum   'Li2 Ca2 Ni2 F12'
_cell_volume   226.53521591
_cell_formula_units_Z   2
loop_
 _symmetry_equiv_pos_site_id
 _symmetry_equiv_pos_as_xyz
  1  'x, y, z'
loop_
 _atom_site_type_symbol
 _atom_site_label
 _atom_site_symmetry_multiplicity
 _atom_site_fract_x
 _atom_site_fract_y
 _atom_site_fract_z
 _atom_site_occupancy
  Li  Li0  1  0.33333300  0.66666700  0.25000000  1
  Li  Li1  1  0.66666700  0.33333300  0.75000000  1
  Ca  Ca2  1  0.00000000  0.00000000  0.00000000  1
  Ca  Ca3  1  0.00000000  0.00000000  0.50000000  1
  Ni  Ni4  1  0.33333300  0.66666700  0.75000000  1
  Ni  Ni5  1  0.66666700  0.33333300  0.25000000  1
  F  F6  1  0.36676800  0.01890600  0.14031700  1
  F  F7  1  0.63323200  0.65213800  0.64031700  1
  F  F8  1  0.34786200  0.98109400  0.64031700  1
  F  F9  1  0.01890600  0.36676800  0.64031700  1
  F  F10  1  0.98109400  0.63323200  0.35968300  1
  F  F11  1  0.98109400  0.34786200  0.14031700  1
  F  F12  1  0.65213800  0.63323200  0.14031700  1
  F  F13  1  0.65213800  0.01890600  0.35968300  1
  F  F14  1  0.01890600  0.65213800  0.85968300  1
  F  F15  1  0.36676800  0.34786200  0.35968300  1
  F  F16  1  0.63323200  0.98109400  0.85968300  1
  F  F17  1  0.34786200  0.36676800  0.85968300  1
