# generated using pymatgen
data_K2CuCl3
_symmetry_space_group_name_H-M   'P 1'
_cell_length_a   4.16776500
_cell_length_b   12.23904400
_cell_length_c   12.69238300
_cell_angle_alpha   90.00000000
_cell_angle_beta   90.00000000
_cell_angle_gamma   90.00000000
_symmetry_Int_Tables_number   1
_chemical_formula_structural   K2CuCl3
_chemical_formula_sum   'K8 Cu4 Cl12'
_cell_volume   647.43159300
_cell_formula_units_Z   4
loop_
 _symmetry_equiv_pos_site_id
 _symmetry_equiv_pos_as_xyz
  1  'x, y, z'
loop_
 _atom_site_type_symbol
 _atom_site_label
 _atom_site_symmetry_multiplicity
 _atom_site_fract_x
 _atom_site_fract_y
 _atom_site_fract_z
 _atom_site_occupancy
  K  K0  1  0.75000000  0.67395200  0.01881800  1
  K  K1  1  0.25000000  0.48737000  0.32419900  1
  K  K2  1  0.75000000  0.17395200  0.48118200  1
  K  K3  1  0.75000000  0.51263000  0.67580100  1
  K  K4  1  0.25000000  0.82604800  0.51881800  1
  K  K5  1  0.25000000  0.98737000  0.17580100  1
  K  K6  1  0.25000000  0.32604800  0.98118200  1
  K  K7  1  0.75000000  0.01263000  0.82419900  1
  Cu  Cu8  1  0.75000000  0.75248200  0.30248900  1
  Cu  Cu9  1  0.25000000  0.74751800  0.80248900  1
  Cu  Cu10  1  0.25000000  0.24751800  0.69751100  1
  Cu  Cu11  1  0.75000000  0.25248200  0.19751100  1
  Cl  Cl12  1  0.25000000  0.22455100  0.28773400  1
  Cl  Cl13  1  0.25000000  0.72455100  0.21226600  1
  Cl  Cl14  1  0.75000000  0.27544900  0.78773400  1
  Cl  Cl15  1  0.75000000  0.77544900  0.71226600  1
  Cl  Cl16  1  0.25000000  0.56433300  0.85890700  1
  Cl  Cl17  1  0.75000000  0.43566700  0.14109300  1
  Cl  Cl18  1  0.25000000  0.86562100  0.94634800  1
  Cl  Cl19  1  0.75000000  0.63437900  0.44634800  1
  Cl  Cl20  1  0.75000000  0.13437900  0.05365200  1
  Cl  Cl21  1  0.25000000  0.06433300  0.64109300  1
  Cl  Cl22  1  0.25000000  0.36562100  0.55365200  1
  Cl  Cl23  1  0.75000000  0.93566700  0.35890700  1
