# generated using pymatgen
data_Y4TiSi2(O3F2)3
_symmetry_space_group_name_H-M   'P 1'
_cell_length_a   9.22893371
_cell_length_b   9.22893371
_cell_length_c   7.12522500
_cell_angle_alpha   90.00000000
_cell_angle_beta   90.00000000
_cell_angle_gamma   109.11065916
_symmetry_Int_Tables_number   1
_chemical_formula_structural   Y4TiSi2(O3F2)3
_chemical_formula_sum   'Y8 Ti2 Si4 O18 F12'
_cell_volume   573.43207129
_cell_formula_units_Z   2
loop_
 _symmetry_equiv_pos_site_id
 _symmetry_equiv_pos_as_xyz
  1  'x, y, z'
loop_
 _atom_site_type_symbol
 _atom_site_label
 _atom_site_symmetry_multiplicity
 _atom_site_fract_x
 _atom_site_fract_y
 _atom_site_fract_z
 _atom_site_occupancy
  Y  Y0  1  0.58244400  0.28940800  0.25000000  1
  Y  Y1  1  0.07561700  0.33674700  0.75000000  1
  Y  Y2  1  0.28940800  0.58244400  0.25000000  1
  Y  Y3  1  0.41755600  0.71059200  0.75000000  1
  Y  Y4  1  0.33674700  0.07561700  0.75000000  1
  Y  Y5  1  0.66325300  0.92438300  0.25000000  1
  Y  Y6  1  0.71059200  0.41755600  0.75000000  1
  Y  Y7  1  0.92438300  0.66325300  0.25000000  1
  Ti  Ti8  1  0.00000000  0.00000000  0.50000000  1
  Ti  Ti9  1  0.00000000  0.00000000  0.00000000  1
  Si  Si10  1  0.27730100  0.96355500  0.25000000  1
  Si  Si11  1  0.72269900  0.03644500  0.75000000  1
  Si  Si12  1  0.96355500  0.27730100  0.25000000  1
  Si  Si13  1  0.03644500  0.72269900  0.75000000  1
  O  O14  1  0.22095300  0.03227400  0.44297300  1
  O  O15  1  0.02872200  0.46563200  0.25000000  1
  O  O16  1  0.06164900  0.06164900  0.75000000  1
  O  O17  1  0.97127800  0.53436800  0.75000000  1
  O  O18  1  0.80563700  0.22301600  0.75000000  1
  O  O19  1  0.77904700  0.96772600  0.94297300  1
  O  O20  1  0.22301600  0.80563700  0.75000000  1
  O  O21  1  0.22095300  0.03227400  0.05702700  1
  O  O22  1  0.03227400  0.22095300  0.44297300  1
  O  O23  1  0.96772600  0.77904700  0.55702700  1
  O  O24  1  0.03227400  0.22095300  0.05702700  1
  O  O25  1  0.53436800  0.97127800  0.75000000  1
  O  O26  1  0.96772600  0.77904700  0.94297300  1
  O  O27  1  0.46563200  0.02872200  0.25000000  1
  O  O28  1  0.19436300  0.77698400  0.25000000  1
  O  O29  1  0.77904700  0.96772600  0.55702700  1
  O  O30  1  0.77698400  0.19436300  0.25000000  1
  O  O31  1  0.93835100  0.93835100  0.25000000  1
  F  F32  1  0.24524400  0.52885500  0.93861100  1
  F  F33  1  0.75475600  0.47114500  0.43861100  1
  F  F34  1  0.69913600  0.69913600  0.25000000  1
  F  F35  1  0.58413200  0.58413200  0.75000000  1
  F  F36  1  0.30086400  0.30086400  0.75000000  1
  F  F37  1  0.75475600  0.47114500  0.06138900  1
  F  F38  1  0.41586800  0.41586800  0.25000000  1
  F  F39  1  0.52885500  0.24524400  0.93861100  1
  F  F40  1  0.47114500  0.75475600  0.06138900  1
  F  F41  1  0.24524400  0.52885500  0.56138900  1
  F  F42  1  0.47114500  0.75475600  0.43861100  1
  F  F43  1  0.52885500  0.24524400  0.56138900  1
