# generated using pymatgen
data_Co(PO3)3
_symmetry_space_group_name_H-M   'P 1'
_cell_length_a   5.12031200
_cell_length_b   11.92702300
_cell_length_c   12.94471200
_cell_angle_alpha   90.00000000
_cell_angle_beta   90.00000000
_cell_angle_gamma   90.00000000
_symmetry_Int_Tables_number   1
_chemical_formula_structural   Co(PO3)3
_chemical_formula_sum   'Co4 P12 O36'
_cell_volume   790.53458436
_cell_formula_units_Z   4
loop_
 _symmetry_equiv_pos_site_id
 _symmetry_equiv_pos_as_xyz
  1  'x, y, z'
loop_
 _atom_site_type_symbol
 _atom_site_label
 _atom_site_symmetry_multiplicity
 _atom_site_fract_x
 _atom_site_fract_y
 _atom_site_fract_z
 _atom_site_occupancy
  Co  Co0  1  0.00000000  0.00000000  0.00000000  1
  Co  Co1  1  0.00000000  0.00000000  0.50000000  1
  Co  Co2  1  0.00000000  0.50000000  0.00000000  1
  Co  Co3  1  0.00000000  0.50000000  0.50000000  1
  P  P4  1  0.23928300  0.75000000  0.00000000  1
  P  P5  1  0.23928300  0.75000000  0.50000000  1
  P  P6  1  0.49596200  0.08341300  0.63157400  1
  P  P7  1  0.49596200  0.08341300  0.86842600  1
  P  P8  1  0.49596200  0.41658700  0.13157400  1
  P  P9  1  0.49596200  0.41658700  0.36842600  1
  P  P10  1  0.50403800  0.58341300  0.63157400  1
  P  P11  1  0.50403800  0.58341300  0.86842600  1
  P  P12  1  0.50403800  0.91658700  0.13157400  1
  P  P13  1  0.50403800  0.91658700  0.36842600  1
  P  P14  1  0.76071700  0.25000000  0.00000000  1
  P  P15  1  0.76071700  0.25000000  0.50000000  1
  O  O16  1  0.08752200  0.65397600  0.04567100  1
  O  O17  1  0.08752200  0.65397600  0.45432900  1
  O  O18  1  0.08752200  0.84602400  0.54567100  1
  O  O19  1  0.08752200  0.84602400  0.95432900  1
  O  O20  1  0.20824800  0.06094000  0.61846000  1
  O  O21  1  0.20824800  0.06094000  0.88154000  1
  O  O22  1  0.20824800  0.43906000  0.11846000  1
  O  O23  1  0.20824800  0.43906000  0.38154000  1
  O  O24  1  0.31617100  0.00317800  0.09125200  1
  O  O25  1  0.31617100  0.00317800  0.40874800  1
  O  O26  1  0.31617100  0.49682200  0.59125200  1
  O  O27  1  0.31617100  0.49682200  0.90874800  1
  O  O28  1  0.43847900  0.70613000  0.58662700  1
  O  O29  1  0.43847900  0.70613000  0.91337300  1
  O  O30  1  0.43847900  0.79387000  0.08662700  1
  O  O31  1  0.43847900  0.79387000  0.41337300  1
  O  O32  1  0.44377400  0.60814000  0.75000000  1
  O  O33  1  0.44377400  0.89186000  0.25000000  1
  O  O34  1  0.55622600  0.10814000  0.75000000  1
  O  O35  1  0.55622600  0.39186000  0.25000000  1
  O  O36  1  0.56152100  0.20613000  0.58662700  1
  O  O37  1  0.56152100  0.20613000  0.91337300  1
  O  O38  1  0.56152100  0.29387000  0.08662700  1
  O  O39  1  0.56152100  0.29387000  0.41337300  1
  O  O40  1  0.68382900  0.99682200  0.59125200  1
  O  O41  1  0.68382900  0.99682200  0.90874800  1
  O  O42  1  0.68382900  0.50317800  0.09125200  1
  O  O43  1  0.68382900  0.50317800  0.40874800  1
  O  O44  1  0.79175200  0.56094000  0.61846000  1
  O  O45  1  0.79175200  0.56094000  0.88154000  1
  O  O46  1  0.79175200  0.93906000  0.11846000  1
  O  O47  1  0.79175200  0.93906000  0.38154000  1
  O  O48  1  0.91247800  0.15397600  0.04567100  1
  O  O49  1  0.91247800  0.15397600  0.45432900  1
  O  O50  1  0.91247800  0.34602400  0.54567100  1
  O  O51  1  0.91247800  0.34602400  0.95432900  1
