# generated using pymatgen
data_KMoIO6
_symmetry_space_group_name_H-M   'P 1'
_cell_length_a   7.56546600
_cell_length_b   7.72046900
_cell_length_c   10.94269539
_cell_angle_alpha   68.23679210
_cell_angle_beta   90.00000000
_cell_angle_gamma   90.00000000
_symmetry_Int_Tables_number   1
_chemical_formula_structural   KMoIO6
_chemical_formula_sum   'K4 Mo4 I4 O24'
_cell_volume   593.59522111
_cell_formula_units_Z   4
loop_
 _symmetry_equiv_pos_site_id
 _symmetry_equiv_pos_as_xyz
  1  'x, y, z'
loop_
 _atom_site_type_symbol
 _atom_site_label
 _atom_site_symmetry_multiplicity
 _atom_site_fract_x
 _atom_site_fract_y
 _atom_site_fract_z
 _atom_site_occupancy
  K  K0  1  0.27116500  0.08112800  0.07740500  1
  K  K1  1  0.77116500  0.91887200  0.42259500  1
  K  K2  1  0.72883500  0.91887200  0.92259500  1
  K  K3  1  0.22883500  0.08112800  0.57740500  1
  Mo  Mo4  1  0.00137400  0.50957200  0.72182900  1
  Mo  Mo5  1  0.50137400  0.49042800  0.77817100  1
  Mo  Mo6  1  0.99862600  0.49042800  0.27817100  1
  Mo  Mo7  1  0.49862600  0.50957200  0.22182900  1
  I  I8  1  0.32540800  0.68767700  0.45582600  1
  I  I9  1  0.17459200  0.68767700  0.95582600  1
  I  I10  1  0.67459200  0.31232300  0.54417400  1
  I  I11  1  0.82540800  0.31232300  0.04417400  1
  O  O12  1  0.95252300  0.27130600  0.91109400  1
  O  O13  1  0.04747700  0.72869400  0.08890600  1
  O  O14  1  0.02882400  0.35188300  0.13081700  1
  O  O15  1  0.25612300  0.47595000  0.80189000  1
  O  O16  1  0.94890100  0.64566100  0.35567000  1
  O  O17  1  0.97117600  0.64811700  0.86918300  1
  O  O18  1  0.71296800  0.07275800  0.64682500  1
  O  O19  1  0.47117600  0.35188300  0.63081700  1
  O  O20  1  0.28703200  0.92724200  0.35317500  1
  O  O21  1  0.52882400  0.64811700  0.36918300  1
  O  O22  1  0.45252300  0.72869400  0.58890600  1
  O  O23  1  0.78703200  0.07275800  0.14682500  1
  O  O24  1  0.55109900  0.64566100  0.85567000  1
  O  O25  1  0.74387700  0.52405000  0.19811000  1
  O  O26  1  0.24387700  0.47595000  0.30189000  1
  O  O27  1  0.75612300  0.52405000  0.69811000  1
  O  O28  1  0.21296800  0.92724200  0.85317500  1
  O  O29  1  0.44890100  0.35433900  0.14433000  1
  O  O30  1  0.43405800  0.72839600  0.10014700  1
  O  O31  1  0.93405800  0.27160400  0.39985300  1
  O  O32  1  0.56594200  0.27160400  0.89985300  1
  O  O33  1  0.06594200  0.72839600  0.60014700  1
  O  O34  1  0.05109900  0.35433900  0.64433000  1
  O  O35  1  0.54747700  0.27130600  0.41109400  1
