# generated using pymatgen
data_KGa(PO3)4
_symmetry_space_group_name_H-M   'P 1'
_cell_length_a   10.52658089
_cell_length_b   10.52658089
_cell_length_c   5.22101811
_cell_angle_alpha   81.25249471
_cell_angle_beta   81.25249471
_cell_angle_gamma   72.35621299
_symmetry_Int_Tables_number   1
_chemical_formula_structural   KGa(PO3)4
_chemical_formula_sum   'K2 Ga2 P8 O24'
_cell_volume   541.44690545
_cell_formula_units_Z   2
loop_
 _symmetry_equiv_pos_site_id
 _symmetry_equiv_pos_as_xyz
  1  'x, y, z'
loop_
 _atom_site_type_symbol
 _atom_site_label
 _atom_site_symmetry_multiplicity
 _atom_site_fract_x
 _atom_site_fract_y
 _atom_site_fract_z
 _atom_site_occupancy
  K  K0  1  0.40705200  0.40705200  0.73973800  1
  K  K1  1  0.59294800  0.59294800  0.26026200  1
  Ga  Ga2  1  0.50000000  0.00000000  0.00000000  1
  Ga  Ga3  1  0.00000000  0.50000000  0.00000000  1
  P  P4  1  0.79934400  0.35499200  0.83615000  1
  P  P5  1  0.06860000  0.30884200  0.53353400  1
  P  P6  1  0.30884200  0.06860000  0.53353400  1
  P  P7  1  0.64500800  0.20065600  0.16385000  1
  P  P8  1  0.35499200  0.79934400  0.83615000  1
  P  P9  1  0.69115800  0.93140000  0.46646600  1
  P  P10  1  0.93140000  0.69115800  0.46646600  1
  P  P11  1  0.20065600  0.64500800  0.16385000  1
  O  O12  1  0.42679700  0.84940100  0.01419800  1
  O  O13  1  0.39929700  0.10039000  0.69860100  1
  O  O14  1  0.43032700  0.67729300  0.71106900  1
  O  O15  1  0.15059900  0.57320300  0.98580200  1
  O  O16  1  0.57320300  0.15059900  0.98580200  1
  O  O17  1  0.91239400  0.65672400  0.75714300  1
  O  O18  1  0.21543000  0.78457000  0.00000000  1
  O  O19  1  0.56967300  0.32270700  0.28893100  1
  O  O20  1  0.60070300  0.89961000  0.30139900  1
  O  O21  1  0.70842200  0.07735800  0.37806000  1
  O  O22  1  0.32270700  0.56967300  0.28893100  1
  O  O23  1  0.89961000  0.60070300  0.30139900  1
  O  O24  1  0.84940100  0.42679700  0.01419800  1
  O  O25  1  0.07735800  0.70842200  0.37806000  1
  O  O26  1  0.15718800  0.15718800  0.60245600  1
  O  O27  1  0.10039000  0.39929700  0.69860100  1
  O  O28  1  0.67729300  0.43032700  0.71106900  1
  O  O29  1  0.29157800  0.92264200  0.62194000  1
  O  O30  1  0.78457000  0.21543000  0.00000000  1
  O  O31  1  0.34327600  0.08760600  0.24285700  1
  O  O32  1  0.65672400  0.91239400  0.75714300  1
  O  O33  1  0.84281200  0.84281200  0.39754400  1
  O  O34  1  0.92264200  0.29157800  0.62194000  1
  O  O35  1  0.08760600  0.34327600  0.24285700  1
