# generated using pymatgen
data_Ba2InBrO3
_symmetry_space_group_name_H-M   'P 1'
_cell_length_a   4.31416300
_cell_length_b   4.31416300
_cell_length_c   15.73323400
_cell_angle_alpha   90.00000000
_cell_angle_beta   90.00000000
_cell_angle_gamma   90.00000000
_symmetry_Int_Tables_number   1
_chemical_formula_structural   Ba2InBrO3
_chemical_formula_sum   'Ba4 In2 Br2 O6'
_cell_volume   292.82698882
_cell_formula_units_Z   2
loop_
 _symmetry_equiv_pos_site_id
 _symmetry_equiv_pos_as_xyz
  1  'x, y, z'
loop_
 _atom_site_type_symbol
 _atom_site_label
 _atom_site_symmetry_multiplicity
 _atom_site_fract_x
 _atom_site_fract_y
 _atom_site_fract_z
 _atom_site_occupancy
  Ba  Ba0  1  0.00000000  0.50000000  0.65976600  1
  Ba  Ba1  1  0.50000000  0.00000000  0.34023400  1
  Ba  Ba2  1  0.50000000  0.00000000  0.09210900  1
  Ba  Ba3  1  0.00000000  0.50000000  0.90789100  1
  In  In4  1  0.00000000  0.50000000  0.20653600  1
  In  In5  1  0.50000000  0.00000000  0.79346400  1
  Br  Br6  1  0.50000000  0.00000000  0.57572500  1
  Br  Br7  1  0.00000000  0.50000000  0.42427500  1
  O  O8  1  0.00000000  0.00000000  0.77001300  1
  O  O9  1  0.50000000  0.50000000  0.77001300  1
  O  O10  1  0.00000000  0.00000000  0.22998700  1
  O  O11  1  0.50000000  0.00000000  0.92772800  1
  O  O12  1  0.50000000  0.50000000  0.22998700  1
  O  O13  1  0.00000000  0.50000000  0.07227200  1
