# generated using pymatgen
data_Rb3Bi
_symmetry_space_group_name_H-M   'P 1'
_cell_length_a   6.53884262
_cell_length_b   6.53884262
_cell_length_c   11.59241700
_cell_angle_alpha   90.00000000
_cell_angle_beta   90.00000000
_cell_angle_gamma   120.00000628
_symmetry_Int_Tables_number   1
_chemical_formula_structural   Rb3Bi
_chemical_formula_sum   'Rb6 Bi2'
_cell_volume   429.24611065
_cell_formula_units_Z   2
loop_
 _symmetry_equiv_pos_site_id
 _symmetry_equiv_pos_as_xyz
  1  'x, y, z'
loop_
 _atom_site_type_symbol
 _atom_site_label
 _atom_site_symmetry_multiplicity
 _atom_site_fract_x
 _atom_site_fract_y
 _atom_site_fract_z
 _atom_site_occupancy
  Rb  Rb0  1  0.33333300  0.66666700  0.91832200  1
  Rb  Rb1  1  0.66666700  0.33333300  0.41832200  1
  Rb  Rb2  1  0.00000000  0.00000000  0.25000000  1
  Rb  Rb3  1  0.66666700  0.33333300  0.08167800  1
  Rb  Rb4  1  0.00000000  0.00000000  0.75000000  1
  Rb  Rb5  1  0.33333300  0.66666700  0.58167800  1
  Bi  Bi6  1  0.66666700  0.33333300  0.75000000  1
  Bi  Bi7  1  0.33333300  0.66666700  0.25000000  1
