# generated using pymatgen
data_Cs3SbO3
_symmetry_space_group_name_H-M   'P 1'
_cell_length_a   9.35897100
_cell_length_b   9.35897100
_cell_length_c   9.35897100
_cell_angle_alpha   90.00000000
_cell_angle_beta   90.00000000
_cell_angle_gamma   90.00000000
_symmetry_Int_Tables_number   1
_chemical_formula_structural   Cs3SbO3
_chemical_formula_sum   'Cs12 Sb4 O12'
_cell_volume   819.75543490
_cell_formula_units_Z   4
loop_
 _symmetry_equiv_pos_site_id
 _symmetry_equiv_pos_as_xyz
  1  'x, y, z'
loop_
 _atom_site_type_symbol
 _atom_site_label
 _atom_site_symmetry_multiplicity
 _atom_site_fract_x
 _atom_site_fract_y
 _atom_site_fract_z
 _atom_site_occupancy
  Cs  Cs0  1  0.27724400  0.72275600  0.22275600  1
  Cs  Cs1  1  0.48661400  0.98661400  0.51338600  1
  Cs  Cs2  1  0.22275600  0.27724400  0.72275600  1
  Cs  Cs3  1  0.01338600  0.01338600  0.01338600  1
  Cs  Cs4  1  0.77292900  0.22707100  0.72707100  1
  Cs  Cs5  1  0.72707100  0.77292900  0.22707100  1
  Cs  Cs6  1  0.51338600  0.48661400  0.98661400  1
  Cs  Cs7  1  0.98661400  0.51338600  0.48661400  1
  Cs  Cs8  1  0.22707100  0.72707100  0.77292900  1
  Cs  Cs9  1  0.72275600  0.22275600  0.27724400  1
  Cs  Cs10  1  0.77724400  0.77724400  0.77724400  1
  Cs  Cs11  1  0.27292900  0.27292900  0.27292900  1
  Sb  Sb12  1  0.50143900  0.50143900  0.50143900  1
  Sb  Sb13  1  0.99856100  0.49856100  0.00143900  1
  Sb  Sb14  1  0.49856100  0.00143900  0.99856100  1
  Sb  Sb15  1  0.00143900  0.99856100  0.49856100  1
  O  O16  1  0.46118600  0.00429100  0.20597000  1
  O  O17  1  0.70597000  0.03881400  0.99570900  1
  O  O18  1  0.00429100  0.20597000  0.46118600  1
  O  O19  1  0.96118600  0.49570900  0.79403000  1
  O  O20  1  0.03881400  0.99570900  0.70597000  1
  O  O21  1  0.49570900  0.79403000  0.96118600  1
  O  O22  1  0.79403000  0.96118600  0.49570900  1
  O  O23  1  0.20597000  0.46118600  0.00429100  1
  O  O24  1  0.99570900  0.70597000  0.03881400  1
  O  O25  1  0.53881400  0.50429100  0.29403000  1
  O  O26  1  0.29403000  0.53881400  0.50429100  1
  O  O27  1  0.50429100  0.29403000  0.53881400  1
