# generated using pymatgen
data_Te2S(O2F3)2
_symmetry_space_group_name_H-M   'P 1'
_cell_length_a   9.06034200
_cell_length_b   9.08299300
_cell_length_c   10.14771800
_cell_angle_alpha   90.00000000
_cell_angle_beta   90.00000000
_cell_angle_gamma   90.00000000
_symmetry_Int_Tables_number   1
_chemical_formula_structural   Te2S(O2F3)2
_chemical_formula_sum   'Te8 S4 O16 F24'
_cell_volume   835.10668584
_cell_formula_units_Z   4
loop_
 _symmetry_equiv_pos_site_id
 _symmetry_equiv_pos_as_xyz
  1  'x, y, z'
loop_
 _atom_site_type_symbol
 _atom_site_label
 _atom_site_symmetry_multiplicity
 _atom_site_fract_x
 _atom_site_fract_y
 _atom_site_fract_z
 _atom_site_occupancy
  Te  Te0  1  0.04336400  0.14181800  0.04510600  1
  Te  Te1  1  0.55408800  0.83460600  0.08368800  1
  Te  Te2  1  0.44591200  0.33460600  0.41631200  1
  Te  Te3  1  0.54336400  0.35818200  0.95489400  1
  Te  Te4  1  0.94591200  0.16539400  0.58368800  1
  Te  Te5  1  0.05408800  0.66539400  0.91631200  1
  Te  Te6  1  0.95663600  0.64181800  0.45489400  1
  Te  Te7  1  0.45663600  0.85818200  0.54510600  1
  S  S8  1  0.83150400  0.95141000  0.29247500  1
  S  S9  1  0.33150400  0.54859000  0.70752500  1
  S  S10  1  0.16849600  0.45141000  0.20752500  1
  S  S11  1  0.66849600  0.04859000  0.79247500  1
  O  O12  1  0.55042800  0.15959700  0.82614900  1
  O  O13  1  0.36252300  0.48845700  0.84190400  1
  O  O14  1  0.13747700  0.51154300  0.34190400  1
  O  O15  1  0.44957200  0.65959700  0.67385100  1
  O  O16  1  0.68399900  0.87856300  0.28695700  1
  O  O17  1  0.82912900  0.07019800  0.39194200  1
  O  O18  1  0.67087100  0.92980200  0.89194200  1
  O  O19  1  0.81600100  0.12143700  0.78695700  1
  O  O20  1  0.17087100  0.57019800  0.10805800  1
  O  O21  1  0.05042800  0.34040300  0.17385100  1
  O  O22  1  0.63747700  0.98845700  0.65809600  1
  O  O23  1  0.94957200  0.84040300  0.32614900  1
  O  O24  1  0.86252300  0.01154300  0.15809600  1
  O  O25  1  0.18399900  0.62143700  0.71304300  1
  O  O26  1  0.31600100  0.37856300  0.21304300  1
  O  O27  1  0.32912900  0.42980200  0.60805800  1
  F  F28  1  0.50059600  0.53346000  0.39252700  1
  F  F29  1  0.34076600  0.93902800  0.68035300  1
  F  F30  1  0.89202300  0.68789500  0.03494200  1
  F  F31  1  0.00059600  0.96654000  0.60747300  1
  F  F32  1  0.10797700  0.18789500  0.46505800  1
  F  F33  1  0.49940400  0.03346000  0.10747300  1
  F  F34  1  0.57444800  0.54606000  0.04828600  1
  F  F35  1  0.92555200  0.45394000  0.54828500  1
  F  F36  1  0.99940400  0.46654000  0.89252700  1
  F  F37  1  0.39202300  0.81210500  0.96505800  1
  F  F38  1  0.72434800  0.29212000  0.03250400  1
  F  F39  1  0.91817100  0.71977900  0.78260400  1
  F  F40  1  0.84076600  0.56097200  0.31964700  1
  F  F41  1  0.42555200  0.04606000  0.45171500  1
  F  F42  1  0.60797700  0.31210500  0.53494200  1
  F  F43  1  0.58182900  0.28022100  0.28260400  1
  F  F44  1  0.41817100  0.78022100  0.21739600  1
  F  F45  1  0.08182900  0.21977900  0.71739600  1
  F  F46  1  0.22434800  0.20788000  0.96749600  1
  F  F47  1  0.27565200  0.79212000  0.46749600  1
  F  F48  1  0.65923400  0.43902800  0.81964700  1
  F  F49  1  0.15923400  0.06097200  0.18035300  1
  F  F50  1  0.07444800  0.95394000  0.95171500  1
  F  F51  1  0.77565200  0.70788000  0.53250400  1
