# generated using pymatgen
data_Rb4Nb35Al2O70
_symmetry_space_group_name_H-M   'P 1'
_cell_length_a   7.94198322
_cell_length_b   7.94198322
_cell_length_c   26.96603600
_cell_angle_alpha   90.00000000
_cell_angle_beta   90.00000000
_cell_angle_gamma   119.99999350
_symmetry_Int_Tables_number   1
_chemical_formula_structural   Rb4Nb35Al2O70
_chemical_formula_sum   'Rb4 Nb35 Al2 O70'
_cell_volume   1473.01001764
_cell_formula_units_Z   1
loop_
 _symmetry_equiv_pos_site_id
 _symmetry_equiv_pos_as_xyz
  1  'x, y, z'
loop_
 _atom_site_type_symbol
 _atom_site_label
 _atom_site_symmetry_multiplicity
 _atom_site_fract_x
 _atom_site_fract_y
 _atom_site_fract_z
 _atom_site_occupancy
  Rb  Rb0  1  0.33333300  0.66666700  0.96434000  1
  Rb  Rb1  1  0.00000000  0.00000000  0.32198000  1
  Rb  Rb2  1  0.00000000  0.00000000  0.67802000  1
  Rb  Rb3  1  0.66666700  0.33333300  0.03566000  1
  Nb  Nb4  1  0.87114500  0.26774600  0.90751800  1
  Nb  Nb5  1  0.00000000  0.00000000  0.18633800  1
  Nb  Nb6  1  0.80729600  0.02540300  0.45638700  1
  Nb  Nb7  1  0.54880400  0.85947500  0.81616800  1
  Nb  Nb8  1  0.88826700  0.53059200  0.27033900  1
  Nb  Nb9  1  0.93000600  0.53056200  0.63287900  1
  Nb  Nb10  1  0.33333300  0.66666700  0.53718800  1
  Nb  Nb11  1  0.00000000  0.00000000  0.81366200  1
  Nb  Nb12  1  0.68932900  0.54880400  0.18383200  1
  Nb  Nb13  1  0.39944400  0.93000600  0.36712100  1
  Nb  Nb14  1  0.02540300  0.21810700  0.54361300  1
  Nb  Nb15  1  0.39660100  0.12885500  0.90751800  1
  Nb  Nb16  1  0.46943800  0.39944400  0.63287900  1
  Nb  Nb17  1  0.14052500  0.68932900  0.81616800  1
  Nb  Nb18  1  0.12885500  0.73225400  0.09248200  1
  Nb  Nb19  1  0.06999400  0.46943800  0.36712100  1
  Nb  Nb20  1  0.00000000  0.00000000  0.00000000  1
  Nb  Nb21  1  0.31067100  0.45119600  0.81616800  1
  Nb  Nb22  1  0.53056200  0.60055600  0.36712100  1
  Nb  Nb23  1  0.11173300  0.46940800  0.72966100  1
  Nb  Nb24  1  0.66666700  0.33333300  0.46281200  1
  Nb  Nb25  1  0.60055600  0.06999400  0.63287900  1
  Nb  Nb26  1  0.45119600  0.14052500  0.18383200  1
  Nb  Nb27  1  0.73225400  0.60339900  0.90751800  1
  Nb  Nb28  1  0.35767500  0.88826700  0.72966100  1
  Nb  Nb29  1  0.26774600  0.39660100  0.09248200  1
  Nb  Nb30  1  0.78189300  0.80729600  0.54361300  1
  Nb  Nb31  1  0.60339900  0.87114500  0.09248200  1
  Nb  Nb32  1  0.97459700  0.78189300  0.45638700  1
  Nb  Nb33  1  0.64232500  0.11173300  0.27033900  1
  Nb  Nb34  1  0.21810700  0.19270400  0.45638700  1
  Nb  Nb35  1  0.19270400  0.97459700  0.54361300  1
  Nb  Nb36  1  0.53059200  0.64232500  0.72966100  1
  Nb  Nb37  1  0.46940800  0.35767500  0.27033900  1
  Nb  Nb38  1  0.85947500  0.31067100  0.18383200  1
  Al  Al39  1  0.33333300  0.66666700  0.20664600  1
  Al  Al40  1  0.66666700  0.33333300  0.79335400  1
  O  O41  1  0.90038400  0.53856000  0.13793300  1
  O  O42  1  0.53856000  0.63817600  0.86206700  1
  O  O43  1  0.56999400  0.86326300  0.32836800  1
  O  O44  1  0.23637400  0.20180900  0.59001100  1
  O  O45  1  0.86924200  0.30264500  0.31829600  1
  O  O46  1  0.16086400  0.92371900  0.77115200  1
  O  O47  1  0.43000600  0.13673700  0.67163200  1
  O  O48  1  0.03456500  0.23637400  0.40998900  1
  O  O49  1  0.30264500  0.43340300  0.68170400  1
  O  O50  1  0.86326300  0.29326900  0.67163200  1
  O  O51  1  0.76285500  0.83913600  0.77115200  1
  O  O52  1  0.21002400  0.20465500  0.04454000  1
  O  O53  1  0.23714500  0.16086400  0.22884800  1
  O  O54  1  0.89301300  0.50514000  0.93741100  1
  O  O55  1  0.76362600  0.79819100  0.40998900  1
  O  O56  1  0.48945100  0.58188000  0.22735100  1
  O  O57  1  0.43340300  0.13075800  0.31829600  1
  O  O58  1  0.51054900  0.41812000  0.77264900  1
  O  O59  1  0.06434900  0.23853600  0.14443400  1
  O  O60  1  0.42732200  0.16320000  0.50015100  1
  O  O61  1  0.13673700  0.70673100  0.32836800  1
  O  O62  1  0.66666700  0.33333300  0.85948300  1
  O  O63  1  0.46144000  0.36182400  0.13793300  1
  O  O64  1  0.09961600  0.46144000  0.86206700  1
  O  O65  1  0.79534500  0.00536900  0.04454000  1
  O  O66  1  0.57267800  0.83680000  0.49984900  1
  O  O67  1  0.50514000  0.61212700  0.06258900  1
  O  O68  1  0.29326900  0.43000600  0.32836800  1
  O  O69  1  0.49528700  0.40031500  0.41478500  1
  O  O70  1  0.96543500  0.76362600  0.59001100  1
  O  O71  1  0.66666700  0.33333300  0.59806300  1
  O  O72  1  0.63817600  0.09961600  0.13793300  1
  O  O73  1  0.70673100  0.56999400  0.67163200  1
  O  O74  1  0.10698700  0.49486000  0.06258900  1
  O  O75  1  0.56659700  0.86924200  0.68170400  1
  O  O76  1  0.79819100  0.03456500  0.59001100  1
  O  O77  1  0.61212700  0.10698700  0.93741100  1
  O  O78  1  0.38787300  0.89301300  0.06258900  1
  O  O79  1  0.13075800  0.69735500  0.68170400  1
  O  O80  1  0.58188000  0.09242800  0.77264900  1
  O  O81  1  0.90757200  0.48945100  0.77264900  1
  O  O82  1  0.83680000  0.26412200  0.50015100  1
  O  O83  1  0.33333300  0.66666700  0.40193700  1
  O  O84  1  0.50471300  0.59968500  0.58521500  1
  O  O85  1  0.82581400  0.06434900  0.85556600  1
  O  O86  1  0.23853600  0.17418600  0.85556600  1
  O  O87  1  0.40031500  0.90502900  0.58521500  1
  O  O88  1  0.17418600  0.93565100  0.14443400  1
  O  O89  1  0.59968500  0.09497100  0.41478500  1
  O  O90  1  0.26412200  0.42732200  0.49984900  1
  O  O91  1  0.69735500  0.56659700  0.31829600  1
  O  O92  1  0.07628100  0.23714500  0.77115200  1
  O  O93  1  0.99463100  0.78997600  0.04454000  1
  O  O94  1  0.78997600  0.79534500  0.95546000  1
  O  O95  1  0.36182400  0.90038400  0.86206700  1
  O  O96  1  0.73587800  0.57267800  0.50015100  1
  O  O97  1  0.00536900  0.21002400  0.95546000  1
  O  O98  1  0.76146400  0.82581400  0.14443400  1
  O  O99  1  0.16320000  0.73587800  0.49984900  1
  O  O100  1  0.90502900  0.50471300  0.41478500  1
  O  O101  1  0.20465500  0.99463100  0.95546000  1
  O  O102  1  0.09242800  0.51054900  0.22735100  1
  O  O103  1  0.49486000  0.38787300  0.93741100  1
  O  O104  1  0.83913600  0.07628100  0.22884800  1
  O  O105  1  0.33333300  0.66666700  0.14051700  1
  O  O106  1  0.20180900  0.96543500  0.40998900  1
  O  O107  1  0.41812000  0.90757200  0.22735100  1
  O  O108  1  0.93565100  0.76146400  0.85556600  1
  O  O109  1  0.09497100  0.49528700  0.58521500  1
  O  O110  1  0.92371900  0.76285500  0.22884800  1
