# generated using pymatgen
data_Y3(SiRh)2
_symmetry_space_group_name_H-M   'P 1'
_cell_length_a   5.62999800
_cell_length_b   7.82480800
_cell_length_c   13.02618100
_cell_angle_alpha   90.00000000
_cell_angle_beta   90.00000000
_cell_angle_gamma   90.00000000
_symmetry_Int_Tables_number   1
_chemical_formula_structural   Y3(SiRh)2
_chemical_formula_sum   'Y12 Si8 Rh8'
_cell_volume   573.85086277
_cell_formula_units_Z   4
loop_
 _symmetry_equiv_pos_site_id
 _symmetry_equiv_pos_as_xyz
  1  'x, y, z'
loop_
 _atom_site_type_symbol
 _atom_site_label
 _atom_site_symmetry_multiplicity
 _atom_site_fract_x
 _atom_site_fract_y
 _atom_site_fract_z
 _atom_site_occupancy
  Y  Y0  1  0.13773000  0.60670400  0.10344000  1
  Y  Y1  1  0.13773000  0.89329600  0.89656000  1
  Y  Y2  1  0.86227000  0.10670400  0.39656000  1
  Y  Y3  1  0.86227000  0.39329600  0.60344000  1
  Y  Y4  1  0.86227000  0.39329600  0.89656000  1
  Y  Y5  1  0.86227000  0.10670400  0.10344000  1
  Y  Y6  1  0.13773000  0.89329600  0.60344000  1
  Y  Y7  1  0.13773000  0.60670400  0.39656000  1
  Y  Y8  1  0.37119800  0.24847700  0.25000000  1
  Y  Y9  1  0.37119800  0.25152300  0.75000000  1
  Y  Y10  1  0.62880200  0.74847700  0.25000000  1
  Y  Y11  1  0.62880200  0.75152300  0.75000000  1
  Si  Si12  1  0.85871500  0.39440400  0.25000000  1
  Si  Si13  1  0.85871500  0.10559600  0.75000000  1
  Si  Si14  1  0.14128500  0.89440400  0.25000000  1
  Si  Si15  1  0.14128500  0.60559600  0.75000000  1
  Si  Si16  1  0.38139300  0.25000000  0.00000000  1
  Si  Si17  1  0.61860700  0.75000000  0.50000000  1
  Si  Si18  1  0.61860700  0.75000000  0.00000000  1
  Si  Si19  1  0.38139300  0.25000000  0.50000000  1
  Rh  Rh20  1  0.63629700  0.46921700  0.09092000  1
  Rh  Rh21  1  0.63629700  0.03078300  0.90908000  1
  Rh  Rh22  1  0.36370300  0.96921700  0.40908000  1
  Rh  Rh23  1  0.36370300  0.53078300  0.59092000  1
  Rh  Rh24  1  0.36370300  0.53078300  0.90908000  1
  Rh  Rh25  1  0.36370300  0.96921700  0.09092000  1
  Rh  Rh26  1  0.63629700  0.03078300  0.59092000  1
  Rh  Rh27  1  0.63629700  0.46921700  0.40908000  1
