# generated using pymatgen
data_K2Ag(AsSe2)3
_symmetry_space_group_name_H-M   'P 1'
_cell_length_a   7.78588000
_cell_length_b   12.93318300
_cell_length_c   18.24459490
_cell_angle_alpha   53.00878137
_cell_angle_beta   90.00000000
_cell_angle_gamma   90.00000000
_symmetry_Int_Tables_number   1
_chemical_formula_structural   K2Ag(AsSe2)3
_chemical_formula_sum   'K8 Ag4 As12 Se24'
_cell_volume   1467.39190764
_cell_formula_units_Z   4
loop_
 _symmetry_equiv_pos_site_id
 _symmetry_equiv_pos_as_xyz
  1  'x, y, z'
loop_
 _atom_site_type_symbol
 _atom_site_label
 _atom_site_symmetry_multiplicity
 _atom_site_fract_x
 _atom_site_fract_y
 _atom_site_fract_z
 _atom_site_occupancy
  K  K0  1  0.88957200  0.58961700  0.75724300  1
  K  K1  1  0.38957200  0.41038300  0.74275700  1
  K  K2  1  0.11042800  0.41038300  0.24275700  1
  K  K3  1  0.61042800  0.58961700  0.25724300  1
  K  K4  1  0.37142000  0.78561100  0.38636500  1
  K  K5  1  0.87142000  0.21438900  0.11363500  1
  K  K6  1  0.62858000  0.21438900  0.61363500  1
  K  K7  1  0.12858000  0.78561100  0.88636500  1
  Ag  Ag8  1  0.99287300  0.52762700  0.57219100  1
  Ag  Ag9  1  0.49287300  0.47237300  0.92780900  1
  Ag  Ag10  1  0.00712700  0.47237300  0.42780900  1
  Ag  Ag11  1  0.50712700  0.52762700  0.07219100  1
  As  As12  1  0.08881200  0.22027900  0.65531000  1
  As  As13  1  0.58881200  0.77972100  0.84469000  1
  As  As14  1  0.91118800  0.77972100  0.34469000  1
  As  As15  1  0.41118800  0.22027900  0.15531000  1
  As  As16  1  0.94430400  0.17086400  0.86487200  1
  As  As17  1  0.44430400  0.82913600  0.63512800  1
  As  As18  1  0.05569600  0.82913600  0.13512800  1
  As  As19  1  0.55569600  0.17086400  0.36487200  1
  As  As20  1  0.32713200  0.11693700  0.00567400  1
  As  As21  1  0.82713200  0.88306300  0.49432600  1
  As  As22  1  0.67286800  0.88306300  0.99432600  1
  As  As23  1  0.17286800  0.11693700  0.50567400  1
  Se  Se24  1  0.24233900  0.04872800  0.66134900  1
  Se  Se25  1  0.74233900  0.95127200  0.83865100  1
  Se  Se26  1  0.75766100  0.95127200  0.33865100  1
  Se  Se27  1  0.25766100  0.04872800  0.16134900  1
  Se  Se28  1  0.73260500  0.59195900  0.44206600  1
  Se  Se29  1  0.23260500  0.40804100  0.05793400  1
  Se  Se30  1  0.26739500  0.40804100  0.55793400  1
  Se  Se31  1  0.76739500  0.59195900  0.94206600  1
  Se  Se32  1  0.20356900  0.12010400  0.81007400  1
  Se  Se33  1  0.70356900  0.87989600  0.68992600  1
  Se  Se34  1  0.79643100  0.87989600  0.18992600  1
  Se  Se35  1  0.29643100  0.12010400  0.31007400  1
  Se  Se36  1  0.81677300  0.34969900  0.72739900  1
  Se  Se37  1  0.31677300  0.65030100  0.77260100  1
  Se  Se38  1  0.18322700  0.65030100  0.27260100  1
  Se  Se39  1  0.68322700  0.34969900  0.22739900  1
  Se  Se40  1  0.09619400  0.28232800  0.91865800  1
  Se  Se41  1  0.59619400  0.71767200  0.58134200  1
  Se  Se42  1  0.90380600  0.71767200  0.08134200  1
  Se  Se43  1  0.40380600  0.28232800  0.41865800  1
  Se  Se44  1  0.07434300  0.75172900  0.53947700  1
  Se  Se45  1  0.57434300  0.24827100  0.96052300  1
  Se  Se46  1  0.92565700  0.24827100  0.46052300  1
  Se  Se47  1  0.42565700  0.75172900  0.03947700  1
