# generated using pymatgen
data_Hf3As
_symmetry_space_group_name_H-M   'P 1'
_cell_length_a   8.20187583
_cell_length_b   8.20187583
_cell_length_c   15.41822704
_cell_angle_alpha   89.69073692
_cell_angle_beta   89.69073692
_cell_angle_gamma   38.52787123
_symmetry_Int_Tables_number   1
_chemical_formula_structural   Hf3As
_chemical_formula_sum   'Hf24 As8'
_cell_volume   646.05388573
_cell_formula_units_Z   8
loop_
 _symmetry_equiv_pos_site_id
 _symmetry_equiv_pos_as_xyz
  1  'x, y, z'
loop_
 _atom_site_type_symbol
 _atom_site_label
 _atom_site_symmetry_multiplicity
 _atom_site_fract_x
 _atom_site_fract_y
 _atom_site_fract_z
 _atom_site_occupancy
  Hf  Hf0  1  0.12011700  0.04525200  0.80914000  1
  Hf  Hf1  1  0.42399900  0.45898300  0.83277300  1
  Hf  Hf2  1  0.95474800  0.87988300  0.69086000  1
  Hf  Hf3  1  0.45898300  0.42399900  0.33277300  1
  Hf  Hf4  1  0.05065800  0.47063200  0.90516000  1
  Hf  Hf5  1  0.54101700  0.57600100  0.66722700  1
  Hf  Hf6  1  0.43028300  0.87989000  0.99016900  1
  Hf  Hf7  1  0.19834300  0.70323800  0.01603300  1
  Hf  Hf8  1  0.56971700  0.12011000  0.00983100  1
  Hf  Hf9  1  0.12011000  0.56971700  0.50983100  1
  Hf  Hf10  1  0.94934200  0.52936800  0.09484000  1
  Hf  Hf11  1  0.87989000  0.43028300  0.49016900  1
  Hf  Hf12  1  0.00075100  0.53154600  0.30078100  1
  Hf  Hf13  1  0.99924900  0.46845400  0.69921900  1
  Hf  Hf14  1  0.80165700  0.29676200  0.98396700  1
  Hf  Hf15  1  0.52936800  0.94934200  0.59484000  1
  Hf  Hf16  1  0.04525200  0.12011700  0.30914000  1
  Hf  Hf17  1  0.70323800  0.19834300  0.51603300  1
  Hf  Hf18  1  0.29676200  0.80165700  0.48396700  1
  Hf  Hf19  1  0.87988300  0.95474800  0.19086000  1
  Hf  Hf20  1  0.46845400  0.99924900  0.19921900  1
  Hf  Hf21  1  0.57600100  0.54101700  0.16722700  1
  Hf  Hf22  1  0.53154600  0.00075100  0.80078100  1
  Hf  Hf23  1  0.47063200  0.05065800  0.40516000  1
  As  As24  1  0.33605400  0.42037500  0.16652400  1
  As  As25  1  0.89554400  0.93509700  0.87108900  1
  As  As26  1  0.10445600  0.06490300  0.12891100  1
  As  As27  1  0.66394600  0.57962500  0.83347600  1
  As  As28  1  0.57962500  0.66394600  0.33347600  1
  As  As29  1  0.42037500  0.33605400  0.66652400  1
  As  As30  1  0.93509700  0.89554400  0.37108900  1
  As  As31  1  0.06490300  0.10445600  0.62891100  1
