# generated using pymatgen
data_Ca3(AsO4)2
_symmetry_space_group_name_H-M   'P 1'
_cell_length_a   14.25577019
_cell_length_b   14.25577019
_cell_length_c   14.25576993
_cell_angle_alpha   45.07982220
_cell_angle_beta   45.07982220
_cell_angle_gamma   45.07982107
_symmetry_Int_Tables_number   1
_chemical_formula_structural   Ca3(AsO4)2
_chemical_formula_sum   'Ca21 As14 O56'
_cell_volume   1322.36411990
_cell_formula_units_Z   7
loop_
 _symmetry_equiv_pos_site_id
 _symmetry_equiv_pos_as_xyz
  1  'x, y, z'
loop_
 _atom_site_type_symbol
 _atom_site_label
 _atom_site_symmetry_multiplicity
 _atom_site_fract_x
 _atom_site_fract_y
 _atom_site_fract_z
 _atom_site_occupancy
  Ca  Ca0  1  0.26662200  0.26662200  0.26662200  1
  Ca  Ca1  1  0.19782700  0.19718800  0.61140700  1
  Ca  Ca2  1  0.61140700  0.19782700  0.19718800  1
  Ca  Ca3  1  0.19718800  0.61140700  0.19782700  1
  Ca  Ca4  1  0.31809000  0.27228500  0.72475800  1
  Ca  Ca5  1  0.72475800  0.31809000  0.27228500  1
  Ca  Ca6  1  0.69989900  0.11022100  0.69784800  1
  Ca  Ca7  1  0.27228500  0.72475800  0.31809000  1
  Ca  Ca8  1  0.91889200  0.32043400  0.35971400  1
  Ca  Ca9  1  0.32043400  0.35971400  0.91889200  1
  Ca  Ca10  1  0.11022100  0.69784800  0.69989900  1
  Ca  Ca11  1  0.69784800  0.69989900  0.11022100  1
  Ca  Ca12  1  0.82485900  0.20342500  0.80068700  1
  Ca  Ca13  1  0.35971400  0.91889200  0.32043400  1
  Ca  Ca14  1  0.57566600  0.57566600  0.57566600  1
  Ca  Ca15  1  0.20342600  0.80068700  0.82485900  1
  Ca  Ca16  1  0.80068700  0.82485900  0.20342500  1
  Ca  Ca17  1  0.82821000  0.41753600  0.85963000  1
  Ca  Ca18  1  0.85963000  0.82821000  0.41753600  1
  Ca  Ca19  1  0.41753600  0.85963000  0.82821000  1
  Ca  Ca20  1  0.76750800  0.76750800  0.76750800  1
  As  As21  1  0.00075300  0.00075300  0.00075300  1
  As  As22  1  0.08429800  0.03839600  0.58237300  1
  As  As23  1  0.58237300  0.08429800  0.03839600  1
  As  As24  1  0.03839600  0.58237300  0.08429800  1
  As  As25  1  0.58334300  0.08316400  0.53896400  1
  As  As26  1  0.08316400  0.53896400  0.58334300  1
  As  As27  1  0.53896400  0.58334300  0.08316400  1
  As  As28  1  0.49900700  0.49900700  0.49900700  1
  As  As29  1  0.93209700  0.46442800  0.50252700  1
  As  As30  1  0.46442800  0.50252700  0.93209700  1
  As  As31  1  0.50252700  0.93209700  0.46442800  1
  As  As32  1  0.96032600  0.44452100  0.99485800  1
  As  As33  1  0.99485800  0.96032600  0.44452100  1
  As  As34  1  0.44452100  0.99485800  0.96032600  1
  O  O35  1  0.15046600  0.12500200  0.39502500  1
  O  O36  1  0.39502500  0.15046600  0.12500200  1
  O  O37  1  0.12500200  0.39502500  0.15046600  1
  O  O38  1  0.09861800  0.08328100  0.65508000  1
  O  O39  1  0.65508000  0.09861800  0.08328100  1
  O  O40  1  0.39337100  0.11695200  0.40247600  1
  O  O41  1  0.16748000  0.00641400  0.86331300  1
  O  O42  1  0.40247600  0.39337100  0.11695200  1
  O  O43  1  0.11695200  0.40247600  0.39337100  1
  O  O44  1  0.08328100  0.65508000  0.09861800  1
  O  O45  1  0.86331300  0.16748000  0.00641400  1
  O  O46  1  0.40168400  0.14875700  0.59499000  1
  O  O47  1  0.68900800  0.12694000  0.35551900  1
  O  O48  1  0.37225400  0.01029400  0.89024800  1
  O  O49  1  0.59499000  0.40168400  0.14875700  1
  O  O50  1  0.12694000  0.35551900  0.68900800  1
  O  O51  1  0.14875700  0.59499000  0.40168400  1
  O  O52  1  0.59534500  0.15441900  0.58732700  1
  O  O53  1  0.00641400  0.86331300  0.16748000  1
  O  O54  1  0.89024800  0.37225400  0.01029400  1
  O  O55  1  0.35551900  0.68900800  0.12694000  1
  O  O56  1  0.91679800  0.14640500  0.37253400  1
  O  O57  1  0.43175600  0.16933800  0.86840500  1
  O  O58  1  0.45474400  0.45474400  0.45474400  1
  O  O59  1  0.15441900  0.58732700  0.59534500  1
  O  O60  1  0.58732700  0.59534500  0.15441900  1
  O  O61  1  0.14640500  0.37253400  0.91679800  1
  O  O62  1  0.86840500  0.43175600  0.16933800  1
  O  O63  1  0.01029400  0.89024800  0.37225400  1
  O  O64  1  0.90176900  0.10179800  0.64598700  1
  O  O65  1  0.66134300  0.37270100  0.52027800  1
  O  O66  1  0.62927200  0.19035600  0.85467500  1
  O  O67  1  0.37270100  0.52027800  0.66134300  1
  O  O68  1  0.52027800  0.66134300  0.37270100  1
  O  O69  1  0.37253400  0.91679800  0.14640500  1
  O  O70  1  0.16933800  0.86840500  0.43175600  1
  O  O71  1  0.10179800  0.64598700  0.90176900  1
  O  O72  1  0.85467500  0.62927200  0.19035600  1
  O  O73  1  0.83054600  0.41787400  0.52524400  1
  O  O74  1  0.41787400  0.52524400  0.83054600  1
  O  O75  1  0.64598700  0.90176900  0.10179800  1
  O  O76  1  0.19035600  0.85467500  0.62927200  1
  O  O77  1  0.64962100  0.43001100  0.85912300  1
  O  O78  1  0.93472800  0.36148800  0.67108900  1
  O  O79  1  0.52524400  0.83054600  0.41787400  1
  O  O80  1  0.85912300  0.64962100  0.43001100  1
  O  O81  1  0.36148800  0.67108900  0.93472800  1
  O  O82  1  0.43001100  0.85912300  0.64962100  1
  O  O83  1  0.67108900  0.93472800  0.36148800  1
  O  O84  1  0.89598900  0.62518200  0.65045200  1
  O  O85  1  0.62518200  0.65045200  0.89598900  1
  O  O86  1  0.65045200  0.89598900  0.62518200  1
  O  O87  1  0.90052800  0.63184400  0.89460600  1
  O  O88  1  0.63184400  0.89460600  0.90052800  1
  O  O89  1  0.89460600  0.90052800  0.63184400  1
  O  O90  1  0.95528700  0.95528700  0.95528700  1
