# generated using pymatgen
data_SbI(ClF3)2
_symmetry_space_group_name_H-M   'P 1'
_cell_length_a   8.21803305
_cell_length_b   8.21803305
_cell_length_c   13.24702300
_cell_angle_alpha   90.00000000
_cell_angle_beta   90.00000000
_cell_angle_gamma   96.62586382
_symmetry_Int_Tables_number   1
_chemical_formula_structural   SbI(ClF3)2
_chemical_formula_sum   'Sb4 I4 Cl8 F24'
_cell_volume   888.67625925
_cell_formula_units_Z   4
loop_
 _symmetry_equiv_pos_site_id
 _symmetry_equiv_pos_as_xyz
  1  'x, y, z'
loop_
 _atom_site_type_symbol
 _atom_site_label
 _atom_site_symmetry_multiplicity
 _atom_site_fract_x
 _atom_site_fract_y
 _atom_site_fract_z
 _atom_site_occupancy
  Sb  Sb0  1  0.29466100  0.70533900  0.55823600  1
  Sb  Sb1  1  0.20533900  0.79466100  0.05823600  1
  Sb  Sb2  1  0.79466100  0.20533900  0.94176400  1
  Sb  Sb3  1  0.70533900  0.29466100  0.44176400  1
  I  I4  1  0.34236100  0.15763900  0.75000000  1
  I  I5  1  0.65763900  0.84236100  0.25000000  1
  I  I6  1  0.84236100  0.65763900  0.75000000  1
  I  I7  1  0.15763900  0.34236100  0.25000000  1
  Cl  Cl8  1  0.13231800  0.19500400  0.64065600  1
  Cl  Cl9  1  0.63231800  0.69500400  0.85934400  1
  Cl  Cl10  1  0.86768200  0.80499600  0.35934400  1
  Cl  Cl11  1  0.19500400  0.13231800  0.35934400  1
  Cl  Cl12  1  0.36768200  0.30499600  0.14065600  1
  Cl  Cl13  1  0.69500400  0.63231800  0.14065600  1
  Cl  Cl14  1  0.30499600  0.36768200  0.85934400  1
  Cl  Cl15  1  0.80499600  0.86768200  0.64065600  1
  F  F16  1  0.13540100  0.61637600  0.15245100  1
  F  F17  1  0.07084900  0.92915100  0.13016000  1
  F  F18  1  0.92915100  0.07084900  0.86984000  1
  F  F19  1  0.63540100  0.11637600  0.34754900  1
  F  F20  1  0.03088900  0.71670700  0.96951300  1
  F  F21  1  0.84585300  0.15414700  0.50496900  1
  F  F22  1  0.42915100  0.57084900  0.63016000  1
  F  F23  1  0.57084900  0.42915100  0.36984000  1
  F  F24  1  0.38362400  0.86459900  0.15245100  1
  F  F25  1  0.71670700  0.03088900  0.03048700  1
  F  F26  1  0.11637600  0.63540100  0.65245100  1
  F  F27  1  0.96911100  0.28329300  0.03048700  1
  F  F28  1  0.53088900  0.21670700  0.53048700  1
  F  F29  1  0.65414700  0.34585300  0.00496900  1
  F  F30  1  0.36459900  0.88362400  0.65245100  1
  F  F31  1  0.61637600  0.13540100  0.84754900  1
  F  F32  1  0.78329300  0.46911100  0.53048700  1
  F  F33  1  0.86459900  0.38362400  0.84754900  1
  F  F34  1  0.88362400  0.36459900  0.34754900  1
  F  F35  1  0.15414700  0.84585300  0.49503100  1
  F  F36  1  0.28329300  0.96911100  0.96951300  1
  F  F37  1  0.46911100  0.78329300  0.46951300  1
  F  F38  1  0.21670700  0.53088900  0.46951300  1
  F  F39  1  0.34585300  0.65414700  0.99503100  1
