# generated using pymatgen
data_Mn4Bi3NO15
_symmetry_space_group_name_H-M   'P 1'
_cell_length_a   5.03136800
_cell_length_b   5.03136756
_cell_length_c   13.33196800
_cell_angle_alpha   90.00000000
_cell_angle_beta   90.00000000
_cell_angle_gamma   120.00000287
_symmetry_Int_Tables_number   1
_chemical_formula_structural   Mn4Bi3NO15
_chemical_formula_sum   'Mn4 Bi3 N1 O15'
_cell_volume   292.27859475
_cell_formula_units_Z   1
loop_
 _symmetry_equiv_pos_site_id
 _symmetry_equiv_pos_as_xyz
  1  'x, y, z'
loop_
 _atom_site_type_symbol
 _atom_site_label
 _atom_site_symmetry_multiplicity
 _atom_site_fract_x
 _atom_site_fract_y
 _atom_site_fract_z
 _atom_site_occupancy
  Mn  Mn0  1  0.33333300  0.66666700  0.21640500  1
  Mn  Mn1  1  0.66666700  0.33333300  0.21608500  1
  Mn  Mn2  1  0.66666700  0.33333300  0.84796800  1
  Mn  Mn3  1  0.33333300  0.66666700  0.84751300  1
  Bi  Bi4  1  0.00000000  0.00000000  0.03127400  1
  Bi  Bi5  1  0.00000000  0.00000000  0.38371800  1
  Bi  Bi6  1  0.00000000  0.00000000  0.67964500  1
  N  N7  1  0.66666700  0.33333300  0.53556600  1
  O  O8  1  0.37617200  0.99970700  0.92407800  1
  O  O9  1  0.51953100  0.47757800  0.53563000  1
  O  O10  1  0.63417100  0.63358500  0.29943700  1
  O  O11  1  0.00023700  0.62480000  0.14037800  1
  O  O12  1  0.62353500  0.62382800  0.92407800  1
  O  O13  1  0.00029300  0.37646500  0.92407800  1
  O  O14  1  0.36585100  0.36521400  0.76508500  1
  O  O15  1  0.99941400  0.36582900  0.29943700  1
  O  O16  1  0.52242200  0.04195300  0.53563000  1
  O  O17  1  0.99936300  0.63414900  0.76508500  1
  O  O18  1  0.36641500  0.00058600  0.29943700  1
  O  O19  1  0.63478600  0.00063700  0.76508500  1
  O  O20  1  0.37520000  0.37543700  0.14037800  1
  O  O21  1  0.62456300  0.99976300  0.14037800  1
  O  O22  1  0.95804700  0.48046900  0.53563000  1
