# generated using pymatgen
data_CdHg6(As2Br3)2
_symmetry_space_group_name_H-M   'P 1'
_cell_length_a   12.70259000
_cell_length_b   12.70259000
_cell_length_c   12.70259000
_cell_angle_alpha   90.00000000
_cell_angle_beta   90.00000000
_cell_angle_gamma   90.00000000
_symmetry_Int_Tables_number   1
_chemical_formula_structural   CdHg6(As2Br3)2
_chemical_formula_sum   'Cd4 Hg24 As16 Br24'
_cell_volume   2049.63647890
_cell_formula_units_Z   4
loop_
 _symmetry_equiv_pos_site_id
 _symmetry_equiv_pos_as_xyz
  1  'x, y, z'
loop_
 _atom_site_type_symbol
 _atom_site_label
 _atom_site_symmetry_multiplicity
 _atom_site_fract_x
 _atom_site_fract_y
 _atom_site_fract_z
 _atom_site_occupancy
  Cd  Cd0  1  0.50000000  0.00000000  0.50000000  1
  Cd  Cd1  1  0.00000000  0.00000000  0.00000000  1
  Cd  Cd2  1  0.00000000  0.50000000  0.50000000  1
  Cd  Cd3  1  0.50000000  0.50000000  0.00000000  1
  Hg  Hg4  1  0.71421500  0.71780600  0.47599300  1
  Hg  Hg5  1  0.21780600  0.02400700  0.28578500  1
  Hg  Hg6  1  0.97599300  0.71421500  0.78219400  1
  Hg  Hg7  1  0.78578500  0.28219400  0.97599300  1
  Hg  Hg8  1  0.52400700  0.28578500  0.28219400  1
  Hg  Hg9  1  0.78219400  0.97599300  0.71421500  1
  Hg  Hg10  1  0.02400700  0.21421500  0.71780600  1
  Hg  Hg11  1  0.47599300  0.78578500  0.21780600  1
  Hg  Hg12  1  0.21780600  0.47599300  0.78578500  1
  Hg  Hg13  1  0.47599300  0.71421500  0.71780600  1
  Hg  Hg14  1  0.78578500  0.21780600  0.47599300  1
  Hg  Hg15  1  0.28578500  0.28219400  0.52400700  1
  Hg  Hg16  1  0.02400700  0.28578500  0.21780600  1
  Hg  Hg17  1  0.97599300  0.78578500  0.28219400  1
  Hg  Hg18  1  0.78219400  0.52400700  0.21421500  1
  Hg  Hg19  1  0.28219400  0.52400700  0.28578500  1
  Hg  Hg20  1  0.28578500  0.21780600  0.02400700  1
  Hg  Hg21  1  0.28219400  0.97599300  0.78578500  1
  Hg  Hg22  1  0.52400700  0.21421500  0.78219400  1
  Hg  Hg23  1  0.21421500  0.71780600  0.02400700  1
  Hg  Hg24  1  0.71780600  0.47599300  0.71421500  1
  Hg  Hg25  1  0.71421500  0.78219400  0.97599300  1
  Hg  Hg26  1  0.21421500  0.78219400  0.52400700  1
  Hg  Hg27  1  0.71780600  0.02400700  0.21421500  1
  As  As28  1  0.82908900  0.17091100  0.67091100  1
  As  As29  1  0.78269800  0.71730200  0.28269800  1
  As  As30  1  0.82908900  0.32908900  0.17091100  1
  As  As31  1  0.17091100  0.67091100  0.82908900  1
  As  As32  1  0.32908900  0.17091100  0.82908900  1
  As  As33  1  0.32908900  0.32908900  0.32908900  1
  As  As34  1  0.21730200  0.28269800  0.71730200  1
  As  As35  1  0.71730200  0.21730200  0.28269800  1
  As  As36  1  0.17091100  0.82908900  0.32908900  1
  As  As37  1  0.67091100  0.82908900  0.17091100  1
  As  As38  1  0.78269800  0.78269800  0.78269800  1
  As  As39  1  0.21730200  0.21730200  0.21730200  1
  As  As40  1  0.28269800  0.78269800  0.71730200  1
  As  As41  1  0.71730200  0.28269800  0.78269800  1
  As  As42  1  0.67091100  0.67091100  0.67091100  1
  As  As43  1  0.28269800  0.71730200  0.21730200  1
  Br  Br44  1  0.03174200  0.21781500  0.96218800  1
  Br  Br45  1  0.78218500  0.46218800  0.46825800  1
  Br  Br46  1  0.96825800  0.78218500  0.03781200  1
  Br  Br47  1  0.53174200  0.28218500  0.03781200  1
  Br  Br48  1  0.96825800  0.71781500  0.53781200  1
  Br  Br49  1  0.28218500  0.46218800  0.03174200  1
  Br  Br50  1  0.03781200  0.53174200  0.28218500  1
  Br  Br51  1  0.46218800  0.03174200  0.28218500  1
  Br  Br52  1  0.78218500  0.03781200  0.96825800  1
  Br  Br53  1  0.53781200  0.53174200  0.21781500  1
  Br  Br54  1  0.71781500  0.96218800  0.46825800  1
  Br  Br55  1  0.21781500  0.96218800  0.03174200  1
  Br  Br56  1  0.46218800  0.46825800  0.78218500  1
  Br  Br57  1  0.28218500  0.03781200  0.53174200  1
  Br  Br58  1  0.96218800  0.03174200  0.21781500  1
  Br  Br59  1  0.03174200  0.28218500  0.46218800  1
  Br  Br60  1  0.53781200  0.96825800  0.71781500  1
  Br  Br61  1  0.71781500  0.53781200  0.96825800  1
  Br  Br62  1  0.21781500  0.53781200  0.53174200  1
  Br  Br63  1  0.53174200  0.21781500  0.53781200  1
  Br  Br64  1  0.96218800  0.46825800  0.71781500  1
  Br  Br65  1  0.03781200  0.96825800  0.78218500  1
  Br  Br66  1  0.46825800  0.78218500  0.46218800  1
  Br  Br67  1  0.46825800  0.71781500  0.96218800  1
