# generated using pymatgen
data_Na7Ga13
_symmetry_space_group_name_H-M   'P 1'
_cell_length_a   15.70880988
_cell_length_b   15.70880988
_cell_length_c   15.70881054
_cell_angle_alpha   57.43030411
_cell_angle_beta   57.43030411
_cell_angle_gamma   57.43030215
_symmetry_Int_Tables_number   1
_chemical_formula_structural   Na7Ga13
_chemical_formula_sum   'Na42 Ga78'
_cell_volume   2578.97882810
_cell_formula_units_Z   6
loop_
 _symmetry_equiv_pos_site_id
 _symmetry_equiv_pos_as_xyz
  1  'x, y, z'
loop_
 _atom_site_type_symbol
 _atom_site_label
 _atom_site_symmetry_multiplicity
 _atom_site_fract_x
 _atom_site_fract_y
 _atom_site_fract_z
 _atom_site_occupancy
  Na  Na0  1  0.50080100  0.25135100  0.87857800  1
  Na  Na1  1  0.25298100  0.87280000  0.87280000  1
  Na  Na2  1  0.12142200  0.49919900  0.74864900  1
  Na  Na3  1  0.50080100  0.87857800  0.25135100  1
  Na  Na4  1  0.13968500  0.50994900  0.13968500  1
  Na  Na5  1  0.12142200  0.74864900  0.49919900  1
  Na  Na6  1  0.49005100  0.86031500  0.86031500  1
  Na  Na7  1  0.61998300  0.61998300  0.61998300  1
  Na  Na8  1  0.75541300  0.06003200  0.75541300  1
  Na  Na9  1  0.12720000  0.12720000  0.74701900  1
  Na  Na10  1  0.74701900  0.12720000  0.12720000  1
  Na  Na11  1  0.75541300  0.75541300  0.06003200  1
  Na  Na12  1  0.87857800  0.25135100  0.50080100  1
  Na  Na13  1  0.93996800  0.24458700  0.24458700  1
  Na  Na14  1  0.04408900  0.04408900  0.04408900  1
  Na  Na15  1  0.24458700  0.93996800  0.24458700  1
  Na  Na16  1  0.13968500  0.13968500  0.50994900  1
  Na  Na17  1  0.28073600  0.28073600  0.66650600  1
  Na  Na18  1  0.87280000  0.25298100  0.87280000  1
  Na  Na19  1  0.71926400  0.71926400  0.33349400  1
  Na  Na20  1  0.86031500  0.86031500  0.49005100  1
  Na  Na21  1  0.87280000  0.87280000  0.25298100  1
  Na  Na22  1  0.74864900  0.12142200  0.49919900  1
  Na  Na23  1  0.12720000  0.74701900  0.12720000  1
  Na  Na24  1  0.71926400  0.33349400  0.71926400  1
  Na  Na25  1  0.74864900  0.49919900  0.12142200  1
  Na  Na26  1  0.28073600  0.66650600  0.28073600  1
  Na  Na27  1  0.66650600  0.28073600  0.28073600  1
  Na  Na28  1  0.24458700  0.24458700  0.93996800  1
  Na  Na29  1  0.06003200  0.75541300  0.75541300  1
  Na  Na30  1  0.95591100  0.95591100  0.95591100  1
  Na  Na31  1  0.25135100  0.50080100  0.87857800  1
  Na  Na32  1  0.87857800  0.50080100  0.25135100  1
  Na  Na33  1  0.71127700  0.71127700  0.71127700  1
  Na  Na34  1  0.28872300  0.28872300  0.28872300  1
  Na  Na35  1  0.86031500  0.49005100  0.86031500  1
  Na  Na36  1  0.49919900  0.74864900  0.12142200  1
  Na  Na37  1  0.33349400  0.71926400  0.71926400  1
  Na  Na38  1  0.38001700  0.38001700  0.38001700  1
  Na  Na39  1  0.25135100  0.87857800  0.50080100  1
  Na  Na40  1  0.50994900  0.13968500  0.13968500  1
  Na  Na41  1  0.49919900  0.12142200  0.74864900  1
  Ga  Ga42  1  0.50942100  0.15936400  0.50942100  1
  Ga  Ga43  1  0.08363800  0.39601500  0.08363800  1
  Ga  Ga44  1  0.60398500  0.91636200  0.91636200  1
  Ga  Ga45  1  0.08363800  0.08363800  0.39601500  1
  Ga  Ga46  1  0.99447900  0.38672100  0.99447900  1
  Ga  Ga47  1  0.61877000  0.30010400  0.61877000  1
  Ga  Ga48  1  0.67066100  0.48856800  0.48856800  1
  Ga  Ga49  1  0.92793500  0.11963800  0.73696600  1
  Ga  Ga50  1  0.26303400  0.07206500  0.88036200  1
  Ga  Ga51  1  0.61702700  0.96289500  0.31033000  1
  Ga  Ga52  1  0.96289500  0.61702700  0.31033000  1
  Ga  Ga53  1  0.50942100  0.50942100  0.15936400  1
  Ga  Ga54  1  0.11963800  0.73696600  0.92793500  1
  Ga  Ga55  1  0.71857700  0.71857700  0.90811200  1
  Ga  Ga56  1  0.30010400  0.61877000  0.61877000  1
  Ga  Ga57  1  0.91636200  0.91636200  0.60398500  1
  Ga  Ga58  1  0.60863000  0.60863000  0.95671100  1
  Ga  Ga59  1  0.04328900  0.39137000  0.39137000  1
  Ga  Ga60  1  0.03710500  0.38297300  0.68967000  1
  Ga  Ga61  1  0.39601500  0.08363800  0.08363800  1
  Ga  Ga62  1  0.88036200  0.26303400  0.07206500  1
  Ga  Ga63  1  0.68967000  0.03710500  0.38297300  1
  Ga  Ga64  1  0.96289500  0.31033000  0.61702700  1
  Ga  Ga65  1  0.61702700  0.31033000  0.96289500  1
  Ga  Ga66  1  0.00552100  0.00552100  0.61327900  1
  Ga  Ga67  1  0.15915800  0.33247200  0.51124700  1
  Ga  Ga68  1  0.09188800  0.28142300  0.28142300  1
  Ga  Ga69  1  0.95671100  0.60863000  0.60863000  1
  Ga  Ga70  1  0.07206500  0.88036200  0.26303400  1
  Ga  Ga71  1  0.49057900  0.49057900  0.84063600  1
  Ga  Ga72  1  0.28142300  0.28142300  0.09188800  1
  Ga  Ga73  1  0.61327900  0.00552100  0.00552100  1
  Ga  Ga74  1  0.38123000  0.69989600  0.38123000  1
  Ga  Ga75  1  0.48875300  0.84084200  0.66752800  1
  Ga  Ga76  1  0.31033000  0.96289500  0.61702700  1
  Ga  Ga77  1  0.91636200  0.60398500  0.91636200  1
  Ga  Ga78  1  0.11963800  0.92793500  0.73696600  1
  Ga  Ga79  1  0.03710500  0.68967000  0.38297300  1
  Ga  Ga80  1  0.48856800  0.48856800  0.67066100  1
  Ga  Ga81  1  0.32933900  0.51143200  0.51143200  1
  Ga  Ga82  1  0.90811200  0.71857700  0.71857700  1
  Ga  Ga83  1  0.51143200  0.51143200  0.32933900  1
  Ga  Ga84  1  0.38123000  0.38123000  0.69989600  1
  Ga  Ga85  1  0.69989600  0.38123000  0.38123000  1
  Ga  Ga86  1  0.48856800  0.67066100  0.48856800  1
  Ga  Ga87  1  0.38297300  0.03710500  0.68967000  1
  Ga  Ga88  1  0.51124700  0.15915800  0.33247200  1
  Ga  Ga89  1  0.33247200  0.51124700  0.15915800  1
  Ga  Ga90  1  0.84063600  0.49057900  0.49057900  1
  Ga  Ga91  1  0.51143200  0.32933900  0.51143200  1
  Ga  Ga92  1  0.99447900  0.99447900  0.38672100  1
  Ga  Ga93  1  0.66752800  0.84084200  0.48875300  1
  Ga  Ga94  1  0.84084200  0.66752800  0.48875300  1
  Ga  Ga95  1  0.39137000  0.04328900  0.39137000  1
  Ga  Ga96  1  0.73696600  0.11963800  0.92793500  1
  Ga  Ga97  1  0.49057900  0.84063600  0.49057900  1
  Ga  Ga98  1  0.33247200  0.15915800  0.51124700  1
  Ga  Ga99  1  0.38297300  0.68967000  0.03710500  1
  Ga  Ga100  1  0.31033000  0.61702700  0.96289500  1
  Ga  Ga101  1  0.28142300  0.09188800  0.28142300  1
  Ga  Ga102  1  0.48875300  0.66752800  0.84084200  1
  Ga  Ga103  1  0.38672100  0.99447900  0.99447900  1
  Ga  Ga104  1  0.61877000  0.61877000  0.30010400  1
  Ga  Ga105  1  0.68967000  0.38297300  0.03710500  1
  Ga  Ga106  1  0.26303400  0.88036200  0.07206500  1
  Ga  Ga107  1  0.07206500  0.26303400  0.88036200  1
  Ga  Ga108  1  0.66752800  0.48875300  0.84084200  1
  Ga  Ga109  1  0.15936400  0.50942100  0.50942100  1
  Ga  Ga110  1  0.39137000  0.39137000  0.04328900  1
  Ga  Ga111  1  0.88036200  0.07206500  0.26303400  1
  Ga  Ga112  1  0.71857700  0.90811200  0.71857700  1
  Ga  Ga113  1  0.60863000  0.95671100  0.60863000  1
  Ga  Ga114  1  0.84084200  0.48875300  0.66752800  1
  Ga  Ga115  1  0.15915800  0.51124700  0.33247200  1
  Ga  Ga116  1  0.51124700  0.33247200  0.15915800  1
  Ga  Ga117  1  0.73696600  0.92793500  0.11963800  1
  Ga  Ga118  1  0.92793500  0.73696600  0.11963800  1
  Ga  Ga119  1  0.00552100  0.61327900  0.00552100  1
