# generated using pymatgen
data_Ho2Ge2O7
_symmetry_space_group_name_H-M   'P 1'
_cell_length_a   6.84983400
_cell_length_b   6.84983400
_cell_length_c   12.47712700
_cell_angle_alpha   90.00000000
_cell_angle_beta   90.00000000
_cell_angle_gamma   90.00000000
_symmetry_Int_Tables_number   1
_chemical_formula_structural   Ho2Ge2O7
_chemical_formula_sum   'Ho8 Ge8 O28'
_cell_volume   585.42961652
_cell_formula_units_Z   4
loop_
 _symmetry_equiv_pos_site_id
 _symmetry_equiv_pos_as_xyz
  1  'x, y, z'
loop_
 _atom_site_type_symbol
 _atom_site_label
 _atom_site_symmetry_multiplicity
 _atom_site_fract_x
 _atom_site_fract_y
 _atom_site_fract_z
 _atom_site_occupancy
  Ho  Ho0  1  0.85265200  0.62445100  0.88498300  1
  Ho  Ho1  1  0.35265200  0.87554900  0.86501700  1
  Ho  Ho2  1  0.37554900  0.14734800  0.61501700  1
  Ho  Ho3  1  0.64734800  0.12445100  0.36501700  1
  Ho  Ho4  1  0.14734800  0.37554900  0.38498300  1
  Ho  Ho5  1  0.12445100  0.64734800  0.63498300  1
  Ho  Ho6  1  0.62445100  0.85265200  0.11501700  1
  Ho  Ho7  1  0.87554900  0.35265200  0.13498300  1
  Ge  Ge8  1  0.40096200  0.34773000  0.13085800  1
  Ge  Ge9  1  0.65227000  0.59903800  0.36914200  1
  Ge  Ge10  1  0.59903800  0.65227000  0.63085800  1
  Ge  Ge11  1  0.09903800  0.84773000  0.11914200  1
  Ge  Ge12  1  0.84773000  0.09903800  0.88085800  1
  Ge  Ge13  1  0.15227000  0.90096200  0.38085800  1
  Ge  Ge14  1  0.90096200  0.15227000  0.61914200  1
  Ge  Ge15  1  0.34773000  0.40096200  0.86914200  1
  O  O16  1  0.35743100  0.18317400  0.79460700  1
  O  O17  1  0.07934000  0.96839500  0.62340200  1
  O  O18  1  0.68317400  0.14256900  0.54460700  1
  O  O19  1  0.66105400  0.93536400  0.92914900  1
  O  O20  1  0.33894600  0.06463600  0.42914900  1
  O  O21  1  0.43536400  0.83894600  0.67914900  1
  O  O22  1  0.53160500  0.57934000  0.87340200  1
  O  O23  1  0.42066000  0.46839500  0.62659800  1
  O  O24  1  0.19716300  0.80283700  0.25000000  1
  O  O25  1  0.57934000  0.53160500  0.12659800  1
  O  O26  1  0.30283700  0.30283700  0.00000000  1
  O  O27  1  0.92066000  0.03160500  0.12340200  1
  O  O28  1  0.14256900  0.68317400  0.45539300  1
  O  O29  1  0.93536400  0.66105400  0.07085100  1
  O  O30  1  0.85743100  0.31682600  0.95539300  1
  O  O31  1  0.03160500  0.92066000  0.87659800  1
  O  O32  1  0.16105400  0.56463600  0.82085100  1
  O  O33  1  0.31682600  0.85743100  0.04460700  1
  O  O34  1  0.64256900  0.81682600  0.29460700  1
  O  O35  1  0.18317400  0.35743100  0.20539300  1
  O  O36  1  0.56463600  0.16105400  0.17914900  1
  O  O37  1  0.81682600  0.64256900  0.70539300  1
  O  O38  1  0.96839500  0.07934000  0.37659800  1
  O  O39  1  0.06463600  0.33894600  0.57085100  1
  O  O40  1  0.69716300  0.69716300  0.50000000  1
  O  O41  1  0.83894600  0.43536400  0.32085100  1
  O  O42  1  0.80283700  0.19716300  0.75000000  1
  O  O43  1  0.46839500  0.42066000  0.37340200  1
