# generated using pymatgen
data_LaZn2
_symmetry_space_group_name_H-M   'P 1'
_cell_length_a   5.86985256
_cell_length_b   5.86985256
_cell_length_c   5.86985256
_cell_angle_alpha   132.77434455
_cell_angle_beta   99.50211014
_cell_angle_gamma   98.96339251
_symmetry_Int_Tables_number   1
_chemical_formula_structural   LaZn2
_chemical_formula_sum   'La2 Zn4'
_cell_volume   136.02416280
_cell_formula_units_Z   2
loop_
 _symmetry_equiv_pos_site_id
 _symmetry_equiv_pos_as_xyz
  1  'x, y, z'
loop_
 _atom_site_type_symbol
 _atom_site_label
 _atom_site_symmetry_multiplicity
 _atom_site_fract_x
 _atom_site_fract_y
 _atom_site_fract_z
 _atom_site_occupancy
  La  La0  1  0.20718100  0.75000000  0.45718100  1
  La  La1  1  0.79281900  0.25000000  0.54281900  1
  Zn  Zn2  1  0.39718600  0.56208300  0.83510300  1
  Zn  Zn3  1  0.60281400  0.43791700  0.16489700  1
  Zn  Zn4  1  0.22698000  0.06208300  0.16489700  1
  Zn  Zn5  1  0.77302000  0.93791700  0.83510300  1
