# generated using pymatgen
data_NbP2NCl12
_symmetry_space_group_name_H-M   'P 1'
_cell_length_a   8.31967474
_cell_length_b   8.31967474
_cell_length_c   15.92642667
_cell_angle_alpha   78.47739380
_cell_angle_beta   78.47739380
_cell_angle_gamma   65.81138919
_symmetry_Int_Tables_number   1
_chemical_formula_structural   NbP2NCl12
_chemical_formula_sum   'Nb2 P4 N2 Cl24'
_cell_volume   976.71482038
_cell_formula_units_Z   2
loop_
 _symmetry_equiv_pos_site_id
 _symmetry_equiv_pos_as_xyz
  1  'x, y, z'
loop_
 _atom_site_type_symbol
 _atom_site_label
 _atom_site_symmetry_multiplicity
 _atom_site_fract_x
 _atom_site_fract_y
 _atom_site_fract_z
 _atom_site_occupancy
  Nb  Nb0  1  0.00000000  0.00000000  0.50000000  1
  Nb  Nb1  1  0.00000000  0.00000000  0.00000000  1
  P  P2  1  0.46016500  0.32007900  0.77071500  1
  P  P3  1  0.67992100  0.53983500  0.72928500  1
  P  P4  1  0.32007900  0.46016500  0.27071500  1
  P  P5  1  0.53983500  0.67992100  0.22928500  1
  N  N6  1  0.62096600  0.37903400  0.75000000  1
  N  N7  1  0.37903400  0.62096600  0.25000000  1
  Cl  Cl8  1  0.70361800  0.21852100  0.00848300  1
  Cl  Cl9  1  0.78731100  0.89733400  0.47267700  1
  Cl  Cl10  1  0.29638200  0.78147900  0.99151700  1
  Cl  Cl11  1  0.90248900  0.48346500  0.64885200  1
  Cl  Cl12  1  0.23887900  0.49751300  0.82423900  1
  Cl  Cl13  1  0.51653500  0.09751100  0.85114800  1
  Cl  Cl14  1  0.10266600  0.21268900  0.02732300  1
  Cl  Cl15  1  0.48346500  0.90248900  0.14885200  1
  Cl  Cl16  1  0.95363400  0.90990800  0.15136500  1
  Cl  Cl17  1  0.78147900  0.29638200  0.49151700  1
  Cl  Cl18  1  0.90990800  0.95363400  0.65136500  1
  Cl  Cl19  1  0.21268900  0.10266600  0.52732300  1
  Cl  Cl20  1  0.89733400  0.78731100  0.97267700  1
  Cl  Cl21  1  0.27253100  0.40131500  0.16601900  1
  Cl  Cl22  1  0.59868500  0.72746900  0.33398100  1
  Cl  Cl23  1  0.09009200  0.04636600  0.34863500  1
  Cl  Cl24  1  0.72746900  0.59868500  0.83398100  1
  Cl  Cl25  1  0.21852100  0.70361800  0.50848300  1
  Cl  Cl26  1  0.04636600  0.09009200  0.84863500  1
  Cl  Cl27  1  0.09751100  0.51653500  0.35114800  1
  Cl  Cl28  1  0.76112100  0.50248700  0.17576100  1
  Cl  Cl29  1  0.50248700  0.76112100  0.67576100  1
  Cl  Cl30  1  0.40131500  0.27253100  0.66601900  1
  Cl  Cl31  1  0.49751300  0.23887900  0.32423900  1
