# generated using pymatgen
data_Eu3ReO7
_symmetry_space_group_name_H-M   'P 1'
_cell_length_a   6.70778051
_cell_length_b   6.70778051
_cell_length_c   7.64003700
_cell_angle_alpha   90.00000000
_cell_angle_beta   90.00000000
_cell_angle_gamma   110.30852642
_symmetry_Int_Tables_number   1
_chemical_formula_structural   Eu3ReO7
_chemical_formula_sum   'Eu6 Re2 O14'
_cell_volume   322.38932135
_cell_formula_units_Z   2
loop_
 _symmetry_equiv_pos_site_id
 _symmetry_equiv_pos_as_xyz
  1  'x, y, z'
loop_
 _atom_site_type_symbol
 _atom_site_label
 _atom_site_symmetry_multiplicity
 _atom_site_fract_x
 _atom_site_fract_y
 _atom_site_fract_z
 _atom_site_occupancy
  Eu  Eu0  1  0.48805600  0.96844000  0.75000000  1
  Eu  Eu1  1  0.00000000  0.00000000  0.50000000  1
  Eu  Eu2  1  0.03156000  0.51194400  0.25000000  1
  Eu  Eu3  1  0.96844000  0.48805600  0.75000000  1
  Eu  Eu4  1  0.51194400  0.03156000  0.25000000  1
  Eu  Eu5  1  0.00000000  0.00000000  0.00000000  1
  Re  Re6  1  0.50000000  0.50000000  0.00000000  1
  Re  Re7  1  0.50000000  0.50000000  0.50000000  1
  O  O8  1  0.14778300  0.87807200  0.25000000  1
  O  O9  1  0.55671000  0.79987100  0.48158600  1
  O  O10  1  0.79987100  0.55671000  0.01841400  1
  O  O11  1  0.44329000  0.20012900  0.98158600  1
  O  O12  1  0.55671000  0.79987100  0.01841400  1
  O  O13  1  0.53018500  0.53018500  0.75000000  1
  O  O14  1  0.85221700  0.12192800  0.75000000  1
  O  O15  1  0.12192800  0.85221700  0.75000000  1
  O  O16  1  0.20012900  0.44329000  0.98158600  1
  O  O17  1  0.87807200  0.14778300  0.25000000  1
  O  O18  1  0.44329000  0.20012900  0.51841400  1
  O  O19  1  0.46981500  0.46981500  0.25000000  1
  O  O20  1  0.79987100  0.55671000  0.48158600  1
  O  O21  1  0.20012900  0.44329000  0.51841400  1
