# generated using pymatgen
data_Ca4P6O19
_symmetry_space_group_name_H-M   'P 1'
_cell_length_a   6.95365100
_cell_length_b   9.27378606
_cell_length_c   12.99320067
_cell_angle_alpha   109.50578894
_cell_angle_beta   99.83895613
_cell_angle_gamma   91.86738573
_symmetry_Int_Tables_number   1
_chemical_formula_structural   Ca4P6O19
_chemical_formula_sum   'Ca8 P12 O38'
_cell_volume   774.55018021
_cell_formula_units_Z   2
loop_
 _symmetry_equiv_pos_site_id
 _symmetry_equiv_pos_as_xyz
  1  'x, y, z'
loop_
 _atom_site_type_symbol
 _atom_site_label
 _atom_site_symmetry_multiplicity
 _atom_site_fract_x
 _atom_site_fract_y
 _atom_site_fract_z
 _atom_site_occupancy
  Ca  Ca0  1  0.80822000  0.99283900  0.36643700  1
  Ca  Ca1  1  0.64471300  0.13164100  0.87808300  1
  Ca  Ca2  1  0.35528700  0.86835900  0.12191700  1
  Ca  Ca3  1  0.90160500  0.35076600  0.66665700  1
  Ca  Ca4  1  0.97266700  0.81778500  0.85231500  1
  Ca  Ca5  1  0.09839500  0.64923400  0.33334300  1
  Ca  Ca6  1  0.02733300  0.18221500  0.14768500  1
  Ca  Ca7  1  0.19178000  0.00716100  0.63356300  1
  P  P8  1  0.12551500  0.18857100  0.88043200  1
  P  P9  1  0.87448500  0.81142900  0.11956800  1
  P  P10  1  0.79534300  0.37079000  0.37892600  1
  P  P11  1  0.72992400  0.94711400  0.62515700  1
  P  P12  1  0.62675100  0.67012700  0.41698000  1
  P  P13  1  0.28784000  0.46010100  0.09349100  1
  P  P14  1  0.20465700  0.62921000  0.62107400  1
  P  P15  1  0.27007600  0.05288600  0.37484300  1
  P  P16  1  0.37324900  0.32987300  0.58302000  1
  P  P17  1  0.46355100  0.75996100  0.84863100  1
  P  P18  1  0.71216000  0.53989900  0.90650900  1
  P  P19  1  0.53644900  0.24003900  0.15136900  1
  O  O20  1  0.24624300  0.34786300  0.96744600  1
  O  O21  1  0.21933900  0.26611300  0.63006600  1
  O  O22  1  0.00532100  0.76914600  0.20877900  1
  O  O23  1  0.99467900  0.23085400  0.79122100  1
  O  O24  1  0.57620200  0.37648900  0.64906600  1
  O  O25  1  0.16144500  0.72225000  0.54600900  1
  O  O26  1  0.69378900  0.18693900  0.08424800  1
  O  O27  1  0.61373400  0.78441000  0.53711900  1
  O  O28  1  0.66140800  0.38203100  0.90421700  1
  O  O29  1  0.61338400  0.27228900  0.28170500  1
  O  O30  1  0.29234100  0.47733400  0.55227600  1
  O  O31  1  0.10801200  0.09565000  0.29781300  1
  O  O32  1  0.89198800  0.90435000  0.70218700  1
  O  O33  1  0.70765900  0.52266600  0.44772400  1
  O  O34  1  0.78066100  0.73388700  0.36993400  1
  O  O35  1  0.35260300  0.13205800  0.12190800  1
  O  O36  1  0.28702700  0.09035500  0.83525500  1
  O  O37  1  0.49117600  0.40410600  0.14489500  1
  O  O38  1  0.87015400  0.56986200  0.84753800  1
  O  O39  1  0.17814000  0.96720400  0.44072900  1
  O  O40  1  0.00267500  0.11700000  0.94317100  1
  O  O41  1  0.64739700  0.86794200  0.87809200  1
  O  O42  1  0.75375700  0.65213700  0.03255400  1
  O  O43  1  0.95156800  0.40881700  0.32228800  1
  O  O44  1  0.38661600  0.72771100  0.71829500  1
  O  O45  1  0.71297300  0.90964500  0.16474500  1
  O  O46  1  0.43421000  0.97418800  0.31909800  1
  O  O47  1  0.56579000  0.02581200  0.68090200  1
  O  O48  1  0.33859200  0.61796900  0.09578300  1
  O  O49  1  0.42379800  0.62351100  0.35093400  1
  O  O50  1  0.99732500  0.88300000  0.05682900  1
  O  O51  1  0.83855500  0.27775000  0.45399100  1
  O  O52  1  0.04843200  0.59118300  0.67771200  1
  O  O53  1  0.82186000  0.03279600  0.55927100  1
  O  O54  1  0.38626600  0.21559000  0.46288100  1
  O  O55  1  0.12984600  0.43013800  0.15246200  1
  O  O56  1  0.50882400  0.59589400  0.85510500  1
  O  O57  1  0.30621100  0.81306100  0.91575200  1
