# generated using pymatgen
data_CsTeF5
_symmetry_space_group_name_H-M   'P 1'
_cell_length_a   6.74792800
_cell_length_b   8.53026000
_cell_length_c   10.47693900
_cell_angle_alpha   90.00000000
_cell_angle_beta   90.00000000
_cell_angle_gamma   90.00000000
_symmetry_Int_Tables_number   1
_chemical_formula_structural   CsTeF5
_chemical_formula_sum   'Cs4 Te4 F20'
_cell_volume   603.06916556
_cell_formula_units_Z   4
loop_
 _symmetry_equiv_pos_site_id
 _symmetry_equiv_pos_as_xyz
  1  'x, y, z'
loop_
 _atom_site_type_symbol
 _atom_site_label
 _atom_site_symmetry_multiplicity
 _atom_site_fract_x
 _atom_site_fract_y
 _atom_site_fract_z
 _atom_site_occupancy
  Cs  Cs0  1  0.25000000  0.63537700  0.16679300  1
  Cs  Cs1  1  0.75000000  0.36462300  0.83320700  1
  Cs  Cs2  1  0.75000000  0.13537700  0.33320700  1
  Cs  Cs3  1  0.25000000  0.86462300  0.66679300  1
  Te  Te4  1  0.25000000  0.13829800  0.07133200  1
  Te  Te5  1  0.75000000  0.86170200  0.92866800  1
  Te  Te6  1  0.75000000  0.63829800  0.42866800  1
  Te  Te7  1  0.25000000  0.36170200  0.57133200  1
  F  F8  1  0.04411600  0.98494600  0.13607300  1
  F  F9  1  0.54411600  0.01505400  0.86392700  1
  F  F10  1  0.95588400  0.48494600  0.36392700  1
  F  F11  1  0.45588400  0.51505400  0.63607300  1
  F  F12  1  0.95588400  0.01505400  0.86392700  1
  F  F13  1  0.45588400  0.98494600  0.13607300  1
  F  F14  1  0.04411600  0.51505400  0.63607300  1
  F  F15  1  0.54411600  0.48494600  0.36392700  1
  F  F16  1  0.04048900  0.30589700  0.06688200  1
  F  F17  1  0.54048900  0.69410300  0.93311800  1
  F  F18  1  0.95951100  0.80589700  0.43311800  1
  F  F19  1  0.45951100  0.19410300  0.56688200  1
  F  F20  1  0.95951100  0.69410300  0.93311800  1
  F  F21  1  0.45951100  0.30589700  0.06688200  1
  F  F22  1  0.04048900  0.19410300  0.56688200  1
  F  F23  1  0.54048900  0.80589700  0.43311800  1
  F  F24  1  0.25000000  0.19506100  0.24883500  1
  F  F25  1  0.75000000  0.80493900  0.75116500  1
  F  F26  1  0.75000000  0.69506100  0.25116500  1
  F  F27  1  0.25000000  0.30493900  0.74883500  1
