# generated using pymatgen
data_Na3BeAl(SiO4)2
_symmetry_space_group_name_H-M   'P 1'
_cell_length_a   6.93183900
_cell_length_b   7.26002000
_cell_length_c   7.37408300
_cell_angle_alpha   90.00000000
_cell_angle_beta   90.00000000
_cell_angle_gamma   90.00000000
_symmetry_Int_Tables_number   1
_chemical_formula_structural   Na3BeAl(SiO4)2
_chemical_formula_sum   'Na6 Be2 Al2 Si4 O16'
_cell_volume   371.10286381
_cell_formula_units_Z   2
loop_
 _symmetry_equiv_pos_site_id
 _symmetry_equiv_pos_as_xyz
  1  'x, y, z'
loop_
 _atom_site_type_symbol
 _atom_site_label
 _atom_site_symmetry_multiplicity
 _atom_site_fract_x
 _atom_site_fract_y
 _atom_site_fract_z
 _atom_site_occupancy
  Na  Na0  1  0.24703300  0.28664700  0.32396100  1
  Na  Na1  1  0.75296700  0.71335300  0.32396100  1
  Na  Na2  1  0.50000000  0.00000000  0.03335700  1
  Na  Na3  1  0.00000000  0.50000000  0.96664300  1
  Na  Na4  1  0.74703300  0.21335300  0.67603900  1
  Na  Na5  1  0.25296700  0.78664700  0.67603900  1
  Be  Be6  1  0.00000000  0.50000000  0.56662700  1
  Be  Be7  1  0.50000000  0.00000000  0.43337300  1
  Al  Al8  1  0.00000000  0.00000000  0.03321600  1
  Al  Al9  1  0.50000000  0.50000000  0.96678400  1
  Si  Si10  1  0.76454500  0.30059400  0.25963600  1
  Si  Si11  1  0.26454500  0.19940600  0.74036400  1
  Si  Si12  1  0.23545500  0.69940600  0.25963600  1
  Si  Si13  1  0.73545500  0.80059400  0.74036400  1
  O  O14  1  0.04468800  0.80361000  0.16880600  1
  O  O15  1  0.17149400  0.58838100  0.44148500  1
  O  O16  1  0.79719200  0.95879600  0.89420100  1
  O  O17  1  0.20280800  0.04120400  0.89420100  1
  O  O18  1  0.41591000  0.83830500  0.29428000  1
  O  O19  1  0.45531200  0.30361000  0.83119400  1
  O  O20  1  0.95531200  0.19639000  0.16880600  1
  O  O21  1  0.32850600  0.08838100  0.55851500  1
  O  O22  1  0.08409000  0.33830500  0.70572000  1
  O  O23  1  0.67149400  0.91161900  0.55851500  1
  O  O24  1  0.54468800  0.69639000  0.83119400  1
  O  O25  1  0.82850600  0.41161900  0.44148500  1
  O  O26  1  0.29719200  0.54120400  0.10579900  1
  O  O27  1  0.58409000  0.16169500  0.29428000  1
  O  O28  1  0.70280800  0.45879600  0.10579900  1
  O  O29  1  0.91591000  0.66169500  0.70572000  1
