# generated using pymatgen
data_Bi10(MoO8)3
_symmetry_space_group_name_H-M   'P 1'
_cell_length_a   12.30900534
_cell_length_b   12.30900534
_cell_length_c   8.85304148
_cell_angle_alpha   84.41231231
_cell_angle_beta   84.41231231
_cell_angle_gamma   26.97935648
_symmetry_Int_Tables_number   1
_chemical_formula_structural   Bi10(MoO8)3
_chemical_formula_sum   'Bi10 Mo3 O24'
_cell_volume   605.46601834
_cell_formula_units_Z   1
loop_
 _symmetry_equiv_pos_site_id
 _symmetry_equiv_pos_as_xyz
  1  'x, y, z'
loop_
 _atom_site_type_symbol
 _atom_site_label
 _atom_site_symmetry_multiplicity
 _atom_site_fract_x
 _atom_site_fract_y
 _atom_site_fract_z
 _atom_site_occupancy
  Bi  Bi0  1  0.45573100  0.47120600  0.32430700  1
  Bi  Bi1  1  0.60135300  0.78694600  0.45331000  1
  Bi  Bi2  1  0.52879400  0.54426900  0.67569300  1
  Bi  Bi3  1  0.20130500  0.27554300  0.18845500  1
  Bi  Bi4  1  0.06877800  0.08250400  0.41193000  1
  Bi  Bi5  1  0.21305400  0.39864700  0.54669000  1
  Bi  Bi6  1  0.12006500  0.17678400  0.75142800  1
  Bi  Bi7  1  0.91749600  0.93122200  0.58807000  1
  Bi  Bi8  1  0.82321600  0.87993500  0.24857200  1
  Bi  Bi9  1  0.72445700  0.79869500  0.81154500  1
  Mo  Mo10  1  0.31921000  0.42822600  0.92641000  1
  Mo  Mo11  1  0.99957900  0.00042100  0.00000000  1
  Mo  Mo12  1  0.57177400  0.68079000  0.07359000  1
  O  O13  1  0.89115000  0.76178400  0.64521500  1
  O  O14  1  0.38217200  0.96372200  0.00495000  1
  O  O15  1  0.23821600  0.10885000  0.35478500  1
  O  O16  1  0.24044500  0.87929200  0.93727700  1
  O  O17  1  0.70346300  0.29653700  0.50000000  1
  O  O18  1  0.00797800  0.54472000  0.34901100  1
  O  O19  1  0.22217600  0.77782400  0.50000000  1
  O  O20  1  0.84258700  0.18481700  0.16201800  1
  O  O21  1  0.73612400  0.48050900  0.91899400  1
  O  O22  1  0.51949100  0.26387600  0.08100600  1
  O  O23  1  0.45223700  0.19956500  0.83084900  1
  O  O24  1  0.29498400  0.55741200  0.77328200  1
  O  O25  1  0.65143200  0.14098000  0.40625100  1
  O  O26  1  0.80043500  0.54776300  0.16915100  1
  O  O27  1  0.44258800  0.70501600  0.22671800  1
  O  O28  1  0.85902000  0.34856800  0.59374900  1
  O  O29  1  0.12070800  0.75955500  0.06272300  1
  O  O30  1  0.35258800  0.86492300  0.58085700  1
  O  O31  1  0.97420400  0.47404800  0.68698900  1
  O  O32  1  0.13507700  0.64741200  0.41914300  1
  O  O33  1  0.52595200  0.02579600  0.31301100  1
  O  O34  1  0.81518300  0.15741300  0.83798200  1
  O  O35  1  0.03627800  0.61782800  0.99505000  1
  O  O36  1  0.45528000  0.99202200  0.65098900  1
