# generated using pymatgen
data_SrP3
_symmetry_space_group_name_H-M   'P 1'
_cell_length_a   6.85278772
_cell_length_b   6.85278772
_cell_length_c   8.63415321
_cell_angle_alpha   78.74768337
_cell_angle_beta   78.74768337
_cell_angle_gamma   65.84833883
_symmetry_Int_Tables_number   1
_chemical_formula_structural   SrP3
_chemical_formula_sum   'Sr4 P12'
_cell_volume   359.83805000
_cell_formula_units_Z   4
loop_
 _symmetry_equiv_pos_site_id
 _symmetry_equiv_pos_as_xyz
  1  'x, y, z'
loop_
 _atom_site_type_symbol
 _atom_site_label
 _atom_site_symmetry_multiplicity
 _atom_site_fract_x
 _atom_site_fract_y
 _atom_site_fract_z
 _atom_site_occupancy
  Sr  Sr0  1  0.95848100  0.95848100  0.74168800  1
  Sr  Sr1  1  0.29293000  0.29293000  0.77498800  1
  Sr  Sr2  1  0.70707000  0.70707000  0.22501200  1
  Sr  Sr3  1  0.04151900  0.04151900  0.25831200  1
  P  P4  1  0.63885500  0.16483300  0.02450500  1
  P  P5  1  0.90451900  0.39700300  0.51247000  1
  P  P6  1  0.67357600  0.67357600  0.83720200  1
  P  P7  1  0.60299700  0.09548100  0.48753000  1
  P  P8  1  0.58267200  0.58267200  0.63230400  1
  P  P9  1  0.32642400  0.32642400  0.16279800  1
  P  P10  1  0.39700300  0.90451900  0.51247000  1
  P  P11  1  0.41732800  0.41732800  0.36769600  1
  P  P12  1  0.36114500  0.83516700  0.97549500  1
  P  P13  1  0.09548100  0.60299700  0.48753000  1
  P  P14  1  0.16483300  0.63885500  0.02450500  1
  P  P15  1  0.83516700  0.36114500  0.97549500  1
