# generated using pymatgen
data_K3Nb2Cu3S8
_symmetry_space_group_name_H-M   'P 1'
_cell_length_a   12.24860552
_cell_length_b   12.24860552
_cell_length_c   14.52351439
_cell_angle_alpha   60.54422831
_cell_angle_beta   60.54422831
_cell_angle_gamma   26.30235236
_symmetry_Int_Tables_number   1
_chemical_formula_structural   K3Nb2Cu3S8
_chemical_formula_sum   'K6 Nb4 Cu6 S16'
_cell_volume   833.34843390
_cell_formula_units_Z   2
loop_
 _symmetry_equiv_pos_site_id
 _symmetry_equiv_pos_as_xyz
  1  'x, y, z'
loop_
 _atom_site_type_symbol
 _atom_site_label
 _atom_site_symmetry_multiplicity
 _atom_site_fract_x
 _atom_site_fract_y
 _atom_site_fract_z
 _atom_site_occupancy
  K  K0  1  0.26729100  0.34701400  0.59466800  1
  K  K1  1  0.65298600  0.73270900  0.90533200  1
  K  K2  1  0.73270900  0.65298600  0.40533200  1
  K  K3  1  0.00000000  0.00000000  0.50000000  1
  K  K4  1  0.00000000  0.00000000  0.00000000  1
  K  K5  1  0.34701400  0.26729100  0.09466800  1
  Nb  Nb6  1  0.84242800  0.40810500  0.72074200  1
  Nb  Nb7  1  0.40810500  0.84242800  0.22074200  1
  Nb  Nb8  1  0.59189500  0.15757200  0.77925800  1
  Nb  Nb9  1  0.15757200  0.59189500  0.27925800  1
  Cu  Cu10  1  0.33951800  0.90449500  0.71992400  1
  Cu  Cu11  1  0.66048200  0.09550500  0.28007600  1
  Cu  Cu12  1  0.90449500  0.33951800  0.21992400  1
  Cu  Cu13  1  0.27874100  0.72125900  0.25000000  1
  Cu  Cu14  1  0.09550500  0.66048200  0.78007600  1
  Cu  Cu15  1  0.72125900  0.27874100  0.75000000  1
  S  S16  1  0.18573700  0.12632200  0.31335600  1
  S  S17  1  0.32391900  0.25893800  0.38988500  1
  S  S18  1  0.51779100  0.55915500  0.83854000  1
  S  S19  1  0.12632200  0.18573700  0.81335600  1
  S  S20  1  0.87367800  0.81426300  0.18664400  1
  S  S21  1  0.13544900  0.04352200  0.12893600  1
  S  S22  1  0.55915500  0.51779100  0.33854000  1
  S  S23  1  0.44084500  0.48220900  0.66146000  1
  S  S24  1  0.04352200  0.13544900  0.62893600  1
  S  S25  1  0.25893800  0.32391900  0.88988500  1
  S  S26  1  0.48220900  0.44084500  0.16146000  1
  S  S27  1  0.67608100  0.74106200  0.61011500  1
  S  S28  1  0.81426300  0.87367800  0.68664400  1
  S  S29  1  0.74106200  0.67608100  0.11011500  1
  S  S30  1  0.95647800  0.86455100  0.37106400  1
  S  S31  1  0.86455100  0.95647800  0.87106400  1
