# generated using pymatgen
data_K3Ta2Ag3S8
_symmetry_space_group_name_H-M   'P 1'
_cell_length_a   12.91070115
_cell_length_b   12.91070115
_cell_length_c   14.37275475
_cell_angle_alpha   61.19018753
_cell_angle_beta   61.19018753
_cell_angle_gamma   26.87747053
_symmetry_Int_Tables_number   1
_chemical_formula_structural   K3Ta2Ag3S8
_chemical_formula_sum   'K6 Ta4 Ag6 S16'
_cell_volume   940.78655681
_cell_formula_units_Z   2
loop_
 _symmetry_equiv_pos_site_id
 _symmetry_equiv_pos_as_xyz
  1  'x, y, z'
loop_
 _atom_site_type_symbol
 _atom_site_label
 _atom_site_symmetry_multiplicity
 _atom_site_fract_x
 _atom_site_fract_y
 _atom_site_fract_z
 _atom_site_occupancy
  K  K0  1  0.63314000  0.76125600  0.39792900  1
  K  K1  1  0.00000000  0.00000000  0.00000000  1
  K  K2  1  0.76125600  0.63314000  0.89792900  1
  K  K3  1  0.00000000  0.00000000  0.50000000  1
  K  K4  1  0.23874400  0.36686000  0.10207100  1
  K  K5  1  0.36686000  0.23874400  0.60207100  1
  Ta  Ta6  1  0.58326000  0.16170400  0.27870200  1
  Ta  Ta7  1  0.16170400  0.58326000  0.77870200  1
  Ta  Ta8  1  0.83829600  0.41674000  0.22129800  1
  Ta  Ta9  1  0.41674000  0.83829600  0.72129800  1
  Ag  Ag10  1  0.28804700  0.71195300  0.75000000  1
  Ag  Ag11  1  0.33753200  0.91614900  0.21399700  1
  Ag  Ag12  1  0.91614900  0.33753200  0.71399700  1
  Ag  Ag13  1  0.08385100  0.66246800  0.28600300  1
  Ag  Ag14  1  0.71195300  0.28804700  0.25000000  1
  Ag  Ag15  1  0.66246800  0.08385100  0.78600300  1
  S  S16  1  0.45814200  0.44803700  0.65347100  1
  S  S17  1  0.22301500  0.09194300  0.81715200  1
  S  S18  1  0.44803700  0.45814200  0.15347100  1
  S  S19  1  0.77698500  0.90805700  0.18284800  1
  S  S20  1  0.55196300  0.54185800  0.84652900  1
  S  S21  1  0.29196000  0.28731000  0.89032500  1
  S  S22  1  0.71269000  0.70804000  0.60967500  1
  S  S23  1  0.28731000  0.29196000  0.39032500  1
  S  S24  1  0.90805700  0.77698500  0.68284800  1
  S  S25  1  0.18183200  0.01560700  0.61596300  1
  S  S26  1  0.70804000  0.71269000  0.10967500  1
  S  S27  1  0.54185800  0.55196300  0.34652900  1
  S  S28  1  0.98439300  0.81816800  0.88403700  1
  S  S29  1  0.09194300  0.22301500  0.31715200  1
  S  S30  1  0.81816800  0.98439300  0.38403700  1
  S  S31  1  0.01560700  0.18183200  0.11596300  1
