# generated using pymatgen
data_Sb3O2F5
_symmetry_space_group_name_H-M   'P 1'
_cell_length_a   6.08715900
_cell_length_b   9.35513500
_cell_length_c   13.46085004
_cell_angle_alpha   71.08447215
_cell_angle_beta   90.00000000
_cell_angle_gamma   90.00000000
_symmetry_Int_Tables_number   1
_chemical_formula_structural   Sb3O2F5
_chemical_formula_sum   'Sb12 O8 F20'
_cell_volume   725.14890780
_cell_formula_units_Z   4
loop_
 _symmetry_equiv_pos_site_id
 _symmetry_equiv_pos_as_xyz
  1  'x, y, z'
loop_
 _atom_site_type_symbol
 _atom_site_label
 _atom_site_symmetry_multiplicity
 _atom_site_fract_x
 _atom_site_fract_y
 _atom_site_fract_z
 _atom_site_occupancy
  Sb  Sb0  1  0.94409700  0.75000000  0.00000000  1
  Sb  Sb1  1  0.05590300  0.25000000  0.00000000  1
  Sb  Sb2  1  0.56663200  0.88471100  0.20876800  1
  Sb  Sb3  1  0.56663200  0.61528900  0.79123200  1
  Sb  Sb4  1  0.43336800  0.11528900  0.79123200  1
  Sb  Sb5  1  0.43336800  0.38471100  0.20876800  1
  Sb  Sb6  1  0.62423000  0.75000000  0.50000000  1
  Sb  Sb7  1  0.37577000  0.25000000  0.50000000  1
  Sb  Sb8  1  0.95675400  0.58837400  0.36247900  1
  Sb  Sb9  1  0.95675400  0.91162600  0.63752100  1
  Sb  Sb10  1  0.04324600  0.41162600  0.63752100  1
  Sb  Sb11  1  0.04324600  0.08837400  0.36247900  1
  O  O12  1  0.73955000  0.78098900  0.33900200  1
  O  O13  1  0.73955000  0.71901100  0.66099800  1
  O  O14  1  0.26045000  0.21901100  0.66099800  1
  O  O15  1  0.26045000  0.28098900  0.33900200  1
  O  O16  1  0.83900500  0.92125000  0.49204600  1
  O  O17  1  0.83900500  0.57875000  0.50795400  1
  O  O18  1  0.16099500  0.07875000  0.50795400  1
  O  O19  1  0.16099500  0.42125000  0.49204600  1
  F  F20  1  0.19722200  0.73311500  0.35999100  1
  F  F21  1  0.19722200  0.76688500  0.64000900  1
  F  F22  1  0.80277800  0.26688500  0.64000900  1
  F  F23  1  0.80277800  0.23311500  0.35999100  1
  F  F24  1  0.72726900  0.91481400  0.95718200  1
  F  F25  1  0.72726900  0.58518600  0.04281800  1
  F  F26  1  0.27273100  0.08518600  0.04281800  1
  F  F27  1  0.27273100  0.41481400  0.95718200  1
  F  F28  1  0.54919800  0.50889400  0.29575600  1
  F  F29  1  0.54919800  0.99110600  0.70424400  1
  F  F30  1  0.45080200  0.49110600  0.70424400  1
  F  F31  1  0.45080200  0.00889400  0.29575600  1
  F  F32  1  0.86229000  0.76892200  0.14971900  1
  F  F33  1  0.86229000  0.73107800  0.85028100  1
  F  F34  1  0.13771000  0.23107800  0.85028100  1
  F  F35  1  0.13771000  0.26892200  0.14971900  1
  F  F36  1  0.22553100  0.94521400  0.84383100  1
  F  F37  1  0.22553100  0.55478600  0.15616900  1
  F  F38  1  0.77446900  0.05478600  0.15616900  1
  F  F39  1  0.77446900  0.44521400  0.84383100  1
