# generated using pymatgen
data_Nd4Se3O4
_symmetry_space_group_name_H-M   'P 1'
_cell_length_a   6.82543832
_cell_length_b   6.82543832
_cell_length_c   8.50241800
_cell_angle_alpha   90.00000000
_cell_angle_beta   90.00000000
_cell_angle_gamma   145.63490306
_symmetry_Int_Tables_number   1
_chemical_formula_structural   Nd4Se3O4
_chemical_formula_sum   'Nd4 Se3 O4'
_cell_volume   223.58362632
_cell_formula_units_Z   1
loop_
 _symmetry_equiv_pos_site_id
 _symmetry_equiv_pos_as_xyz
  1  'x, y, z'
loop_
 _atom_site_type_symbol
 _atom_site_label
 _atom_site_symmetry_multiplicity
 _atom_site_fract_x
 _atom_site_fract_y
 _atom_site_fract_z
 _atom_site_occupancy
  Nd  Nd0  1  0.31691100  0.68308900  0.23701400  1
  Nd  Nd1  1  0.31691100  0.68308900  0.76298600  1
  Nd  Nd2  1  0.99911600  0.00088400  0.00000000  1
  Nd  Nd3  1  0.98219700  0.01780300  0.50000000  1
  Se  Se4  1  0.64393500  0.35606500  0.35112900  1
  Se  Se5  1  0.68711000  0.31289000  0.00000000  1
  Se  Se6  1  0.64393500  0.35606500  0.64887100  1
  O  O7  1  0.91196700  0.08803300  0.75611900  1
  O  O8  1  0.41225300  0.58774700  0.00000000  1
  O  O9  1  0.38388200  0.61611800  0.50000000  1
  O  O10  1  0.91196700  0.08803300  0.24388100  1
