# generated using pymatgen
data_Bi2Se4Cl7
_symmetry_space_group_name_H-M   'P 1'
_cell_length_a   10.75908300
_cell_length_b   12.09464266
_cell_length_c   13.93255958
_cell_angle_alpha   104.22232107
_cell_angle_beta   86.27284343
_cell_angle_gamma   112.09925339
_symmetry_Int_Tables_number   1
_chemical_formula_structural   Bi2Se4Cl7
_chemical_formula_sum   'Bi8 Se16 Cl28'
_cell_volume   1627.56475847
_cell_formula_units_Z   4
loop_
 _symmetry_equiv_pos_site_id
 _symmetry_equiv_pos_as_xyz
  1  'x, y, z'
loop_
 _atom_site_type_symbol
 _atom_site_label
 _atom_site_symmetry_multiplicity
 _atom_site_fract_x
 _atom_site_fract_y
 _atom_site_fract_z
 _atom_site_occupancy
  Bi  Bi0  1  0.99835500  0.16776200  0.30954500  1
  Bi  Bi1  1  0.78770700  0.95275600  0.99625600  1
  Bi  Bi2  1  0.21229300  0.04724400  0.00374400  1
  Bi  Bi3  1  0.00164500  0.83223800  0.69045500  1
  Bi  Bi4  1  0.32605200  0.06160000  0.51017700  1
  Bi  Bi5  1  0.64120400  0.15647100  0.81819800  1
  Bi  Bi6  1  0.35879600  0.84352900  0.18180200  1
  Bi  Bi7  1  0.67394800  0.93840000  0.48982300  1
  Se  Se8  1  0.25113100  0.54780500  0.58112100  1
  Se  Se9  1  0.13270800  0.39665200  0.91405600  1
  Se  Se10  1  0.74886900  0.45219500  0.41887900  1
  Se  Se11  1  0.60378500  0.30468100  0.28783700  1
  Se  Se12  1  0.14466100  0.38611700  0.65974400  1
  Se  Se13  1  0.93221600  0.51345300  0.19575200  1
  Se  Se14  1  0.06778400  0.48654700  0.80424800  1
  Se  Se15  1  0.41001400  0.42232500  0.76438900  1
  Se  Se16  1  0.86729200  0.60334800  0.08594400  1
  Se  Se17  1  0.39621500  0.69531900  0.71216300  1
  Se  Se18  1  0.58998600  0.57767500  0.23561100  1
  Se  Se19  1  0.85533900  0.61388300  0.34025600  1
  Se  Se20  1  0.64054200  0.46928200  0.08255400  1
  Se  Se21  1  0.35945800  0.53071800  0.91744600  1
  Se  Se22  1  0.46222300  0.41631500  0.31155900  1
  Se  Se23  1  0.53777700  0.58368500  0.68844100  1
  Cl  Cl24  1  0.79680100  0.22806600  0.97211400  1
  Cl  Cl25  1  0.53135200  0.01072000  0.37282700  1
  Cl  Cl26  1  0.58552200  0.91941600  0.86894000  1
  Cl  Cl27  1  0.76506700  0.79579000  0.57380100  1
  Cl  Cl28  1  0.70280800  0.38490200  0.82144800  1
  Cl  Cl29  1  0.17492300  0.87423400  0.30114700  1
  Cl  Cl30  1  0.98085600  0.94178800  0.11319300  1
  Cl  Cl31  1  0.17587500  0.09634900  0.66050200  1
  Cl  Cl32  1  0.60289600  0.80276400  0.08880300  1
  Cl  Cl33  1  0.01914400  0.05821200  0.88680700  1
  Cl  Cl34  1  0.80281700  0.15231600  0.19932500  1
  Cl  Cl35  1  0.80686200  0.75816200  0.88349900  1
  Cl  Cl36  1  0.23493300  0.20421000  0.42619900  1
  Cl  Cl37  1  0.19313800  0.24183800  0.11650100  1
  Cl  Cl38  1  0.29719200  0.61509800  0.17855200  1
  Cl  Cl39  1  0.87365600  0.20245600  0.47092500  1
  Cl  Cl40  1  0.09783600  0.40134100  0.33831900  1
  Cl  Cl41  1  0.41447800  0.08058400  0.13106000  1
  Cl  Cl42  1  0.39710400  0.19723600  0.91119700  1
  Cl  Cl43  1  0.20319900  0.77193400  0.02788600  1
  Cl  Cl44  1  0.82507700  0.12576600  0.69885300  1
  Cl  Cl45  1  0.51402800  0.27168900  0.57415200  1
  Cl  Cl46  1  0.12634400  0.79754400  0.52907500  1
  Cl  Cl47  1  0.90216400  0.59865900  0.66168100  1
  Cl  Cl48  1  0.19718300  0.84768400  0.80067500  1
  Cl  Cl49  1  0.46864800  0.98928000  0.62717300  1
  Cl  Cl50  1  0.82412500  0.90365100  0.33949800  1
  Cl  Cl51  1  0.48597200  0.72831100  0.42584800  1
