# generated using pymatgen
data_NaMg2V3O10
_symmetry_space_group_name_H-M   'P 1'
_cell_length_a   6.86077900
_cell_length_b   6.87140660
_cell_length_c   9.76443248
_cell_angle_alpha   104.82666555
_cell_angle_beta   100.24318001
_cell_angle_gamma   101.66223795
_symmetry_Int_Tables_number   1
_chemical_formula_structural   NaMg2V3O10
_chemical_formula_sum   'Na2 Mg4 V6 O20'
_cell_volume   422.80865164
_cell_formula_units_Z   2
loop_
 _symmetry_equiv_pos_site_id
 _symmetry_equiv_pos_as_xyz
  1  'x, y, z'
loop_
 _atom_site_type_symbol
 _atom_site_label
 _atom_site_symmetry_multiplicity
 _atom_site_fract_x
 _atom_site_fract_y
 _atom_site_fract_z
 _atom_site_occupancy
  Na  Na0  1  0.64084400  0.02134000  0.36462600  1
  Na  Na1  1  0.35915600  0.97866000  0.63537400  1
  Mg  Mg2  1  0.75587600  0.43175100  0.70638700  1
  Mg  Mg3  1  0.24412400  0.56824900  0.29361300  1
  Mg  Mg4  1  0.20811700  0.18347600  0.01753500  1
  Mg  Mg5  1  0.79188300  0.81652400  0.98246500  1
  V  V6  1  0.11367800  0.04810000  0.30804500  1
  V  V7  1  0.88632200  0.95190000  0.69195500  1
  V  V8  1  0.22806500  0.42743000  0.61341300  1
  V  V9  1  0.77193500  0.57257000  0.38658700  1
  V  V10  1  0.76724200  0.33747600  0.04618800  1
  V  V11  1  0.23275800  0.66252400  0.95381200  1
  O  O12  1  0.06892400  0.19273800  0.48058800  1
  O  O13  1  0.72701800  0.10800600  0.65540200  1
  O  O14  1  0.52042400  0.23924400  0.04136200  1
  O  O15  1  0.22649200  0.24296300  0.24241700  1
  O  O16  1  0.87121500  0.91239900  0.20870300  1
  O  O17  1  0.87143000  0.13158600  0.98800300  1
  O  O18  1  0.09735300  0.51957900  0.75689700  1
  O  O19  1  0.90264700  0.48042100  0.24310300  1
  O  O20  1  0.72347200  0.39635300  0.47820300  1
  O  O21  1  0.27652800  0.60364700  0.52179700  1
  O  O22  1  0.12878500  0.08760100  0.79129700  1
  O  O23  1  0.78575900  0.49709800  0.93361200  1
  O  O24  1  0.47957600  0.76075600  0.95863800  1
  O  O25  1  0.93107600  0.80726200  0.51941200  1
  O  O26  1  0.77350800  0.75703700  0.75758300  1
  O  O27  1  0.27298200  0.89199400  0.34459800  1
  O  O28  1  0.55647300  0.63427800  0.32205600  1
  O  O29  1  0.12857000  0.86841400  0.01199700  1
  O  O30  1  0.44352700  0.36572200  0.67794400  1
  O  O31  1  0.21424100  0.50290200  0.06638800  1
