# generated using pymatgen
data_TaP2S2Cl5
_symmetry_space_group_name_H-M   'P 1'
_cell_length_a   13.80074600
_cell_length_b   6.83919200
_cell_length_c   27.75506903
_cell_angle_alpha   79.69251964
_cell_angle_beta   90.00000000
_cell_angle_gamma   90.00000000
_symmetry_Int_Tables_number   1
_chemical_formula_structural   TaP2S2Cl5
_chemical_formula_sum   'Ta8 P16 S16 Cl40'
_cell_volume   2577.41124486
_cell_formula_units_Z   8
loop_
 _symmetry_equiv_pos_site_id
 _symmetry_equiv_pos_as_xyz
  1  'x, y, z'
loop_
 _atom_site_type_symbol
 _atom_site_label
 _atom_site_symmetry_multiplicity
 _atom_site_fract_x
 _atom_site_fract_y
 _atom_site_fract_z
 _atom_site_occupancy
  Ta  Ta0  1  0.78686900  0.25226800  0.02749100  1
  Ta  Ta1  1  0.71313100  0.25226800  0.52749100  1
  Ta  Ta2  1  0.28686900  0.74773200  0.47250900  1
  Ta  Ta3  1  0.61315100  0.02674400  0.29743800  1
  Ta  Ta4  1  0.11315100  0.97325600  0.20256200  1
  Ta  Ta5  1  0.38684900  0.97325600  0.70256200  1
  Ta  Ta6  1  0.21313100  0.74773200  0.97250900  1
  Ta  Ta7  1  0.88684900  0.02674400  0.79743800  1
  P  P8  1  0.07072900  0.46098000  0.61991100  1
  P  P9  1  0.43175400  0.93134000  0.85896400  1
  P  P10  1  0.65672800  0.32482500  0.09957500  1
  P  P11  1  0.92927100  0.53902000  0.38008900  1
  P  P12  1  0.08945900  0.75899300  0.29701400  1
  P  P13  1  0.15672800  0.67517500  0.40042500  1
  P  P14  1  0.91054100  0.24100700  0.70298600  1
  P  P15  1  0.34327200  0.67517500  0.90042500  1
  P  P16  1  0.42927100  0.46098000  0.11991100  1
  P  P17  1  0.57072900  0.53902000  0.88008900  1
  P  P18  1  0.58945900  0.24100700  0.20298600  1
  P  P19  1  0.56824600  0.06866000  0.14103600  1
  P  P20  1  0.41054100  0.75899300  0.79701400  1
  P  P21  1  0.84327200  0.32482500  0.59957500  1
  P  P22  1  0.06824600  0.93134000  0.35896400  1
  P  P23  1  0.93175400  0.06866000  0.64103600  1
  S  S24  1  0.02443200  0.44914100  0.69392000  1
  S  S25  1  0.21741500  0.63066200  0.33257800  1
  S  S26  1  0.57121600  0.85240200  0.88183200  1
  S  S27  1  0.71741500  0.36933800  0.16742200  1
  S  S28  1  0.55291500  0.54620800  0.07465400  1
  S  S29  1  0.47556800  0.44914100  0.19392000  1
  S  S30  1  0.92878400  0.85240200  0.38183200  1
  S  S31  1  0.07121600  0.14759800  0.61816800  1
  S  S32  1  0.97556800  0.55085900  0.30608000  1
  S  S33  1  0.44708500  0.45379200  0.92534600  1
  S  S34  1  0.05291500  0.45379200  0.42534600  1
  S  S35  1  0.52443200  0.55085900  0.80608000  1
  S  S36  1  0.78258500  0.36933800  0.66742200  1
  S  S37  1  0.28258500  0.63066200  0.83257800  1
  S  S38  1  0.42878400  0.14759800  0.11816800  1
  S  S39  1  0.94708500  0.54620800  0.57465400  1
  Cl  Cl40  1  0.74440500  0.24455800  0.29727000  1
  Cl  Cl41  1  0.73603900  0.56625700  0.98719900  1
  Cl  Cl42  1  0.98564600  0.26835000  0.82148700  1
  Cl  Cl43  1  0.25559500  0.75544200  0.70273000  1
  Cl  Cl44  1  0.10463800  0.58991300  0.92780300  1
  Cl  Cl45  1  0.60463800  0.41008700  0.57219700  1
  Cl  Cl46  1  0.02549900  0.88003600  0.77083400  1
  Cl  Cl47  1  0.97450100  0.11996400  0.22916600  1
  Cl  Cl48  1  0.85948300  0.12107400  0.50313500  1
  Cl  Cl49  1  0.11311500  0.82360900  0.03170600  1
  Cl  Cl50  1  0.39536200  0.58991300  0.42780300  1
  Cl  Cl51  1  0.61311500  0.17639100  0.46829400  1
  Cl  Cl52  1  0.75559500  0.24455800  0.79727000  1
  Cl  Cl53  1  0.35948300  0.87892600  0.99686500  1
  Cl  Cl54  1  0.88688500  0.17639100  0.96829400  1
  Cl  Cl55  1  0.01435400  0.73165000  0.17851300  1
  Cl  Cl56  1  0.13527200  0.17420700  0.12847900  1
  Cl  Cl57  1  0.47450100  0.88003600  0.27083400  1
  Cl  Cl58  1  0.51435400  0.26835000  0.32148700  1
  Cl  Cl59  1  0.23603900  0.43374300  0.51280100  1
  Cl  Cl60  1  0.30648400  0.03965100  0.41503900  1
  Cl  Cl61  1  0.79201800  0.84216000  0.75139600  1
  Cl  Cl62  1  0.24440500  0.75544200  0.20273000  1
  Cl  Cl63  1  0.14051700  0.87892600  0.49686500  1
  Cl  Cl64  1  0.26396100  0.43374300  0.01280100  1
  Cl  Cl65  1  0.80648400  0.96034900  0.08496100  1
  Cl  Cl66  1  0.64051700  0.12107400  0.00313500  1
  Cl  Cl67  1  0.86472800  0.82579300  0.87152100  1
  Cl  Cl68  1  0.38688500  0.82360900  0.53170600  1
  Cl  Cl69  1  0.69351600  0.96034900  0.58496100  1
  Cl  Cl70  1  0.76396100  0.56625700  0.48719900  1
  Cl  Cl71  1  0.63527200  0.82579300  0.37152100  1
  Cl  Cl72  1  0.52549900  0.11996400  0.72916600  1
  Cl  Cl73  1  0.70798200  0.84216000  0.25139600  1
  Cl  Cl74  1  0.29201800  0.15784000  0.74860400  1
  Cl  Cl75  1  0.20798200  0.15784000  0.24860400  1
  Cl  Cl76  1  0.48564600  0.73165000  0.67851300  1
  Cl  Cl77  1  0.19351600  0.03965100  0.91503900  1
  Cl  Cl78  1  0.36472800  0.17420700  0.62847900  1
  Cl  Cl79  1  0.89536200  0.41008700  0.07219700  1
