# generated using pymatgen
data_CoSbS
_symmetry_space_group_name_H-M   'P 1'
_cell_length_a   5.84002100
_cell_length_b   5.97446000
_cell_length_c   11.68992600
_cell_angle_alpha   90.00000000
_cell_angle_beta   90.00000000
_cell_angle_gamma   90.00000000
_symmetry_Int_Tables_number   1
_chemical_formula_structural   CoSbS
_chemical_formula_sum   'Co8 Sb8 S8'
_cell_volume   407.87287915
_cell_formula_units_Z   8
loop_
 _symmetry_equiv_pos_site_id
 _symmetry_equiv_pos_as_xyz
  1  'x, y, z'
loop_
 _atom_site_type_symbol
 _atom_site_label
 _atom_site_symmetry_multiplicity
 _atom_site_fract_x
 _atom_site_fract_y
 _atom_site_fract_z
 _atom_site_occupancy
  Co  Co0  1  0.01470300  0.16648100  0.38490300  1
  Co  Co1  1  0.01470300  0.33351900  0.88490300  1
  Co  Co2  1  0.48529700  0.66648100  0.38490300  1
  Co  Co3  1  0.98529700  0.83351900  0.61509700  1
  Co  Co4  1  0.51470300  0.33351900  0.61509700  1
  Co  Co5  1  0.48529700  0.83351900  0.88490300  1
  Co  Co6  1  0.98529700  0.66648100  0.11509700  1
  Co  Co7  1  0.51470300  0.16648100  0.11509700  1
  Sb  Sb8  1  0.11902600  0.04978400  0.18026800  1
  Sb  Sb9  1  0.61902600  0.45021600  0.81973200  1
  Sb  Sb10  1  0.88097400  0.54978400  0.31973200  1
  Sb  Sb11  1  0.38097400  0.95021600  0.68026800  1
  Sb  Sb12  1  0.88097400  0.95021600  0.81973200  1
  Sb  Sb13  1  0.38097400  0.54978400  0.18026800  1
  Sb  Sb14  1  0.11902600  0.45021600  0.68026800  1
  Sb  Sb15  1  0.61902600  0.04978400  0.31973200  1
  S  S16  1  0.63456500  0.68550400  0.56487200  1
  S  S17  1  0.86543500  0.31449600  0.06487200  1
  S  S18  1  0.36543500  0.18550400  0.93512800  1
  S  S19  1  0.13456500  0.81449600  0.43512800  1
  S  S20  1  0.13456500  0.68550400  0.93512800  1
  S  S21  1  0.63456500  0.81449600  0.06487200  1
  S  S22  1  0.86543500  0.18550400  0.56487200  1
  S  S23  1  0.36543500  0.31449600  0.43512800  1
