# generated using pymatgen
data_K3Cu2(BiS2)5
_symmetry_space_group_name_H-M   'P 1'
_cell_length_a   4.05785100
_cell_length_b   14.40469200
_cell_length_c   17.88724600
_cell_angle_alpha   90.00000000
_cell_angle_beta   90.00000000
_cell_angle_gamma   90.00000000
_symmetry_Int_Tables_number   1
_chemical_formula_structural   K3Cu2(BiS2)5
_chemical_formula_sum   'K6 Cu4 Bi10 S20'
_cell_volume   1045.54698168
_cell_formula_units_Z   2
loop_
 _symmetry_equiv_pos_site_id
 _symmetry_equiv_pos_as_xyz
  1  'x, y, z'
loop_
 _atom_site_type_symbol
 _atom_site_label
 _atom_site_symmetry_multiplicity
 _atom_site_fract_x
 _atom_site_fract_y
 _atom_site_fract_z
 _atom_site_occupancy
  K  K0  1  0.50000000  0.97513500  0.24662300  1
  K  K1  1  0.50000000  0.02486500  0.75337700  1
  K  K2  1  0.00000000  0.47513500  0.25337700  1
  K  K3  1  0.00000000  0.52486500  0.74662300  1
  K  K4  1  0.50000000  0.50000000  0.00000000  1
  K  K5  1  0.00000000  0.00000000  0.50000000  1
  Cu  Cu6  1  0.00000000  0.21836000  0.24805900  1
  Cu  Cu7  1  0.50000000  0.71836000  0.25194100  1
  Cu  Cu8  1  0.50000000  0.28164000  0.74805900  1
  Cu  Cu9  1  0.00000000  0.78164000  0.75194100  1
  Bi  Bi10  1  0.00000000  0.71952800  0.40322500  1
  Bi  Bi11  1  0.50000000  0.23147500  0.39644200  1
  Bi  Bi12  1  0.00000000  0.28047200  0.59677500  1
  Bi  Bi13  1  0.00000000  0.26852500  0.89644200  1
  Bi  Bi14  1  0.50000000  0.76852500  0.60355800  1
  Bi  Bi15  1  0.50000000  0.50000000  0.50000000  1
  Bi  Bi16  1  0.00000000  0.73147500  0.10355800  1
  Bi  Bi17  1  0.50000000  0.21952800  0.09677500  1
  Bi  Bi18  1  0.50000000  0.78047200  0.90322500  1
  Bi  Bi19  1  0.00000000  0.00000000  0.00000000  1
  S  S20  1  0.00000000  0.79963800  0.26591600  1
  S  S21  1  0.50000000  0.12339300  0.94669300  1
  S  S22  1  0.50000000  0.29963800  0.23408400  1
  S  S23  1  0.50000000  0.87660700  0.05330700  1
  S  S24  1  0.00000000  0.66255200  0.96320200  1
  S  S25  1  0.50000000  0.40571500  0.63967600  1
  S  S26  1  0.00000000  0.20036200  0.73408400  1
  S  S27  1  0.00000000  0.33744800  0.03679800  1
  S  S28  1  0.00000000  0.90571500  0.86032400  1
  S  S29  1  0.50000000  0.16255200  0.53679800  1
  S  S30  1  0.00000000  0.11805200  0.35132700  1
  S  S31  1  0.00000000  0.88194800  0.64867300  1
  S  S32  1  0.00000000  0.37660700  0.44669300  1
  S  S33  1  0.50000000  0.83744800  0.46320200  1
  S  S34  1  0.00000000  0.09428500  0.13967600  1
  S  S35  1  0.50000000  0.61805200  0.14867300  1
  S  S36  1  0.00000000  0.62339300  0.55330700  1
  S  S37  1  0.50000000  0.70036200  0.76591600  1
  S  S38  1  0.50000000  0.38194800  0.85132700  1
  S  S39  1  0.50000000  0.59428500  0.36032400  1
