# generated using pymatgen
data_Na2Zn2O3
_symmetry_space_group_name_H-M   'P 1'
_cell_length_a   6.26362700
_cell_length_b   6.26362700
_cell_length_c   9.54417300
_cell_angle_alpha   90.00000000
_cell_angle_beta   90.00000000
_cell_angle_gamma   90.00000000
_symmetry_Int_Tables_number   1
_chemical_formula_structural   Na2Zn2O3
_chemical_formula_sum   'Na8 Zn8 O12'
_cell_volume   374.44676069
_cell_formula_units_Z   4
loop_
 _symmetry_equiv_pos_site_id
 _symmetry_equiv_pos_as_xyz
  1  'x, y, z'
loop_
 _atom_site_type_symbol
 _atom_site_label
 _atom_site_symmetry_multiplicity
 _atom_site_fract_x
 _atom_site_fract_y
 _atom_site_fract_z
 _atom_site_occupancy
  Na  Na0  1  0.74632200  0.53381500  0.64471100  1
  Na  Na1  1  0.96618500  0.24632200  0.39471100  1
  Na  Na2  1  0.46618500  0.25367800  0.85528900  1
  Na  Na3  1  0.25367800  0.46618500  0.14471100  1
  Na  Na4  1  0.03381500  0.75367800  0.89471100  1
  Na  Na5  1  0.75367800  0.03381500  0.10528900  1
  Na  Na6  1  0.53381500  0.74632200  0.35528900  1
  Na  Na7  1  0.24632200  0.96618500  0.60528900  1
  Zn  Zn8  1  0.25684800  0.45571000  0.61484800  1
  Zn  Zn9  1  0.04429000  0.75684800  0.36484800  1
  Zn  Zn10  1  0.45571000  0.25684800  0.38515200  1
  Zn  Zn11  1  0.75684800  0.04429000  0.63515200  1
  Zn  Zn12  1  0.24315200  0.95571000  0.13515200  1
  Zn  Zn13  1  0.54429000  0.74315200  0.88515200  1
  Zn  Zn14  1  0.95571000  0.24315200  0.86484800  1
  Zn  Zn15  1  0.74315200  0.54429000  0.11484800  1
  O  O16  1  0.32308800  0.67691200  0.75000000  1
  O  O17  1  0.24172300  0.51437400  0.40826600  1
  O  O18  1  0.48562600  0.75827700  0.09173400  1
  O  O19  1  0.75827700  0.48562600  0.90826600  1
  O  O20  1  0.67691200  0.32308800  0.25000000  1
  O  O21  1  0.98562600  0.74172300  0.15826600  1
  O  O22  1  0.82308800  0.82308800  0.50000000  1
  O  O23  1  0.51437400  0.24172300  0.59173400  1
  O  O24  1  0.01437400  0.25827700  0.65826600  1
  O  O25  1  0.25827700  0.01437400  0.34173400  1
  O  O26  1  0.74172300  0.98562600  0.84173400  1
  O  O27  1  0.17691200  0.17691200  0.00000000  1
