# generated using pymatgen
data_Rb2V3O8
_symmetry_space_group_name_H-M   'P 1'
_cell_length_a   9.05429500
_cell_length_b   9.05429500
_cell_length_c   5.79995400
_cell_angle_alpha   90.00000000
_cell_angle_beta   90.00000000
_cell_angle_gamma   90.00000000
_symmetry_Int_Tables_number   1
_chemical_formula_structural   Rb2V3O8
_chemical_formula_sum   'Rb4 V6 O16'
_cell_volume   475.48172500
_cell_formula_units_Z   2
loop_
 _symmetry_equiv_pos_site_id
 _symmetry_equiv_pos_as_xyz
  1  'x, y, z'
loop_
 _atom_site_type_symbol
 _atom_site_label
 _atom_site_symmetry_multiplicity
 _atom_site_fract_x
 _atom_site_fract_y
 _atom_site_fract_z
 _atom_site_occupancy
  Rb  Rb0  1  0.17013300  0.67013300  0.99918900  1
  Rb  Rb1  1  0.67013300  0.82986700  0.99918900  1
  Rb  Rb2  1  0.32986700  0.17013300  0.99918900  1
  Rb  Rb3  1  0.82986700  0.32986700  0.99918900  1
  V  V4  1  0.36617200  0.86617200  0.52622300  1
  V  V5  1  0.86617200  0.63382800  0.52622300  1
  V  V6  1  0.13382800  0.36617200  0.52622300  1
  V  V7  1  0.63382800  0.13382800  0.52622300  1
  V  V8  1  0.50000000  0.50000000  0.53248300  1
  V  V9  1  0.00000000  0.00000000  0.53248300  1
  O  O10  1  0.50000000  0.50000000  0.24914300  1
  O  O11  1  0.00000000  0.00000000  0.24914300  1
  O  O12  1  0.80729800  0.08523700  0.63337900  1
  O  O13  1  0.19270200  0.91476300  0.63337900  1
  O  O14  1  0.91476300  0.80729800  0.63337900  1
  O  O15  1  0.08523700  0.19270200  0.63337900  1
  O  O16  1  0.41476300  0.69270200  0.63337900  1
  O  O17  1  0.69270200  0.58523700  0.63337900  1
  O  O18  1  0.30729800  0.41476300  0.63337900  1
  O  O19  1  0.58523700  0.30729800  0.63337900  1
  O  O20  1  0.50000000  0.00000000  0.63871900  1
  O  O21  1  0.00000000  0.50000000  0.63871900  1
  O  O22  1  0.63086800  0.13086800  0.23880600  1
  O  O23  1  0.13086800  0.36913200  0.23880600  1
  O  O24  1  0.86913200  0.63086800  0.23880600  1
  O  O25  1  0.36913200  0.86913200  0.23880600  1
