# generated using pymatgen
data_Gd4Ti(SeO)4
_symmetry_space_group_name_H-M   'P 1'
_cell_length_a   8.20491479
_cell_length_b   8.20491479
_cell_length_c   9.77818429
_cell_angle_alpha   62.88853742
_cell_angle_beta   62.88853742
_cell_angle_gamma   26.61606649
_symmetry_Int_Tables_number   1
_chemical_formula_structural   Gd4Ti(SeO)4
_chemical_formula_sum   'Gd4 Ti1 Se4 O4'
_cell_volume   260.57637198
_cell_formula_units_Z   1
loop_
 _symmetry_equiv_pos_site_id
 _symmetry_equiv_pos_as_xyz
  1  'x, y, z'
loop_
 _atom_site_type_symbol
 _atom_site_label
 _atom_site_symmetry_multiplicity
 _atom_site_fract_x
 _atom_site_fract_y
 _atom_site_fract_z
 _atom_site_occupancy
  Gd  Gd0  1  0.52479200  0.52479200  0.66944000  1
  Gd  Gd1  1  0.47520800  0.47520800  0.33056000  1
  Gd  Gd2  1  0.22358100  0.22358100  0.67406800  1
  Gd  Gd3  1  0.77641900  0.77641900  0.32593200  1
  Ti  Ti4  1  0.00000000  0.00000000  0.00000000  1
  Se  Se5  1  0.88448400  0.88448400  0.63176900  1
  Se  Se6  1  0.37853900  0.37853900  0.01610500  1
  Se  Se7  1  0.11551600  0.11551600  0.36823100  1
  Se  Se8  1  0.62146100  0.62146100  0.98389500  1
  O  O9  1  0.31708500  0.31708500  0.40994800  1
  O  O10  1  0.94841700  0.94841700  0.22057400  1
  O  O11  1  0.05158300  0.05158300  0.77942600  1
  O  O12  1  0.68291500  0.68291500  0.59005200  1
