# generated using pymatgen
data_Ti4CoBi2
_symmetry_space_group_name_H-M   'P 1'
_cell_length_a   7.87819404
_cell_length_b   7.87819404
_cell_length_c   7.87819404
_cell_angle_alpha   95.48151132
_cell_angle_beta   95.48151132
_cell_angle_gamma   143.99355881
_symmetry_Int_Tables_number   1
_chemical_formula_structural   Ti4CoBi2
_chemical_formula_sum   'Ti8 Co2 Bi4'
_cell_volume   273.37845849
_cell_formula_units_Z   2
loop_
 _symmetry_equiv_pos_site_id
 _symmetry_equiv_pos_as_xyz
  1  'x, y, z'
loop_
 _atom_site_type_symbol
 _atom_site_label
 _atom_site_symmetry_multiplicity
 _atom_site_fract_x
 _atom_site_fract_y
 _atom_site_fract_z
 _atom_site_occupancy
  Ti  Ti0  1  0.69284500  0.58039200  0.27323700  1
  Ti  Ti1  1  0.58039200  0.30715500  0.88754800  1
  Ti  Ti2  1  0.08039200  0.19284500  0.27323700  1
  Ti  Ti3  1  0.91960800  0.80715500  0.72676300  1
  Ti  Ti4  1  0.19284500  0.91960800  0.11245200  1
  Ti  Ti5  1  0.80715500  0.08039200  0.88754800  1
  Ti  Ti6  1  0.30715500  0.41960800  0.72676300  1
  Ti  Ti7  1  0.41960800  0.69284500  0.11245200  1
  Co  Co8  1  0.25000000  0.25000000  0.00000000  1
  Co  Co9  1  0.75000000  0.75000000  0.00000000  1
  Bi  Bi10  1  0.13916500  0.63916500  0.77833100  1
  Bi  Bi11  1  0.36083500  0.13916500  0.50000000  1
  Bi  Bi12  1  0.63916500  0.86083500  0.50000000  1
  Bi  Bi13  1  0.86083500  0.36083500  0.22166900  1
