# generated using pymatgen
data_Sr3Li4(GeN3)2
_symmetry_space_group_name_H-M   'P 1'
_cell_length_a   5.93188610
_cell_length_b   5.93188610
_cell_length_c   6.36369640
_cell_angle_alpha   89.32241500
_cell_angle_beta   89.32241500
_cell_angle_gamma   117.00545955
_symmetry_Int_Tables_number   1
_chemical_formula_structural   Sr3Li4(GeN3)2
_chemical_formula_sum   'Sr3 Li4 Ge2 N6'
_cell_volume   199.45437781
_cell_formula_units_Z   1
loop_
 _symmetry_equiv_pos_site_id
 _symmetry_equiv_pos_as_xyz
  1  'x, y, z'
loop_
 _atom_site_type_symbol
 _atom_site_label
 _atom_site_symmetry_multiplicity
 _atom_site_fract_x
 _atom_site_fract_y
 _atom_site_fract_z
 _atom_site_occupancy
  Sr  Sr0  1  0.81051400  0.18948600  0.50000000  1
  Sr  Sr1  1  0.18948600  0.81051400  0.50000000  1
  Sr  Sr2  1  0.00000000  0.00000000  0.00000000  1
  Li  Li3  1  0.45799000  0.81653700  0.11825800  1
  Li  Li4  1  0.54201000  0.18346300  0.88174200  1
  Li  Li5  1  0.18346300  0.54201000  0.88174200  1
  Li  Li6  1  0.81653700  0.45799000  0.11825800  1
  Ge  Ge7  1  0.38770900  0.38770900  0.32058700  1
  Ge  Ge8  1  0.61229100  0.61229100  0.67941300  1
  N  N9  1  0.86060300  0.54948400  0.80111600  1
  N  N10  1  0.13939700  0.45051600  0.19888400  1
  N  N11  1  0.69948200  0.69948200  0.36827200  1
  N  N12  1  0.30051800  0.30051800  0.63172800  1
  N  N13  1  0.54948400  0.86060300  0.80111600  1
  N  N14  1  0.45051600  0.13939700  0.19888400  1
