# generated using pymatgen
data_HoB7Mo3
_symmetry_space_group_name_H-M   'P 1'
_cell_length_a   3.10583400
_cell_length_b   11.03486600
_cell_length_c   12.88637200
_cell_angle_alpha   90.00000000
_cell_angle_beta   90.00000000
_cell_angle_gamma   90.00000000
_symmetry_Int_Tables_number   1
_chemical_formula_structural   HoB7Mo3
_chemical_formula_sum   'Ho4 B28 Mo12'
_cell_volume   441.64769479
_cell_formula_units_Z   4
loop_
 _symmetry_equiv_pos_site_id
 _symmetry_equiv_pos_as_xyz
  1  'x, y, z'
loop_
 _atom_site_type_symbol
 _atom_site_label
 _atom_site_symmetry_multiplicity
 _atom_site_fract_x
 _atom_site_fract_y
 _atom_site_fract_z
 _atom_site_occupancy
  Ho  Ho0  1  0.75000000  0.44900300  0.80815500  1
  Ho  Ho1  1  0.25000000  0.55099700  0.19184500  1
  Ho  Ho2  1  0.75000000  0.94900300  0.69184500  1
  Ho  Ho3  1  0.25000000  0.05099700  0.30815500  1
  B  B4  1  0.75000000  0.01011400  0.13791000  1
  B  B5  1  0.25000000  0.98988600  0.86209000  1
  B  B6  1  0.75000000  0.51011400  0.36209000  1
  B  B7  1  0.25000000  0.48988600  0.63791000  1
  B  B8  1  0.75000000  0.16555000  0.16756900  1
  B  B9  1  0.25000000  0.83445000  0.83243100  1
  B  B10  1  0.75000000  0.66555000  0.33243100  1
  B  B11  1  0.25000000  0.33445000  0.66756900  1
  B  B12  1  0.75000000  0.18571700  0.43341500  1
  B  B13  1  0.25000000  0.81428300  0.56658500  1
  B  B14  1  0.75000000  0.68571700  0.06658500  1
  B  B15  1  0.25000000  0.31428300  0.93341500  1
  B  B16  1  0.75000000  0.06828000  0.88401100  1
  B  B17  1  0.25000000  0.93172000  0.11598900  1
  B  B18  1  0.75000000  0.56828000  0.61598900  1
  B  B19  1  0.25000000  0.43172000  0.38401100  1
  B  B20  1  0.75000000  0.03730600  0.48185600  1
  B  B21  1  0.25000000  0.96269400  0.51814400  1
  B  B22  1  0.75000000  0.53730600  0.01814400  1
  B  B23  1  0.25000000  0.46269400  0.98185600  1
  B  B24  1  0.75000000  0.25002000  0.67398000  1
  B  B25  1  0.25000000  0.74998000  0.32602000  1
  B  B26  1  0.75000000  0.75002000  0.82602000  1
  B  B27  1  0.25000000  0.24998000  0.17398000  1
  B  B28  1  0.75000000  0.23089000  0.91854500  1
  B  B29  1  0.25000000  0.76911000  0.08145500  1
  B  B30  1  0.75000000  0.73089000  0.58145500  1
  B  B31  1  0.25000000  0.26911000  0.41854500  1
  Mo  Mo32  1  0.75000000  0.31485600  0.29806900  1
  Mo  Mo33  1  0.25000000  0.68514400  0.70193100  1
  Mo  Mo34  1  0.75000000  0.81485600  0.20193100  1
  Mo  Mo35  1  0.25000000  0.18514400  0.79806900  1
  Mo  Mo36  1  0.75000000  0.34008000  0.06461800  1
  Mo  Mo37  1  0.25000000  0.65992000  0.93538200  1
  Mo  Mo38  1  0.75000000  0.84008000  0.43538200  1
  Mo  Mo39  1  0.25000000  0.15992000  0.56461800  1
  Mo  Mo40  1  0.75000000  0.38254000  0.52734900  1
  Mo  Mo41  1  0.25000000  0.61746000  0.47265100  1
  Mo  Mo42  1  0.75000000  0.88254000  0.97265100  1
  Mo  Mo43  1  0.25000000  0.11746000  0.02734900  1
