# generated using pymatgen
data_Nd3SiS6Cl
_symmetry_space_group_name_H-M   'P 1'
_cell_length_a   10.47931400
_cell_length_b   12.65027300
_cell_length_c   16.39011600
_cell_angle_alpha   90.00000000
_cell_angle_beta   90.00000000
_cell_angle_gamma   90.00000000
_symmetry_Int_Tables_number   1
_chemical_formula_structural   Nd3SiS6Cl
_chemical_formula_sum   'Nd24 Si8 S48 Cl8'
_cell_volume   2172.77511627
_cell_formula_units_Z   8
loop_
 _symmetry_equiv_pos_site_id
 _symmetry_equiv_pos_as_xyz
  1  'x, y, z'
loop_
 _atom_site_type_symbol
 _atom_site_label
 _atom_site_symmetry_multiplicity
 _atom_site_fract_x
 _atom_site_fract_y
 _atom_site_fract_z
 _atom_site_occupancy
  Nd  Nd0  1  0.25000000  0.37706600  0.63871600  1
  Nd  Nd1  1  0.96399200  0.61812000  0.88822700  1
  Nd  Nd2  1  0.25000000  0.11497800  0.12478600  1
  Nd  Nd3  1  0.46399200  0.38188000  0.11177300  1
  Nd  Nd4  1  0.25000000  0.87706600  0.86128400  1
  Nd  Nd5  1  0.53600800  0.61812000  0.88822700  1
  Nd  Nd6  1  0.25000000  0.61497800  0.37521400  1
  Nd  Nd7  1  0.54392400  0.31239100  0.40553500  1
  Nd  Nd8  1  0.04392400  0.68760900  0.59446500  1
  Nd  Nd9  1  0.95607600  0.31239100  0.40553500  1
  Nd  Nd10  1  0.45607600  0.18760900  0.90553500  1
  Nd  Nd11  1  0.95607600  0.81239100  0.09446500  1
  Nd  Nd12  1  0.45607600  0.68760900  0.59446500  1
  Nd  Nd13  1  0.03600800  0.38188000  0.11177300  1
  Nd  Nd14  1  0.96399200  0.11812000  0.61177300  1
  Nd  Nd15  1  0.53600800  0.11812000  0.61177300  1
  Nd  Nd16  1  0.75000000  0.12293400  0.13871600  1
  Nd  Nd17  1  0.04392400  0.18760900  0.90553500  1
  Nd  Nd18  1  0.46399200  0.88188000  0.38822700  1
  Nd  Nd19  1  0.03600800  0.88188000  0.38822700  1
  Nd  Nd20  1  0.75000000  0.88502200  0.87521400  1
  Nd  Nd21  1  0.54392400  0.81239100  0.09446500  1
  Nd  Nd22  1  0.75000000  0.38502200  0.62478600  1
  Nd  Nd23  1  0.75000000  0.62293400  0.36128400  1
  Si  Si24  1  0.25000000  0.33568800  0.27762500  1
  Si  Si25  1  0.25000000  0.83568800  0.22237500  1
  Si  Si26  1  0.75000000  0.16431200  0.77762500  1
  Si  Si27  1  0.25000000  0.61663300  0.75934400  1
  Si  Si28  1  0.75000000  0.88336700  0.25934400  1
  Si  Si29  1  0.75000000  0.66431200  0.72237500  1
  Si  Si30  1  0.25000000  0.11663300  0.74065600  1
  Si  Si31  1  0.75000000  0.38336700  0.24065600  1
  S  S32  1  0.75000000  0.02258500  0.70778700  1
  S  S33  1  0.00969800  0.34162900  0.56967100  1
  S  S34  1  0.75000000  0.61851700  0.59772100  1
  S  S35  1  0.25000000  0.06250800  0.95380100  1
  S  S36  1  0.58295400  0.97083600  0.22965500  1
  S  S37  1  0.50969800  0.65837100  0.43032900  1
  S  S38  1  0.25000000  0.97741500  0.29221300  1
  S  S39  1  0.40915200  0.73962100  0.25347700  1
  S  S40  1  0.99030200  0.15837100  0.06967100  1
  S  S41  1  0.49030200  0.34162900  0.56967100  1
  S  S42  1  0.75000000  0.68786800  0.97242500  1
  S  S43  1  0.25000000  0.56250800  0.54619900  1
  S  S44  1  0.25000000  0.47741500  0.20778700  1
  S  S45  1  0.09084800  0.23962100  0.24652300  1
  S  S46  1  0.41704600  0.52916400  0.72965500  1
  S  S47  1  0.25000000  0.76868200  0.69892700  1
  S  S48  1  0.75000000  0.23131800  0.30107300  1
  S  S49  1  0.75000000  0.35539000  0.11275100  1
  S  S50  1  0.75000000  0.85539000  0.38724900  1
  S  S51  1  0.08295400  0.52916400  0.72965500  1
  S  S52  1  0.25000000  0.64461000  0.88724900  1
  S  S53  1  0.75000000  0.18786800  0.52757500  1
  S  S54  1  0.91704600  0.47083600  0.27034500  1
  S  S55  1  0.09084800  0.73962100  0.25347700  1
  S  S56  1  0.99030200  0.65837100  0.43032900  1
  S  S57  1  0.75000000  0.43749200  0.45380100  1
  S  S58  1  0.75000000  0.11851700  0.90227900  1
  S  S59  1  0.25000000  0.14461000  0.61275100  1
  S  S60  1  0.50969800  0.15837100  0.06967100  1
  S  S61  1  0.25000000  0.88148300  0.09772100  1
  S  S62  1  0.25000000  0.38148300  0.40227900  1
  S  S63  1  0.91704600  0.97083600  0.22965500  1
  S  S64  1  0.25000000  0.81213200  0.47242500  1
  S  S65  1  0.00969800  0.84162900  0.93032900  1
  S  S66  1  0.41704600  0.02916400  0.77034500  1
  S  S67  1  0.59084800  0.26037900  0.74652300  1
  S  S68  1  0.40915200  0.23962100  0.24652300  1
  S  S69  1  0.59084800  0.76037900  0.75347700  1
  S  S70  1  0.75000000  0.93749200  0.04619900  1
  S  S71  1  0.08295400  0.02916400  0.77034500  1
  S  S72  1  0.25000000  0.26868200  0.80107300  1
  S  S73  1  0.90915200  0.26037900  0.74652300  1
  S  S74  1  0.49030200  0.84162900  0.93032900  1
  S  S75  1  0.58295400  0.47083600  0.27034500  1
  S  S76  1  0.90915200  0.76037900  0.75347700  1
  S  S77  1  0.75000000  0.52258500  0.79221300  1
  S  S78  1  0.25000000  0.31213200  0.02757500  1
  S  S79  1  0.75000000  0.73131800  0.19892700  1
  Cl  Cl80  1  0.95676400  0.89669100  0.55987500  1
  Cl  Cl81  1  0.54323600  0.39669100  0.94012500  1
  Cl  Cl82  1  0.54323600  0.89669100  0.55987500  1
  Cl  Cl83  1  0.04323600  0.10330900  0.44012500  1
  Cl  Cl84  1  0.95676400  0.39669100  0.94012500  1
  Cl  Cl85  1  0.45676400  0.10330900  0.44012500  1
  Cl  Cl86  1  0.04323600  0.60330900  0.05987500  1
  Cl  Cl87  1  0.45676400  0.60330900  0.05987500  1
