# generated using pymatgen
data_Nd12Co6Sn
_symmetry_space_group_name_H-M   'P 1'
_cell_length_a   8.67936549
_cell_length_b   8.67936549
_cell_length_c   8.67936549
_cell_angle_alpha   109.47122063
_cell_angle_beta   109.47122063
_cell_angle_gamma   109.47122063
_symmetry_Int_Tables_number   1
_chemical_formula_structural   Nd12Co6Sn
_chemical_formula_sum   'Nd12 Co6 Sn1'
_cell_volume   503.31751032
_cell_formula_units_Z   1
loop_
 _symmetry_equiv_pos_site_id
 _symmetry_equiv_pos_as_xyz
  1  'x, y, z'
loop_
 _atom_site_type_symbol
 _atom_site_label
 _atom_site_symmetry_multiplicity
 _atom_site_fract_x
 _atom_site_fract_y
 _atom_site_fract_z
 _atom_site_occupancy
  Nd  Nd0  1  0.30568700  0.49852100  0.19283400  1
  Nd  Nd1  1  0.80716600  0.69431300  0.50147900  1
  Nd  Nd2  1  0.11285200  0.80716600  0.30568700  1
  Nd  Nd3  1  0.80716600  0.30568700  0.11285200  1
  Nd  Nd4  1  0.88714800  0.19283400  0.69431300  1
  Nd  Nd5  1  0.19283400  0.30568700  0.49852100  1
  Nd  Nd6  1  0.49852100  0.19283400  0.30568700  1
  Nd  Nd7  1  0.50147900  0.80716600  0.69431300  1
  Nd  Nd8  1  0.19283400  0.69431300  0.88714800  1
  Nd  Nd9  1  0.30568700  0.11285200  0.80716600  1
  Nd  Nd10  1  0.69431300  0.88714800  0.19283400  1
  Nd  Nd11  1  0.69431300  0.50147900  0.80716600  1
  Co  Co12  1  0.61069200  0.50000000  0.11069200  1
  Co  Co13  1  0.11069200  0.61069200  0.50000000  1
  Co  Co14  1  0.50000000  0.88930800  0.38930800  1
  Co  Co15  1  0.88930800  0.38930800  0.50000000  1
  Co  Co16  1  0.50000000  0.11069200  0.61069200  1
  Co  Co17  1  0.38930800  0.50000000  0.88930800  1
  Sn  Sn18  1  0.00000000  0.00000000  0.00000000  1
