# generated using pymatgen
data_K2Ga3
_symmetry_space_group_name_H-M   'P 1'
_cell_length_a   8.67596059
_cell_length_b   8.67596059
_cell_length_c   8.67596059
_cell_angle_alpha   138.02584953
_cell_angle_beta   138.02584953
_cell_angle_gamma   60.86341113
_symmetry_Int_Tables_number   1
_chemical_formula_structural   K2Ga3
_chemical_formula_sum   'K4 Ga6'
_cell_volume   288.92513464
_cell_formula_units_Z   2
loop_
 _symmetry_equiv_pos_site_id
 _symmetry_equiv_pos_as_xyz
  1  'x, y, z'
loop_
 _atom_site_type_symbol
 _atom_site_label
 _atom_site_symmetry_multiplicity
 _atom_site_fract_x
 _atom_site_fract_y
 _atom_site_fract_z
 _atom_site_occupancy
  K  K0  1  0.39035400  0.39035400  0.00000000  1
  K  K1  1  0.75000000  0.25000000  0.50000000  1
  K  K2  1  0.60964600  0.60964600  0.00000000  1
  K  K3  1  0.25000000  0.75000000  0.50000000  1
  Ga  Ga4  1  0.29430900  0.00000000  0.29430900  1
  Ga  Ga5  1  0.13923500  0.13923500  0.00000000  1
  Ga  Ga6  1  0.00000000  0.29430900  0.29430900  1
  Ga  Ga7  1  0.70569100  0.00000000  0.70569100  1
  Ga  Ga8  1  0.86076500  0.86076500  0.00000000  1
  Ga  Ga9  1  0.00000000  0.70569100  0.70569100  1
