# generated using pymatgen
data_KDy2Cl7
_symmetry_space_group_name_H-M   'P 1'
_cell_length_a   12.63329900
_cell_length_b   6.96294500
_cell_length_c   13.43414286
_cell_angle_alpha   89.26716566
_cell_angle_beta   90.00000000
_cell_angle_gamma   90.00000000
_symmetry_Int_Tables_number   1
_chemical_formula_structural   KDy2Cl7
_chemical_formula_sum   'K4 Dy8 Cl28'
_cell_volume   1181.63726015
_cell_formula_units_Z   4
loop_
 _symmetry_equiv_pos_site_id
 _symmetry_equiv_pos_as_xyz
  1  'x, y, z'
loop_
 _atom_site_type_symbol
 _atom_site_label
 _atom_site_symmetry_multiplicity
 _atom_site_fract_x
 _atom_site_fract_y
 _atom_site_fract_z
 _atom_site_occupancy
  K  K0  1  0.20063700  0.74140100  0.96330100  1
  K  K1  1  0.70063700  0.25859900  0.53669900  1
  K  K2  1  0.79936300  0.25859900  0.03669900  1
  K  K3  1  0.29936300  0.74140100  0.46330100  1
  Dy  Dy4  1  0.84075200  0.77308900  0.75254600  1
  Dy  Dy5  1  0.34075200  0.22691100  0.74745400  1
  Dy  Dy6  1  0.15924800  0.22691100  0.24745400  1
  Dy  Dy7  1  0.65924800  0.77308900  0.25254600  1
  Dy  Dy8  1  0.53811300  0.72489200  0.76242400  1
  Dy  Dy9  1  0.03811300  0.27510800  0.73757600  1
  Dy  Dy10  1  0.46188700  0.27510800  0.23757600  1
  Dy  Dy11  1  0.96188700  0.72489200  0.26242400  1
  Cl  Cl12  1  0.68633400  0.75378400  0.61041600  1
  Cl  Cl13  1  0.18633400  0.24621600  0.88958400  1
  Cl  Cl14  1  0.31366600  0.24621600  0.38958400  1
  Cl  Cl15  1  0.81366600  0.75378400  0.11041600  1
  Cl  Cl16  1  0.70339800  0.50341900  0.82528600  1
  Cl  Cl17  1  0.20339800  0.49658100  0.67471400  1
  Cl  Cl18  1  0.29660200  0.49658100  0.17471400  1
  Cl  Cl19  1  0.79660200  0.50341900  0.32528600  1
  Cl  Cl20  1  0.67934000  0.98540100  0.82587700  1
  Cl  Cl21  1  0.17934000  0.01459900  0.67412300  1
  Cl  Cl22  1  0.32066000  0.01459900  0.17412300  1
  Cl  Cl23  1  0.82066000  0.98540100  0.32587700  1
  Cl  Cl24  1  0.92557700  0.52219100  0.62292200  1
  Cl  Cl25  1  0.42557700  0.47780900  0.87707800  1
  Cl  Cl26  1  0.07442300  0.47780900  0.37707800  1
  Cl  Cl27  1  0.57442300  0.52219100  0.12292200  1
  Cl  Cl28  1  0.91220800  0.04329400  0.62396000  1
  Cl  Cl29  1  0.41220800  0.95670600  0.87604000  1
  Cl  Cl30  1  0.08779200  0.95670600  0.37604000  1
  Cl  Cl31  1  0.58779200  0.04329400  0.12396000  1
  Cl  Cl32  1  0.97456200  0.55349600  0.86531000  1
  Cl  Cl33  1  0.47456200  0.44650400  0.63469000  1
  Cl  Cl34  1  0.02543800  0.44650400  0.13469000  1
  Cl  Cl35  1  0.52543800  0.55349600  0.36531000  1
  Cl  Cl36  1  0.94293100  0.03473300  0.86959800  1
  Cl  Cl37  1  0.44293100  0.96526700  0.63040200  1
  Cl  Cl38  1  0.05706900  0.96526700  0.13040200  1
  Cl  Cl39  1  0.55706900  0.03473300  0.36959800  1
