# generated using pymatgen
data_Sr4Ti5(Si2O11)2
_symmetry_space_group_name_H-M   'P 1'
_cell_length_a   7.61799130
_cell_length_b   7.61799130
_cell_length_c   12.00765735
_cell_angle_alpha   67.41171573
_cell_angle_beta   67.41171573
_cell_angle_gamma   43.79985924
_symmetry_Int_Tables_number   1
_chemical_formula_structural   Sr4Ti5(Si2O11)2
_chemical_formula_sum   'Sr4 Ti5 Si4 O22'
_cell_volume   439.04774206
_cell_formula_units_Z   1
loop_
 _symmetry_equiv_pos_site_id
 _symmetry_equiv_pos_as_xyz
  1  'x, y, z'
loop_
 _atom_site_type_symbol
 _atom_site_label
 _atom_site_symmetry_multiplicity
 _atom_site_fract_x
 _atom_site_fract_y
 _atom_site_fract_z
 _atom_site_occupancy
  Sr  Sr0  1  0.95376500  0.95376500  0.73963800  1
  Sr  Sr1  1  0.76508000  0.76508000  0.26726500  1
  Sr  Sr2  1  0.04623500  0.04623500  0.26036200  1
  Sr  Sr3  1  0.23492000  0.23492000  0.73273500  1
  Ti  Ti4  1  0.24235600  0.75764400  0.00000000  1
  Ti  Ti5  1  0.50000000  0.50000000  0.50000000  1
  Ti  Ti6  1  0.72548000  0.72548000  0.00075600  1
  Ti  Ti7  1  0.75764400  0.24235600  0.00000000  1
  Ti  Ti8  1  0.27452000  0.27452000  0.99924400  1
  Si  Si9  1  0.59430400  0.59430400  0.72938500  1
  Si  Si10  1  0.15751100  0.15751100  0.45347200  1
  Si  Si11  1  0.84248900  0.84248900  0.54652800  1
  Si  Si12  1  0.40569600  0.40569600  0.27061500  1
  O  O13  1  0.67170100  0.20218400  0.18219900  1
  O  O14  1  0.86638900  0.34525700  0.41822700  1
  O  O15  1  0.65474300  0.13361100  0.58177300  1
  O  O16  1  0.45823800  0.95787100  0.11793300  1
  O  O17  1  0.90800200  0.90800200  0.00002000  1
  O  O18  1  0.40484300  0.40484300  0.00097600  1
  O  O19  1  0.14666600  0.14666600  0.59056200  1
  O  O20  1  0.85333400  0.85333400  0.40943800  1
  O  O21  1  0.79781600  0.32829900  0.81780100  1
  O  O22  1  0.46925500  0.46925500  0.35719800  1
  O  O23  1  0.32829900  0.79781600  0.81780100  1
  O  O24  1  0.27866500  0.27866500  0.34478200  1
  O  O25  1  0.54176200  0.04212900  0.88206700  1
  O  O26  1  0.59515700  0.59515700  0.99902400  1
  O  O27  1  0.04212900  0.54176200  0.88206700  1
  O  O28  1  0.53074500  0.53074500  0.64280200  1
  O  O29  1  0.09199800  0.09199800  0.99998000  1
  O  O30  1  0.95787100  0.45823800  0.11793300  1
  O  O31  1  0.13361100  0.65474300  0.58177300  1
  O  O32  1  0.72133500  0.72133500  0.65521800  1
  O  O33  1  0.34525700  0.86638900  0.41822700  1
  O  O34  1  0.20218400  0.67170100  0.18219900  1
