# generated using pymatgen
data_CoGeO3
_symmetry_space_group_name_H-M   'P 1'
_cell_length_a   5.19232247
_cell_length_b   6.69275904
_cell_length_c   6.68997542
_cell_angle_alpha   85.64142762
_cell_angle_beta   81.64779130
_cell_angle_gamma   81.38299526
_symmetry_Int_Tables_number   1
_chemical_formula_structural   CoGeO3
_chemical_formula_sum   'Co4 Ge4 O12'
_cell_volume   227.07110290
_cell_formula_units_Z   4
loop_
 _symmetry_equiv_pos_site_id
 _symmetry_equiv_pos_as_xyz
  1  'x, y, z'
loop_
 _atom_site_type_symbol
 _atom_site_label
 _atom_site_symmetry_multiplicity
 _atom_site_fract_x
 _atom_site_fract_y
 _atom_site_fract_z
 _atom_site_occupancy
  Co  Co0  1  0.24927200  0.09852700  0.89980700  1
  Co  Co1  1  0.75100300  0.26231000  0.73722500  1
  Co  Co2  1  0.75124400  0.90949300  0.09506500  1
  Co  Co3  1  0.25034400  0.73294900  0.26741800  1
  Ge  Ge4  1  0.71567300  0.79236800  0.60452400  1
  Ge  Ge5  1  0.21507400  0.60661200  0.79469500  1
  Ge  Ge6  1  0.78285700  0.39566700  0.20723700  1
  Ge  Ge7  1  0.28555200  0.20568900  0.39331500  1
  O  O8  1  0.40793800  0.70826600  0.57048700  1
  O  O9  1  0.09098000  0.42930200  0.29131600  1
  O  O10  1  0.88717100  0.86166700  0.36979300  1
  O  O11  1  0.63571300  0.97280100  0.79344200  1
  O  O12  1  0.13302900  0.79628500  0.97411900  1
  O  O13  1  0.59096400  0.29109000  0.43009800  1
  O  O14  1  0.90958500  0.56959400  0.70868400  1
  O  O15  1  0.61113400  0.62997200  0.13825300  1
  O  O16  1  0.38604800  0.37194000  0.86441000  1
  O  O17  1  0.36770700  0.02537500  0.20444200  1
  O  O18  1  0.86361400  0.20468400  0.02799400  1
  O  O19  1  0.11509600  0.13541100  0.62767700  1
