# generated using pymatgen
data_Rb2Ca2(SO4)3
_symmetry_space_group_name_H-M   'P 1'
_cell_length_a   10.75163600
_cell_length_b   10.75163600
_cell_length_c   10.75163600
_cell_angle_alpha   90.00000000
_cell_angle_beta   90.00000000
_cell_angle_gamma   90.00000000
_symmetry_Int_Tables_number   1
_chemical_formula_structural   Rb2Ca2(SO4)3
_chemical_formula_sum   'Rb8 Ca8 S12 O48'
_cell_volume   1242.86414207
_cell_formula_units_Z   4
loop_
 _symmetry_equiv_pos_site_id
 _symmetry_equiv_pos_as_xyz
  1  'x, y, z'
loop_
 _atom_site_type_symbol
 _atom_site_label
 _atom_site_symmetry_multiplicity
 _atom_site_fract_x
 _atom_site_fract_y
 _atom_site_fract_z
 _atom_site_occupancy
  Rb  Rb0  1  0.55024400  0.44975600  0.94975600  1
  Rb  Rb1  1  0.68406300  0.18406300  0.31593700  1
  Rb  Rb2  1  0.44975600  0.94975600  0.55024400  1
  Rb  Rb3  1  0.81593700  0.81593700  0.81593700  1
  Rb  Rb4  1  0.05024400  0.05024400  0.05024400  1
  Rb  Rb5  1  0.94975600  0.55024400  0.44975600  1
  Rb  Rb6  1  0.31593700  0.68406300  0.18406300  1
  Rb  Rb7  1  0.18406300  0.31593700  0.68406300  1
  Ca  Ca8  1  0.16857700  0.66857700  0.83142300  1
  Ca  Ca9  1  0.83142300  0.16857700  0.66857700  1
  Ca  Ca10  1  0.40780900  0.09219100  0.90780900  1
  Ca  Ca11  1  0.66857700  0.83142300  0.16857700  1
  Ca  Ca12  1  0.09219100  0.90780900  0.40780900  1
  Ca  Ca13  1  0.59219100  0.59219100  0.59219100  1
  Ca  Ca14  1  0.90780900  0.40780900  0.09219100  1
  Ca  Ca15  1  0.33142300  0.33142300  0.33142300  1
  S  S16  1  0.62498000  0.51090200  0.27595600  1
  S  S17  1  0.27595600  0.62498000  0.51090200  1
  S  S18  1  0.51090200  0.27595600  0.62498000  1
  S  S19  1  0.22404400  0.37502000  0.01090200  1
  S  S20  1  0.37502000  0.01090200  0.22404400  1
  S  S21  1  0.87502000  0.48909800  0.77595600  1
  S  S22  1  0.72404400  0.12498000  0.98909800  1
  S  S23  1  0.01090200  0.22404400  0.37502000  1
  S  S24  1  0.77595600  0.87502000  0.48909800  1
  S  S25  1  0.12498000  0.98909800  0.72404400  1
  S  S26  1  0.48909800  0.77595600  0.87502000  1
  S  S27  1  0.98909800  0.72404400  0.12498000  1
  O  O28  1  0.40629900  0.14116700  0.25808500  1
  O  O29  1  0.03937900  0.80999500  0.22116500  1
  O  O30  1  0.90625400  0.82760200  0.49484800  1
  O  O31  1  0.90629900  0.35883300  0.74191500  1
  O  O32  1  0.30999500  0.27883500  0.96062100  1
  O  O33  1  0.17239800  0.99484800  0.59374600  1
  O  O34  1  0.19000500  0.72116500  0.46062100  1
  O  O35  1  0.01136000  0.06736300  0.73687300  1
  O  O36  1  0.73687300  0.01136000  0.06736300  1
  O  O37  1  0.85883300  0.75808500  0.09370100  1
  O  O38  1  0.75808500  0.09370100  0.85883300  1
  O  O39  1  0.82760200  0.49484800  0.90625400  1
  O  O40  1  0.24191500  0.59370100  0.64116700  1
  O  O41  1  0.49484800  0.90625400  0.82760200  1
  O  O42  1  0.74191500  0.90629900  0.35883300  1
  O  O43  1  0.14116700  0.25808500  0.40629900  1
  O  O44  1  0.69000500  0.77883500  0.53937900  1
  O  O45  1  0.56736300  0.76312700  0.98864000  1
  O  O46  1  0.59374600  0.17239800  0.99484800  1
  O  O47  1  0.09374600  0.32760200  0.00515200  1
  O  O48  1  0.50515200  0.40625400  0.67239800  1
  O  O49  1  0.32760200  0.00515200  0.09374600  1
  O  O50  1  0.67239800  0.50515200  0.40625400  1
  O  O51  1  0.80999500  0.22116500  0.03937900  1
  O  O52  1  0.46062100  0.19000500  0.72116500  1
  O  O53  1  0.00515200  0.09374600  0.32760200  1
  O  O54  1  0.77883500  0.53937900  0.69000500  1
  O  O55  1  0.53937900  0.69000500  0.77883500  1
  O  O56  1  0.64116700  0.24191500  0.59370100  1
  O  O57  1  0.43263700  0.26312700  0.51136000  1
  O  O58  1  0.96062100  0.30999500  0.27883500  1
  O  O59  1  0.72116500  0.46062100  0.19000500  1
  O  O60  1  0.99484800  0.59374600  0.17239800  1
  O  O61  1  0.40625400  0.67239800  0.50515200  1
  O  O62  1  0.93263700  0.23687300  0.48864000  1
  O  O63  1  0.22116500  0.03937900  0.80999500  1
  O  O64  1  0.59370100  0.64116700  0.24191500  1
  O  O65  1  0.06736300  0.73687300  0.01136000  1
  O  O66  1  0.27883500  0.96062100  0.30999500  1
  O  O67  1  0.25808500  0.40629900  0.14116700  1
  O  O68  1  0.76312700  0.98864000  0.56736300  1
  O  O69  1  0.98864000  0.56736300  0.76312700  1
  O  O70  1  0.23687300  0.48864000  0.93263700  1
  O  O71  1  0.09370100  0.85883300  0.75808500  1
  O  O72  1  0.26312700  0.51136000  0.43263700  1
  O  O73  1  0.35883300  0.74191500  0.90629900  1
  O  O74  1  0.51136000  0.43263700  0.26312700  1
  O  O75  1  0.48864000  0.93263700  0.23687300  1
