# generated using pymatgen
data_KCrF4
_symmetry_space_group_name_H-M   'P 1'
_cell_length_a   7.58426400
_cell_length_b   16.07602800
_cell_length_c   18.71052500
_cell_angle_alpha   90.00000000
_cell_angle_beta   90.00000000
_cell_angle_gamma   90.00000000
_symmetry_Int_Tables_number   1
_chemical_formula_structural   KCrF4
_chemical_formula_sum   'K24 Cr24 F96'
_cell_volume   2281.27777486
_cell_formula_units_Z   24
loop_
 _symmetry_equiv_pos_site_id
 _symmetry_equiv_pos_as_xyz
  1  'x, y, z'
loop_
 _atom_site_type_symbol
 _atom_site_label
 _atom_site_symmetry_multiplicity
 _atom_site_fract_x
 _atom_site_fract_y
 _atom_site_fract_z
 _atom_site_occupancy
  K  K0  1  0.75000000  0.54319900  0.96843700  1
  K  K1  1  0.25000000  0.45680100  0.03156300  1
  K  K2  1  0.75000000  0.04319900  0.53156300  1
  K  K3  1  0.25000000  0.95680100  0.46843700  1
  K  K4  1  0.25000000  0.03932000  0.02319500  1
  K  K5  1  0.75000000  0.96068000  0.97680500  1
  K  K6  1  0.25000000  0.53932000  0.47680500  1
  K  K7  1  0.75000000  0.46068000  0.52319500  1
  K  K8  1  0.25000000  0.06980300  0.67986900  1
  K  K9  1  0.75000000  0.93019700  0.32013100  1
  K  K10  1  0.25000000  0.56980300  0.82013100  1
  K  K11  1  0.75000000  0.43019700  0.17986900  1
  K  K12  1  0.25000000  0.39910400  0.66567100  1
  K  K13  1  0.75000000  0.60089600  0.33432900  1
  K  K14  1  0.25000000  0.89910400  0.83432900  1
  K  K15  1  0.75000000  0.10089600  0.16567100  1
  K  K16  1  0.25000000  0.28187800  0.21022200  1
  K  K17  1  0.75000000  0.71812200  0.78977800  1
  K  K18  1  0.25000000  0.78187800  0.28977800  1
  K  K19  1  0.75000000  0.21812200  0.71022200  1
  K  K20  1  0.75000000  0.45942200  0.71470200  1
  K  K21  1  0.25000000  0.54057800  0.28529800  1
  K  K22  1  0.75000000  0.95942200  0.78529800  1
  K  K23  1  0.25000000  0.04057800  0.21470200  1
  Cr  Cr24  1  0.49928800  0.13180700  0.86898000  1
  Cr  Cr25  1  0.99928800  0.86819300  0.13102000  1
  Cr  Cr26  1  0.00071200  0.63180700  0.63102000  1
  Cr  Cr27  1  0.50071200  0.36819300  0.36898000  1
  Cr  Cr28  1  0.50071200  0.86819300  0.13102000  1
  Cr  Cr29  1  0.00071200  0.13180700  0.86898000  1
  Cr  Cr30  1  0.99928800  0.36819300  0.36898000  1
  Cr  Cr31  1  0.49928800  0.63180700  0.63102000  1
  Cr  Cr32  1  0.49797300  0.36405700  0.87379000  1
  Cr  Cr33  1  0.99797300  0.63594300  0.12621000  1
  Cr  Cr34  1  0.00202700  0.86405700  0.62621000  1
  Cr  Cr35  1  0.50202700  0.13594300  0.37379000  1
  Cr  Cr36  1  0.50202700  0.63594300  0.12621000  1
  Cr  Cr37  1  0.00202700  0.36405700  0.87379000  1
  Cr  Cr38  1  0.99797300  0.13594300  0.37379000  1
  Cr  Cr39  1  0.49797300  0.86405700  0.62621000  1
  Cr  Cr40  1  0.49904600  0.24722500  0.04697300  1
  Cr  Cr41  1  0.99904600  0.75277500  0.95302700  1
  Cr  Cr42  1  0.00095400  0.74722500  0.45302700  1
  Cr  Cr43  1  0.50095400  0.25277500  0.54697300  1
  Cr  Cr44  1  0.50095400  0.75277500  0.95302700  1
  Cr  Cr45  1  0.00095400  0.24722500  0.04697300  1
  Cr  Cr46  1  0.99904600  0.25277500  0.54697300  1
  Cr  Cr47  1  0.49904600  0.74722500  0.45302700  1
  F  F48  1  0.54104700  0.09689700  0.77354000  1
  F  F49  1  0.04104700  0.90310300  0.22646000  1
  F  F50  1  0.95895300  0.59689700  0.72646000  1
  F  F51  1  0.45895300  0.40310300  0.27354000  1
  F  F52  1  0.45895300  0.90310300  0.22646000  1
  F  F53  1  0.95895300  0.09689700  0.77354000  1
  F  F54  1  0.04104700  0.40310300  0.27354000  1
  F  F55  1  0.54104700  0.59689700  0.72646000  1
  F  F56  1  0.45842000  0.16364500  0.96996300  1
  F  F57  1  0.95842000  0.83635500  0.03003700  1
  F  F58  1  0.04158000  0.66364500  0.53003700  1
  F  F59  1  0.54158000  0.33635500  0.46996300  1
  F  F60  1  0.54158000  0.83635500  0.03003700  1
  F  F61  1  0.04158000  0.16364500  0.96996300  1
  F  F62  1  0.95842000  0.33635500  0.46996300  1
  F  F63  1  0.45842000  0.66364500  0.53003700  1
  F  F64  1  0.46149600  0.01935500  0.89911400  1
  F  F65  1  0.96149600  0.98064500  0.10088600  1
  F  F66  1  0.03850400  0.51935500  0.60088600  1
  F  F67  1  0.53850400  0.48064500  0.39911400  1
  F  F68  1  0.53850400  0.98064500  0.10088600  1
  F  F69  1  0.03850400  0.01935500  0.89911400  1
  F  F70  1  0.96149600  0.48064500  0.39911400  1
  F  F71  1  0.46149600  0.51935500  0.60088600  1
  F  F72  1  0.54881300  0.24836900  0.84005000  1
  F  F73  1  0.04881300  0.75163100  0.15995000  1
  F  F74  1  0.95118700  0.74836900  0.65995000  1
  F  F75  1  0.45118700  0.25163100  0.34005000  1
  F  F76  1  0.45118700  0.75163100  0.15995000  1
  F  F77  1  0.95118700  0.24836900  0.84005000  1
  F  F78  1  0.04881300  0.25163100  0.34005000  1
  F  F79  1  0.54881300  0.74836900  0.65995000  1
  F  F80  1  0.46030800  0.39900100  0.77801900  1
  F  F81  1  0.96030800  0.60099900  0.22198100  1
  F  F82  1  0.03969200  0.89900100  0.72198100  1
  F  F83  1  0.53969200  0.10099900  0.27801900  1
  F  F84  1  0.53969200  0.60099900  0.22198100  1
  F  F85  1  0.03969200  0.39900100  0.77801900  1
  F  F86  1  0.96030800  0.10099900  0.27801900  1
  F  F87  1  0.46030800  0.89900100  0.72198100  1
  F  F88  1  0.75000000  0.11390300  0.89360700  1
  F  F89  1  0.25000000  0.88609700  0.10639300  1
  F  F90  1  0.75000000  0.61390300  0.60639300  1
  F  F91  1  0.25000000  0.38609700  0.39360700  1
  F  F92  1  0.75000000  0.39379000  0.85966500  1
  F  F93  1  0.25000000  0.60621000  0.14033500  1
  F  F94  1  0.75000000  0.89379000  0.64033500  1
  F  F95  1  0.25000000  0.10621000  0.35966500  1
  F  F96  1  0.25000000  0.14771900  0.84519300  1
  F  F97  1  0.75000000  0.85228100  0.15480700  1
  F  F98  1  0.25000000  0.64771900  0.65480700  1
  F  F99  1  0.75000000  0.35228100  0.34519300  1
  F  F100  1  0.25000000  0.33351100  0.88880800  1
  F  F101  1  0.75000000  0.66648900  0.11119200  1
  F  F102  1  0.25000000  0.83351100  0.61119200  1
  F  F103  1  0.75000000  0.16648900  0.38880800  1
  F  F104  1  0.45744100  0.47323800  0.90935300  1
  F  F105  1  0.95744100  0.52676200  0.09064700  1
  F  F106  1  0.04255900  0.97323800  0.59064700  1
  F  F107  1  0.54255900  0.02676200  0.40935300  1
  F  F108  1  0.54255900  0.52676200  0.09064700  1
  F  F109  1  0.04255900  0.47323800  0.90935300  1
  F  F110  1  0.95744100  0.02676200  0.40935300  1
  F  F111  1  0.45744100  0.97323800  0.59064700  1
  F  F112  1  0.25000000  0.28120800  0.03915500  1
  F  F113  1  0.75000000  0.71879200  0.96084500  1
  F  F114  1  0.25000000  0.78120800  0.46084500  1
  F  F115  1  0.75000000  0.21879200  0.53915500  1
  F  F116  1  0.44211500  0.16373400  0.11577800  1
  F  F117  1  0.94211500  0.83626600  0.88422200  1
  F  F118  1  0.05788500  0.66373400  0.38422200  1
  F  F119  1  0.55788500  0.33626600  0.61577800  1
  F  F120  1  0.55788500  0.83626600  0.88422200  1
  F  F121  1  0.05788500  0.16373400  0.11577800  1
  F  F122  1  0.94211500  0.33626600  0.61577800  1
  F  F123  1  0.44211500  0.66373400  0.38422200  1
  F  F124  1  0.55203200  0.33197700  0.97371900  1
  F  F125  1  0.05203200  0.66802300  0.02628100  1
  F  F126  1  0.94796800  0.83197700  0.52628100  1
  F  F127  1  0.44796800  0.16802300  0.47371900  1
  F  F128  1  0.44796800  0.66802300  0.02628100  1
  F  F129  1  0.94796800  0.33197700  0.97371900  1
  F  F130  1  0.05203200  0.16802300  0.47371900  1
  F  F131  1  0.55203200  0.83197700  0.52628100  1
  F  F132  1  0.51963100  0.32788200  0.11980600  1
  F  F133  1  0.01963100  0.67211800  0.88019400  1
  F  F134  1  0.98036900  0.82788200  0.38019400  1
  F  F135  1  0.48036900  0.17211800  0.61980600  1
  F  F136  1  0.48036900  0.67211800  0.88019400  1
  F  F137  1  0.98036900  0.32788200  0.11980600  1
  F  F138  1  0.01963100  0.17211800  0.61980600  1
  F  F139  1  0.51963100  0.82788200  0.38019400  1
  F  F140  1  0.75000000  0.21327600  0.05246800  1
  F  F141  1  0.25000000  0.78672400  0.94753200  1
  F  F142  1  0.75000000  0.71327600  0.44753200  1
  F  F143  1  0.25000000  0.28672400  0.55246800  1
