# generated using pymatgen
data_Na3B5Se9
_symmetry_space_group_name_H-M   'P 1'
_cell_length_a   15.39229661
_cell_length_b   15.39229661
_cell_length_c   17.75488920
_cell_angle_alpha   64.44357597
_cell_angle_beta   64.44357597
_cell_angle_gamma   90.05628507
_symmetry_Int_Tables_number   1
_chemical_formula_structural   Na3B5Se9
_chemical_formula_sum   'Na24 B40 Se72'
_cell_volume   3331.99742146
_cell_formula_units_Z   8
loop_
 _symmetry_equiv_pos_site_id
 _symmetry_equiv_pos_as_xyz
  1  'x, y, z'
loop_
 _atom_site_type_symbol
 _atom_site_label
 _atom_site_symmetry_multiplicity
 _atom_site_fract_x
 _atom_site_fract_y
 _atom_site_fract_z
 _atom_site_occupancy
  Na  Na0  1  0.66572000  0.33428000  0.25000000  1
  Na  Na1  1  0.41453600  0.16417500  0.75211700  1
  Na  Na2  1  0.16417500  0.41453600  0.25211700  1
  Na  Na3  1  0.91490700  0.08509300  0.75000000  1
  Na  Na4  1  0.00000000  0.50000000  0.50000000  1
  Na  Na5  1  0.00000000  0.00000000  0.50000000  1
  Na  Na6  1  0.82675200  0.25023300  0.50073800  1
  Na  Na7  1  0.00000000  0.50000000  0.00000000  1
  Na  Na8  1  0.00000000  0.00000000  0.00000000  1
  Na  Na9  1  0.67258200  0.75085400  0.49917300  1
  Na  Na10  1  0.08509300  0.91490700  0.25000000  1
  Na  Na11  1  0.74976700  0.17324800  0.99926200  1
  Na  Na12  1  0.75085400  0.67258200  0.99917300  1
  Na  Na13  1  0.83582500  0.58546400  0.74788300  1
  Na  Na14  1  0.50000000  0.50000000  0.50000000  1
  Na  Na15  1  0.50000000  0.00000000  0.50000000  1
  Na  Na16  1  0.58546400  0.83582500  0.24788300  1
  Na  Na17  1  0.33428000  0.66572000  0.75000000  1
  Na  Na18  1  0.32741800  0.24914600  0.50082700  1
  Na  Na19  1  0.50000000  0.50000000  0.00000000  1
  Na  Na20  1  0.50000000  0.00000000  0.00000000  1
  Na  Na21  1  0.17324800  0.74976700  0.49926200  1
  Na  Na22  1  0.24914600  0.32741800  0.00082700  1
  Na  Na23  1  0.25023300  0.82675200  0.00073800  1
  B  B24  1  0.89770200  0.47328700  0.24931800  1
  B  B25  1  0.79131600  0.54023300  0.41914900  1
  B  B26  1  0.66641200  0.37453000  0.41591700  1
  B  B27  1  0.64610300  0.02714400  0.75091800  1
  B  B28  1  0.70930200  0.95990600  0.58119600  1
  B  B29  1  0.39713800  0.27629600  0.24964500  1
  B  B30  1  0.58175600  0.12599500  0.58378500  1
  B  B31  1  0.16586900  0.20886900  0.41585900  1
  B  B32  1  0.62547000  0.33358800  0.08408300  1
  B  B33  1  0.52671300  0.10229800  0.25068200  1
  B  B34  1  0.20886900  0.16586900  0.91585900  1
  B  B35  1  0.27629600  0.39713800  0.74964500  1
  B  B36  1  0.12599500  0.58175600  0.08378500  1
  B  B37  1  0.02714400  0.64610300  0.25091800  1
  B  B38  1  0.70891500  0.91872100  0.91693200  1
  B  B39  1  0.77651500  0.85417900  0.75001900  1
  B  B40  1  0.91872100  0.70891500  0.41693200  1
  B  B41  1  0.45976700  0.20868400  0.08085100  1
  B  B42  1  0.14582100  0.22348500  0.74998100  1
  B  B43  1  0.04009400  0.29069800  0.91880400  1
  B  B44  1  0.95990600  0.70930200  0.08119600  1
  B  B45  1  0.85417900  0.77651500  0.25001900  1
  B  B46  1  0.54023300  0.79131600  0.91914900  1
  B  B47  1  0.08127900  0.29108500  0.58306800  1
  B  B48  1  0.22348500  0.14582100  0.24998100  1
  B  B49  1  0.29108500  0.08127900  0.08306800  1
  B  B50  1  0.97285600  0.35389700  0.74908200  1
  B  B51  1  0.87400500  0.41824400  0.91621500  1
  B  B52  1  0.72370400  0.60286200  0.25035500  1
  B  B53  1  0.79113100  0.83413100  0.08414100  1
  B  B54  1  0.47328700  0.89770200  0.74931800  1
  B  B55  1  0.37453000  0.66641200  0.91591700  1
  B  B56  1  0.83413100  0.79113100  0.58414100  1
  B  B57  1  0.41824400  0.87400500  0.41621500  1
  B  B58  1  0.60286200  0.72370400  0.75035500  1
  B  B59  1  0.29069800  0.04009400  0.41880400  1
  B  B60  1  0.35389700  0.97285600  0.24908200  1
  B  B61  1  0.33358800  0.62547000  0.58408300  1
  B  B62  1  0.20868400  0.45976700  0.58085100  1
  B  B63  1  0.10229800  0.52671300  0.75068200  1
  Se  Se64  1  0.92211000  0.51234100  0.33838000  1
  Se  Se65  1  0.79383000  0.34166100  0.33335000  1
  Se  Se66  1  0.68193400  0.41389800  0.50764500  1
  Se  Se67  1  0.61345000  0.47577100  0.33113100  1
  Se  Se68  1  0.75924600  0.98797900  0.66218700  1
  Se  Se69  1  0.42157800  0.14850400  0.33843900  1
  Se  Se70  1  0.62626400  0.15877700  0.66679200  1
  Se  Se71  1  0.68863000  0.08634100  0.49247900  1
  Se  Se72  1  0.29330500  0.32392500  0.33388100  1
  Se  Se73  1  0.18131600  0.07806900  0.50741600  1
  Se  Se74  1  0.54716400  0.25045800  0.49941200  1
  Se  Se75  1  0.74954200  0.45283600  0.00058800  1
  Se  Se76  1  0.65833900  0.20617000  0.16665000  1
  Se  Se77  1  0.44400100  0.02501800  0.66831400  1
  Se  Se78  1  0.32392500  0.29330500  0.83388100  1
  Se  Se79  1  0.11317900  0.19219400  0.33078900  1
  Se  Se80  1  0.15877700  0.62626400  0.16679200  1
  Se  Se81  1  0.05647000  0.69252900  0.33211300  1
  Se  Se82  1  0.82408400  0.87384800  0.83441200  1
  Se  Se83  1  0.74995800  0.95337900  0.00102600  1
  Se  Se84  1  0.95337900  0.74995800  0.50102600  1
  Se  Se85  1  0.52422900  0.38655000  0.16886900  1
  Se  Se86  1  0.58610200  0.31806600  0.99235500  1
  Se  Se87  1  0.48765900  0.07789000  0.16162000  1
  Se  Se88  1  0.19219400  0.11317900  0.83078900  1
  Se  Se89  1  0.25892700  0.35117000  0.66153400  1
  Se  Se90  1  0.02501800  0.44400100  0.16831400  1
  Se  Se91  1  0.08634100  0.68863000  0.99247900  1
  Se  Se92  1  0.07806900  0.18131600  0.00741600  1
  Se  Se93  1  0.14850400  0.42157800  0.83843900  1
  Se  Se94  1  0.98797900  0.75924600  0.16218700  1
  Se  Se95  1  0.69252900  0.05647000  0.83211300  1
  Se  Se96  1  0.81204100  0.57804100  0.50809800  1
  Se  Se97  1  0.87384800  0.82408400  0.33441200  1
  Se  Se98  1  0.57804100  0.81204100  0.00809800  1
  Se  Se99  1  0.64883000  0.74107300  0.83846600  1
  Se  Se100  1  0.35117000  0.25892700  0.16153400  1
  Se  Se101  1  0.42195900  0.18795900  0.99190200  1
  Se  Se102  1  0.12615200  0.17591600  0.66558800  1
  Se  Se103  1  0.18795900  0.42195900  0.49190200  1
  Se  Se104  1  0.30747100  0.94353000  0.16788700  1
  Se  Se105  1  0.01202100  0.24075400  0.83781300  1
  Se  Se106  1  0.85149600  0.57842200  0.16156100  1
  Se  Se107  1  0.92193100  0.81868400  0.99258400  1
  Se  Se108  1  0.91365900  0.31137000  0.00752100  1
  Se  Se109  1  0.97498200  0.55599900  0.83168600  1
  Se  Se110  1  0.74107300  0.64883000  0.33846600  1
  Se  Se111  1  0.80780600  0.88682100  0.16921100  1
  Se  Se112  1  0.51234100  0.92211000  0.83838000  1
  Se  Se113  1  0.41389800  0.68193400  0.00764500  1
  Se  Se114  1  0.47577100  0.61345000  0.83113100  1
  Se  Se115  1  0.04662100  0.25004200  0.49897400  1
  Se  Se116  1  0.25004200  0.04662100  0.99897400  1
  Se  Se117  1  0.17591600  0.12615200  0.16558800  1
  Se  Se118  1  0.94353000  0.30747100  0.66788700  1
  Se  Se119  1  0.84122300  0.37373600  0.83320800  1
  Se  Se120  1  0.88682100  0.80780600  0.66921100  1
  Se  Se121  1  0.67607500  0.70669500  0.16611900  1
  Se  Se122  1  0.55599900  0.97498200  0.33168600  1
  Se  Se123  1  0.34166100  0.79383000  0.83335000  1
  Se  Se124  1  0.25045800  0.54716400  0.99941200  1
  Se  Se125  1  0.45283600  0.74954200  0.50058800  1
  Se  Se126  1  0.81868400  0.92193100  0.49258400  1
  Se  Se127  1  0.70669500  0.67607500  0.66611900  1
  Se  Se128  1  0.31137000  0.91365900  0.50752100  1
  Se  Se129  1  0.37373600  0.84122300  0.33320800  1
  Se  Se130  1  0.57842200  0.85149600  0.66156100  1
  Se  Se131  1  0.24075400  0.01202100  0.33781300  1
  Se  Se132  1  0.38655000  0.52422900  0.66886900  1
  Se  Se133  1  0.31806600  0.58610200  0.49235500  1
  Se  Se134  1  0.20617000  0.65833900  0.66665000  1
  Se  Se135  1  0.07789000  0.48765900  0.66162000  1
