# generated using pymatgen
data_YCuPbS3
_symmetry_space_group_name_H-M   'P 1'
_cell_length_a   3.92605000
_cell_length_b   10.28004500
_cell_length_c   13.03333000
_cell_angle_alpha   90.00000000
_cell_angle_beta   90.00000000
_cell_angle_gamma   90.00000000
_symmetry_Int_Tables_number   1
_chemical_formula_structural   YCuPbS3
_chemical_formula_sum   'Y4 Cu4 Pb4 S12'
_cell_volume   526.02481656
_cell_formula_units_Z   4
loop_
 _symmetry_equiv_pos_site_id
 _symmetry_equiv_pos_as_xyz
  1  'x, y, z'
loop_
 _atom_site_type_symbol
 _atom_site_label
 _atom_site_symmetry_multiplicity
 _atom_site_fract_x
 _atom_site_fract_y
 _atom_site_fract_z
 _atom_site_occupancy
  Y  Y0  1  0.75000000  0.00632900  0.25029800  1
  Y  Y1  1  0.25000000  0.99367100  0.74970200  1
  Y  Y2  1  0.75000000  0.50632900  0.24970200  1
  Y  Y3  1  0.25000000  0.49367100  0.75029800  1
  Cu  Cu4  1  0.75000000  0.74367300  0.71729400  1
  Cu  Cu5  1  0.25000000  0.25632700  0.28270600  1
  Cu  Cu6  1  0.75000000  0.24367300  0.78270600  1
  Cu  Cu7  1  0.25000000  0.75632700  0.21729400  1
  Pb  Pb8  1  0.75000000  0.75521900  0.00209000  1
  Pb  Pb9  1  0.25000000  0.24478100  0.99791000  1
  Pb  Pb10  1  0.75000000  0.25521900  0.49791000  1
  Pb  Pb11  1  0.25000000  0.74478100  0.50209000  1
  S  S12  1  0.75000000  0.25616800  0.17532700  1
  S  S13  1  0.25000000  0.74383200  0.82467300  1
  S  S14  1  0.75000000  0.75616800  0.32467300  1
  S  S15  1  0.25000000  0.24383200  0.67532700  1
  S  S16  1  0.75000000  0.06129000  0.88811900  1
  S  S17  1  0.25000000  0.93871000  0.11188100  1
  S  S18  1  0.75000000  0.56129000  0.61188100  1
  S  S19  1  0.25000000  0.43871000  0.38811900  1
  S  S20  1  0.75000000  0.42549500  0.88820700  1
  S  S21  1  0.25000000  0.57450500  0.11179300  1
  S  S22  1  0.75000000  0.92549500  0.61179300  1
  S  S23  1  0.25000000  0.07450500  0.38820700  1
