# generated using pymatgen
data_SrCdBi2
_symmetry_space_group_name_H-M   'P 1'
_cell_length_a   12.13930407
_cell_length_b   12.13930407
_cell_length_c   12.13930407
_cell_angle_alpha   157.68650271
_cell_angle_beta   157.68650271
_cell_angle_gamma   31.76215125
_symmetry_Int_Tables_number   1
_chemical_formula_structural   SrCdBi2
_chemical_formula_sum   'Sr2 Cd2 Bi4'
_cell_volume   257.67634252
_cell_formula_units_Z   2
loop_
 _symmetry_equiv_pos_site_id
 _symmetry_equiv_pos_as_xyz
  1  'x, y, z'
loop_
 _atom_site_type_symbol
 _atom_site_label
 _atom_site_symmetry_multiplicity
 _atom_site_fract_x
 _atom_site_fract_y
 _atom_site_fract_z
 _atom_site_occupancy
  Sr  Sr0  1  0.11476500  0.11476500  0.00000000  1
  Sr  Sr1  1  0.88523500  0.88523500  0.00000000  1
  Cd  Cd2  1  0.75000000  0.25000000  0.50000000  1
  Cd  Cd3  1  0.25000000  0.75000000  0.50000000  1
  Bi  Bi4  1  0.66315500  0.66315500  0.00000000  1
  Bi  Bi5  1  0.00000000  0.50000000  0.50000000  1
  Bi  Bi6  1  0.33684500  0.33684500  0.00000000  1
  Bi  Bi7  1  0.50000000  0.00000000  0.50000000  1
