# generated using pymatgen
data_K6Ti2O7
_symmetry_space_group_name_H-M   'P 1'
_cell_length_a   9.38530800
_cell_length_b   6.64230600
_cell_length_c   11.48769973
_cell_angle_alpha   56.60180690
_cell_angle_beta   90.00000000
_cell_angle_gamma   90.00000000
_symmetry_Int_Tables_number   1
_chemical_formula_structural   K6Ti2O7
_chemical_formula_sum   'K12 Ti4 O14'
_cell_volume   597.88389407
_cell_formula_units_Z   2
loop_
 _symmetry_equiv_pos_site_id
 _symmetry_equiv_pos_as_xyz
  1  'x, y, z'
loop_
 _atom_site_type_symbol
 _atom_site_label
 _atom_site_symmetry_multiplicity
 _atom_site_fract_x
 _atom_site_fract_y
 _atom_site_fract_z
 _atom_site_occupancy
  K  K0  1  0.02769000  0.79307400  0.45668700  1
  K  K1  1  0.52769000  0.20692600  0.04331300  1
  K  K2  1  0.84361700  0.94170700  0.93358300  1
  K  K3  1  0.34361700  0.05829300  0.56641700  1
  K  K4  1  0.15638300  0.05829300  0.06641700  1
  K  K5  1  0.65638300  0.94170700  0.43358300  1
  K  K6  1  0.79520700  0.59190100  0.77877600  1
  K  K7  1  0.29520700  0.40809900  0.72122400  1
  K  K8  1  0.20479300  0.40809900  0.22122400  1
  K  K9  1  0.70479300  0.59190100  0.27877600  1
  K  K10  1  0.97231000  0.20692600  0.54331300  1
  K  K11  1  0.47231000  0.79307400  0.95668700  1
  Ti  Ti12  1  0.14446200  0.69125100  0.86756000  1
  Ti  Ti13  1  0.64446200  0.30874900  0.63244000  1
  Ti  Ti14  1  0.85553800  0.30874900  0.13244000  1
  Ti  Ti15  1  0.35553800  0.69125100  0.36756000  1
  O  O16  1  0.00000000  0.50000000  0.00000000  1
  O  O17  1  0.50000000  0.50000000  0.50000000  1
  O  O18  1  0.82542200  0.03770500  0.13243900  1
  O  O19  1  0.32542200  0.96229500  0.36756100  1
  O  O20  1  0.69886400  0.50064300  0.07251200  1
  O  O21  1  0.19886400  0.49935700  0.42748800  1
  O  O22  1  0.30113600  0.49935700  0.92748800  1
  O  O23  1  0.80113600  0.50064300  0.57251200  1
  O  O24  1  0.90317900  0.23518600  0.30490000  1
  O  O25  1  0.40317900  0.76481400  0.19510000  1
  O  O26  1  0.09682100  0.76481400  0.69510000  1
  O  O27  1  0.59682100  0.23518600  0.80490000  1
  O  O28  1  0.67457800  0.03770500  0.63243900  1
  O  O29  1  0.17457800  0.96229500  0.86756100  1
