# generated using pymatgen
data_Gd4Si2Se3O7
_symmetry_space_group_name_H-M   'P 1'
_cell_length_a   11.07798790
_cell_length_b   11.07798790
_cell_length_c   11.07798790
_cell_angle_alpha   114.31201439
_cell_angle_beta   114.31201439
_cell_angle_gamma   100.17114575
_symmetry_Int_Tables_number   1
_chemical_formula_structural   Gd4Si2Se3O7
_chemical_formula_sum   'Gd16 Si8 Se12 O28'
_cell_volume   1026.36252346
_cell_formula_units_Z   4
loop_
 _symmetry_equiv_pos_site_id
 _symmetry_equiv_pos_as_xyz
  1  'x, y, z'
loop_
 _atom_site_type_symbol
 _atom_site_label
 _atom_site_symmetry_multiplicity
 _atom_site_fract_x
 _atom_site_fract_y
 _atom_site_fract_z
 _atom_site_occupancy
  Gd  Gd0  1  0.67247100  0.32752900  0.00000000  1
  Gd  Gd1  1  0.19732900  0.95827100  0.23905800  1
  Gd  Gd2  1  0.42247100  0.92247100  0.84494200  1
  Gd  Gd3  1  0.04172900  0.80267100  0.76094200  1
  Gd  Gd4  1  0.07752900  0.57752900  0.15505800  1
  Gd  Gd5  1  0.04172900  0.28078700  0.23905800  1
  Gd  Gd6  1  0.03078700  0.29172900  0.73905800  1
  Gd  Gd7  1  0.32752900  0.67247100  0.00000000  1
  Gd  Gd8  1  0.32752900  0.32752900  0.65505800  1
  Gd  Gd9  1  0.70827100  0.44732900  0.73905800  1
  Gd  Gd10  1  0.71921300  0.95827100  0.76094200  1
  Gd  Gd11  1  0.07752900  0.92247100  0.50000000  1
  Gd  Gd12  1  0.42247100  0.57752900  0.50000000  1
  Gd  Gd13  1  0.70827100  0.96921300  0.26094200  1
  Gd  Gd14  1  0.55267100  0.29172900  0.26094200  1
  Gd  Gd15  1  0.67247100  0.67247100  0.34494200  1
  Si  Si16  1  0.28202000  0.40648300  0.12446200  1
  Si  Si17  1  0.90755800  0.53202000  0.37553800  1
  Si  Si18  1  0.59351700  0.71798000  0.87553800  1
  Si  Si19  1  0.84244200  0.71798000  0.12446200  1
  Si  Si20  1  0.46798000  0.84351700  0.37553800  1
  Si  Si21  1  0.15648300  0.53202000  0.62446200  1
  Si  Si22  1  0.46798000  0.09244200  0.62446200  1
  Si  Si23  1  0.28202000  0.15755800  0.87553800  1
  Se  Se24  1  0.02001500  0.62500000  0.89501500  1
  Se  Se25  1  0.72998500  0.12500000  0.10498500  1
  Se  Se26  1  0.50000000  0.50000000  0.00000000  1
  Se  Se27  1  0.72998500  0.62500000  0.60498500  1
  Se  Se28  1  0.37500000  0.27001500  0.39501500  1
  Se  Se29  1  0.02001500  0.12500000  0.39501500  1
  Se  Se30  1  0.37500000  0.97998500  0.10498500  1
  Se  Se31  1  0.00000000  0.00000000  0.00000000  1
  Se  Se32  1  0.87500000  0.97998500  0.60498500  1
  Se  Se33  1  0.75000000  0.25000000  0.50000000  1
  Se  Se34  1  0.87500000  0.27001500  0.89501500  1
  Se  Se35  1  0.25000000  0.75000000  0.50000000  1
  O  O36  1  0.23286700  0.23286700  0.00000000  1
  O  O37  1  0.94437600  0.46443700  0.23881600  1
  O  O38  1  0.94437600  0.70556000  0.47994000  1
  O  O39  1  0.22562000  0.70556000  0.76118400  1
  O  O40  1  0.29444000  0.05562400  0.52006000  1
  O  O41  1  0.20561700  0.97627700  0.77066000  1
  O  O42  1  0.80562400  0.54444000  0.02006000  1
  O  O43  1  0.45556000  0.47562000  0.26118400  1
  O  O44  1  0.54438300  0.27372300  0.72934000  1
  O  O45  1  0.54438300  0.81504300  0.27066000  1
  O  O46  1  0.22562000  0.46443700  0.52006000  1
  O  O47  1  0.45556000  0.19437600  0.97994000  1
  O  O48  1  0.02372300  0.79438300  0.22934000  1
  O  O49  1  0.21443700  0.47562000  0.02006000  1
  O  O50  1  0.72627700  0.45561700  0.27066000  1
  O  O51  1  0.51713300  0.01713300  0.50000000  1
  O  O52  1  0.20561700  0.43495700  0.22934000  1
  O  O53  1  0.56504300  0.79438300  0.77066000  1
  O  O54  1  0.53556300  0.05562400  0.76118400  1
  O  O55  1  0.18495700  0.45561700  0.72934000  1
  O  O56  1  0.52438000  0.78556300  0.97994000  1
  O  O57  1  0.52438000  0.54444000  0.73881600  1
  O  O58  1  0.80562400  0.78556300  0.26118400  1
  O  O59  1  0.21443700  0.19437600  0.73881600  1
  O  O60  1  0.76713300  0.76713300  0.00000000  1
  O  O61  1  0.29444000  0.77438000  0.23881600  1
  O  O62  1  0.98286700  0.48286700  0.50000000  1
  O  O63  1  0.53556300  0.77438000  0.47994000  1
