# generated using pymatgen
data_Rb2Mn(PS3)2
_symmetry_space_group_name_H-M   'P 1'
_cell_length_a   12.58576000
_cell_length_b   6.18305100
_cell_length_c   9.23473966
_cell_angle_alpha   56.31837980
_cell_angle_beta   90.00000000
_cell_angle_gamma   90.00000000
_symmetry_Int_Tables_number   1
_chemical_formula_structural   Rb2Mn(PS3)2
_chemical_formula_sum   'Rb4 Mn2 P4 S12'
_cell_volume   597.99725353
_cell_formula_units_Z   2
loop_
 _symmetry_equiv_pos_site_id
 _symmetry_equiv_pos_as_xyz
  1  'x, y, z'
loop_
 _atom_site_type_symbol
 _atom_site_label
 _atom_site_symmetry_multiplicity
 _atom_site_fract_x
 _atom_site_fract_y
 _atom_site_fract_z
 _atom_site_occupancy
  Rb  Rb0  1  0.32623200  0.20363600  0.52541400  1
  Rb  Rb1  1  0.67376800  0.79636400  0.47458600  1
  Rb  Rb2  1  0.82623200  0.79636400  0.97458600  1
  Rb  Rb3  1  0.17376800  0.20363600  0.02541400  1
  Mn  Mn4  1  0.50000000  0.50000000  0.00000000  1
  Mn  Mn5  1  0.00000000  0.50000000  0.50000000  1
  P  P6  1  0.46024700  0.84530700  0.12376800  1
  P  P7  1  0.03975300  0.84530700  0.62376800  1
  P  P8  1  0.96024700  0.15469300  0.37623200  1
  P  P9  1  0.53975300  0.15469300  0.87623200  1
  S  S10  1  0.07512200  0.03392300  0.74028500  1
  S  S11  1  0.66456200  0.27820200  0.95252700  1
  S  S12  1  0.06806200  0.44877600  0.25320200  1
  S  S13  1  0.92487800  0.96607700  0.25971500  1
  S  S14  1  0.42487800  0.03392300  0.24028500  1
  S  S15  1  0.33543800  0.72179800  0.04747300  1
  S  S16  1  0.43193800  0.44877600  0.75320200  1
  S  S17  1  0.56806200  0.55122400  0.24679800  1
  S  S18  1  0.57512200  0.96607700  0.75971500  1
  S  S19  1  0.16456200  0.72179800  0.54747300  1
  S  S20  1  0.93193800  0.55122400  0.74679800  1
  S  S21  1  0.83543800  0.27820200  0.45252700  1
