# generated using pymatgen
data_Na5B2P3O13
_symmetry_space_group_name_H-M   'P 1'
_cell_length_a   11.74681100
_cell_length_b   6.79259900
_cell_length_c   7.77690222
_cell_angle_alpha   64.90468960
_cell_angle_beta   90.00000000
_cell_angle_gamma   90.00000000
_symmetry_Int_Tables_number   1
_chemical_formula_structural   Na5B2P3O13
_chemical_formula_sum   'Na10 B4 P6 O26'
_cell_volume   561.95390957
_cell_formula_units_Z   2
loop_
 _symmetry_equiv_pos_site_id
 _symmetry_equiv_pos_as_xyz
  1  'x, y, z'
loop_
 _atom_site_type_symbol
 _atom_site_label
 _atom_site_symmetry_multiplicity
 _atom_site_fract_x
 _atom_site_fract_y
 _atom_site_fract_z
 _atom_site_occupancy
  Na  Na0  1  0.89870200  0.61968800  0.72183200  1
  Na  Na1  1  0.66922400  0.52497000  0.50774400  1
  Na  Na2  1  0.39184500  0.64784800  0.73271100  1
  Na  Na3  1  0.76393500  0.09892200  0.96467500  1
  Na  Na4  1  0.26393500  0.90107800  0.03532500  1
  Na  Na5  1  0.66802900  0.04822500  0.48803100  1
  Na  Na6  1  0.39870200  0.38031200  0.27816800  1
  Na  Na7  1  0.16802900  0.95177500  0.51196900  1
  Na  Na8  1  0.89184500  0.35215200  0.26728900  1
  Na  Na9  1  0.16922400  0.47503000  0.49225600  1
  B  B10  1  0.48710000  0.21122800  0.00155600  1
  B  B11  1  0.53590400  0.86747900  0.99613600  1
  B  B12  1  0.98710000  0.78877200  0.99844400  1
  B  B13  1  0.03590400  0.13252100  0.00386400  1
  P  P14  1  0.43677800  0.84401500  0.32040600  1
  P  P15  1  0.42326500  0.15809100  0.69335000  1
  P  P16  1  0.65082700  0.50020900  0.01103900  1
  P  P17  1  0.15082700  0.49979100  0.98896100  1
  P  P18  1  0.93677800  0.15598500  0.67959400  1
  P  P19  1  0.92326500  0.84190900  0.30665000  1
  O  O20  1  0.63272300  0.74847500  0.96986500  1
  O  O21  1  0.97232800  0.26218600  0.82117700  1
  O  O22  1  0.52259800  0.25827100  0.55985100  1
  O  O23  1  0.40478200  0.26838600  0.83719600  1
  O  O24  1  0.47232800  0.73781400  0.17882300  1
  O  O25  1  0.94825800  0.08997900  0.16135700  1
  O  O26  1  0.82036100  0.24613700  0.59754200  1
  O  O27  1  0.07554800  0.92935600  0.00755400  1
  O  O28  1  0.02259800  0.74172900  0.44014900  1
  O  O29  1  0.13272300  0.25152500  0.03013500  1
  O  O30  1  0.02897200  0.19204500  0.53291700  1
  O  O31  1  0.31066800  0.16499100  0.59444900  1
  O  O32  1  0.81066800  0.83500900  0.40555100  1
  O  O33  1  0.22306500  0.51085000  0.14665100  1
  O  O34  1  0.52897200  0.80795500  0.46708300  1
  O  O35  1  0.57554800  0.07064400  0.99244600  1
  O  O36  1  0.72306500  0.48915000  0.85334900  1
  O  O37  1  0.32036100  0.75386300  0.40245800  1
  O  O38  1  0.02306800  0.57843600  0.00283600  1
  O  O39  1  0.41808200  0.09543600  0.18190500  1
  O  O40  1  0.90478200  0.73161400  0.16280400  1
  O  O41  1  0.19614800  0.62809200  0.78954400  1
  O  O42  1  0.69614800  0.37190800  0.21045600  1
  O  O43  1  0.52306800  0.42156400  0.99716400  1
  O  O44  1  0.44825800  0.91002100  0.83864300  1
  O  O45  1  0.91808200  0.90456400  0.81809500  1
