# generated using pymatgen
data_La5Ti2AgS5O7
_symmetry_space_group_name_H-M   'P 1'
_cell_length_a   3.98098000
_cell_length_b   18.46502900
_cell_length_c   19.69733100
_cell_angle_alpha   90.00000000
_cell_angle_beta   90.00000000
_cell_angle_gamma   90.00000000
_symmetry_Int_Tables_number   1
_chemical_formula_structural   La5Ti2AgS5O7
_chemical_formula_sum   'La20 Ti8 Ag4 S20 O28'
_cell_volume   1447.92935434
_cell_formula_units_Z   4
loop_
 _symmetry_equiv_pos_site_id
 _symmetry_equiv_pos_as_xyz
  1  'x, y, z'
loop_
 _atom_site_type_symbol
 _atom_site_label
 _atom_site_symmetry_multiplicity
 _atom_site_fract_x
 _atom_site_fract_y
 _atom_site_fract_z
 _atom_site_occupancy
  La  La0  1  0.75000000  0.21400500  0.19094600  1
  La  La1  1  0.25000000  0.99918700  0.39295300  1
  La  La2  1  0.75000000  0.02894200  0.81842800  1
  La  La3  1  0.75000000  0.47105800  0.31842800  1
  La  La4  1  0.75000000  0.00081300  0.60704700  1
  La  La5  1  0.75000000  0.28599500  0.69094600  1
  La  La6  1  0.25000000  0.30442400  0.04156100  1
  La  La7  1  0.25000000  0.78599500  0.80905400  1
  La  La8  1  0.75000000  0.49918700  0.10704700  1
  La  La9  1  0.25000000  0.97105800  0.18157200  1
  La  La10  1  0.75000000  0.37703900  0.51191400  1
  La  La11  1  0.75000000  0.12296100  0.01191400  1
  La  La12  1  0.25000000  0.71400500  0.30905400  1
  La  La13  1  0.25000000  0.50081300  0.89295300  1
  La  La14  1  0.25000000  0.87703900  0.98808600  1
  La  La15  1  0.75000000  0.69557600  0.95843900  1
  La  La16  1  0.25000000  0.19557600  0.54156100  1
  La  La17  1  0.25000000  0.52894200  0.68157200  1
  La  La18  1  0.25000000  0.62296100  0.48808600  1
  La  La19  1  0.75000000  0.80442400  0.45843900  1
  Ti  Ti20  1  0.25000000  0.33158500  0.37842400  1
  Ti  Ti21  1  0.75000000  0.66841500  0.62157600  1
  Ti  Ti22  1  0.75000000  0.88764700  0.30257000  1
  Ti  Ti23  1  0.25000000  0.38764700  0.19743000  1
  Ti  Ti24  1  0.75000000  0.61235300  0.80257000  1
  Ti  Ti25  1  0.25000000  0.11235300  0.69743000  1
  Ti  Ti26  1  0.75000000  0.83158500  0.12157600  1
  Ti  Ti27  1  0.25000000  0.16841500  0.87842400  1
  Ag  Ag28  1  0.25000000  0.65403800  0.13551000  1
  Ag  Ag29  1  0.75000000  0.15403800  0.36449000  1
  Ag  Ag30  1  0.75000000  0.34596200  0.86449000  1
  Ag  Ag31  1  0.25000000  0.84596200  0.63551000  1
  S  S32  1  0.25000000  0.54275500  0.22027600  1
  S  S33  1  0.25000000  0.27823900  0.81666600  1
  S  S34  1  0.75000000  0.61985800  0.37104900  1
  S  S35  1  0.75000000  0.72176100  0.18333400  1
  S  S36  1  0.25000000  0.03296800  0.93283400  1
  S  S37  1  0.25000000  0.38014200  0.62895100  1
  S  S38  1  0.25000000  0.11985800  0.12895100  1
  S  S39  1  0.75000000  0.77823900  0.68333400  1
  S  S40  1  0.75000000  0.88014200  0.87104900  1
  S  S41  1  0.25000000  0.58957900  0.02442600  1
  S  S42  1  0.75000000  0.41042100  0.97557400  1
  S  S43  1  0.75000000  0.45724500  0.77972400  1
  S  S44  1  0.75000000  0.08957900  0.47557400  1
  S  S45  1  0.25000000  0.22176100  0.31666600  1
  S  S46  1  0.25000000  0.91042100  0.52442600  1
  S  S47  1  0.75000000  0.96703200  0.06716600  1
  S  S48  1  0.75000000  0.04275500  0.27972400  1
  S  S49  1  0.25000000  0.95724500  0.72027600  1
  S  S50  1  0.25000000  0.46703200  0.43283400  1
  S  S51  1  0.75000000  0.53296800  0.56716600  1
  O  O52  1  0.75000000  0.25340000  0.57260300  1
  O  O53  1  0.75000000  0.70756900  0.82817600  1
  O  O54  1  0.25000000  0.19438600  0.97071500  1
  O  O55  1  0.75000000  0.40324700  0.20044000  1
  O  O56  1  0.25000000  0.90324700  0.29956000  1
  O  O57  1  0.75000000  0.09675300  0.70044000  1
  O  O58  1  0.75000000  0.15350700  0.88171800  1
  O  O59  1  0.25000000  0.59675300  0.79956000  1
  O  O60  1  0.75000000  0.34649300  0.38171800  1
  O  O61  1  0.25000000  0.29243100  0.17182400  1
  O  O62  1  0.25000000  0.39504400  0.29546300  1
  O  O63  1  0.75000000  0.80561400  0.02928500  1
  O  O64  1  0.25000000  0.07566600  0.60692600  1
  O  O65  1  0.25000000  0.42433400  0.10692600  1
  O  O66  1  0.25000000  0.74660000  0.42739700  1
  O  O67  1  0.25000000  0.75340000  0.92739700  1
  O  O68  1  0.25000000  0.10495600  0.79546300  1
  O  O69  1  0.75000000  0.24660000  0.07260300  1
  O  O70  1  0.25000000  0.65350700  0.61828200  1
  O  O71  1  0.75000000  0.69438600  0.52928500  1
  O  O72  1  0.75000000  0.57566600  0.89307400  1
  O  O73  1  0.75000000  0.60495600  0.70453700  1
  O  O74  1  0.25000000  0.20756900  0.67182400  1
  O  O75  1  0.75000000  0.89504400  0.20453700  1
  O  O76  1  0.25000000  0.84649300  0.11828200  1
  O  O77  1  0.75000000  0.79243100  0.32817600  1
  O  O78  1  0.75000000  0.92433400  0.39307400  1
  O  O79  1  0.25000000  0.30561400  0.47071500  1
