# generated using pymatgen
data_K2Mo(SO5)2
_symmetry_space_group_name_H-M   'P 1'
_cell_length_a   12.76045100
_cell_length_b   9.10479200
_cell_length_c   9.16318522
_cell_angle_alpha   67.68123827
_cell_angle_beta   90.00000000
_cell_angle_gamma   90.00000000
_symmetry_Int_Tables_number   1
_chemical_formula_structural   K2Mo(SO5)2
_chemical_formula_sum   'K8 Mo4 S8 O40'
_cell_volume   984.83698962
_cell_formula_units_Z   4
loop_
 _symmetry_equiv_pos_site_id
 _symmetry_equiv_pos_as_xyz
  1  'x, y, z'
loop_
 _atom_site_type_symbol
 _atom_site_label
 _atom_site_symmetry_multiplicity
 _atom_site_fract_x
 _atom_site_fract_y
 _atom_site_fract_z
 _atom_site_occupancy
  K  K0  1  0.01588300  0.19952200  0.19553600  1
  K  K1  1  0.88045900  0.29414500  0.67823100  1
  K  K2  1  0.98411700  0.80047800  0.80446400  1
  K  K3  1  0.48411700  0.69952200  0.19553600  1
  K  K4  1  0.11954100  0.70585500  0.32176900  1
  K  K5  1  0.61954100  0.79414500  0.67823100  1
  K  K6  1  0.51588300  0.30047800  0.80446400  1
  K  K7  1  0.38045900  0.20585500  0.32176900  1
  Mo  Mo8  1  0.33245200  0.84624700  0.77841800  1
  Mo  Mo9  1  0.16754800  0.34624700  0.77841800  1
  Mo  Mo10  1  0.66754800  0.15375300  0.22158200  1
  Mo  Mo11  1  0.83245200  0.65375300  0.22158200  1
  S  S12  1  0.79986700  0.47299200  0.96329400  1
  S  S13  1  0.29986700  0.02700800  0.03670600  1
  S  S14  1  0.64212300  0.37387300  0.43089600  1
  S  S15  1  0.70013300  0.97299200  0.96329400  1
  S  S16  1  0.20013300  0.52700800  0.03670600  1
  S  S17  1  0.14212300  0.12612700  0.56910400  1
  S  S18  1  0.85787700  0.87387300  0.43089600  1
  S  S19  1  0.35787700  0.62612700  0.56910400  1
  O  O20  1  0.60280300  0.98114600  0.33607200  1
  O  O21  1  0.18113200  0.13960600  0.41513400  1
  O  O22  1  0.70477000  0.82514500  0.11131200  1
  O  O23  1  0.93332500  0.78691400  0.13996400  1
  O  O24  1  0.79523000  0.32514500  0.11131200  1
  O  O25  1  0.19169500  0.26858700  0.60003900  1
  O  O26  1  0.52805700  0.36569400  0.42218300  1
  O  O27  1  0.80830500  0.73141300  0.39996100  1
  O  O28  1  0.60436600  0.97082300  0.87645900  1
  O  O29  1  0.29523000  0.17485500  0.88868800  1
  O  O30  1  0.17939500  0.97617800  0.69889800  1
  O  O31  1  0.29614000  0.49912700  0.12861000  1
  O  O32  1  0.82060500  0.02382200  0.30110200  1
  O  O33  1  0.81291000  0.61272800  0.02044500  1
  O  O34  1  0.02805700  0.13430600  0.57781700  1
  O  O35  1  0.47194300  0.63430600  0.57781700  1
  O  O36  1  0.31291000  0.88727200  0.97955500  1
  O  O37  1  0.20386000  0.99912700  0.12861000  1
  O  O38  1  0.89563400  0.47082300  0.87645900  1
  O  O39  1  0.68709000  0.11272800  0.02044500  1
  O  O40  1  0.69169500  0.23141300  0.39996100  1
  O  O41  1  0.06667500  0.21308600  0.86003600  1
  O  O42  1  0.97194300  0.86569400  0.42218300  1
  O  O43  1  0.79614000  0.00087300  0.87139000  1
  O  O44  1  0.30830500  0.76858700  0.60003900  1
  O  O45  1  0.39719700  0.01885400  0.66392800  1
  O  O46  1  0.89719700  0.48114600  0.33607200  1
  O  O47  1  0.32060500  0.47617800  0.69889800  1
  O  O48  1  0.39563400  0.02917700  0.12354100  1
  O  O49  1  0.67939500  0.52382200  0.30110200  1
  O  O50  1  0.10280300  0.51885400  0.66392800  1
  O  O51  1  0.20477000  0.67485500  0.88868800  1
  O  O52  1  0.43332500  0.71308600  0.86003600  1
  O  O53  1  0.81886800  0.86039400  0.58486600  1
  O  O54  1  0.31886800  0.63960600  0.41513400  1
  O  O55  1  0.18709000  0.38727200  0.97955500  1
  O  O56  1  0.68113200  0.36039400  0.58486600  1
  O  O57  1  0.10436600  0.52917700  0.12354100  1
  O  O58  1  0.70386000  0.50087300  0.87139000  1
  O  O59  1  0.56667500  0.28691400  0.13996400  1
