# generated using pymatgen
data_K3GaTe3
_symmetry_space_group_name_H-M   'P 1'
_cell_length_a   13.90877200
_cell_length_b   8.73295000
_cell_length_c   11.40600075
_cell_angle_alpha   52.42710081
_cell_angle_beta   90.00000000
_cell_angle_gamma   90.00000000
_symmetry_Int_Tables_number   1
_chemical_formula_structural   K3GaTe3
_chemical_formula_sum   'K12 Ga4 Te12'
_cell_volume   1098.05793365
_cell_formula_units_Z   4
loop_
 _symmetry_equiv_pos_site_id
 _symmetry_equiv_pos_as_xyz
  1  'x, y, z'
loop_
 _atom_site_type_symbol
 _atom_site_label
 _atom_site_symmetry_multiplicity
 _atom_site_fract_x
 _atom_site_fract_y
 _atom_site_fract_z
 _atom_site_occupancy
  K  K0  1  0.90610900  0.33590700  0.39960900  1
  K  K1  1  0.40610900  0.66409300  0.10039100  1
  K  K2  1  0.09389100  0.66409300  0.60039100  1
  K  K3  1  0.59389100  0.33590700  0.89960900  1
  K  K4  1  0.18926500  0.12300400  0.59070100  1
  K  K5  1  0.68926500  0.87699600  0.90929900  1
  K  K6  1  0.81073500  0.87699600  0.40929900  1
  K  K7  1  0.31073500  0.12300400  0.09070100  1
  K  K8  1  0.61624500  0.36409600  0.47554700  1
  K  K9  1  0.11624500  0.63590400  0.02445300  1
  K  K10  1  0.38375500  0.63590400  0.52445300  1
  K  K11  1  0.88375500  0.36409600  0.97554700  1
  Ga  Ga12  1  0.93612900  0.06646500  0.83427900  1
  Ga  Ga13  1  0.43612900  0.93353500  0.66572100  1
  Ga  Ga14  1  0.06387100  0.93353500  0.16572100  1
  Ga  Ga15  1  0.56387100  0.06646500  0.33427900  1
  Te  Te16  1  0.38928500  0.16484400  0.37141600  1
  Te  Te17  1  0.88928500  0.83515600  0.12858400  1
  Te  Te18  1  0.61071500  0.83515600  0.62858400  1
  Te  Te19  1  0.11071500  0.16484400  0.87141600  1
  Te  Te20  1  0.68584400  0.35819300  0.18415500  1
  Te  Te21  1  0.18584400  0.64180700  0.31584500  1
  Te  Te22  1  0.31415600  0.64180700  0.81584500  1
  Te  Te23  1  0.81415600  0.35819300  0.68415500  1
  Te  Te24  1  0.55437100  0.86760600  0.23144700  1
  Te  Te25  1  0.05437100  0.13239400  0.26855300  1
  Te  Te26  1  0.44562900  0.13239400  0.76855300  1
  Te  Te27  1  0.94562900  0.86760600  0.73144700  1
