# generated using pymatgen
data_Ba17Tm16Zn8Pt4O57
_symmetry_space_group_name_H-M   'P 1'
_cell_length_a   16.49256366
_cell_length_b   16.49256366
_cell_length_c   16.49256366
_cell_angle_alpha   91.72541002
_cell_angle_beta   91.72541002
_cell_angle_gamma   160.01479912
_symmetry_Int_Tables_number   1
_chemical_formula_structural   Ba17Tm16Zn8Pt4O57
_chemical_formula_sum   'Ba17 Tm16 Zn8 Pt4 O57'
_cell_volume   1509.97311112
_cell_formula_units_Z   1
loop_
 _symmetry_equiv_pos_site_id
 _symmetry_equiv_pos_as_xyz
  1  'x, y, z'
loop_
 _atom_site_type_symbol
 _atom_site_label
 _atom_site_symmetry_multiplicity
 _atom_site_fract_x
 _atom_site_fract_y
 _atom_site_fract_z
 _atom_site_occupancy
  Ba  Ba0  1  0.81099700  0.73213800  0.54313500  1
  Ba  Ba1  1  0.64948500  0.34314900  0.99263400  1
  Ba  Ba2  1  0.73213800  0.18900300  0.92114000  1
  Ba  Ba3  1  0.35051500  0.65685100  0.00736600  1
  Ba  Ba4  1  0.44227500  0.06788200  0.51015700  1
  Ba  Ba5  1  0.11167500  0.72406500  0.83573900  1
  Ba  Ba6  1  0.34314900  0.35051500  0.69366300  1
  Ba  Ba7  1  0.93211800  0.44227500  0.37439200  1
  Ba  Ba8  1  0.72406500  0.88832500  0.61239000  1
  Ba  Ba9  1  0.18900300  0.26786200  0.45686500  1
  Ba  Ba10  1  0.65685100  0.64948500  0.30633700  1
  Ba  Ba11  1  0.06788200  0.55772500  0.62560800  1
  Ba  Ba12  1  0.88832500  0.27593500  0.16426100  1
  Ba  Ba13  1  0.55772500  0.93211800  0.48984300  1
  Ba  Ba14  1  0.26786200  0.81099700  0.07886000  1
  Ba  Ba15  1  0.27593500  0.11167500  0.38761000  1
  Ba  Ba16  1  0.00000000  0.00000000  0.00000000  1
  Tm  Tm17  1  0.32515000  0.95050100  0.27565200  1
  Tm  Tm18  1  0.04949900  0.32515000  0.37464900  1
  Tm  Tm19  1  0.67485000  0.04949900  0.72434800  1
  Tm  Tm20  1  0.49370600  0.74856700  0.24227300  1
  Tm  Tm21  1  0.82827300  0.05186100  0.88013400  1
  Tm  Tm22  1  0.74856700  0.50629400  0.25486200  1
  Tm  Tm23  1  0.50629400  0.25143300  0.75772700  1
  Tm  Tm24  1  0.17172700  0.94813900  0.11986600  1
  Tm  Tm25  1  0.05186100  0.17172700  0.22358700  1
  Tm  Tm26  1  0.51137200  0.40084500  0.91221700  1
  Tm  Tm27  1  0.94813900  0.82827300  0.77641300  1
  Tm  Tm28  1  0.95050100  0.67485000  0.62535100  1
  Tm  Tm29  1  0.40084500  0.48862800  0.88947300  1
  Tm  Tm30  1  0.59915500  0.51137200  0.11052700  1
  Tm  Tm31  1  0.25143300  0.49370600  0.74513800  1
  Tm  Tm32  1  0.48862800  0.59915500  0.08778300  1
  Zn  Zn33  1  0.21219000  0.61997100  0.83216100  1
  Zn  Zn34  1  0.07527800  0.86738600  0.94266400  1
  Zn  Zn35  1  0.78781000  0.38002900  0.16783900  1
  Zn  Zn36  1  0.92472200  0.13261400  0.05733600  1
  Zn  Zn37  1  0.86738600  0.92472200  0.79210800  1
  Zn  Zn38  1  0.38002900  0.21219000  0.59221900  1
  Zn  Zn39  1  0.13261400  0.07527800  0.20789200  1
  Zn  Zn40  1  0.61997100  0.78781000  0.40778100  1
  Pt  Pt41  1  0.85567000  0.58246800  0.43813800  1
  Pt  Pt42  1  0.41753200  0.85567000  0.27320200  1
  Pt  Pt43  1  0.58246800  0.14433000  0.72679800  1
  Pt  Pt44  1  0.14433000  0.41753200  0.56186200  1
  O  O45  1  0.49395500  0.17644900  0.17633400  1
  O  O46  1  0.68237900  0.50604500  0.68249500  1
  O  O47  1  0.72023200  0.07286800  0.31014700  1
  O  O48  1  0.27783600  0.07576400  0.85196900  1
  O  O49  1  0.00011500  0.31762100  0.82366600  1
  O  O50  1  0.22379500  0.42586700  0.14803100  1
  O  O51  1  0.23901000  0.70092500  0.93993600  1
  O  O52  1  0.59768400  0.11991000  0.23306600  1
  O  O53  1  0.81258800  0.83776200  0.15423400  1
  O  O54  1  0.36461900  0.59768400  0.47777500  1
  O  O55  1  0.23191100  0.39309200  0.62500300  1
  O  O56  1  0.11315600  0.63538100  0.23306600  1
  O  O57  1  0.82355100  0.99988500  0.31750500  1
  O  O58  1  0.31762100  0.49395500  0.31750500  1
  O  O59  1  0.42586700  0.27783600  0.20207200  1
  O  O60  1  0.88009000  0.11315600  0.47777500  1
  O  O61  1  0.99988500  0.68237900  0.17633400  1
  O  O62  1  0.15791400  0.15776300  0.31567800  1
  O  O63  1  0.29907500  0.23901000  0.53808500  1
  O  O64  1  0.39309200  0.76808900  0.16118200  1
  O  O65  1  0.92713200  0.23727800  0.64736400  1
  O  O66  1  0.70092500  0.76099000  0.46191500  1
  O  O67  1  0.50000000  0.50000000  0.00000000  1
  O  O68  1  0.07576400  0.22379500  0.79792800  1
  O  O69  1  0.31647100  0.34164600  0.15423400  1
  O  O70  1  0.76272200  0.41008600  0.68985300  1
  O  O71  1  0.11991000  0.88684400  0.52222500  1
  O  O72  1  0.07286800  0.76272200  0.35263600  1
  O  O73  1  0.57413300  0.72216400  0.79792800  1
  O  O74  1  0.77620500  0.57413300  0.85196900  1
  O  O75  1  0.84208600  0.84223700  0.68432200  1
  O  O76  1  0.16223800  0.31647100  0.97482600  1
  O  O77  1  0.50604500  0.82355100  0.82366600  1
  O  O78  1  0.23727800  0.58991400  0.31014700  1
  O  O79  1  0.60690800  0.23191100  0.83881800  1
  O  O80  1  0.63538100  0.40231600  0.52222500  1
  O  O81  1  0.58991400  0.27976800  0.35263600  1
  O  O82  1  0.76808900  0.60690800  0.37499700  1
  O  O83  1  0.27976800  0.92713200  0.68985300  1
  O  O84  1  0.05435300  0.43497000  0.48932300  1
  O  O85  1  0.94564700  0.56503000  0.51067700  1
  O  O86  1  0.40231600  0.88009000  0.76693400  1
  O  O87  1  0.56503000  0.05435300  0.61938200  1
  O  O88  1  0.65835400  0.81258800  0.97482600  1
  O  O89  1  0.68352900  0.65835400  0.84576600  1
  O  O90  1  0.76099000  0.29907500  0.06006400  1
  O  O91  1  0.84223700  0.15791400  0.00015100  1
  O  O92  1  0.43497000  0.94564700  0.38061800  1
  O  O93  1  0.18741200  0.16223800  0.84576600  1
  O  O94  1  0.72216400  0.92423600  0.14803100  1
  O  O95  1  0.15776300  0.84208600  0.99984900  1
  O  O96  1  0.88684400  0.36461900  0.76693400  1
  O  O97  1  0.92423600  0.77620500  0.20207200  1
  O  O98  1  0.41008600  0.72023200  0.64736400  1
  O  O99  1  0.34164600  0.18741200  0.02517400  1
  O  O100  1  0.17644900  0.00011500  0.68249500  1
  O  O101  1  0.83776200  0.68352900  0.02517400  1
