# generated using pymatgen
data_Na9Sn4
_symmetry_space_group_name_H-M   'P 1'
_cell_length_a   5.45294038
_cell_length_b   5.45294038
_cell_length_c   29.30185400
_cell_angle_alpha   90.00000000
_cell_angle_beta   90.00000000
_cell_angle_gamma   120.00000457
_symmetry_Int_Tables_number   1
_chemical_formula_structural   Na9Sn4
_chemical_formula_sum   'Na18 Sn8'
_cell_volume   754.54858655
_cell_formula_units_Z   2
loop_
 _symmetry_equiv_pos_site_id
 _symmetry_equiv_pos_as_xyz
  1  'x, y, z'
loop_
 _atom_site_type_symbol
 _atom_site_label
 _atom_site_symmetry_multiplicity
 _atom_site_fract_x
 _atom_site_fract_y
 _atom_site_fract_z
 _atom_site_occupancy
  Na  Na0  1  0.33333300  0.66666700  0.75000000  1
  Na  Na1  1  0.66666700  0.33333300  0.25000000  1
  Na  Na2  1  0.66666700  0.33333300  0.59170500  1
  Na  Na3  1  0.33333300  0.66666700  0.40829500  1
  Na  Na4  1  0.33333300  0.66666700  0.09170500  1
  Na  Na5  1  0.66666700  0.33333300  0.90829500  1
  Na  Na6  1  0.00000000  0.00000000  0.82370000  1
  Na  Na7  1  0.00000000  0.00000000  0.17630000  1
  Na  Na8  1  0.00000000  0.00000000  0.32370000  1
  Na  Na9  1  0.00000000  0.00000000  0.67630000  1
  Na  Na10  1  0.66666700  0.33333300  0.36449500  1
  Na  Na11  1  0.33333300  0.66666700  0.63550500  1
  Na  Na12  1  0.33333300  0.66666700  0.86449500  1
  Na  Na13  1  0.66666700  0.33333300  0.13550500  1
  Na  Na14  1  0.66666700  0.33333300  0.47977800  1
  Na  Na15  1  0.33333300  0.66666700  0.52022200  1
  Na  Na16  1  0.33333300  0.66666700  0.97977800  1
  Na  Na17  1  0.66666700  0.33333300  0.02022200  1
  Sn  Sn18  1  0.66666700  0.33333300  0.79858900  1
  Sn  Sn19  1  0.33333300  0.66666700  0.20141100  1
  Sn  Sn20  1  0.33333300  0.66666700  0.29858900  1
  Sn  Sn21  1  0.66666700  0.33333300  0.70141100  1
  Sn  Sn22  1  0.00000000  0.00000000  0.94898000  1
  Sn  Sn23  1  0.00000000  0.00000000  0.05102000  1
  Sn  Sn24  1  0.00000000  0.00000000  0.44898000  1
  Sn  Sn25  1  0.00000000  0.00000000  0.55102000  1
