# generated using pymatgen
data_RbBe4(BO3)3
_symmetry_space_group_name_H-M   'P 1'
_cell_length_a   6.42971100
_cell_length_b   8.53028400
_cell_length_c   13.35319500
_cell_angle_alpha   90.00000000
_cell_angle_beta   90.00000000
_cell_angle_gamma   90.00000000
_symmetry_Int_Tables_number   1
_chemical_formula_structural   RbBe4(BO3)3
_chemical_formula_sum   'Rb4 Be16 B12 O36'
_cell_volume   732.38616959
_cell_formula_units_Z   4
loop_
 _symmetry_equiv_pos_site_id
 _symmetry_equiv_pos_as_xyz
  1  'x, y, z'
loop_
 _atom_site_type_symbol
 _atom_site_label
 _atom_site_symmetry_multiplicity
 _atom_site_fract_x
 _atom_site_fract_y
 _atom_site_fract_z
 _atom_site_occupancy
  Rb  Rb0  1  0.17417600  0.93328900  0.75000000  1
  Rb  Rb1  1  0.82582400  0.06671100  0.25000000  1
  Rb  Rb2  1  0.67417600  0.56671100  0.25000000  1
  Rb  Rb3  1  0.32582400  0.43328900  0.75000000  1
  Be  Be4  1  0.85721900  0.27641900  0.85713800  1
  Be  Be5  1  0.09365300  0.43818100  0.05720200  1
  Be  Be6  1  0.40634700  0.93818100  0.05720200  1
  Be  Be7  1  0.59365300  0.06181900  0.94279800  1
  Be  Be8  1  0.40634700  0.93818100  0.44279800  1
  Be  Be9  1  0.90634700  0.56181900  0.94279800  1
  Be  Be10  1  0.64278100  0.77641900  0.85713800  1
  Be  Be11  1  0.14278100  0.72358100  0.35713800  1
  Be  Be12  1  0.64278100  0.77641900  0.64286200  1
  Be  Be13  1  0.09365300  0.43818100  0.44279800  1
  Be  Be14  1  0.35721900  0.22358100  0.35713800  1
  Be  Be15  1  0.59365300  0.06181900  0.55720200  1
  Be  Be16  1  0.35721900  0.22358100  0.14286200  1
  Be  Be17  1  0.90634700  0.56181900  0.55720200  1
  Be  Be18  1  0.14278100  0.72358100  0.14286200  1
  Be  Be19  1  0.85721900  0.27641900  0.64286200  1
  B  B20  1  0.68947800  0.04789300  0.75000000  1
  B  B21  1  0.31052200  0.95210700  0.25000000  1
  B  B22  1  0.18947800  0.45210700  0.25000000  1
  B  B23  1  0.19710400  0.17717500  0.96460100  1
  B  B24  1  0.30289600  0.67717500  0.96460100  1
  B  B25  1  0.19710400  0.17717500  0.53539900  1
  B  B26  1  0.80289600  0.82282500  0.46460100  1
  B  B27  1  0.30289600  0.67717500  0.53539900  1
  B  B28  1  0.81052200  0.54789300  0.75000000  1
  B  B29  1  0.80289600  0.82282500  0.03539900  1
  B  B30  1  0.69710400  0.32282500  0.03539900  1
  B  B31  1  0.69710400  0.32282500  0.46460100  1
  O  O32  1  0.34974500  0.02857200  0.16116900  1
  O  O33  1  0.34045000  0.05332800  0.53630800  1
  O  O34  1  0.15955000  0.55332800  0.96369200  1
  O  O35  1  0.84974500  0.47142800  0.83883100  1
  O  O36  1  0.68622100  0.23653900  0.55414400  1
  O  O37  1  0.58228800  0.29041200  0.11745900  1
  O  O38  1  0.81377900  0.73653900  0.55414400  1
  O  O39  1  0.84045000  0.44667200  0.46369200  1
  O  O40  1  0.23261800  0.80125300  0.25000000  1
  O  O41  1  0.26738200  0.30125300  0.25000000  1
  O  O42  1  0.41771200  0.70958800  0.61745900  1
  O  O43  1  0.18622100  0.26346100  0.44585600  1
  O  O44  1  0.58228800  0.29041200  0.38254100  1
  O  O45  1  0.65955000  0.94667200  0.03630800  1
  O  O46  1  0.31377900  0.76346100  0.44585600  1
  O  O47  1  0.84045000  0.44667200  0.03630800  1
  O  O48  1  0.34974500  0.02857200  0.33883100  1
  O  O49  1  0.08228800  0.20958800  0.61745900  1
  O  O50  1  0.31377900  0.76346100  0.05414400  1
  O  O51  1  0.65955000  0.94667200  0.46369200  1
  O  O52  1  0.68622100  0.23653900  0.94585600  1
  O  O53  1  0.18622100  0.26346100  0.05414400  1
  O  O54  1  0.08228800  0.20958800  0.88254100  1
  O  O55  1  0.76738200  0.19874700  0.75000000  1
  O  O56  1  0.41771200  0.70958800  0.88254100  1
  O  O57  1  0.91771200  0.79041200  0.11745900  1
  O  O58  1  0.65025500  0.97142800  0.83883100  1
  O  O59  1  0.34045000  0.05332800  0.96369200  1
  O  O60  1  0.15025500  0.52857200  0.16116900  1
  O  O61  1  0.15025500  0.52857200  0.33883100  1
  O  O62  1  0.84974500  0.47142800  0.66116900  1
  O  O63  1  0.91771200  0.79041200  0.38254100  1
  O  O64  1  0.81377900  0.73653900  0.94585600  1
  O  O65  1  0.65025500  0.97142800  0.66116900  1
  O  O66  1  0.15955000  0.55332800  0.53630800  1
  O  O67  1  0.73261800  0.69874700  0.75000000  1
