# generated using pymatgen
data_CsDyZnTe3
_symmetry_space_group_name_H-M   'P 1'
_cell_length_a   8.96785507
_cell_length_b   8.96785507
_cell_length_c   11.74749400
_cell_angle_alpha   90.00000000
_cell_angle_beta   90.00000000
_cell_angle_gamma   151.39603541
_symmetry_Int_Tables_number   1
_chemical_formula_structural   CsDyZnTe3
_chemical_formula_sum   'Cs2 Dy2 Zn2 Te6'
_cell_volume   452.30724845
_cell_formula_units_Z   2
loop_
 _symmetry_equiv_pos_site_id
 _symmetry_equiv_pos_as_xyz
  1  'x, y, z'
loop_
 _atom_site_type_symbol
 _atom_site_label
 _atom_site_symmetry_multiplicity
 _atom_site_fract_x
 _atom_site_fract_y
 _atom_site_fract_z
 _atom_site_occupancy
  Cs  Cs0  1  0.25381500  0.74618500  0.75000000  1
  Cs  Cs1  1  0.74618500  0.25381500  0.25000000  1
  Dy  Dy2  1  0.00000000  0.00000000  0.00000000  1
  Dy  Dy3  1  0.00000000  0.00000000  0.50000000  1
  Zn  Zn4  1  0.53797700  0.46202300  0.75000000  1
  Zn  Zn5  1  0.46202300  0.53797700  0.25000000  1
  Te  Te6  1  0.61874200  0.38125800  0.94227900  1
  Te  Te7  1  0.38125800  0.61874200  0.05772100  1
  Te  Te8  1  0.38125800  0.61874200  0.44227900  1
  Te  Te9  1  0.61874200  0.38125800  0.55772100  1
  Te  Te10  1  0.94189900  0.05810100  0.75000000  1
  Te  Te11  1  0.05810100  0.94189900  0.25000000  1
