# generated using pymatgen
data_Ta2Pt3S8
_symmetry_space_group_name_H-M   'P 1'
_cell_length_a   3.48997500
_cell_length_b   10.53951700
_cell_length_c   14.69120200
_cell_angle_alpha   90.00000000
_cell_angle_beta   90.00000000
_cell_angle_gamma   90.00000000
_symmetry_Int_Tables_number   1
_chemical_formula_structural   Ta2Pt3S8
_chemical_formula_sum   'Ta4 Pt6 S16'
_cell_volume   540.38135362
_cell_formula_units_Z   2
loop_
 _symmetry_equiv_pos_site_id
 _symmetry_equiv_pos_as_xyz
  1  'x, y, z'
loop_
 _atom_site_type_symbol
 _atom_site_label
 _atom_site_symmetry_multiplicity
 _atom_site_fract_x
 _atom_site_fract_y
 _atom_site_fract_z
 _atom_site_occupancy
  Ta  Ta0  1  0.50000000  0.20642900  0.11964700  1
  Ta  Ta1  1  0.50000000  0.29357100  0.61964700  1
  Ta  Ta2  1  0.50000000  0.79357100  0.88035300  1
  Ta  Ta3  1  0.50000000  0.70642900  0.38035300  1
  Pt  Pt4  1  0.00000000  0.87021200  0.27977100  1
  Pt  Pt5  1  0.00000000  0.12978800  0.72022900  1
  Pt  Pt6  1  0.00000000  0.37021200  0.22022900  1
  Pt  Pt7  1  0.00000000  0.62978800  0.77977100  1
  Pt  Pt8  1  0.00000000  0.50000000  0.50000000  1
  Pt  Pt9  1  0.00000000  0.00000000  0.00000000  1
  S  S10  1  0.50000000  0.05949000  0.62278400  1
  S  S11  1  0.00000000  0.22392900  0.99747200  1
  S  S12  1  0.50000000  0.44051000  0.12278400  1
  S  S13  1  0.00000000  0.45974300  0.65710400  1
  S  S14  1  0.00000000  0.27607100  0.49747200  1
  S  S15  1  0.00000000  0.95974300  0.84289600  1
  S  S16  1  0.00000000  0.72392900  0.50252800  1
  S  S17  1  0.00000000  0.04025700  0.15710400  1
  S  S18  1  0.50000000  0.74699100  0.21548300  1
  S  S19  1  0.00000000  0.54025700  0.34289600  1
  S  S20  1  0.50000000  0.55949000  0.87721600  1
  S  S21  1  0.50000000  0.24699100  0.28451700  1
  S  S22  1  0.00000000  0.77607100  0.00252800  1
  S  S23  1  0.50000000  0.25300900  0.78451700  1
  S  S24  1  0.50000000  0.75300900  0.71548300  1
  S  S25  1  0.50000000  0.94051000  0.37721600  1
