# generated using pymatgen
data_Nd(Al4Co)2
_symmetry_space_group_name_H-M   'P 1'
_cell_length_a   4.00349400
_cell_length_b   12.49105400
_cell_length_c   14.39331600
_cell_angle_alpha   90.00000000
_cell_angle_beta   90.00000000
_cell_angle_gamma   90.00000000
_symmetry_Int_Tables_number   1
_chemical_formula_structural   Nd(Al4Co)2
_chemical_formula_sum   'Nd4 Al32 Co8'
_cell_volume   719.77892776
_cell_formula_units_Z   4
loop_
 _symmetry_equiv_pos_site_id
 _symmetry_equiv_pos_as_xyz
  1  'x, y, z'
loop_
 _atom_site_type_symbol
 _atom_site_label
 _atom_site_symmetry_multiplicity
 _atom_site_fract_x
 _atom_site_fract_y
 _atom_site_fract_z
 _atom_site_occupancy
  Nd  Nd0  1  0.00000000  0.84033900  0.18102400  1
  Nd  Nd1  1  0.00000000  0.15966100  0.81897600  1
  Nd  Nd2  1  0.00000000  0.65966100  0.68102400  1
  Nd  Nd3  1  0.00000000  0.34033900  0.31897600  1
  Al  Al4  1  0.50000000  0.02579300  0.13168300  1
  Al  Al5  1  0.50000000  0.16926000  0.99197000  1
  Al  Al6  1  0.50000000  0.23595500  0.17263100  1
  Al  Al7  1  0.00000000  0.50000000  0.50000000  1
  Al  Al8  1  0.00000000  0.65971200  0.95553600  1
  Al  Al9  1  0.00000000  0.09625500  0.25266300  1
  Al  Al10  1  0.50000000  0.04743500  0.67958500  1
  Al  Al11  1  0.00000000  0.90374500  0.74733700  1
  Al  Al12  1  0.50000000  0.54743500  0.82041500  1
  Al  Al13  1  0.50000000  0.97420700  0.86831700  1
  Al  Al14  1  0.50000000  0.65906100  0.12076100  1
  Al  Al15  1  0.50000000  0.73595500  0.32736900  1
  Al  Al16  1  0.50000000  0.45256500  0.17958500  1
  Al  Al17  1  0.50000000  0.95256500  0.32041500  1
  Al  Al18  1  0.50000000  0.33074000  0.49197000  1
  Al  Al19  1  0.00000000  0.59625500  0.24733700  1
  Al  Al20  1  0.50000000  0.47420700  0.63168300  1
  Al  Al21  1  0.50000000  0.76404500  0.82736900  1
  Al  Al22  1  0.50000000  0.15906100  0.37923900  1
  Al  Al23  1  0.50000000  0.84093900  0.62076100  1
  Al  Al24  1  0.50000000  0.83074000  0.00803000  1
  Al  Al25  1  0.50000000  0.66926000  0.50803000  1
  Al  Al26  1  0.50000000  0.00000000  0.50000000  1
  Al  Al27  1  0.00000000  0.34028800  0.04446400  1
  Al  Al28  1  0.50000000  0.52579300  0.36831700  1
  Al  Al29  1  0.50000000  0.34093900  0.87923900  1
  Al  Al30  1  0.00000000  0.40374500  0.75266300  1
  Al  Al31  1  0.50000000  0.50000000  0.00000000  1
  Al  Al32  1  0.00000000  0.15971200  0.54446400  1
  Al  Al33  1  0.00000000  0.84028800  0.45553600  1
  Al  Al34  1  0.50000000  0.26404500  0.67263100  1
  Al  Al35  1  0.00000000  0.00000000  0.00000000  1
  Co  Co36  1  0.00000000  0.53430800  0.09421200  1
  Co  Co37  1  0.00000000  0.03430800  0.40578800  1
  Co  Co38  1  0.00000000  0.65209900  0.40388000  1
  Co  Co39  1  0.00000000  0.96569200  0.59421200  1
  Co  Co40  1  0.00000000  0.46569200  0.90578800  1
  Co  Co41  1  0.00000000  0.15209900  0.09612000  1
  Co  Co42  1  0.00000000  0.84790100  0.90388000  1
  Co  Co43  1  0.00000000  0.34790100  0.59612000  1
