# generated using pymatgen
data_Tb4InRh
_symmetry_space_group_name_H-M   'P 1'
_cell_length_a   9.70668813
_cell_length_b   9.70668813
_cell_length_c   9.70668813
_cell_angle_alpha   60.00000000
_cell_angle_beta   60.00000000
_cell_angle_gamma   60.00000000
_symmetry_Int_Tables_number   1
_chemical_formula_structural   Tb4InRh
_chemical_formula_sum   'Tb16 In4 Rh4'
_cell_volume   646.69310557
_cell_formula_units_Z   4
loop_
 _symmetry_equiv_pos_site_id
 _symmetry_equiv_pos_as_xyz
  1  'x, y, z'
loop_
 _atom_site_type_symbol
 _atom_site_label
 _atom_site_symmetry_multiplicity
 _atom_site_fract_x
 _atom_site_fract_y
 _atom_site_fract_z
 _atom_site_occupancy
  Tb  Tb0  1  0.81040200  0.81040200  0.18959800  1
  Tb  Tb1  1  0.81040200  0.18959800  0.81040200  1
  Tb  Tb2  1  0.18959800  0.18959800  0.81040200  1
  Tb  Tb3  1  0.65044200  0.04867400  0.65044200  1
  Tb  Tb4  1  0.06242300  0.06242300  0.43757700  1
  Tb  Tb5  1  0.43757700  0.43757700  0.06242300  1
  Tb  Tb6  1  0.65044200  0.65044200  0.65044200  1
  Tb  Tb7  1  0.81040200  0.18959800  0.18959800  1
  Tb  Tb8  1  0.18959800  0.81040200  0.81040200  1
  Tb  Tb9  1  0.04867400  0.65044200  0.65044200  1
  Tb  Tb10  1  0.43757700  0.06242300  0.06242300  1
  Tb  Tb11  1  0.43757700  0.06242300  0.43757700  1
  Tb  Tb12  1  0.06242300  0.43757700  0.06242300  1
  Tb  Tb13  1  0.65044200  0.65044200  0.04867400  1
  Tb  Tb14  1  0.18959800  0.81040200  0.18959800  1
  Tb  Tb15  1  0.06242300  0.43757700  0.43757700  1
  In  In16  1  0.41765600  0.41765600  0.41765600  1
  In  In17  1  0.41765600  0.41765600  0.74703100  1
  In  In18  1  0.41765600  0.74703100  0.41765600  1
  In  In19  1  0.74703100  0.41765600  0.41765600  1
  Rh  Rh20  1  0.85768300  0.42695200  0.85768300  1
  Rh  Rh21  1  0.85768300  0.85768300  0.85768300  1
  Rh  Rh22  1  0.85768300  0.85768300  0.42695200  1
  Rh  Rh23  1  0.42695200  0.85768300  0.85768300  1
