# generated using pymatgen
data_CeMnSi2
_symmetry_space_group_name_H-M   'P 1'
_cell_length_a   8.82170032
_cell_length_b   8.82170032
_cell_length_c   3.98481800
_cell_angle_alpha   90.00000000
_cell_angle_beta   90.00000000
_cell_angle_gamma   153.34537585
_symmetry_Int_Tables_number   1
_chemical_formula_structural   CeMnSi2
_chemical_formula_sum   'Ce2 Mn2 Si4'
_cell_volume   139.11800590
_cell_formula_units_Z   2
loop_
 _symmetry_equiv_pos_site_id
 _symmetry_equiv_pos_as_xyz
  1  'x, y, z'
loop_
 _atom_site_type_symbol
 _atom_site_label
 _atom_site_symmetry_multiplicity
 _atom_site_fract_x
 _atom_site_fract_y
 _atom_site_fract_z
 _atom_site_occupancy
  Ce  Ce0  1  0.10309000  0.89691000  0.25000000  1
  Ce  Ce1  1  0.89691000  0.10309000  0.75000000  1
  Mn  Mn2  1  0.24872600  0.75127400  0.75000000  1
  Mn  Mn3  1  0.75127400  0.24872600  0.25000000  1
  Si  Si4  1  0.32267900  0.67732100  0.25000000  1
  Si  Si5  1  0.67732100  0.32267900  0.75000000  1
  Si  Si6  1  0.53576700  0.46423300  0.75000000  1
  Si  Si7  1  0.46423300  0.53576700  0.25000000  1
