# generated using pymatgen
data_Cs5Nb2S4Br9
_symmetry_space_group_name_H-M   'P 1'
_cell_length_a   10.88893862
_cell_length_b   10.88893862
_cell_length_c   10.88893862
_cell_angle_alpha   138.49124867
_cell_angle_beta   117.88147512
_cell_angle_gamma   77.49654095
_symmetry_Int_Tables_number   1
_chemical_formula_structural   Cs5Nb2S4Br9
_chemical_formula_sum   'Cs5 Nb2 S4 Br9'
_cell_volume   736.36171208
_cell_formula_units_Z   1
loop_
 _symmetry_equiv_pos_site_id
 _symmetry_equiv_pos_as_xyz
  1  'x, y, z'
loop_
 _atom_site_type_symbol
 _atom_site_label
 _atom_site_symmetry_multiplicity
 _atom_site_fract_x
 _atom_site_fract_y
 _atom_site_fract_z
 _atom_site_occupancy
  Cs  Cs0  1  0.43743100  0.66092900  0.77650200  1
  Cs  Cs1  1  0.88442700  0.66092900  0.22349800  1
  Cs  Cs2  1  0.50000000  0.00000000  0.50000000  1
  Cs  Cs3  1  0.56256900  0.33907100  0.22349800  1
  Cs  Cs4  1  0.11557300  0.33907100  0.77650200  1
  Nb  Nb5  1  0.08658300  0.08658300  0.00000000  1
  Nb  Nb6  1  0.91341700  0.91341700  0.00000000  1
  S  S7  1  0.08981500  0.77032200  0.86013700  1
  S  S8  1  0.91018500  0.77032200  0.68050700  1
  S  S9  1  0.91018500  0.22967800  0.13986300  1
  S  S10  1  0.08981500  0.22967800  0.31949300  1
  Br  Br11  1  0.20408600  0.44427600  0.24019100  1
  Br  Br12  1  0.11723500  0.87295400  0.24428100  1
  Br  Br13  1  0.37132800  0.12704600  0.24428100  1
  Br  Br14  1  0.20408600  0.96389500  0.75980900  1
  Br  Br15  1  0.79591400  0.03610500  0.24019100  1
  Br  Br16  1  0.62867200  0.87295400  0.75571900  1
  Br  Br17  1  0.79591400  0.55572400  0.75980900  1
  Br  Br18  1  0.50000000  0.50000000  0.00000000  1
  Br  Br19  1  0.88276500  0.12704600  0.75571900  1
