# generated using pymatgen
data_SrLiGaN2
_symmetry_space_group_name_H-M   'P 1'
_cell_length_a   5.97786825
_cell_length_b   5.97786825
_cell_length_c   12.74500667
_cell_angle_alpha   89.29676796
_cell_angle_beta   89.29676796
_cell_angle_gamma   118.34307869
_symmetry_Int_Tables_number   1
_chemical_formula_structural   SrLiGaN2
_chemical_formula_sum   'Sr6 Li6 Ga6 N12'
_cell_volume   400.72862904
_cell_formula_units_Z   6
loop_
 _symmetry_equiv_pos_site_id
 _symmetry_equiv_pos_as_xyz
  1  'x, y, z'
loop_
 _atom_site_type_symbol
 _atom_site_label
 _atom_site_symmetry_multiplicity
 _atom_site_fract_x
 _atom_site_fract_y
 _atom_site_fract_z
 _atom_site_occupancy
  Sr  Sr0  1  0.94752600  0.94752600  0.25658600  1
  Sr  Sr1  1  0.82078700  0.17921300  0.50000000  1
  Sr  Sr2  1  0.17921300  0.82078700  0.50000000  1
  Sr  Sr3  1  0.16606000  0.83394000  0.00000000  1
  Sr  Sr4  1  0.83394000  0.16606000  0.00000000  1
  Sr  Sr5  1  0.05247400  0.05247400  0.74341400  1
  Li  Li6  1  0.81289200  0.44710300  0.31800900  1
  Li  Li7  1  0.18710800  0.55289700  0.68199100  1
  Li  Li8  1  0.44710300  0.81289200  0.31800900  1
  Li  Li9  1  0.59495600  0.59495600  0.08111800  1
  Li  Li10  1  0.55289700  0.18710800  0.68199100  1
  Li  Li11  1  0.40504400  0.40504400  0.91888200  1
  Ga  Ga12  1  0.48887900  0.81382200  0.81249800  1
  Ga  Ga13  1  0.81382200  0.48887900  0.81249800  1
  Ga  Ga14  1  0.51112100  0.18617800  0.18750200  1
  Ga  Ga15  1  0.39176600  0.39176600  0.41135200  1
  Ga  Ga16  1  0.60823400  0.60823400  0.58864800  1
  Ga  Ga17  1  0.18617800  0.51112100  0.18750200  1
  N  N18  1  0.45528400  0.13737100  0.34314200  1
  N  N19  1  0.74871900  0.74871900  0.89125100  1
  N  N20  1  0.50322600  0.14741400  0.85096500  1
  N  N21  1  0.25128100  0.25128100  0.10874900  1
  N  N22  1  0.13737100  0.45528400  0.34314200  1
  N  N23  1  0.54471600  0.86262900  0.65685800  1
  N  N24  1  0.85258600  0.49677400  0.14903500  1
  N  N25  1  0.14741400  0.50322600  0.85096500  1
  N  N26  1  0.71937200  0.71937200  0.43311200  1
  N  N27  1  0.28062800  0.28062800  0.56688800  1
  N  N28  1  0.49677400  0.85258600  0.14903500  1
  N  N29  1  0.86262900  0.54471600  0.65685800  1
