# generated using pymatgen
data_RbMnVO4
_symmetry_space_group_name_H-M   'P 1'
_cell_length_a   11.50845355
_cell_length_b   11.50845355
_cell_length_c   9.20844000
_cell_angle_alpha   90.00000000
_cell_angle_beta   90.00000000
_cell_angle_gamma   119.99999740
_symmetry_Int_Tables_number   1
_chemical_formula_structural   RbMnVO4
_chemical_formula_sum   'Rb8 Mn8 V8 O32'
_cell_volume   1056.21089726
_cell_formula_units_Z   8
loop_
 _symmetry_equiv_pos_site_id
 _symmetry_equiv_pos_as_xyz
  1  'x, y, z'
loop_
 _atom_site_type_symbol
 _atom_site_label
 _atom_site_symmetry_multiplicity
 _atom_site_fract_x
 _atom_site_fract_y
 _atom_site_fract_z
 _atom_site_occupancy
  Rb  Rb0  1  0.00000000  0.00000000  0.38620700  1
  Rb  Rb1  1  0.00000000  0.00000000  0.88620700  1
  Rb  Rb2  1  0.47252500  0.51735400  0.40053500  1
  Rb  Rb3  1  0.95517100  0.47252500  0.90053500  1
  Rb  Rb4  1  0.48264600  0.95517100  0.40053500  1
  Rb  Rb5  1  0.52747500  0.48264600  0.90053500  1
  Rb  Rb6  1  0.04482900  0.52747500  0.40053500  1
  Rb  Rb7  1  0.51735400  0.04482900  0.90053500  1
  Mn  Mn8  1  0.83503600  0.16424600  0.20358000  1
  Mn  Mn9  1  0.83575400  0.67079000  0.20358000  1
  Mn  Mn10  1  0.67079000  0.83503600  0.70358000  1
  Mn  Mn11  1  0.16424600  0.32921000  0.70358000  1
  Mn  Mn12  1  0.66666700  0.33333300  0.56793300  1
  Mn  Mn13  1  0.32921000  0.16496400  0.20358000  1
  Mn  Mn14  1  0.33333300  0.66666700  0.06793300  1
  Mn  Mn15  1  0.16496400  0.83575400  0.70358000  1
  V  V16  1  0.17266500  0.84018700  0.09524100  1
  V  V17  1  0.82733500  0.15981300  0.59524100  1
  V  V18  1  0.33247800  0.17266500  0.59524100  1
  V  V19  1  0.66752200  0.82733500  0.09524100  1
  V  V20  1  0.66666700  0.33333300  0.15955800  1
  V  V21  1  0.15981300  0.33247800  0.09524100  1
  V  V22  1  0.33333300  0.66666700  0.65955800  1
  V  V23  1  0.84018700  0.66752200  0.59524100  1
  O  O24  1  0.23215900  0.50398900  0.59188400  1
  O  O25  1  0.30741700  0.48405800  0.13394500  1
  O  O26  1  0.81879600  0.80606000  0.62194400  1
  O  O27  1  0.50398900  0.27183000  0.09188400  1
  O  O28  1  0.01273600  0.81879600  0.12194400  1
  O  O29  1  0.66718600  0.78102600  0.91506000  1
  O  O30  1  0.28920700  0.97108900  0.20422000  1
  O  O31  1  0.27183000  0.76784100  0.59188400  1
  O  O32  1  0.72817000  0.23215900  0.09188400  1
  O  O33  1  0.82335900  0.30741700  0.63394500  1
  O  O34  1  0.66666700  0.33333300  0.34667800  1
  O  O35  1  0.78102600  0.11383900  0.41506000  1
  O  O36  1  0.02891100  0.31811800  0.20422000  1
  O  O37  1  0.33333300  0.66666700  0.84667800  1
  O  O38  1  0.88616100  0.66718600  0.41506000  1
  O  O39  1  0.31811800  0.28920700  0.70422000  1
  O  O40  1  0.48405800  0.17664100  0.63394500  1
  O  O41  1  0.33281400  0.21897400  0.41506000  1
  O  O42  1  0.21897400  0.88616100  0.91506000  1
  O  O43  1  0.76784100  0.49601100  0.09188400  1
  O  O44  1  0.68188200  0.71079300  0.20422000  1
  O  O45  1  0.51594200  0.82335900  0.13394500  1
  O  O46  1  0.98726400  0.18120400  0.62194400  1
  O  O47  1  0.80606000  0.98726400  0.12194400  1
  O  O48  1  0.49601100  0.72817000  0.59188400  1
  O  O49  1  0.18120400  0.19394000  0.12194400  1
  O  O50  1  0.71079300  0.02891100  0.70422000  1
  O  O51  1  0.97108900  0.68188200  0.70422000  1
  O  O52  1  0.69258300  0.51594200  0.63394500  1
  O  O53  1  0.11383900  0.33281400  0.91506000  1
  O  O54  1  0.19394000  0.01273600  0.62194400  1
  O  O55  1  0.17664100  0.69258300  0.13394500  1
