# generated using pymatgen
data_PbWO4
_symmetry_space_group_name_H-M   'P 1'
_cell_length_a   5.10797500
_cell_length_b   5.68693200
_cell_length_c   13.95338658
_cell_angle_alpha   70.55496078
_cell_angle_beta   90.00000000
_cell_angle_gamma   90.00000000
_symmetry_Int_Tables_number   1
_chemical_formula_structural   PbWO4
_chemical_formula_sum   'Pb4 W4 O16'
_cell_volume   382.20844269
_cell_formula_units_Z   4
loop_
 _symmetry_equiv_pos_site_id
 _symmetry_equiv_pos_as_xyz
  1  'x, y, z'
loop_
 _atom_site_type_symbol
 _atom_site_label
 _atom_site_symmetry_multiplicity
 _atom_site_fract_x
 _atom_site_fract_y
 _atom_site_fract_z
 _atom_site_occupancy
  Pb  Pb0  1  0.70687700  0.17350600  0.34572500  1
  Pb  Pb1  1  0.20687700  0.82649400  0.15427500  1
  Pb  Pb2  1  0.29312300  0.82649400  0.65427500  1
  Pb  Pb3  1  0.79312300  0.17350600  0.84572500  1
  W  W4  1  0.25005400  0.60596200  0.42500200  1
  W  W5  1  0.75005400  0.39403800  0.07499800  1
  W  W6  1  0.74994600  0.39403800  0.57499800  1
  W  W7  1  0.24994600  0.60596200  0.92500200  1
  O  O8  1  0.55007300  0.72871500  0.47759500  1
  O  O9  1  0.05007300  0.27128500  0.02240500  1
  O  O10  1  0.44992700  0.27128500  0.52240500  1
  O  O11  1  0.94992700  0.72871500  0.97759500  1
  O  O12  1  0.93920800  0.38928600  0.44109900  1
  O  O13  1  0.43920800  0.61071400  0.05890100  1
  O  O14  1  0.06079200  0.61071400  0.55890100  1
  O  O15  1  0.56079200  0.38928600  0.94109900  1
  O  O16  1  0.11841100  0.90739300  0.34808100  1
  O  O17  1  0.61841100  0.09260700  0.15191900  1
  O  O18  1  0.88158900  0.09260700  0.65191900  1
  O  O19  1  0.38158900  0.90739300  0.84808100  1
  O  O20  1  0.38620300  0.52949100  0.31586300  1
  O  O21  1  0.88620300  0.47050900  0.18413700  1
  O  O22  1  0.61379700  0.47050900  0.68413700  1
  O  O23  1  0.11379700  0.52949100  0.81586300  1
