# generated using pymatgen
data_Sr2B2O5
_symmetry_space_group_name_H-M   'P 1'
_cell_length_a   5.39232900
_cell_length_b   7.83006100
_cell_length_c   12.05489165
_cell_angle_alpha   87.97507774
_cell_angle_beta   90.00000000
_cell_angle_gamma   90.00000000
_symmetry_Int_Tables_number   1
_chemical_formula_structural   Sr2B2O5
_chemical_formula_sum   'Sr8 B8 O20'
_cell_volume   508.66699538
_cell_formula_units_Z   4
loop_
 _symmetry_equiv_pos_site_id
 _symmetry_equiv_pos_as_xyz
  1  'x, y, z'
loop_
 _atom_site_type_symbol
 _atom_site_label
 _atom_site_symmetry_multiplicity
 _atom_site_fract_x
 _atom_site_fract_y
 _atom_site_fract_z
 _atom_site_occupancy
  Sr  Sr0  1  0.94669500  0.11720800  0.13303100  1
  Sr  Sr1  1  0.44669500  0.88279200  0.36696900  1
  Sr  Sr2  1  0.05330500  0.88279200  0.86696900  1
  Sr  Sr3  1  0.55330500  0.11720800  0.63303100  1
  Sr  Sr4  1  0.90903400  0.62254700  0.16063400  1
  Sr  Sr5  1  0.40903400  0.37745300  0.33936600  1
  Sr  Sr6  1  0.09096600  0.37745300  0.83936600  1
  Sr  Sr7  1  0.59096600  0.62254700  0.66063400  1
  B  B8  1  0.45048900  0.83698900  0.08433500  1
  B  B9  1  0.95048900  0.16301100  0.41566500  1
  B  B10  1  0.54951100  0.16301100  0.91566500  1
  B  B11  1  0.04951100  0.83698900  0.58433500  1
  B  B12  1  0.57159700  0.66020500  0.90430100  1
  B  B13  1  0.07159700  0.33979500  0.59569900  1
  B  B14  1  0.42840300  0.33979500  0.09569900  1
  B  B15  1  0.92840300  0.66020500  0.40430100  1
  O  O16  1  0.85066700  0.35542200  0.64906300  1
  O  O17  1  0.35066700  0.64457800  0.85093700  1
  O  O18  1  0.14933300  0.64457800  0.35093700  1
  O  O19  1  0.64933300  0.35542200  0.14906300  1
  O  O20  1  0.79049200  0.61033100  0.85761200  1
  O  O21  1  0.29049200  0.38966900  0.64238800  1
  O  O22  1  0.20950800  0.38966900  0.14238800  1
  O  O23  1  0.70950800  0.61033100  0.35761200  1
  O  O24  1  0.90924100  0.89867900  0.66895900  1
  O  O25  1  0.40924100  0.10132100  0.83104100  1
  O  O26  1  0.09075900  0.10132100  0.33104100  1
  O  O27  1  0.59075900  0.89867900  0.16895900  1
  O  O28  1  0.30048600  0.85337000  0.57137900  1
  O  O29  1  0.80048600  0.14663000  0.92862100  1
  O  O30  1  0.69951400  0.14663000  0.42862100  1
  O  O31  1  0.19951400  0.85337000  0.07137900  1
  O  O32  1  0.90001300  0.74201000  0.50774300  1
  O  O33  1  0.40001300  0.25799000  0.99225700  1
  O  O34  1  0.09998700  0.25799000  0.49225700  1
  O  O35  1  0.59998700  0.74201000  0.00774300  1
