# generated using pymatgen
data_LiInO2
_symmetry_space_group_name_H-M   'P 1'
_cell_length_a   5.66804624
_cell_length_b   5.66804624
_cell_length_c   5.66804624
_cell_angle_alpha   134.49749232
_cell_angle_beta   134.49749232
_cell_angle_gamma   66.31199366
_symmetry_Int_Tables_number   1
_chemical_formula_structural   LiInO2
_chemical_formula_sum   'Li2 In2 O4'
_cell_volume   91.20101395
_cell_formula_units_Z   2
loop_
 _symmetry_equiv_pos_site_id
 _symmetry_equiv_pos_as_xyz
  1  'x, y, z'
loop_
 _atom_site_type_symbol
 _atom_site_label
 _atom_site_symmetry_multiplicity
 _atom_site_fract_x
 _atom_site_fract_y
 _atom_site_fract_z
 _atom_site_occupancy
  Li  Li0  1  0.00000000  0.00000000  0.00000000  1
  Li  Li1  1  0.75000000  0.25000000  0.50000000  1
  In  In2  1  0.25000000  0.75000000  0.50000000  1
  In  In3  1  0.50000000  0.50000000  0.00000000  1
  O  O4  1  0.26769800  0.26769800  0.00000000  1
  O  O5  1  0.01769800  0.51769800  0.50000000  1
  O  O6  1  0.73230200  0.73230200  0.00000000  1
  O  O7  1  0.48230200  0.98230200  0.50000000  1
