# generated using pymatgen
data_Th2Ga
_symmetry_space_group_name_H-M   'P 1'
_cell_length_a   6.08288323
_cell_length_b   6.08288323
_cell_length_c   6.08288323
_cell_angle_alpha   103.56423119
_cell_angle_beta   103.56423119
_cell_angle_gamma   122.06827379
_symmetry_Int_Tables_number   1
_chemical_formula_structural   Th2Ga
_chemical_formula_sum   'Th4 Ga2'
_cell_volume   166.87362780
_cell_formula_units_Z   2
loop_
 _symmetry_equiv_pos_site_id
 _symmetry_equiv_pos_as_xyz
  1  'x, y, z'
loop_
 _atom_site_type_symbol
 _atom_site_label
 _atom_site_symmetry_multiplicity
 _atom_site_fract_x
 _atom_site_fract_y
 _atom_site_fract_z
 _atom_site_occupancy
  Th  Th0  1  0.65850300  0.15850300  0.81700600  1
  Th  Th1  1  0.34149700  0.84149700  0.18299400  1
  Th  Th2  1  0.84149700  0.65850300  0.50000000  1
  Th  Th3  1  0.15850300  0.34149700  0.50000000  1
  Ga  Ga4  1  0.75000000  0.75000000  0.00000000  1
  Ga  Ga5  1  0.25000000  0.25000000  0.00000000  1
