# generated using pymatgen
data_Sr(CuSb)2
_symmetry_space_group_name_H-M   'P 1'
_cell_length_a   4.55388500
_cell_length_b   4.55388500
_cell_length_c   10.97088200
_cell_angle_alpha   90.00000000
_cell_angle_beta   90.00000000
_cell_angle_gamma   90.00000000
_symmetry_Int_Tables_number   1
_chemical_formula_structural   Sr(CuSb)2
_chemical_formula_sum   'Sr2 Cu4 Sb4'
_cell_volume   227.51270927
_cell_formula_units_Z   2
loop_
 _symmetry_equiv_pos_site_id
 _symmetry_equiv_pos_as_xyz
  1  'x, y, z'
loop_
 _atom_site_type_symbol
 _atom_site_label
 _atom_site_symmetry_multiplicity
 _atom_site_fract_x
 _atom_site_fract_y
 _atom_site_fract_z
 _atom_site_occupancy
  Sr  Sr0  1  0.50000000  0.00000000  0.23708500  1
  Sr  Sr1  1  0.00000000  0.50000000  0.76291500  1
  Cu  Cu2  1  0.50000000  0.00000000  0.63614100  1
  Cu  Cu3  1  0.00000000  0.00000000  0.00000000  1
  Cu  Cu4  1  0.00000000  0.50000000  0.36385900  1
  Cu  Cu5  1  0.50000000  0.50000000  0.00000000  1
  Sb  Sb6  1  0.00000000  0.50000000  0.12982700  1
  Sb  Sb7  1  0.50000000  0.50000000  0.50000000  1
  Sb  Sb8  1  0.00000000  0.00000000  0.50000000  1
  Sb  Sb9  1  0.50000000  0.00000000  0.87017300  1
