# generated using pymatgen
data_Ce2Br3N
_symmetry_space_group_name_H-M   'P 1'
_cell_length_a   12.05535973
_cell_length_b   12.05535973
_cell_length_c   12.05535973
_cell_angle_alpha   104.42908549
_cell_angle_beta   104.42908549
_cell_angle_gamma   120.10835641
_symmetry_Int_Tables_number   1
_chemical_formula_structural   Ce2Br3N
_chemical_formula_sum   'Ce16 Br24 N8'
_cell_volume   1313.29833745
_cell_formula_units_Z   8
loop_
 _symmetry_equiv_pos_site_id
 _symmetry_equiv_pos_as_xyz
  1  'x, y, z'
loop_
 _atom_site_type_symbol
 _atom_site_label
 _atom_site_symmetry_multiplicity
 _atom_site_fract_x
 _atom_site_fract_y
 _atom_site_fract_z
 _atom_site_occupancy
  Ce  Ce0  1  0.24890500  0.15386000  0.64685100  1
  Ce  Ce1  1  0.99256200  0.98387800  0.32896200  1
  Ce  Ce2  1  0.65491600  0.66360100  0.67103800  1
  Ce  Ce3  1  0.00109500  0.59614000  0.85314900  1
  Ce  Ce4  1  0.01612200  0.34508400  0.00868500  1
  Ce  Ce5  1  0.40386000  0.25700900  0.40495500  1
  Ce  Ce6  1  0.50700900  0.60205400  0.35314900  1
  Ce  Ce7  1  0.39794600  0.75109500  0.90495500  1
  Ce  Ce8  1  0.85205400  0.99890500  0.59504500  1
  Ce  Ce9  1  0.59508400  0.08639900  0.82896200  1
  Ce  Ce10  1  0.23387800  0.40491600  0.49131500  1
  Ce  Ce11  1  0.74299100  0.14794600  0.14685100  1
  Ce  Ce12  1  0.91360100  0.74256200  0.50868500  1
  Ce  Ce13  1  0.33639900  0.00743800  0.99131500  1
  Ce  Ce14  1  0.84614000  0.49299100  0.09504500  1
  Ce  Ce15  1  0.25743800  0.76612200  0.17103800  1
  Br  Br16  1  0.85718400  0.44298700  0.32951100  1
  Br  Br17  1  0.11347600  0.52767300  0.67048900  1
  Br  Br18  1  0.83570800  0.26176100  0.73478100  1
  Br  Br19  1  0.00321500  0.84471300  0.80905400  1
  Br  Br20  1  0.55701300  0.88652400  0.41419800  1
  Br  Br21  1  0.03565900  0.19416100  0.19094600  1
  Br  Br22  1  0.52698000  0.10092700  0.26521900  1
  Br  Br23  1  0.15528700  0.96434100  0.15850200  1
  Br  Br24  1  0.80583900  0.99678500  0.84149800  1
  Br  Br25  1  0.24678500  0.90528700  0.69094600  1
  Br  Br26  1  0.73823900  0.47302000  0.57394700  1
  Br  Br27  1  0.39281600  0.30701300  0.17048900  1
  Br  Br28  1  0.13652400  0.22232700  0.82951100  1
  Br  Br29  1  0.51176100  0.27698000  0.92605300  1
  Br  Br30  1  0.47232700  0.14281600  0.58580200  1
  Br  Br31  1  0.69298700  0.86347600  0.08580200  1
  Br  Br32  1  0.41429200  0.48823900  0.76521900  1
  Br  Br33  1  0.77767300  0.60718400  0.91419800  1
  Br  Br34  1  0.21434100  0.55583900  0.30905400  1
  Br  Br35  1  0.35092700  0.58570800  0.07394700  1
  Br  Br36  1  0.09471300  0.78565900  0.34149800  1
  Br  Br37  1  0.89907300  0.16429200  0.42605300  1
  Br  Br38  1  0.72302000  0.64907300  0.23478100  1
  Br  Br39  1  0.44416100  0.75321500  0.65850200  1
  N  N40  1  0.44544600  0.48001500  0.47702400  1
  N  N41  1  0.51998500  0.99700900  0.96543100  1
  N  N42  1  0.21842100  0.19544600  0.46543100  1
  N  N43  1  0.73001500  0.75299100  0.53456900  1
  N  N44  1  0.00299100  0.96842100  0.52297600  1
  N  N45  1  0.80455400  0.26998500  0.02297600  1
  N  N46  1  0.24700900  0.78157900  0.97702400  1
  N  N47  1  0.03157900  0.55455400  0.03456900  1
