# generated using pymatgen
data_NaTaN2
_symmetry_space_group_name_H-M   'P 1'
_cell_length_a   5.98720875
_cell_length_b   5.98720875
_cell_length_c   5.98720873
_cell_angle_alpha   30.38489465
_cell_angle_beta   30.38489465
_cell_angle_gamma   30.38490034
_symmetry_Int_Tables_number   1
_chemical_formula_structural   NaTaN2
_chemical_formula_sum   'Na1 Ta1 N2'
_cell_volume   48.66513509
_cell_formula_units_Z   1
loop_
 _symmetry_equiv_pos_site_id
 _symmetry_equiv_pos_as_xyz
  1  'x, y, z'
loop_
 _atom_site_type_symbol
 _atom_site_label
 _atom_site_symmetry_multiplicity
 _atom_site_fract_x
 _atom_site_fract_y
 _atom_site_fract_z
 _atom_site_occupancy
  Na  Na0  1  0.50000000  0.50000000  0.50000000  1
  Ta  Ta1  1  0.00000000  0.00000000  0.00000000  1
  N  N2  1  0.73084100  0.73084100  0.73084100  1
  N  N3  1  0.26915900  0.26915900  0.26915900  1
