# generated using pymatgen
data_Co5Te4Cl4O11
_symmetry_space_group_name_H-M   'P 1'
_cell_length_a   8.51699700
_cell_length_b   10.35157113
_cell_length_c   10.42077648
_cell_angle_alpha   110.52693637
_cell_angle_beta   97.87379560
_cell_angle_gamma   97.23879852
_symmetry_Int_Tables_number   1
_chemical_formula_structural   Co5Te4Cl4O11
_chemical_formula_sum   'Co10 Te8 Cl8 O22'
_cell_volume   837.16201642
_cell_formula_units_Z   2
loop_
 _symmetry_equiv_pos_site_id
 _symmetry_equiv_pos_as_xyz
  1  'x, y, z'
loop_
 _atom_site_type_symbol
 _atom_site_label
 _atom_site_symmetry_multiplicity
 _atom_site_fract_x
 _atom_site_fract_y
 _atom_site_fract_z
 _atom_site_occupancy
  Co  Co0  1  0.39449400  0.70099500  0.99925900  1
  Co  Co1  1  0.60550600  0.29900500  0.00074100  1
  Co  Co2  1  0.63624800  0.07789000  0.18589500  1
  Co  Co3  1  0.59946300  0.45145000  0.76035900  1
  Co  Co4  1  0.36375200  0.92211000  0.81410500  1
  Co  Co5  1  0.41474100  0.11912900  0.59880900  1
  Co  Co6  1  0.40053700  0.54855000  0.23964100  1
  Co  Co7  1  0.59204900  0.65682400  0.56967900  1
  Co  Co8  1  0.58525900  0.88087100  0.40119100  1
  Co  Co9  1  0.40795100  0.34317600  0.43032100  1
  Te  Te10  1  0.77645100  0.21015500  0.54242100  1
  Te  Te11  1  0.71663500  0.00312500  0.78445900  1
  Te  Te12  1  0.21450300  0.55846200  0.67070100  1
  Te  Te13  1  0.28336500  0.99687500  0.21554100  1
  Te  Te14  1  0.74050200  0.67664200  0.12094300  1
  Te  Te15  1  0.22354900  0.78984500  0.45757900  1
  Te  Te16  1  0.78549700  0.44153800  0.32929900  1
  Te  Te17  1  0.25949800  0.32335800  0.87905700  1
  Cl  Cl18  1  0.81901400  0.34349500  0.87407200  1
  Cl  Cl19  1  0.80205400  0.59969100  0.70998200  1
  Cl  Cl20  1  0.81689700  0.95329000  0.06957000  1
  Cl  Cl21  1  0.19794600  0.40030900  0.29001800  1
  Cl  Cl22  1  0.18207900  0.20181500  0.51361800  1
  Cl  Cl23  1  0.18098600  0.65650500  0.12592800  1
  Cl  Cl24  1  0.18310300  0.04671000  0.93043000  1
  Cl  Cl25  1  0.81792100  0.79818500  0.48638200  1
  O  O26  1  0.15610400  0.66585400  0.55102900  1
  O  O27  1  0.44429700  0.27999500  0.79673300  1
  O  O28  1  0.41929100  0.51528000  0.61738700  1
  O  O29  1  0.40253900  0.39308600  0.05532200  1
  O  O30  1  0.36621100  0.95437900  0.38020700  1
  O  O31  1  0.59746100  0.60691400  0.94467800  1
  O  O32  1  0.72854700  0.50173800  0.14722700  1
  O  O33  1  0.55570300  0.72000500  0.20326700  1
  O  O34  1  0.29902100  0.94761000  0.62806200  1
  O  O35  1  0.57304800  0.83027300  0.72346000  1
  O  O36  1  0.27145300  0.49826200  0.85277300  1
  O  O37  1  0.69953300  0.26805400  0.17660500  1
  O  O38  1  0.30046700  0.73194600  0.82339500  1
  O  O39  1  0.63378900  0.04562100  0.61979300  1
  O  O40  1  0.70097900  0.05239000  0.37193800  1
  O  O41  1  0.42394900  0.71964400  0.43024000  1
  O  O42  1  0.84389600  0.33414600  0.44897100  1
  O  O43  1  0.58070900  0.48472000  0.38261300  1
  O  O44  1  0.42695200  0.16972700  0.27654000  1
  O  O45  1  0.43294700  0.91797400  0.10336800  1
  O  O46  1  0.56705300  0.08202600  0.89663200  1
  O  O47  1  0.57605100  0.28035600  0.56976000  1
