# generated using pymatgen
data_KPuCO5
_symmetry_space_group_name_H-M   'P 1'
_cell_length_a   5.13292573
_cell_length_b   5.13292573
_cell_length_c   10.56303200
_cell_angle_alpha   90.00000000
_cell_angle_beta   90.00000000
_cell_angle_gamma   119.99999652
_symmetry_Int_Tables_number   1
_chemical_formula_structural   KPuCO5
_chemical_formula_sum   'K2 Pu2 C2 O10'
_cell_volume   241.01784727
_cell_formula_units_Z   2
loop_
 _symmetry_equiv_pos_site_id
 _symmetry_equiv_pos_as_xyz
  1  'x, y, z'
loop_
 _atom_site_type_symbol
 _atom_site_label
 _atom_site_symmetry_multiplicity
 _atom_site_fract_x
 _atom_site_fract_y
 _atom_site_fract_z
 _atom_site_occupancy
  K  K0  1  0.00000000  0.00000000  0.00000000  1
  K  K1  1  0.00000000  0.00000000  0.50000000  1
  Pu  Pu2  1  0.33333300  0.66666700  0.25000000  1
  Pu  Pu3  1  0.66666700  0.33333300  0.75000000  1
  C  C4  1  0.66666700  0.33333300  0.25000000  1
  C  C5  1  0.33333300  0.66666700  0.75000000  1
  O  O6  1  0.33333300  0.66666700  0.42301700  1
  O  O7  1  0.62471600  0.81235800  0.75000000  1
  O  O8  1  0.37528400  0.18764200  0.25000000  1
  O  O9  1  0.18764200  0.37528400  0.75000000  1
  O  O10  1  0.33333300  0.66666700  0.07698300  1
  O  O11  1  0.66666700  0.33333300  0.92301700  1
  O  O12  1  0.81235800  0.62471600  0.25000000  1
  O  O13  1  0.18764200  0.81235800  0.75000000  1
  O  O14  1  0.66666700  0.33333300  0.57698300  1
  O  O15  1  0.81235800  0.18764200  0.25000000  1
