# generated using pymatgen
data_Ba2Ca(BO3)2
_symmetry_space_group_name_H-M   'P 1'
_cell_length_a   5.60703095
_cell_length_b   5.60703095
_cell_length_c   6.76427066
_cell_angle_alpha   64.57897369
_cell_angle_beta   64.57897369
_cell_angle_gamma   58.65419982
_symmetry_Int_Tables_number   1
_chemical_formula_structural   Ba2Ca(BO3)2
_chemical_formula_sum   'Ba2 Ca1 B2 O6'
_cell_volume   158.08064337
_cell_formula_units_Z   1
loop_
 _symmetry_equiv_pos_site_id
 _symmetry_equiv_pos_as_xyz
  1  'x, y, z'
loop_
 _atom_site_type_symbol
 _atom_site_label
 _atom_site_symmetry_multiplicity
 _atom_site_fract_x
 _atom_site_fract_y
 _atom_site_fract_z
 _atom_site_occupancy
  Ba  Ba0  1  0.21135900  0.21135900  0.31540900  1
  Ba  Ba1  1  0.78864100  0.78864100  0.68459100  1
  Ca  Ca2  1  0.00000000  0.00000000  0.00000000  1
  B  B3  1  0.56300900  0.56300900  0.24379500  1
  B  B4  1  0.43699100  0.43699100  0.75620500  1
  O  O5  1  0.72246100  0.72246100  0.17606400  1
  O  O6  1  0.73689900  0.29781100  0.72798200  1
  O  O7  1  0.70218900  0.26310100  0.27201800  1
  O  O8  1  0.27753900  0.27753900  0.82393600  1
  O  O9  1  0.29781100  0.73689900  0.72798200  1
  O  O10  1  0.26310100  0.70218900  0.27201800  1
