# generated using pymatgen
data_NaNd4I7N2
_symmetry_space_group_name_H-M   'P 1'
_cell_length_a   11.20904400
_cell_length_b   12.11781000
_cell_length_c   14.48376500
_cell_angle_alpha   90.00000000
_cell_angle_beta   90.00000000
_cell_angle_gamma   90.00000000
_symmetry_Int_Tables_number   1
_chemical_formula_structural   NaNd4I7N2
_chemical_formula_sum   'Na4 Nd16 I28 N8'
_cell_volume   1967.31626449
_cell_formula_units_Z   4
loop_
 _symmetry_equiv_pos_site_id
 _symmetry_equiv_pos_as_xyz
  1  'x, y, z'
loop_
 _atom_site_type_symbol
 _atom_site_label
 _atom_site_symmetry_multiplicity
 _atom_site_fract_x
 _atom_site_fract_y
 _atom_site_fract_z
 _atom_site_occupancy
  Na  Na0  1  0.04875500  0.25409900  0.90288400  1
  Na  Na1  1  0.54875500  0.75409900  0.59711600  1
  Na  Na2  1  0.45124500  0.25409900  0.40288400  1
  Na  Na3  1  0.95124500  0.75409900  0.09711600  1
  Nd  Nd4  1  0.91699900  0.32534000  0.40000100  1
  Nd  Nd5  1  0.12197500  0.31839300  0.58406300  1
  Nd  Nd6  1  0.39834800  0.06236800  0.91326800  1
  Nd  Nd7  1  0.12312400  0.58389200  0.41829000  1
  Nd  Nd8  1  0.37802500  0.31839300  0.08406300  1
  Nd  Nd9  1  0.62312400  0.08389200  0.08171000  1
  Nd  Nd10  1  0.37687600  0.58389200  0.91829000  1
  Nd  Nd11  1  0.62197500  0.81839300  0.91593700  1
  Nd  Nd12  1  0.87802500  0.81839300  0.41593700  1
  Nd  Nd13  1  0.41699900  0.82534000  0.09999900  1
  Nd  Nd14  1  0.08300100  0.82534000  0.59999900  1
  Nd  Nd15  1  0.10165200  0.06236800  0.41326800  1
  Nd  Nd16  1  0.87687600  0.08389200  0.58171000  1
  Nd  Nd17  1  0.58300100  0.32534000  0.90000100  1
  Nd  Nd18  1  0.60165200  0.56236800  0.08673200  1
  Nd  Nd19  1  0.89834800  0.56236800  0.58673200  1
  I  I20  1  0.18711300  0.29491800  0.29525300  1
  I  I21  1  0.65291400  0.96061600  0.48578500  1
  I  I22  1  0.43572500  0.03796700  0.24548700  1
  I  I23  1  0.69021700  0.29137900  0.52254200  1
  I  I24  1  0.80978300  0.29137900  0.02254200  1
  I  I25  1  0.93572500  0.53796700  0.25451300  1
  I  I26  1  0.19021700  0.79137900  0.97745800  1
  I  I27  1  0.15291400  0.46061600  0.01421500  1
  I  I28  1  0.36848300  0.59877000  0.22391600  1
  I  I29  1  0.84708600  0.96061600  0.98578500  1
  I  I30  1  0.86848300  0.09877000  0.27608400  1
  I  I31  1  0.09220100  0.83724900  0.26966800  1
  I  I32  1  0.13151700  0.59877000  0.72391600  1
  I  I33  1  0.34708600  0.46061600  0.51421500  1
  I  I34  1  0.31642500  0.11548800  0.54689200  1
  I  I35  1  0.81288700  0.79491800  0.70474700  1
  I  I36  1  0.63151700  0.09877000  0.77608400  1
  I  I37  1  0.18357500  0.11548800  0.04689200  1
  I  I38  1  0.59220100  0.33724900  0.23033200  1
  I  I39  1  0.31288700  0.29491800  0.79525300  1
  I  I40  1  0.40779900  0.83724900  0.76966800  1
  I  I41  1  0.68357500  0.61548800  0.45310800  1
  I  I42  1  0.68711300  0.79491800  0.20474700  1
  I  I43  1  0.06427500  0.03796700  0.74548700  1
  I  I44  1  0.81642500  0.61548800  0.95310800  1
  I  I45  1  0.30978300  0.79137900  0.47745800  1
  I  I46  1  0.90779900  0.33724900  0.73033200  1
  I  I47  1  0.56427500  0.53796700  0.75451300  1
  N  N48  1  0.99524100  0.69711000  0.50277000  1
  N  N49  1  0.51566800  0.94782100  0.00299500  1
  N  N50  1  0.48433200  0.44782100  0.99700500  1
  N  N51  1  0.50475900  0.69711000  0.00277000  1
  N  N52  1  0.01566800  0.44782100  0.49700500  1
  N  N53  1  0.98433200  0.94782100  0.50299500  1
  N  N54  1  0.00475900  0.19711000  0.49723000  1
  N  N55  1  0.49524100  0.19711000  0.99723000  1
