# generated using pymatgen
data_La3SiPd5
_symmetry_space_group_name_H-M   'P 1'
_cell_length_a   8.54081696
_cell_length_b   8.54081696
_cell_length_c   8.54081696
_cell_angle_alpha   127.51362406
_cell_angle_beta   126.35937432
_cell_angle_gamma   78.35787411
_symmetry_Int_Tables_number   1
_chemical_formula_structural   La3SiPd5
_chemical_formula_sum   'La6 Si2 Pd10'
_cell_volume   385.41035544
_cell_formula_units_Z   2
loop_
 _symmetry_equiv_pos_site_id
 _symmetry_equiv_pos_as_xyz
  1  'x, y, z'
loop_
 _atom_site_type_symbol
 _atom_site_label
 _atom_site_symmetry_multiplicity
 _atom_site_fract_x
 _atom_site_fract_y
 _atom_site_fract_z
 _atom_site_occupancy
  La  La0  1  0.81885500  0.04883700  0.77001800  1
  La  La1  1  0.22118000  0.45116300  0.77001800  1
  La  La2  1  0.18114500  0.95116300  0.22998200  1
  La  La3  1  0.38600700  0.25000000  0.13600700  1
  La  La4  1  0.77882000  0.54883700  0.22998200  1
  La  La5  1  0.61399300  0.75000000  0.86399300  1
  Si  Si6  1  0.21018700  0.75000000  0.46018700  1
  Si  Si7  1  0.78981300  0.25000000  0.53981300  1
  Pd  Pd8  1  0.82843100  0.58926500  0.63531700  1
  Pd  Pd9  1  0.54605200  0.30688600  0.63531700  1
  Pd  Pd10  1  0.45394800  0.08926500  0.76083400  1
  Pd  Pd11  1  0.82843100  0.19311400  0.23916600  1
  Pd  Pd12  1  0.17156900  0.41073500  0.36468300  1
  Pd  Pd13  1  0.45394800  0.69311400  0.36468300  1
  Pd  Pd14  1  0.54605200  0.91073500  0.23916600  1
  Pd  Pd15  1  0.17156900  0.80688600  0.76083400  1
  Pd  Pd16  1  0.00000000  0.00000000  0.50000000  1
  Pd  Pd17  1  0.00000000  0.50000000  0.00000000  1
