# generated using pymatgen
data_Ba2BN2Cl
_symmetry_space_group_name_H-M   'P 1'
_cell_length_a   12.88779515
_cell_length_b   12.88779515
_cell_length_c   12.88779515
_cell_angle_alpha   109.47122063
_cell_angle_beta   109.47122063
_cell_angle_gamma   109.47122063
_symmetry_Int_Tables_number   1
_chemical_formula_structural   Ba2BN2Cl
_chemical_formula_sum   'Ba24 B12 N24 Cl12'
_cell_volume   1647.83598496
_cell_formula_units_Z   12
loop_
 _symmetry_equiv_pos_site_id
 _symmetry_equiv_pos_as_xyz
  1  'x, y, z'
loop_
 _atom_site_type_symbol
 _atom_site_label
 _atom_site_symmetry_multiplicity
 _atom_site_fract_x
 _atom_site_fract_y
 _atom_site_fract_z
 _atom_site_occupancy
  Ba  Ba0  1  0.84088000  0.09088000  0.75000000  1
  Ba  Ba1  1  0.50000000  0.00000000  0.43742700  1
  Ba  Ba2  1  0.40912000  0.65912000  0.75000000  1
  Ba  Ba3  1  0.75000000  0.40912000  0.65912000  1
  Ba  Ba4  1  0.43742700  0.50000000  0.00000000  1
  Ba  Ba5  1  0.43742700  0.43742700  0.43742700  1
  Ba  Ba6  1  0.09088000  0.84088000  0.25000000  1
  Ba  Ba7  1  0.65912000  0.40912000  0.25000000  1
  Ba  Ba8  1  0.65912000  0.75000000  0.40912000  1
  Ba  Ba9  1  0.00000000  0.43742700  0.50000000  1
  Ba  Ba10  1  0.09088000  0.75000000  0.84088000  1
  Ba  Ba11  1  0.84088000  0.25000000  0.09088000  1
  Ba  Ba12  1  0.50000000  0.00000000  0.06257300  1
  Ba  Ba13  1  0.75000000  0.50000000  0.00000000  1
  Ba  Ba14  1  0.25000000  0.65912000  0.40912000  1
  Ba  Ba15  1  0.06257300  0.06257300  0.06257300  1
  Ba  Ba16  1  0.75000000  0.84088000  0.09088000  1
  Ba  Ba17  1  0.00000000  0.06257300  0.50000000  1
  Ba  Ba18  1  0.25000000  0.09088000  0.84088000  1
  Ba  Ba19  1  0.40912000  0.25000000  0.65912000  1
  Ba  Ba20  1  0.06257300  0.50000000  0.00000000  1
  Ba  Ba21  1  0.50000000  0.00000000  0.75000000  1
  Ba  Ba22  1  0.00000000  0.75000000  0.50000000  1
  Ba  Ba23  1  0.75000000  0.75000000  0.75000000  1
  B  B24  1  0.53905700  0.25000000  0.96094300  1
  B  B25  1  0.78905700  0.57811400  0.53905700  1
  B  B26  1  0.25000000  0.78905700  0.71094300  1
  B  B27  1  0.25000000  0.96094300  0.53905700  1
  B  B28  1  0.57811400  0.53905700  0.78905700  1
  B  B29  1  0.96094300  0.92188600  0.71094300  1
  B  B30  1  0.71094300  0.96094300  0.92188600  1
  B  B31  1  0.53905700  0.78905700  0.57811400  1
  B  B32  1  0.71094300  0.25000000  0.78905700  1
  B  B33  1  0.78905700  0.71094300  0.25000000  1
  B  B34  1  0.92188600  0.71094300  0.96094300  1
  B  B35  1  0.96094300  0.53905700  0.25000000  1
  N  N36  1  0.60300300  0.19713200  0.67916300  1
  N  N37  1  0.82083700  0.30286800  0.89699700  1
  N  N38  1  0.19713200  0.67916300  0.60300300  1
  N  N39  1  0.89699700  0.57616000  0.59412900  1
  N  N40  1  0.60300300  0.90587100  0.92384000  1
  N  N41  1  0.30286800  0.90587100  0.48203100  1
  N  N42  1  0.90587100  0.92384000  0.60300300  1
  N  N43  1  0.30286800  0.89699700  0.82083700  1
  N  N44  1  0.57616000  0.59412900  0.89699700  1
  N  N45  1  0.59412900  0.19713200  0.01796900  1
  N  N46  1  0.67916300  0.57616000  0.48203100  1
  N  N47  1  0.59412900  0.89699700  0.57616000  1
  N  N48  1  0.01796900  0.92384000  0.82083700  1
  N  N49  1  0.92384000  0.60300300  0.90587100  1
  N  N50  1  0.82083700  0.01796900  0.92384000  1
  N  N51  1  0.89699700  0.82083700  0.30286800  1
  N  N52  1  0.48203100  0.67916300  0.57616000  1
  N  N53  1  0.90587100  0.48203100  0.30286800  1
  N  N54  1  0.19713200  0.01796900  0.59412900  1
  N  N55  1  0.57616000  0.48203100  0.67916300  1
  N  N56  1  0.01796900  0.59412900  0.19713200  1
  N  N57  1  0.67916300  0.60300300  0.19713200  1
  N  N58  1  0.48203100  0.30286800  0.90587100  1
  N  N59  1  0.92384000  0.82083700  0.01796900  1
  Cl  Cl60  1  0.60915200  0.89084800  0.25000000  1
  Cl  Cl61  1  0.89084800  0.14084800  0.28169700  1
  Cl  Cl62  1  0.60915200  0.21830300  0.35915200  1
  Cl  Cl63  1  0.21830300  0.35915200  0.60915200  1
  Cl  Cl64  1  0.14084800  0.35915200  0.25000000  1
  Cl  Cl65  1  0.35915200  0.25000000  0.14084800  1
  Cl  Cl66  1  0.35915200  0.60915200  0.21830300  1
  Cl  Cl67  1  0.25000000  0.14084800  0.35915200  1
  Cl  Cl68  1  0.89084800  0.25000000  0.60915200  1
  Cl  Cl69  1  0.25000000  0.60915200  0.89084800  1
  Cl  Cl70  1  0.14084800  0.28169700  0.89084800  1
  Cl  Cl71  1  0.28169700  0.89084800  0.14084800  1
