# generated using pymatgen
data_Cd2SnO4
_symmetry_space_group_name_H-M   'P 1'
_cell_length_a   3.24936900
_cell_length_b   5.66476900
_cell_length_c   10.12710300
_cell_angle_alpha   90.00000000
_cell_angle_beta   90.00000000
_cell_angle_gamma   90.00000000
_symmetry_Int_Tables_number   1
_chemical_formula_structural   Cd2SnO4
_chemical_formula_sum   'Cd4 Sn2 O8'
_cell_volume   186.40882317
_cell_formula_units_Z   2
loop_
 _symmetry_equiv_pos_site_id
 _symmetry_equiv_pos_as_xyz
  1  'x, y, z'
loop_
 _atom_site_type_symbol
 _atom_site_label
 _atom_site_symmetry_multiplicity
 _atom_site_fract_x
 _atom_site_fract_y
 _atom_site_fract_z
 _atom_site_occupancy
  Cd  Cd0  1  0.50000000  0.05965800  0.32379700  1
  Cd  Cd1  1  0.50000000  0.94034200  0.67620300  1
  Cd  Cd2  1  0.50000000  0.44034200  0.82379700  1
  Cd  Cd3  1  0.50000000  0.55965800  0.17620300  1
  Sn  Sn4  1  0.00000000  0.00000000  0.00000000  1
  Sn  Sn5  1  0.00000000  0.50000000  0.50000000  1
  O  O6  1  0.00000000  0.13427800  0.80834600  1
  O  O7  1  0.00000000  0.86572200  0.19165400  1
  O  O8  1  0.00000000  0.63427800  0.69165400  1
  O  O9  1  0.00000000  0.36572200  0.30834600  1
  O  O10  1  0.50000000  0.26466800  0.53897900  1
  O  O11  1  0.50000000  0.73533200  0.46102100  1
  O  O12  1  0.50000000  0.23533200  0.03897900  1
  O  O13  1  0.50000000  0.76466800  0.96102100  1
