# generated using pymatgen
data_ErFe3
_symmetry_space_group_name_H-M   'P 1'
_cell_length_a   8.56020302
_cell_length_b   8.56020252
_cell_length_c   8.56020200
_cell_angle_alpha   34.43099874
_cell_angle_beta   34.43100288
_cell_angle_gamma   34.43099881
_symmetry_Int_Tables_number   1
_chemical_formula_structural   ErFe3
_chemical_formula_sum   'Er3 Fe9'
_cell_volume   178.87866807
_cell_formula_units_Z   3
loop_
 _symmetry_equiv_pos_site_id
 _symmetry_equiv_pos_as_xyz
  1  'x, y, z'
loop_
 _atom_site_type_symbol
 _atom_site_label
 _atom_site_symmetry_multiplicity
 _atom_site_fract_x
 _atom_site_fract_y
 _atom_site_fract_z
 _atom_site_occupancy
  Er  Er0  1  0.14194300  0.14194300  0.14194300  1
  Er  Er1  1  0.00000000  0.00000000  0.00000000  1
  Er  Er2  1  0.85805700  0.85805700  0.85805700  1
  Fe  Fe3  1  0.41813200  0.41813200  0.91800400  1
  Fe  Fe4  1  0.91800400  0.41813200  0.41813200  1
  Fe  Fe5  1  0.58186800  0.08199600  0.58186800  1
  Fe  Fe6  1  0.58186800  0.58186800  0.08199600  1
  Fe  Fe7  1  0.41813200  0.91800400  0.41813200  1
  Fe  Fe8  1  0.08199600  0.58186800  0.58186800  1
  Fe  Fe9  1  0.33281000  0.33281000  0.33281000  1
  Fe  Fe10  1  0.66719000  0.66719000  0.66719000  1
  Fe  Fe11  1  0.50000000  0.50000000  0.50000000  1
