# generated using pymatgen
data_AgSbO3
_symmetry_space_group_name_H-M   'P 1'
_cell_length_a   6.49332757
_cell_length_b   6.49332757
_cell_length_c   6.49332823
_cell_angle_alpha   49.30892307
_cell_angle_beta   49.30892307
_cell_angle_gamma   49.30891842
_symmetry_Int_Tables_number   1
_chemical_formula_structural   AgSbO3
_chemical_formula_sum   'Ag2 Sb2 O6'
_cell_volume   144.62497058
_cell_formula_units_Z   2
loop_
 _symmetry_equiv_pos_site_id
 _symmetry_equiv_pos_as_xyz
  1  'x, y, z'
loop_
 _atom_site_type_symbol
 _atom_site_label
 _atom_site_symmetry_multiplicity
 _atom_site_fract_x
 _atom_site_fract_y
 _atom_site_fract_z
 _atom_site_occupancy
  Ag  Ag0  1  0.36156100  0.36156100  0.36156100  1
  Ag  Ag1  1  0.63843900  0.63843900  0.63843900  1
  Sb  Sb2  1  0.16289600  0.16289600  0.16289600  1
  Sb  Sb3  1  0.83710400  0.83710400  0.83710400  1
  O  O4  1  0.44056000  0.81487100  0.04459200  1
  O  O5  1  0.95540800  0.55944000  0.18512900  1
  O  O6  1  0.18512900  0.95540800  0.55944000  1
  O  O7  1  0.81487100  0.04459200  0.44056000  1
  O  O8  1  0.04459200  0.44056000  0.81487100  1
  O  O9  1  0.55944000  0.18512900  0.95540800  1
