# generated using pymatgen
data_NdSe2
_symmetry_space_group_name_H-M   'P 1'
_cell_length_a   4.20039900
_cell_length_b   8.44363300
_cell_length_c   8.55241621
_cell_angle_alpha   89.79787966
_cell_angle_beta   90.00000000
_cell_angle_gamma   90.00000000
_symmetry_Int_Tables_number   1
_chemical_formula_structural   NdSe2
_chemical_formula_sum   'Nd4 Se8'
_cell_volume   303.32347370
_cell_formula_units_Z   4
loop_
 _symmetry_equiv_pos_site_id
 _symmetry_equiv_pos_as_xyz
  1  'x, y, z'
loop_
 _atom_site_type_symbol
 _atom_site_label
 _atom_site_symmetry_multiplicity
 _atom_site_fract_x
 _atom_site_fract_y
 _atom_site_fract_z
 _atom_site_occupancy
  Nd  Nd0  1  0.27730400  0.62672000  0.72542200  1
  Nd  Nd1  1  0.72269600  0.37328000  0.27457800  1
  Nd  Nd2  1  0.22269600  0.12672000  0.72542200  1
  Nd  Nd3  1  0.77730400  0.87328000  0.27457800  1
  Se  Se4  1  0.18530400  0.38111500  0.00207600  1
  Se  Se5  1  0.75694900  0.87471900  0.63220900  1
  Se  Se6  1  0.24305100  0.12528100  0.36779100  1
  Se  Se7  1  0.25694900  0.62528100  0.36779100  1
  Se  Se8  1  0.68530400  0.11888500  0.99792400  1
  Se  Se9  1  0.74305100  0.37471900  0.63220900  1
  Se  Se10  1  0.81469600  0.61888500  0.99792400  1
  Se  Se11  1  0.31469600  0.88111500  0.00207600  1
