# generated using pymatgen
data_Ti(TlS)4
_symmetry_space_group_name_H-M   'P 1'
_cell_length_a   8.45291600
_cell_length_b   8.56161800
_cell_length_c   15.84343105
_cell_angle_alpha   74.32914294
_cell_angle_beta   90.00000000
_cell_angle_gamma   90.00000000
_symmetry_Int_Tables_number   1
_chemical_formula_structural   Ti(TlS)4
_chemical_formula_sum   'Ti4 Tl16 S16'
_cell_volume   1103.97926903
_cell_formula_units_Z   4
loop_
 _symmetry_equiv_pos_site_id
 _symmetry_equiv_pos_as_xyz
  1  'x, y, z'
loop_
 _atom_site_type_symbol
 _atom_site_label
 _atom_site_symmetry_multiplicity
 _atom_site_fract_x
 _atom_site_fract_y
 _atom_site_fract_z
 _atom_site_occupancy
  Ti  Ti0  1  0.88840500  0.20906400  0.62212200  1
  Ti  Ti1  1  0.38840500  0.79093600  0.87787800  1
  Ti  Ti2  1  0.11159500  0.79093600  0.37787800  1
  Ti  Ti3  1  0.61159500  0.20906400  0.12212200  1
  Tl  Tl4  1  0.72303500  0.61498200  0.35867600  1
  Tl  Tl5  1  0.22303500  0.38501800  0.14132400  1
  Tl  Tl6  1  0.27696500  0.38501800  0.64132400  1
  Tl  Tl7  1  0.77696500  0.61498200  0.85867600  1
  Tl  Tl8  1  0.90105300  0.17745900  0.37695700  1
  Tl  Tl9  1  0.40105300  0.82254100  0.12304300  1
  Tl  Tl10  1  0.09894700  0.82254100  0.62304300  1
  Tl  Tl11  1  0.59894700  0.17745900  0.87695700  1
  Tl  Tl12  1  0.31663400  0.41297800  0.39168200  1
  Tl  Tl13  1  0.81663400  0.58702200  0.10831800  1
  Tl  Tl14  1  0.68336600  0.58702200  0.60831800  1
  Tl  Tl15  1  0.18336600  0.41297800  0.89168200  1
  Tl  Tl16  1  0.49183600  0.02628400  0.36675500  1
  Tl  Tl17  1  0.99183600  0.97371600  0.13324500  1
  Tl  Tl18  1  0.50816400  0.97371600  0.63324500  1
  Tl  Tl19  1  0.00816400  0.02628400  0.86675500  1
  S  S20  1  0.10622600  0.18407600  0.54031100  1
  S  S21  1  0.60622600  0.81592400  0.95968900  1
  S  S22  1  0.89377400  0.81592400  0.45968900  1
  S  S23  1  0.39377400  0.18407600  0.04031100  1
  S  S24  1  0.67466100  0.29896800  0.53693600  1
  S  S25  1  0.17466100  0.70103200  0.96306400  1
  S  S26  1  0.32533900  0.70103200  0.46306400  1
  S  S27  1  0.82533900  0.29896800  0.03693600  1
  S  S28  1  0.94477900  0.38260900  0.70400200  1
  S  S29  1  0.44477900  0.61739100  0.79599800  1
  S  S30  1  0.05522100  0.61739100  0.29599800  1
  S  S31  1  0.55522100  0.38260900  0.20400200  1
  S  S32  1  0.83121900  0.95751000  0.71144100  1
  S  S33  1  0.33121900  0.04249000  0.78855900  1
  S  S34  1  0.16878100  0.04249000  0.28855900  1
  S  S35  1  0.66878100  0.95751000  0.21144100  1
