# generated using pymatgen
data_Ba21Al40
_symmetry_space_group_name_H-M   'P 1'
_cell_length_a   10.61866419
_cell_length_b   10.61866419
_cell_length_c   17.35057300
_cell_angle_alpha   90.00000000
_cell_angle_beta   90.00000000
_cell_angle_gamma   120.00000120
_symmetry_Int_Tables_number   1
_chemical_formula_structural   Ba21Al40
_chemical_formula_sum   'Ba21 Al40'
_cell_volume   1694.27624533
_cell_formula_units_Z   1
loop_
 _symmetry_equiv_pos_site_id
 _symmetry_equiv_pos_as_xyz
  1  'x, y, z'
loop_
 _atom_site_type_symbol
 _atom_site_label
 _atom_site_symmetry_multiplicity
 _atom_site_fract_x
 _atom_site_fract_y
 _atom_site_fract_z
 _atom_site_occupancy
  Ba  Ba0  1  0.00000000  0.33214000  0.39132200  1
  Ba  Ba1  1  0.66666700  0.33333300  0.32018300  1
  Ba  Ba2  1  0.67061700  0.00000000  0.67978700  1
  Ba  Ba3  1  0.32938300  0.32938300  0.67978700  1
  Ba  Ba4  1  0.00000000  0.00000000  0.10737400  1
  Ba  Ba5  1  0.00000000  0.32333600  0.60726700  1
  Ba  Ba6  1  0.32927200  0.00000000  0.00093100  1
  Ba  Ba7  1  0.00000000  0.67061700  0.67978700  1
  Ba  Ba8  1  0.66786000  0.66786000  0.39132200  1
  Ba  Ba9  1  0.32333600  0.00000000  0.60726700  1
  Ba  Ba10  1  0.33333300  0.66666700  0.10537800  1
  Ba  Ba11  1  0.00000000  0.66490500  0.89304600  1
  Ba  Ba12  1  0.67666400  0.67666400  0.60726700  1
  Ba  Ba13  1  0.33509500  0.33509500  0.89304600  1
  Ba  Ba14  1  0.66666700  0.33333300  0.10537800  1
  Ba  Ba15  1  0.33333300  0.66666700  0.32018300  1
  Ba  Ba16  1  0.00000000  0.32927200  0.00093100  1
  Ba  Ba17  1  0.33214000  0.00000000  0.39132200  1
  Ba  Ba18  1  0.67072800  0.67072800  0.00093100  1
  Ba  Ba19  1  0.66490500  0.00000000  0.89304600  1
  Ba  Ba20  1  0.00000000  0.00000000  0.32297800  1
  Al  Al21  1  0.33686800  0.52056700  0.50895200  1
  Al  Al22  1  0.15560100  0.33332100  0.21110000  1
  Al  Al23  1  0.49986800  0.16341700  0.78495600  1
  Al  Al24  1  0.82228000  0.66667900  0.21110000  1
  Al  Al25  1  0.48933700  0.00000000  0.21171600  1
  Al  Al26  1  0.00000000  0.00000000  0.53376800  1
  Al  Al27  1  0.33333300  0.66666700  0.90286800  1
  Al  Al28  1  0.17772000  0.84439900  0.21110000  1
  Al  Al29  1  0.19503800  0.00000000  0.79408500  1
  Al  Al30  1  0.00000000  0.66915500  0.33003600  1
  Al  Al31  1  0.33332100  0.15560100  0.21110000  1
  Al  Al32  1  0.24101800  0.24101800  0.47896900  1
  Al  Al33  1  0.80496200  0.80496200  0.79408500  1
  Al  Al34  1  0.66666700  0.33333300  0.90286800  1
  Al  Al35  1  0.00000000  0.75898200  0.47896900  1
  Al  Al36  1  0.51066300  0.51066300  0.21171600  1
  Al  Al37  1  0.81630100  0.47943300  0.50895200  1
  Al  Al38  1  0.50013200  0.66354900  0.78495600  1
  Al  Al39  1  0.00000000  0.48933700  0.21171600  1
  Al  Al40  1  0.84439900  0.17772000  0.21110000  1
  Al  Al41  1  0.00000000  0.66567200  0.09777900  1
  Al  Al42  1  0.33084500  0.33084500  0.33003600  1
  Al  Al43  1  0.33333300  0.66666700  0.65287200  1
  Al  Al44  1  0.00000000  0.19503800  0.79408500  1
  Al  Al45  1  0.66666700  0.33333300  0.65287200  1
  Al  Al46  1  0.16341700  0.49986800  0.78495600  1
  Al  Al47  1  0.47943300  0.81630100  0.50895200  1
  Al  Al48  1  0.18369900  0.66313200  0.50895200  1
  Al  Al49  1  0.66567200  0.00000000  0.09777900  1
  Al  Al50  1  0.33432800  0.33432800  0.09777900  1
  Al  Al51  1  0.83658300  0.33645100  0.78495600  1
  Al  Al52  1  0.66915500  0.00000000  0.33003600  1
  Al  Al53  1  0.52056700  0.33686800  0.50895200  1
  Al  Al54  1  0.66667900  0.82228000  0.21110000  1
  Al  Al55  1  0.75898200  0.00000000  0.47896900  1
  Al  Al56  1  0.66313200  0.18369900  0.50895200  1
  Al  Al57  1  0.33645100  0.83658300  0.78495600  1
  Al  Al58  1  0.00000000  0.00000000  0.89981600  1
  Al  Al59  1  0.66354900  0.50013200  0.78495600  1
  Al  Al60  1  0.00000000  0.00000000  0.69236500  1
