# generated using pymatgen
data_La3NbSe2(O2F)2
_symmetry_space_group_name_H-M   'P 1'
_cell_length_a   4.02929500
_cell_length_b   11.42458700
_cell_length_c   18.26168400
_cell_angle_alpha   90.00000000
_cell_angle_beta   90.00000000
_cell_angle_gamma   90.00000000
_symmetry_Int_Tables_number   1
_chemical_formula_structural   La3NbSe2(O2F)2
_chemical_formula_sum   'La12 Nb4 Se8 O16 F8'
_cell_volume   840.64067073
_cell_formula_units_Z   4
loop_
 _symmetry_equiv_pos_site_id
 _symmetry_equiv_pos_as_xyz
  1  'x, y, z'
loop_
 _atom_site_type_symbol
 _atom_site_label
 _atom_site_symmetry_multiplicity
 _atom_site_fract_x
 _atom_site_fract_y
 _atom_site_fract_z
 _atom_site_occupancy
  La  La0  1  0.75000000  0.70623600  0.53181000  1
  La  La1  1  0.75000000  0.49621600  0.10664400  1
  La  La2  1  0.25000000  0.79376400  0.03181000  1
  La  La3  1  0.25000000  0.06638300  0.19848000  1
  La  La4  1  0.75000000  0.43361700  0.69848000  1
  La  La5  1  0.75000000  0.99621600  0.39335600  1
  La  La6  1  0.25000000  0.29376400  0.46819000  1
  La  La7  1  0.25000000  0.50378400  0.89335600  1
  La  La8  1  0.75000000  0.93361700  0.80152000  1
  La  La9  1  0.25000000  0.56638300  0.30152000  1
  La  La10  1  0.75000000  0.20623600  0.96819000  1
  La  La11  1  0.25000000  0.00378400  0.60664400  1
  Nb  Nb12  1  0.25000000  0.69221800  0.69511700  1
  Nb  Nb13  1  0.75000000  0.30778200  0.30488300  1
  Nb  Nb14  1  0.25000000  0.19221800  0.80488300  1
  Nb  Nb15  1  0.75000000  0.80778200  0.19511700  1
  Se  Se16  1  0.25000000  0.78446700  0.40858000  1
  Se  Se17  1  0.75000000  0.99342400  0.07969600  1
  Se  Se18  1  0.75000000  0.49342400  0.42030400  1
  Se  Se19  1  0.75000000  0.21553300  0.59142000  1
  Se  Se20  1  0.75000000  0.71553300  0.90858000  1
  Se  Se21  1  0.25000000  0.50657600  0.57969600  1
  Se  Se22  1  0.25000000  0.28446700  0.09142000  1
  Se  Se23  1  0.25000000  0.00657600  0.92030400  1
  O  O24  1  0.25000000  0.83020800  0.17894200  1
  O  O25  1  0.75000000  0.94779000  0.25502300  1
  O  O26  1  0.25000000  0.05221000  0.74497700  1
  O  O27  1  0.25000000  0.33020800  0.32105800  1
  O  O28  1  0.75000000  0.18569000  0.23860100  1
  O  O29  1  0.25000000  0.81431000  0.76139900  1
  O  O30  1  0.75000000  0.21786800  0.40121300  1
  O  O31  1  0.75000000  0.71786800  0.09878700  1
  O  O32  1  0.25000000  0.31431000  0.73860100  1
  O  O33  1  0.25000000  0.28213200  0.90121300  1
  O  O34  1  0.75000000  0.68569000  0.26139900  1
  O  O35  1  0.75000000  0.16979200  0.82105800  1
  O  O36  1  0.75000000  0.44779000  0.24497700  1
  O  O37  1  0.25000000  0.78213200  0.59878700  1
  O  O38  1  0.75000000  0.66979200  0.67894200  1
  O  O39  1  0.25000000  0.55221000  0.75502300  1
  F  F40  1  0.75000000  0.43032100  0.97376800  1
  F  F41  1  0.25000000  0.56967900  0.02623200  1
  F  F42  1  0.25000000  0.06967900  0.47376800  1
  F  F43  1  0.75000000  0.93032100  0.52623200  1
  F  F44  1  0.25000000  0.06185400  0.33151500  1
  F  F45  1  0.75000000  0.43814600  0.83151500  1
  F  F46  1  0.75000000  0.93814600  0.66848500  1
  F  F47  1  0.25000000  0.56185400  0.16848500  1
