# generated using pymatgen
data_Nb3As
_symmetry_space_group_name_H-M   'P 1'
_cell_length_a   10.37562700
_cell_length_b   10.37562700
_cell_length_c   5.24186000
_cell_angle_alpha   90.00000000
_cell_angle_beta   90.00000000
_cell_angle_gamma   90.00000000
_symmetry_Int_Tables_number   1
_chemical_formula_structural   Nb3As
_chemical_formula_sum   'Nb24 As8'
_cell_volume   564.30528653
_cell_formula_units_Z   8
loop_
 _symmetry_equiv_pos_site_id
 _symmetry_equiv_pos_as_xyz
  1  'x, y, z'
loop_
 _atom_site_type_symbol
 _atom_site_label
 _atom_site_symmetry_multiplicity
 _atom_site_fract_x
 _atom_site_fract_y
 _atom_site_fract_z
 _atom_site_occupancy
  Nb  Nb0  1  0.40591800  0.91550900  0.47749400  1
  Nb  Nb1  1  0.41550900  0.09408200  0.97749400  1
  Nb  Nb2  1  0.58449100  0.90591800  0.97749400  1
  Nb  Nb3  1  0.59408200  0.08449100  0.47749400  1
  Nb  Nb4  1  0.09408200  0.58449100  0.02250600  1
  Nb  Nb5  1  0.08449100  0.40591800  0.52250600  1
  Nb  Nb6  1  0.91550900  0.59408200  0.52250600  1
  Nb  Nb7  1  0.90591800  0.41550900  0.02250600  1
  Nb  Nb8  1  0.01149300  0.85119300  0.26806500  1
  Nb  Nb9  1  0.35119300  0.48850700  0.76806500  1
  Nb  Nb10  1  0.64880700  0.51149300  0.76806500  1
  Nb  Nb11  1  0.98850700  0.14880700  0.26806500  1
  Nb  Nb12  1  0.48850700  0.64880700  0.23193500  1
  Nb  Nb13  1  0.14880700  0.01149300  0.73193500  1
  Nb  Nb14  1  0.85119300  0.98850700  0.73193500  1
  Nb  Nb15  1  0.51149300  0.35119300  0.23193500  1
  Nb  Nb16  1  0.28655400  0.80605000  0.99098700  1
  Nb  Nb17  1  0.30605000  0.21344600  0.49098700  1
  Nb  Nb18  1  0.69395000  0.78655400  0.49098700  1
  Nb  Nb19  1  0.71344600  0.19395000  0.99098700  1
  Nb  Nb20  1  0.21344600  0.69395000  0.50901300  1
  Nb  Nb21  1  0.19395000  0.28655400  0.00901300  1
  Nb  Nb22  1  0.80605000  0.71344600  0.00901300  1
  Nb  Nb23  1  0.78655400  0.30605000  0.50901300  1
  As  As24  1  0.02123700  0.79335700  0.76989200  1
  As  As25  1  0.29335700  0.47876300  0.26989200  1
  As  As26  1  0.70664300  0.52123700  0.26989200  1
  As  As27  1  0.97876300  0.20664300  0.76989200  1
  As  As28  1  0.47876300  0.70664300  0.73010800  1
  As  As29  1  0.20664300  0.02123700  0.23010800  1
  As  As30  1  0.79335700  0.97876300  0.23010800  1
  As  As31  1  0.52123700  0.29335700  0.73010800  1
