# generated using pymatgen
data_K3As11
_symmetry_space_group_name_H-M   'P 1'
_cell_length_a   11.04809000
_cell_length_b   11.36074500
_cell_length_c   14.78491600
_cell_angle_alpha   90.00000000
_cell_angle_beta   90.00000000
_cell_angle_gamma   90.00000000
_symmetry_Int_Tables_number   1
_chemical_formula_structural   K3As11
_chemical_formula_sum   'K12 As44'
_cell_volume   1855.72183054
_cell_formula_units_Z   4
loop_
 _symmetry_equiv_pos_site_id
 _symmetry_equiv_pos_as_xyz
  1  'x, y, z'
loop_
 _atom_site_type_symbol
 _atom_site_label
 _atom_site_symmetry_multiplicity
 _atom_site_fract_x
 _atom_site_fract_y
 _atom_site_fract_z
 _atom_site_occupancy
  K  K0  1  0.08753900  0.76166500  0.01188000  1
  K  K1  1  0.58753900  0.73833500  0.48812000  1
  K  K2  1  0.91246100  0.26166500  0.48812000  1
  K  K3  1  0.41246100  0.23833500  0.01188000  1
  K  K4  1  0.91246100  0.23833500  0.98812000  1
  K  K5  1  0.41246100  0.26166500  0.51188000  1
  K  K6  1  0.08753900  0.73833500  0.51188000  1
  K  K7  1  0.58753900  0.76166500  0.98812000  1
  K  K8  1  0.25000000  0.00000000  0.28448800  1
  K  K9  1  0.75000000  0.50000000  0.21551200  1
  K  K10  1  0.75000000  0.00000000  0.71551200  1
  K  K11  1  0.25000000  0.50000000  0.78448800  1
  As  As12  1  0.27667700  0.68439200  0.24506900  1
  As  As13  1  0.77667700  0.81560800  0.25493100  1
  As  As14  1  0.72332300  0.18439200  0.25493100  1
  As  As15  1  0.22332300  0.31560800  0.24506900  1
  As  As16  1  0.72332300  0.31560800  0.75493100  1
  As  As17  1  0.22332300  0.18439200  0.74506900  1
  As  As18  1  0.27667700  0.81560800  0.74506900  1
  As  As19  1  0.77667700  0.68439200  0.75493100  1
  As  As20  1  0.06499700  0.61389200  0.21573800  1
  As  As21  1  0.56499700  0.88610800  0.28426200  1
  As  As22  1  0.93500300  0.11389200  0.28426200  1
  As  As23  1  0.43500300  0.38610800  0.21573800  1
  As  As24  1  0.93500300  0.38610800  0.78426200  1
  As  As25  1  0.43500300  0.11389200  0.71573800  1
  As  As26  1  0.06499700  0.88610800  0.71573800  1
  As  As27  1  0.56499700  0.61389200  0.78426200  1
  As  As28  1  0.39819200  0.57148400  0.13134400  1
  As  As29  1  0.89819200  0.92851600  0.36865600  1
  As  As30  1  0.60180800  0.07148400  0.36865600  1
  As  As31  1  0.10180800  0.42851600  0.13134400  1
  As  As32  1  0.60180800  0.42851600  0.86865600  1
  As  As33  1  0.10180800  0.07148400  0.63134400  1
  As  As34  1  0.39819200  0.92851600  0.63134400  1
  As  As35  1  0.89819200  0.57148400  0.86865600  1
  As  As36  1  0.32641100  0.58028500  0.38966000  1
  As  As37  1  0.82641100  0.91971500  0.11034000  1
  As  As38  1  0.67358900  0.08028500  0.11034000  1
  As  As39  1  0.17358900  0.41971500  0.38966000  1
  As  As40  1  0.67358900  0.41971500  0.61034000  1
  As  As41  1  0.17358900  0.08028500  0.88966000  1
  As  As42  1  0.32641100  0.91971500  0.88966000  1
  As  As43  1  0.82641100  0.58028500  0.61034000  1
  As  As44  1  0.50606300  0.46381100  0.35909200  1
  As  As45  1  0.00606300  0.03618900  0.14090800  1
  As  As46  1  0.49393700  0.96381100  0.14090800  1
  As  As47  1  0.99393700  0.53618900  0.35909200  1
  As  As48  1  0.49393700  0.53618900  0.64090800  1
  As  As49  1  0.99393700  0.96381100  0.85909200  1
  As  As50  1  0.50606300  0.03618900  0.85909200  1
  As  As51  1  0.00606300  0.46381100  0.64090800  1
  As  As52  1  0.25000000  0.00000000  0.52288700  1
  As  As53  1  0.75000000  0.50000000  0.97711300  1
  As  As54  1  0.75000000  0.00000000  0.47711300  1
  As  As55  1  0.25000000  0.50000000  0.02288700  1
