# generated using pymatgen
data_Ba7Ca2Mn5O20
_symmetry_space_group_name_H-M   'P 1'
_cell_length_a   17.75532635
_cell_length_b   17.75532635
_cell_length_c   17.75532621
_cell_angle_alpha   19.14672983
_cell_angle_beta   19.14672983
_cell_angle_gamma   19.14673066
_symmetry_Int_Tables_number   1
_chemical_formula_structural   Ba7Ca2Mn5O20
_chemical_formula_sum   'Ba7 Ca2 Mn5 O20'
_cell_volume   526.32708832
_cell_formula_units_Z   1
loop_
 _symmetry_equiv_pos_site_id
 _symmetry_equiv_pos_as_xyz
  1  'x, y, z'
loop_
 _atom_site_type_symbol
 _atom_site_label
 _atom_site_symmetry_multiplicity
 _atom_site_fract_x
 _atom_site_fract_y
 _atom_site_fract_z
 _atom_site_occupancy
  Ba  Ba0  1  0.85433200  0.85433200  0.85433200  1
  Ba  Ba1  1  0.14566800  0.14566800  0.14566800  1
  Ba  Ba2  1  0.00000000  0.00000000  0.00000000  1
  Ba  Ba3  1  0.38792300  0.38792300  0.38792300  1
  Ba  Ba4  1  0.77325000  0.77325000  0.77325000  1
  Ba  Ba5  1  0.22675000  0.22675000  0.22675000  1
  Ba  Ba6  1  0.61207700  0.61207700  0.61207700  1
  Ca  Ca7  1  0.07455000  0.07455000  0.07455000  1
  Ca  Ca8  1  0.92545000  0.92545000  0.92545000  1
  Mn  Mn9  1  0.69701400  0.69701400  0.69701400  1
  Mn  Mn10  1  0.30298600  0.30298600  0.30298600  1
  Mn  Mn11  1  0.54943100  0.54943100  0.54943100  1
  Mn  Mn12  1  0.45056900  0.45056900  0.45056900  1
  Mn  Mn13  1  0.50000000  0.50000000  0.50000000  1
  O  O14  1  0.72292400  0.26222100  0.72292400  1
  O  O15  1  0.39210000  0.86716700  0.86716700  1
  O  O16  1  0.26222100  0.72292400  0.72292400  1
  O  O17  1  0.86716700  0.86716700  0.39210000  1
  O  O18  1  0.73777900  0.27707600  0.27707600  1
  O  O19  1  0.37681600  0.81661000  0.37681600  1
  O  O20  1  0.81661000  0.37681600  0.37681600  1
  O  O21  1  0.62318400  0.18339000  0.62318400  1
  O  O22  1  0.72292400  0.72292400  0.26222100  1
  O  O23  1  0.27707600  0.73777900  0.27707600  1
  O  O24  1  0.66477100  0.66477100  0.66477100  1
  O  O25  1  0.13283300  0.60790000  0.13283300  1
  O  O26  1  0.37681600  0.37681600  0.81661000  1
  O  O27  1  0.86716700  0.39210000  0.86716700  1
  O  O28  1  0.13283300  0.13283300  0.60790000  1
  O  O29  1  0.18339000  0.62318400  0.62318400  1
  O  O30  1  0.60790000  0.13283300  0.13283300  1
  O  O31  1  0.33522900  0.33522900  0.33522900  1
  O  O32  1  0.62318400  0.62318400  0.18339000  1
  O  O33  1  0.27707600  0.27707600  0.73777900  1
