# generated using pymatgen
data_V6Ga5
_symmetry_space_group_name_H-M   'P 1'
_cell_length_a   8.48665404
_cell_length_b   8.48665404
_cell_length_c   5.12446700
_cell_angle_alpha   90.00000000
_cell_angle_beta   90.00000000
_cell_angle_gamma   120.00000029
_symmetry_Int_Tables_number   1
_chemical_formula_structural   V6Ga5
_chemical_formula_sum   'V12 Ga10'
_cell_volume   319.63352754
_cell_formula_units_Z   2
loop_
 _symmetry_equiv_pos_site_id
 _symmetry_equiv_pos_as_xyz
  1  'x, y, z'
loop_
 _atom_site_type_symbol
 _atom_site_label
 _atom_site_symmetry_multiplicity
 _atom_site_fract_x
 _atom_site_fract_y
 _atom_site_fract_z
 _atom_site_occupancy
  V  V0  1  0.68638300  0.84319100  0.25000000  1
  V  V1  1  0.84319100  0.15680900  0.75000000  1
  V  V2  1  0.50000000  0.00000000  0.00000000  1
  V  V3  1  0.15680900  0.84319100  0.25000000  1
  V  V4  1  0.84319100  0.68638300  0.75000000  1
  V  V5  1  0.31361700  0.15680900  0.75000000  1
  V  V6  1  0.00000000  0.50000000  0.00000000  1
  V  V7  1  0.50000000  0.00000000  0.50000000  1
  V  V8  1  0.15680900  0.31361700  0.25000000  1
  V  V9  1  0.50000000  0.50000000  0.00000000  1
  V  V10  1  0.00000000  0.50000000  0.50000000  1
  V  V11  1  0.50000000  0.50000000  0.50000000  1
  Ga  Ga12  1  0.00000000  0.00000000  0.00000000  1
  Ga  Ga13  1  0.79624200  0.20375800  0.25000000  1
  Ga  Ga14  1  0.20375800  0.40751700  0.75000000  1
  Ga  Ga15  1  0.59248300  0.79624200  0.75000000  1
  Ga  Ga16  1  0.79624200  0.59248300  0.25000000  1
  Ga  Ga17  1  0.00000000  0.00000000  0.50000000  1
  Ga  Ga18  1  0.40751700  0.20375800  0.25000000  1
  Ga  Ga19  1  0.20375800  0.79624200  0.75000000  1
  Ga  Ga20  1  0.66666700  0.33333300  0.75000000  1
  Ga  Ga21  1  0.33333300  0.66666700  0.25000000  1
