# generated using pymatgen
data_Cs2TeOF4
_symmetry_space_group_name_H-M   'P 1'
_cell_length_a   8.27594434
_cell_length_b   8.27594434
_cell_length_c   7.32636300
_cell_angle_alpha   90.00000000
_cell_angle_beta   90.00000000
_cell_angle_gamma   131.34966168
_symmetry_Int_Tables_number   1
_chemical_formula_structural   Cs2TeOF4
_chemical_formula_sum   'Cs4 Te2 O2 F8'
_cell_volume   376.69097933
_cell_formula_units_Z   2
loop_
 _symmetry_equiv_pos_site_id
 _symmetry_equiv_pos_as_xyz
  1  'x, y, z'
loop_
 _atom_site_type_symbol
 _atom_site_label
 _atom_site_symmetry_multiplicity
 _atom_site_fract_x
 _atom_site_fract_y
 _atom_site_fract_z
 _atom_site_occupancy
  Cs  Cs0  1  0.43578900  0.56421100  0.25000000  1
  Cs  Cs1  1  0.24356500  0.75643500  0.75000000  1
  Cs  Cs2  1  0.75643500  0.24356500  0.25000000  1
  Cs  Cs3  1  0.56421100  0.43578900  0.75000000  1
  Te  Te4  1  0.10940400  0.89059600  0.25000000  1
  Te  Te5  1  0.89059600  0.10940400  0.75000000  1
  O  O6  1  0.23018100  0.76981900  0.25000000  1
  O  O7  1  0.76981900  0.23018100  0.75000000  1
  F  F8  1  0.33208100  0.11434200  0.04983000  1
  F  F9  1  0.66791900  0.88565800  0.95017000  1
  F  F10  1  0.88565800  0.66791900  0.45017000  1
  F  F11  1  0.11434200  0.33208100  0.95017000  1
  F  F12  1  0.66791900  0.88565800  0.54983000  1
  F  F13  1  0.88565800  0.66791900  0.04983000  1
  F  F14  1  0.11434200  0.33208100  0.54983000  1
  F  F15  1  0.33208100  0.11434200  0.45017000  1
