# generated using pymatgen
data_Eu(ErS2)2
_symmetry_space_group_name_H-M   'P 1'
_cell_length_a   3.94289700
_cell_length_b   11.88883300
_cell_length_c   14.20438400
_cell_angle_alpha   90.00000000
_cell_angle_beta   90.00000000
_cell_angle_gamma   90.00000000
_symmetry_Int_Tables_number   1
_chemical_formula_structural   Eu(ErS2)2
_chemical_formula_sum   'Eu4 Er8 S16'
_cell_volume   665.85101069
_cell_formula_units_Z   4
loop_
 _symmetry_equiv_pos_site_id
 _symmetry_equiv_pos_as_xyz
  1  'x, y, z'
loop_
 _atom_site_type_symbol
 _atom_site_label
 _atom_site_symmetry_multiplicity
 _atom_site_fract_x
 _atom_site_fract_y
 _atom_site_fract_z
 _atom_site_occupancy
  Eu  Eu0  1  0.75000000  0.74215900  0.83782900  1
  Eu  Eu1  1  0.25000000  0.25784100  0.16217100  1
  Eu  Eu2  1  0.75000000  0.24215900  0.66217100  1
  Eu  Eu3  1  0.25000000  0.75784100  0.33782900  1
  Er  Er4  1  0.75000000  0.08112900  0.39975600  1
  Er  Er5  1  0.25000000  0.91887100  0.60024400  1
  Er  Er6  1  0.75000000  0.58112900  0.10024400  1
  Er  Er7  1  0.25000000  0.41887100  0.89975600  1
  Er  Er8  1  0.75000000  0.06706400  0.88955800  1
  Er  Er9  1  0.25000000  0.93293600  0.11044200  1
  Er  Er10  1  0.75000000  0.56706400  0.61044200  1
  Er  Er11  1  0.25000000  0.43293600  0.38955800  1
  S  S12  1  0.75000000  0.36893500  0.02825600  1
  S  S13  1  0.25000000  0.63106500  0.97174400  1
  S  S14  1  0.75000000  0.86893500  0.47174400  1
  S  S15  1  0.25000000  0.13106500  0.52825600  1
  S  S16  1  0.75000000  0.47714800  0.78415200  1
  S  S17  1  0.25000000  0.52285200  0.21584800  1
  S  S18  1  0.75000000  0.97714800  0.71584800  1
  S  S19  1  0.25000000  0.02285200  0.28415200  1
  S  S20  1  0.75000000  0.08782400  0.07888300  1
  S  S21  1  0.25000000  0.91217600  0.92111700  1
  S  S22  1  0.75000000  0.58782400  0.42111700  1
  S  S23  1  0.25000000  0.41217600  0.57888300  1
  S  S24  1  0.75000000  0.29260400  0.32434600  1
  S  S25  1  0.25000000  0.70739600  0.67565400  1
  S  S26  1  0.75000000  0.79260400  0.17565400  1
  S  S27  1  0.25000000  0.20739600  0.82434600  1
