# generated using pymatgen
data_NaSmGeO4
_symmetry_space_group_name_H-M   'P 1'
_cell_length_a   5.36266600
_cell_length_b   6.65650200
_cell_length_c   11.72811900
_cell_angle_alpha   90.00000000
_cell_angle_beta   90.00000000
_cell_angle_gamma   90.00000000
_symmetry_Int_Tables_number   1
_chemical_formula_structural   NaSmGeO4
_chemical_formula_sum   'Na4 Sm4 Ge4 O16'
_cell_volume   418.65393698
_cell_formula_units_Z   4
loop_
 _symmetry_equiv_pos_site_id
 _symmetry_equiv_pos_as_xyz
  1  'x, y, z'
loop_
 _atom_site_type_symbol
 _atom_site_label
 _atom_site_symmetry_multiplicity
 _atom_site_fract_x
 _atom_site_fract_y
 _atom_site_fract_z
 _atom_site_occupancy
  Na  Na0  1  0.50000000  0.50000000  0.00000000  1
  Na  Na1  1  0.00000000  0.00000000  0.50000000  1
  Na  Na2  1  0.50000000  0.00000000  0.00000000  1
  Na  Na3  1  0.00000000  0.50000000  0.50000000  1
  Sm  Sm4  1  0.50010800  0.75000000  0.27881100  1
  Sm  Sm5  1  0.99989200  0.75000000  0.77881100  1
  Sm  Sm6  1  0.49989200  0.25000000  0.72118900  1
  Sm  Sm7  1  0.00010800  0.25000000  0.22118900  1
  Ge  Ge8  1  0.44073700  0.75000000  0.59547400  1
  Ge  Ge9  1  0.05926300  0.75000000  0.09547400  1
  Ge  Ge10  1  0.55926300  0.25000000  0.40452600  1
  Ge  Ge11  1  0.94073700  0.25000000  0.90452600  1
  O  O12  1  0.31910300  0.75000000  0.45577200  1
  O  O13  1  0.18089700  0.75000000  0.95577200  1
  O  O14  1  0.68089700  0.25000000  0.54422800  1
  O  O15  1  0.81910300  0.25000000  0.04422800  1
  O  O16  1  0.70909300  0.04563100  0.32919900  1
  O  O17  1  0.79090700  0.45436900  0.82919900  1
  O  O18  1  0.29090700  0.54563100  0.67080100  1
  O  O19  1  0.20909300  0.95436900  0.17080100  1
  O  O20  1  0.29090700  0.95436900  0.67080100  1
  O  O21  1  0.20909300  0.54563100  0.17080100  1
  O  O22  1  0.70909300  0.45436900  0.32919900  1
  O  O23  1  0.79090700  0.04563100  0.82919900  1
  O  O24  1  0.73467400  0.75000000  0.10874800  1
  O  O25  1  0.76532600  0.75000000  0.60874800  1
  O  O26  1  0.26532600  0.25000000  0.89125200  1
  O  O27  1  0.23467400  0.25000000  0.39125200  1
