# generated using pymatgen
data_PBr2N
_symmetry_space_group_name_H-M   'P 1'
_cell_length_a   11.91923800
_cell_length_b   11.91923800
_cell_length_c   6.78485300
_cell_angle_alpha   90.00000000
_cell_angle_beta   90.00000000
_cell_angle_gamma   90.00000000
_symmetry_Int_Tables_number   1
_chemical_formula_structural   PBr2N
_chemical_formula_sum   'P8 Br16 N8'
_cell_volume   963.91208706
_cell_formula_units_Z   8
loop_
 _symmetry_equiv_pos_site_id
 _symmetry_equiv_pos_as_xyz
  1  'x, y, z'
loop_
 _atom_site_type_symbol
 _atom_site_label
 _atom_site_symmetry_multiplicity
 _atom_site_fract_x
 _atom_site_fract_y
 _atom_site_fract_z
 _atom_site_occupancy
  P  P0  1  0.04269800  0.83799400  0.94884300  1
  P  P1  1  0.33799400  0.45730200  0.44884300  1
  P  P2  1  0.83799400  0.95730200  0.05115700  1
  P  P3  1  0.45730200  0.66200600  0.55115700  1
  P  P4  1  0.54269800  0.33799400  0.55115700  1
  P  P5  1  0.16200600  0.04269800  0.05115700  1
  P  P6  1  0.66200600  0.54269800  0.44884300  1
  P  P7  1  0.95730200  0.16200600  0.94884300  1
  Br  Br8  1  0.09882900  0.80865900  0.64327500  1
  Br  Br9  1  0.67068700  0.94351700  0.91353800  1
  Br  Br10  1  0.40117100  0.69134100  0.85672500  1
  Br  Br11  1  0.17068700  0.44351700  0.58646200  1
  Br  Br12  1  0.30865900  0.40117100  0.14327500  1
  Br  Br13  1  0.59882900  0.30865900  0.85672500  1
  Br  Br14  1  0.80865900  0.90117100  0.35672500  1
  Br  Br15  1  0.82931300  0.55648300  0.58646200  1
  Br  Br16  1  0.94351700  0.32931300  0.08646200  1
  Br  Br17  1  0.44351700  0.82931300  0.41353800  1
  Br  Br18  1  0.55648300  0.17068700  0.41353800  1
  Br  Br19  1  0.05648300  0.67068700  0.08646200  1
  Br  Br20  1  0.19134100  0.09882900  0.35672500  1
  Br  Br21  1  0.32931300  0.05648300  0.91353800  1
  Br  Br22  1  0.90117100  0.19134100  0.64327500  1
  Br  Br23  1  0.69134100  0.59882900  0.14327500  1
  N  N24  1  0.41428300  0.37202900  0.56891600  1
  N  N25  1  0.37202900  0.58571700  0.43108400  1
  N  N26  1  0.87202900  0.08571700  0.06891600  1
  N  N27  1  0.58571700  0.62797100  0.56891600  1
  N  N28  1  0.91428300  0.87202900  0.93108400  1
  N  N29  1  0.12797100  0.91428300  0.06891600  1
  N  N30  1  0.08571700  0.12797100  0.93108400  1
  N  N31  1  0.62797100  0.41428300  0.43108400  1
