# generated using pymatgen
data_Rb2RuO4
_symmetry_space_group_name_H-M   'P 1'
_cell_length_a   6.38885800
_cell_length_b   8.24128500
_cell_length_c   11.25637300
_cell_angle_alpha   90.00000000
_cell_angle_beta   90.00000000
_cell_angle_gamma   90.00000000
_symmetry_Int_Tables_number   1
_chemical_formula_structural   Rb2RuO4
_chemical_formula_sum   'Rb8 Ru4 O16'
_cell_volume   592.67504927
_cell_formula_units_Z   4
loop_
 _symmetry_equiv_pos_site_id
 _symmetry_equiv_pos_as_xyz
  1  'x, y, z'
loop_
 _atom_site_type_symbol
 _atom_site_label
 _atom_site_symmetry_multiplicity
 _atom_site_fract_x
 _atom_site_fract_y
 _atom_site_fract_z
 _atom_site_occupancy
  Rb  Rb0  1  0.75000000  0.83662500  0.08095500  1
  Rb  Rb1  1  0.25000000  0.16337500  0.91904500  1
  Rb  Rb2  1  0.75000000  0.33662500  0.41904500  1
  Rb  Rb3  1  0.25000000  0.66337500  0.58095500  1
  Rb  Rb4  1  0.75000000  0.00662000  0.70489700  1
  Rb  Rb5  1  0.25000000  0.99338000  0.29510300  1
  Rb  Rb6  1  0.75000000  0.50662000  0.79510300  1
  Rb  Rb7  1  0.25000000  0.49338000  0.20489700  1
  Ru  Ru8  1  0.75000000  0.27909300  0.07859700  1
  Ru  Ru9  1  0.25000000  0.72090700  0.92140300  1
  Ru  Ru10  1  0.75000000  0.77909300  0.42140300  1
  Ru  Ru11  1  0.25000000  0.22090700  0.57859700  1
  O  O12  1  0.75000000  0.19500800  0.93016900  1
  O  O13  1  0.25000000  0.80499200  0.06983100  1
  O  O14  1  0.75000000  0.69500800  0.56983100  1
  O  O15  1  0.25000000  0.30499200  0.43016900  1
  O  O16  1  0.75000000  0.99584200  0.42407000  1
  O  O17  1  0.25000000  0.00415800  0.57593000  1
  O  O18  1  0.75000000  0.49584200  0.07593000  1
  O  O19  1  0.25000000  0.50415800  0.92407000  1
  O  O20  1  0.97955900  0.20253300  0.15264100  1
  O  O21  1  0.47955900  0.79746700  0.84735900  1
  O  O22  1  0.52044100  0.70253300  0.34735900  1
  O  O23  1  0.02044100  0.29746700  0.65264100  1
  O  O24  1  0.02044100  0.79746700  0.84735900  1
  O  O25  1  0.52044100  0.20253300  0.15264100  1
  O  O26  1  0.47955900  0.29746700  0.65264100  1
  O  O27  1  0.97955900  0.70253300  0.34735900  1
