# generated using pymatgen
data_Yb2Ag7
_symmetry_space_group_name_H-M   'P 1'
_cell_length_a   5.51268538
_cell_length_b   5.51268538
_cell_length_c   14.17867300
_cell_angle_alpha   90.00000000
_cell_angle_beta   90.00000000
_cell_angle_gamma   119.66941666
_symmetry_Int_Tables_number   1
_chemical_formula_structural   Yb2Ag7
_chemical_formula_sum   'Yb4 Ag14'
_cell_volume   374.39473042
_cell_formula_units_Z   2
loop_
 _symmetry_equiv_pos_site_id
 _symmetry_equiv_pos_as_xyz
  1  'x, y, z'
loop_
 _atom_site_type_symbol
 _atom_site_label
 _atom_site_symmetry_multiplicity
 _atom_site_fract_x
 _atom_site_fract_y
 _atom_site_fract_z
 _atom_site_occupancy
  Yb  Yb0  1  0.82093400  0.82093400  0.11551600  1
  Yb  Yb1  1  0.17906600  0.17906600  0.88448400  1
  Yb  Yb2  1  0.82093400  0.82093400  0.38448400  1
  Yb  Yb3  1  0.17906600  0.17906600  0.61551600  1
  Ag  Ag4  1  0.16396300  0.49071800  0.07579500  1
  Ag  Ag5  1  0.50928200  0.83603700  0.92420500  1
  Ag  Ag6  1  0.17033800  0.67281500  0.75000000  1
  Ag  Ag7  1  0.49071800  0.16396300  0.07579500  1
  Ag  Ag8  1  0.83603700  0.50928200  0.57579500  1
  Ag  Ag9  1  0.49071800  0.16396300  0.42420500  1
  Ag  Ag10  1  0.83603700  0.50928200  0.92420500  1
  Ag  Ag11  1  0.67281500  0.17033800  0.75000000  1
  Ag  Ag12  1  0.67043900  0.67043900  0.75000000  1
  Ag  Ag13  1  0.32718500  0.82966200  0.25000000  1
  Ag  Ag14  1  0.82966200  0.32718500  0.25000000  1
  Ag  Ag15  1  0.50928200  0.83603700  0.57579500  1
  Ag  Ag16  1  0.16396300  0.49071800  0.42420500  1
  Ag  Ag17  1  0.32956100  0.32956100  0.25000000  1
