# generated using pymatgen
data_SrTeO3
_symmetry_space_group_name_H-M   'P 1'
_cell_length_a   14.62139739
_cell_length_b   14.62139739
_cell_length_c   15.61244570
_cell_angle_alpha   58.54839011
_cell_angle_beta   58.54839011
_cell_angle_gamma   23.60509982
_symmetry_Int_Tables_number   1
_chemical_formula_structural   SrTeO3
_chemical_formula_sum   'Sr12 Te12 O36'
_cell_volume   1130.81096927
_cell_formula_units_Z   12
loop_
 _symmetry_equiv_pos_site_id
 _symmetry_equiv_pos_as_xyz
  1  'x, y, z'
loop_
 _atom_site_type_symbol
 _atom_site_label
 _atom_site_symmetry_multiplicity
 _atom_site_fract_x
 _atom_site_fract_y
 _atom_site_fract_z
 _atom_site_occupancy
  Sr  Sr0  1  0.20911100  0.03425800  0.39364200  1
  Sr  Sr1  1  0.28916000  0.21523600  0.11154000  1
  Sr  Sr2  1  0.96574200  0.79088900  0.60635800  1
  Sr  Sr3  1  0.09378500  0.90621500  0.00000000  1
  Sr  Sr4  1  0.43937400  0.30643500  0.15725500  1
  Sr  Sr5  1  0.68339100  0.56329000  0.58136700  1
  Sr  Sr6  1  0.78476400  0.71084000  0.88846000  1
  Sr  Sr7  1  0.69356500  0.56062600  0.84274500  1
  Sr  Sr8  1  0.79739800  0.71430900  0.27979600  1
  Sr  Sr9  1  0.60604100  0.39395900  0.50000000  1
  Sr  Sr10  1  0.43671000  0.31660900  0.41863300  1
  Sr  Sr11  1  0.28569100  0.20260200  0.72020400  1
  Te  Te12  1  0.54911100  0.40902200  0.85308700  1
  Te  Te13  1  0.28675300  0.18778600  0.41689500  1
  Te  Te14  1  0.05758100  0.92691300  0.35009800  1
  Te  Te15  1  0.07308700  0.94241900  0.64990200  1
  Te  Te16  1  0.39699300  0.30969500  0.77827600  1
  Te  Te17  1  0.23336400  0.06659400  0.99694000  1
  Te  Te18  1  0.81221400  0.71324700  0.58310500  1
  Te  Te19  1  0.94585500  0.82773900  0.27726900  1
  Te  Te20  1  0.59097800  0.45088900  0.14691300  1
  Te  Te21  1  0.17226100  0.05414500  0.72273100  1
  Te  Te22  1  0.69030500  0.60300700  0.22172400  1
  Te  Te23  1  0.93340600  0.76663600  0.00306000  1
  O  O24  1  0.09638600  0.09586900  0.85486100  1
  O  O25  1  0.63158900  0.02617200  0.06821000  1
  O  O26  1  0.44855800  0.91282800  0.88052400  1
  O  O27  1  0.37836800  0.44885000  0.65131500  1
  O  O28  1  0.90466500  0.21851400  0.57121600  1
  O  O29  1  0.93753800  0.64578900  0.98256300  1
  O  O30  1  0.90413100  0.90361400  0.14513900  1
  O  O31  1  0.08717200  0.55144200  0.11947600  1
  O  O32  1  0.44959300  0.88666200  0.68481600  1
  O  O33  1  0.91930700  0.99338200  0.61938700  1
  O  O34  1  0.26081600  0.64565200  0.43913200  1
  O  O35  1  0.60571200  0.00709700  0.57299300  1
  O  O36  1  0.37669900  0.52308300  0.97933400  1
  O  O37  1  0.43467600  0.45461000  0.21542500  1
  O  O38  1  0.09358600  0.54163300  0.54585000  1
  O  O39  1  0.78148600  0.09533500  0.42878400  1
  O  O40  1  0.53185000  0.85635100  0.23021800  1
  O  O41  1  0.62372200  0.02430400  0.75260700  1
  O  O42  1  0.99290300  0.39428800  0.42700700  1
  O  O43  1  0.55115000  0.62163200  0.34868500  1
  O  O44  1  0.47691700  0.62330100  0.02066600  1
  O  O45  1  0.83736600  0.62717100  0.72250000  1
  O  O46  1  0.84926800  0.11162300  0.88668100  1
  O  O47  1  0.97321400  0.34950100  0.66123700  1
  O  O48  1  0.35421100  0.06246200  0.01743700  1
  O  O49  1  0.65049900  0.02678600  0.33876300  1
  O  O50  1  0.35434800  0.73918400  0.56086800  1
  O  O51  1  0.00661800  0.08069300  0.38061300  1
  O  O52  1  0.14364900  0.46815000  0.76978200  1
  O  O53  1  0.88837700  0.15073200  0.11331900  1
  O  O54  1  0.45836700  0.90641400  0.45415000  1
  O  O55  1  0.54539000  0.56532400  0.78457500  1
  O  O56  1  0.11333800  0.55040700  0.31518400  1
  O  O57  1  0.97569600  0.37627800  0.24739300  1
  O  O58  1  0.97382800  0.36841100  0.93179000  1
  O  O59  1  0.37282900  0.16263400  0.27750000  1
