# generated using pymatgen
data_Ba2SiS4
_symmetry_space_group_name_H-M   'P 1'
_cell_length_a   6.82581000
_cell_length_b   8.99828100
_cell_length_c   12.40971900
_cell_angle_alpha   90.00000000
_cell_angle_beta   90.00000000
_cell_angle_gamma   90.00000000
_symmetry_Int_Tables_number   1
_chemical_formula_structural   Ba2SiS4
_chemical_formula_sum   'Ba8 Si4 S16'
_cell_volume   762.21184615
_cell_formula_units_Z   4
loop_
 _symmetry_equiv_pos_site_id
 _symmetry_equiv_pos_as_xyz
  1  'x, y, z'
loop_
 _atom_site_type_symbol
 _atom_site_label
 _atom_site_symmetry_multiplicity
 _atom_site_fract_x
 _atom_site_fract_y
 _atom_site_fract_z
 _atom_site_occupancy
  Ba  Ba0  1  0.25000000  0.98180000  0.32968100  1
  Ba  Ba1  1  0.75000000  0.01820000  0.67031900  1
  Ba  Ba2  1  0.25000000  0.48180000  0.17031900  1
  Ba  Ba3  1  0.75000000  0.51820000  0.82968100  1
  Ba  Ba4  1  0.25000000  0.63022900  0.57877400  1
  Ba  Ba5  1  0.75000000  0.36977100  0.42122600  1
  Ba  Ba6  1  0.25000000  0.13022900  0.92122600  1
  Ba  Ba7  1  0.75000000  0.86977100  0.07877400  1
  Si  Si8  1  0.25000000  0.73053100  0.92434600  1
  Si  Si9  1  0.25000000  0.23053100  0.57565400  1
  Si  Si10  1  0.75000000  0.76946900  0.42434600  1
  Si  Si11  1  0.75000000  0.26946900  0.07565400  1
  S  S12  1  0.50490200  0.32380900  0.64624000  1
  S  S13  1  0.00490200  0.67619100  0.35376000  1
  S  S14  1  0.99509800  0.82380900  0.85376000  1
  S  S15  1  0.49509800  0.17619100  0.14624000  1
  S  S16  1  0.50490200  0.82380900  0.85376000  1
  S  S17  1  0.49509800  0.67619100  0.35376000  1
  S  S18  1  0.00490200  0.17619100  0.14624000  1
  S  S19  1  0.99509800  0.32380900  0.64624000  1
  S  S20  1  0.75000000  0.50425400  0.09311400  1
  S  S21  1  0.25000000  0.49574600  0.90688600  1
  S  S22  1  0.75000000  0.00425400  0.40688600  1
  S  S23  1  0.25000000  0.99574600  0.59311400  1
  S  S24  1  0.75000000  0.19020300  0.91270900  1
  S  S25  1  0.25000000  0.80979700  0.08729100  1
  S  S26  1  0.75000000  0.69020300  0.58729100  1
  S  S27  1  0.25000000  0.30979700  0.41270900  1
