# generated using pymatgen
data_Na2Sr2Al2PO4F9
_symmetry_space_group_name_H-M   'P 1'
_cell_length_a   10.62911200
_cell_length_b   5.33846100
_cell_length_c   18.65512019
_cell_angle_alpha   74.43237180
_cell_angle_beta   90.00000000
_cell_angle_gamma   90.00000000
_symmetry_Int_Tables_number   1
_chemical_formula_structural   Na2Sr2Al2PO4F9
_chemical_formula_sum   'Na8 Sr8 Al8 P4 O16 F36'
_cell_volume   1019.71577839
_cell_formula_units_Z   4
loop_
 _symmetry_equiv_pos_site_id
 _symmetry_equiv_pos_as_xyz
  1  'x, y, z'
loop_
 _atom_site_type_symbol
 _atom_site_label
 _atom_site_symmetry_multiplicity
 _atom_site_fract_x
 _atom_site_fract_y
 _atom_site_fract_z
 _atom_site_occupancy
  Na  Na0  1  0.27984400  0.49862400  0.98115300  1
  Na  Na1  1  0.74294100  0.84458000  0.13184400  1
  Na  Na2  1  0.25705900  0.15542000  0.86815600  1
  Na  Na3  1  0.72015600  0.50137600  0.01884700  1
  Na  Na4  1  0.75705900  0.84458000  0.63184400  1
  Na  Na5  1  0.77984400  0.50137600  0.51884700  1
  Na  Na6  1  0.22015600  0.49862400  0.48115300  1
  Na  Na7  1  0.24294100  0.15542000  0.36815600  1
  Sr  Sr8  1  0.53882600  0.67554400  0.83156300  1
  Sr  Sr9  1  0.46117400  0.32445600  0.16843700  1
  Sr  Sr10  1  0.03882600  0.32445600  0.66843700  1
  Sr  Sr11  1  0.46339000  0.35720000  0.64303100  1
  Sr  Sr12  1  0.03661000  0.35720000  0.14303100  1
  Sr  Sr13  1  0.96339000  0.64280000  0.85696900  1
  Sr  Sr14  1  0.53661000  0.64280000  0.35696900  1
  Sr  Sr15  1  0.96117400  0.67554400  0.33156300  1
  Al  Al16  1  0.75295500  0.21417100  0.24101500  1
  Al  Al17  1  0.50000000  0.00000000  0.00000000  1
  Al  Al18  1  0.74704500  0.21417100  0.74101500  1
  Al  Al19  1  0.00000000  0.00000000  0.50000000  1
  Al  Al20  1  0.25295500  0.78582900  0.25898500  1
  Al  Al21  1  0.24704500  0.78582900  0.75898500  1
  Al  Al22  1  0.00000000  0.00000000  0.00000000  1
  Al  Al23  1  0.50000000  0.00000000  0.50000000  1
  P  P24  1  0.25039300  0.87300400  0.09053000  1
  P  P25  1  0.24960700  0.87300400  0.59053000  1
  P  P26  1  0.75039300  0.12699600  0.40947000  1
  P  P27  1  0.74960700  0.12699600  0.90947000  1
  O  O28  1  0.69837700  0.05449000  0.83898900  1
  O  O29  1  0.82714100  0.97688300  0.47792000  1
  O  O30  1  0.19837700  0.94551000  0.66101100  1
  O  O31  1  0.32714100  0.02311700  0.02208000  1
  O  O32  1  0.25570800  0.57625900  0.10086600  1
  O  O33  1  0.38702300  0.97763500  0.58029600  1
  O  O34  1  0.11297700  0.97763500  0.08029600  1
  O  O35  1  0.24429200  0.57625900  0.60086600  1
  O  O36  1  0.17285900  0.02311700  0.52208000  1
  O  O37  1  0.75570800  0.42374100  0.39913400  1
  O  O38  1  0.74429200  0.42374100  0.89913400  1
  O  O39  1  0.67285900  0.97688300  0.97792000  1
  O  O40  1  0.61297700  0.02236500  0.41970400  1
  O  O41  1  0.80162300  0.05449000  0.33898900  1
  O  O42  1  0.30162300  0.94551000  0.16101100  1
  O  O43  1  0.88702300  0.02236500  0.91970400  1
  F  F44  1  0.78639200  0.35625300  0.64331600  1
  F  F45  1  0.96603400  0.75276400  0.58842700  1
  F  F46  1  0.13537300  0.03994300  0.26032700  1
  F  F47  1  0.28639200  0.64374700  0.85668400  1
  F  F48  1  0.63537300  0.96005700  0.23967300  1
  F  F49  1  0.13086100  0.52630500  0.76760900  1
  F  F50  1  0.36913900  0.52630500  0.26760900  1
  F  F51  1  0.12437600  0.98147600  0.78890700  1
  F  F52  1  0.37562400  0.98147600  0.28890700  1
  F  F53  1  0.03396600  0.24723600  0.41157300  1
  F  F54  1  0.62437600  0.01852400  0.71109300  1
  F  F55  1  0.53396600  0.75276400  0.08842700  1
  F  F56  1  0.09128800  0.27100100  0.93874500  1
  F  F57  1  0.71360800  0.35625300  0.14331600  1
  F  F58  1  0.12491100  0.59314200  0.23628900  1
  F  F59  1  0.46614900  0.75144300  0.95197600  1
  F  F60  1  0.40871200  0.27100100  0.43874500  1
  F  F61  1  0.21360800  0.64374700  0.35668400  1
  F  F62  1  0.59128800  0.72899900  0.56125500  1
  F  F63  1  0.87508900  0.40685800  0.76371100  1
  F  F64  1  0.63086100  0.47369500  0.73239100  1
  F  F65  1  0.96614900  0.24855700  0.54802400  1
  F  F66  1  0.91022900  0.22975400  0.03705100  1
  F  F67  1  0.08977100  0.77024600  0.96294900  1
  F  F68  1  0.62491100  0.40685800  0.26371100  1
  F  F69  1  0.03385100  0.75144300  0.45197600  1
  F  F70  1  0.87562400  0.01852400  0.21109300  1
  F  F71  1  0.90871200  0.72899900  0.06125500  1
  F  F72  1  0.37508900  0.59314200  0.73628900  1
  F  F73  1  0.86913900  0.47369500  0.23239100  1
  F  F74  1  0.36462700  0.03994300  0.76032700  1
  F  F75  1  0.46603400  0.24723600  0.91157300  1
  F  F76  1  0.53385100  0.24855700  0.04802400  1
  F  F77  1  0.58977100  0.22975400  0.53705100  1
  F  F78  1  0.41022900  0.77024600  0.46294900  1
  F  F79  1  0.86462700  0.96005700  0.73967300  1
