# generated using pymatgen
data_TeAs(ClF2)3
_symmetry_space_group_name_H-M   'P 1'
_cell_length_a   10.24578700
_cell_length_b   9.05043200
_cell_length_c   11.74758675
_cell_angle_alpha   61.28224539
_cell_angle_beta   90.00000000
_cell_angle_gamma   90.00000000
_symmetry_Int_Tables_number   1
_chemical_formula_structural   TeAs(ClF2)3
_chemical_formula_sum   'Te4 As4 Cl12 F24'
_cell_volume   955.34790519
_cell_formula_units_Z   4
loop_
 _symmetry_equiv_pos_site_id
 _symmetry_equiv_pos_as_xyz
  1  'x, y, z'
loop_
 _atom_site_type_symbol
 _atom_site_label
 _atom_site_symmetry_multiplicity
 _atom_site_fract_x
 _atom_site_fract_y
 _atom_site_fract_z
 _atom_site_occupancy
  Te  Te0  1  0.85898400  0.74416000  0.31935200  1
  Te  Te1  1  0.14101600  0.25584000  0.68064800  1
  Te  Te2  1  0.35898400  0.25584000  0.18064800  1
  Te  Te3  1  0.64101600  0.74416000  0.81935200  1
  As  As4  1  0.79147700  0.38600800  0.72366600  1
  As  As5  1  0.20852300  0.61399200  0.27633400  1
  As  As6  1  0.29147700  0.61399200  0.77633400  1
  As  As7  1  0.70852300  0.38600800  0.22366600  1
  Cl  Cl8  1  0.84882000  0.97398800  0.11378700  1
  Cl  Cl9  1  0.65118000  0.97398800  0.61378700  1
  Cl  Cl10  1  0.85979200  0.74299600  0.86490300  1
  Cl  Cl11  1  0.42789700  0.10620000  0.07768400  1
  Cl  Cl12  1  0.92789700  0.89380000  0.42231600  1
  Cl  Cl13  1  0.35979200  0.25700400  0.63509700  1
  Cl  Cl14  1  0.07210300  0.10620000  0.57768400  1
  Cl  Cl15  1  0.14020800  0.25700400  0.13509700  1
  Cl  Cl16  1  0.34882000  0.02601200  0.38621300  1
  Cl  Cl17  1  0.64020800  0.74299600  0.36490300  1
  Cl  Cl18  1  0.15118000  0.02601200  0.88621300  1
  Cl  Cl19  1  0.57210300  0.89380000  0.92231600  1
  F  F20  1  0.76864200  0.59174500  0.18565600  1
  F  F21  1  0.23135800  0.40825500  0.81434400  1
  F  F22  1  0.56316800  0.42815700  0.28416500  1
  F  F23  1  0.15263400  0.65195900  0.84476100  1
  F  F24  1  0.78162500  0.29826800  0.37743500  1
  F  F25  1  0.13835900  0.81030000  0.24557900  1
  F  F26  1  0.26864200  0.40825500  0.31434400  1
  F  F27  1  0.73135800  0.59174500  0.68565600  1
  F  F28  1  0.06316800  0.57184300  0.21583500  1
  F  F29  1  0.36895700  0.51897900  0.93541100  1
  F  F30  1  0.63104300  0.48102100  0.06458900  1
  F  F31  1  0.28162500  0.70173200  0.12256500  1
  F  F32  1  0.93683200  0.42815700  0.78416500  1
  F  F33  1  0.43683200  0.57184300  0.71583500  1
  F  F34  1  0.36164100  0.81030000  0.74557900  1
  F  F35  1  0.63835900  0.18970000  0.25442100  1
  F  F36  1  0.84736600  0.34804100  0.15523900  1
  F  F37  1  0.34736600  0.65195900  0.34476100  1
  F  F38  1  0.65263400  0.34804100  0.65523900  1
  F  F39  1  0.71837500  0.29826800  0.87743500  1
  F  F40  1  0.13104300  0.51897900  0.43541100  1
  F  F41  1  0.21837500  0.70173200  0.62256500  1
  F  F42  1  0.86164100  0.18970000  0.75442100  1
  F  F43  1  0.86895700  0.48102100  0.56458900  1
