# generated using pymatgen
data_La4CdCo
_symmetry_space_group_name_H-M   'P 1'
_cell_length_a   9.98337477
_cell_length_b   9.98337477
_cell_length_c   9.98337477
_cell_angle_alpha   60.00000000
_cell_angle_beta   60.00000000
_cell_angle_gamma   60.00000000
_symmetry_Int_Tables_number   1
_chemical_formula_structural   La4CdCo
_chemical_formula_sum   'La16 Cd4 Co4'
_cell_volume   703.58589767
_cell_formula_units_Z   4
loop_
 _symmetry_equiv_pos_site_id
 _symmetry_equiv_pos_as_xyz
  1  'x, y, z'
loop_
 _atom_site_type_symbol
 _atom_site_label
 _atom_site_symmetry_multiplicity
 _atom_site_fract_x
 _atom_site_fract_y
 _atom_site_fract_z
 _atom_site_occupancy
  La  La0  1  0.94062900  0.94062900  0.55937100  1
  La  La1  1  0.55937100  0.94062900  0.55937100  1
  La  La2  1  0.55937100  0.94062900  0.94062900  1
  La  La3  1  0.68958800  0.68958800  0.31041200  1
  La  La4  1  0.15445600  0.15445600  0.53663100  1
  La  La5  1  0.31041200  0.68958800  0.68958800  1
  La  La6  1  0.15445600  0.15445600  0.15445600  1
  La  La7  1  0.53663100  0.15445600  0.15445600  1
  La  La8  1  0.31041200  0.68958800  0.31041200  1
  La  La9  1  0.31041200  0.31041200  0.68958800  1
  La  La10  1  0.68958800  0.31041200  0.68958800  1
  La  La11  1  0.94062900  0.55937100  0.55937100  1
  La  La12  1  0.55937100  0.55937100  0.94062900  1
  La  La13  1  0.15445600  0.53663100  0.15445600  1
  La  La14  1  0.68958800  0.31041200  0.31041200  1
  La  La15  1  0.94062900  0.55937100  0.94062900  1
  Cd  Cd16  1  0.23616200  0.92127900  0.92127900  1
  Cd  Cd17  1  0.92127900  0.92127900  0.92127900  1
  Cd  Cd18  1  0.92127900  0.92127900  0.23616200  1
  Cd  Cd19  1  0.92127900  0.23616200  0.92127900  1
  Co  Co20  1  0.92056000  0.35981300  0.35981300  1
  Co  Co21  1  0.35981300  0.35981300  0.92056000  1
  Co  Co22  1  0.35981300  0.92056000  0.35981300  1
  Co  Co23  1  0.35981300  0.35981300  0.35981300  1
