# generated using pymatgen
data_MnP2PbO7
_symmetry_space_group_name_H-M   'P 1'
_cell_length_a   8.58511300
_cell_length_b   5.48951300
_cell_length_c   14.18245088
_cell_angle_alpha   67.42912110
_cell_angle_beta   90.00000000
_cell_angle_gamma   90.00000000
_symmetry_Int_Tables_number   1
_chemical_formula_structural   MnP2PbO7
_chemical_formula_sum   'Mn4 P8 Pb4 O28'
_cell_volume   617.19662251
_cell_formula_units_Z   4
loop_
 _symmetry_equiv_pos_site_id
 _symmetry_equiv_pos_as_xyz
  1  'x, y, z'
loop_
 _atom_site_type_symbol
 _atom_site_label
 _atom_site_symmetry_multiplicity
 _atom_site_fract_x
 _atom_site_fract_y
 _atom_site_fract_z
 _atom_site_occupancy
  Mn  Mn0  1  0.85072000  0.72345000  0.60300200  1
  Mn  Mn1  1  0.35072000  0.27655000  0.89699800  1
  Mn  Mn2  1  0.14928000  0.27655000  0.39699800  1
  Mn  Mn3  1  0.64928000  0.72345000  0.10300200  1
  P  P4  1  0.79443500  0.33559700  0.47899500  1
  P  P5  1  0.29443500  0.66440300  0.02100500  1
  P  P6  1  0.20556500  0.66440300  0.52100500  1
  P  P7  1  0.70556500  0.33559700  0.97899500  1
  P  P8  1  0.53784500  0.42316200  0.33203200  1
  P  P9  1  0.03784500  0.57683800  0.16796800  1
  P  P10  1  0.46215500  0.57683800  0.66796800  1
  P  P11  1  0.96215500  0.42316200  0.83203200  1
  Pb  Pb12  1  0.67774800  0.02205600  0.77468600  1
  Pb  Pb13  1  0.17774800  0.97794400  0.72531400  1
  Pb  Pb14  1  0.32225200  0.97794400  0.22531400  1
  Pb  Pb15  1  0.82225200  0.02205600  0.27468600  1
  O  O16  1  0.82820400  0.61472200  0.47367900  1
  O  O17  1  0.32820400  0.38527800  0.02632100  1
  O  O18  1  0.17179600  0.38527800  0.52632100  1
  O  O19  1  0.67179600  0.61472200  0.97367900  1
  O  O20  1  0.80066600  0.11970400  0.58718000  1
  O  O21  1  0.30066600  0.88029600  0.91282000  1
  O  O22  1  0.19933400  0.88029600  0.41282000  1
  O  O23  1  0.69933400  0.11970400  0.08718000  1
  O  O24  1  0.89655600  0.26130000  0.40440400  1
  O  O25  1  0.39655600  0.73870000  0.09559600  1
  O  O26  1  0.10344400  0.73870000  0.59559600  1
  O  O27  1  0.60344400  0.26130000  0.90440400  1
  O  O28  1  0.61401000  0.32932400  0.44466400  1
  O  O29  1  0.11401000  0.67067600  0.05533600  1
  O  O30  1  0.38599000  0.67067600  0.55533600  1
  O  O31  1  0.88599000  0.32932400  0.94466400  1
  O  O32  1  0.36566300  0.47288200  0.34537600  1
  O  O33  1  0.86566300  0.52711800  0.15462400  1
  O  O34  1  0.63433700  0.52711800  0.65462400  1
  O  O35  1  0.13433700  0.47288200  0.84537600  1
  O  O36  1  0.61675100  0.68409200  0.26327400  1
  O  O37  1  0.11675100  0.31590800  0.23672600  1
  O  O38  1  0.38324900  0.31590800  0.73672600  1
  O  O39  1  0.88324900  0.68409200  0.76327400  1
  O  O40  1  0.56507000  0.20401500  0.29172300  1
  O  O41  1  0.06507000  0.79598500  0.20827700  1
  O  O42  1  0.43493000  0.79598500  0.70827700  1
  O  O43  1  0.93493000  0.20401500  0.79172300  1
