# generated using pymatgen
data_KMn(SeO4)2
_symmetry_space_group_name_H-M   'P 1'
_cell_length_a   5.60284722
_cell_length_b   8.14971814
_cell_length_c   8.35441417
_cell_angle_alpha   83.29314334
_cell_angle_beta   87.83728658
_cell_angle_gamma   87.68217090
_symmetry_Int_Tables_number   1
_chemical_formula_structural   KMn(SeO4)2
_chemical_formula_sum   'K2 Mn2 Se4 O16'
_cell_volume   378.34604895
_cell_formula_units_Z   2
loop_
 _symmetry_equiv_pos_site_id
 _symmetry_equiv_pos_as_xyz
  1  'x, y, z'
loop_
 _atom_site_type_symbol
 _atom_site_label
 _atom_site_symmetry_multiplicity
 _atom_site_fract_x
 _atom_site_fract_y
 _atom_site_fract_z
 _atom_site_occupancy
  K  K0  1  0.00000000  0.50000000  0.00000000  1
  K  K1  1  0.50000000  0.50000000  0.50000000  1
  Mn  Mn2  1  0.50000000  0.00000000  0.50000000  1
  Mn  Mn3  1  0.00000000  0.00000000  0.00000000  1
  Se  Se4  1  0.00594800  0.20330900  0.62390100  1
  Se  Se5  1  0.50594800  0.20330900  0.12390100  1
  Se  Se6  1  0.99405200  0.79669100  0.37609900  1
  Se  Se7  1  0.49405200  0.79669100  0.87609900  1
  O  O8  1  0.26621700  0.18649300  0.51144900  1
  O  O9  1  0.76621700  0.18649300  0.01144900  1
  O  O10  1  0.73378300  0.81350700  0.48855100  1
  O  O11  1  0.23378300  0.81350700  0.98855100  1
  O  O12  1  0.99833600  0.96404600  0.23539700  1
  O  O13  1  0.49833600  0.96404600  0.73539700  1
  O  O14  1  0.00166400  0.03595400  0.76460300  1
  O  O15  1  0.50166400  0.03595400  0.26460300  1
  O  O16  1  0.00390100  0.38519900  0.68992700  1
  O  O17  1  0.50390100  0.38519900  0.18992700  1
  O  O18  1  0.99609900  0.61480100  0.31007300  1
  O  O19  1  0.49609900  0.61480100  0.81007300  1
  O  O20  1  0.77941100  0.18848900  0.50341800  1
  O  O21  1  0.27941100  0.18848900  0.00341800  1
  O  O22  1  0.22058900  0.81151100  0.49658200  1
  O  O23  1  0.72058900  0.81151100  0.99658200  1
