# generated using pymatgen
data_Cs12Nb(In2As3)3
_symmetry_space_group_name_H-M   'P 1'
_cell_length_a   9.74877700
_cell_length_b   9.79463970
_cell_length_c   25.67041274
_cell_angle_alpha   86.83578720
_cell_angle_beta   87.14093851
_cell_angle_gamma   63.54470606
_symmetry_Int_Tables_number   1
_chemical_formula_structural   Cs12Nb(In2As3)3
_chemical_formula_sum   'Cs24 Nb2 In12 As18'
_cell_volume   2190.25637691
_cell_formula_units_Z   2
loop_
 _symmetry_equiv_pos_site_id
 _symmetry_equiv_pos_as_xyz
  1  'x, y, z'
loop_
 _atom_site_type_symbol
 _atom_site_label
 _atom_site_symmetry_multiplicity
 _atom_site_fract_x
 _atom_site_fract_y
 _atom_site_fract_z
 _atom_site_occupancy
  Cs  Cs0  1  0.06044700  0.94668700  0.30720500  1
  Cs  Cs1  1  0.85225000  0.39103200  0.25883100  1
  Cs  Cs2  1  0.66518600  0.44195700  0.43238900  1
  Cs  Cs3  1  0.46540500  0.88301500  0.38399700  1
  Cs  Cs4  1  0.37966500  0.78994000  0.17902700  1
  Cs  Cs5  1  0.20113300  0.03882500  0.53376700  1
  Cs  Cs6  1  0.17607200  0.23669400  0.13236600  1
  Cs  Cs7  1  0.71201500  0.86705400  0.25101400  1
  Cs  Cs8  1  0.47504700  0.68536500  0.81338900  1
  Cs  Cs9  1  0.93955300  0.05331300  0.69279500  1
  Cs  Cs10  1  0.75744100  0.30463300  0.06461200  1
  Cs  Cs11  1  0.28798500  0.13294600  0.74898600  1
  Cs  Cs12  1  0.33481400  0.55804300  0.56761100  1
  Cs  Cs13  1  0.53459500  0.11698500  0.61600300  1
  Cs  Cs14  1  0.46284100  0.23509300  0.98366900  1
  Cs  Cs15  1  0.14775000  0.60896800  0.74116900  1
  Cs  Cs16  1  0.62033500  0.21006000  0.82097300  1
  Cs  Cs17  1  0.00000000  0.50000000  0.50000000  1
  Cs  Cs18  1  0.24255900  0.69536700  0.93538800  1
  Cs  Cs19  1  0.53715900  0.76490700  0.01633100  1
  Cs  Cs20  1  0.79886700  0.96117500  0.46623300  1
  Cs  Cs21  1  0.52495300  0.31463500  0.18661100  1
  Cs  Cs22  1  0.00000000  0.50000000  0.00000000  1
  Cs  Cs23  1  0.82392800  0.76330600  0.86763400  1
  Nb  Nb24  1  0.75806300  0.44240600  0.61214700  1
  Nb  Nb25  1  0.24193700  0.55759400  0.38785300  1
  In  In26  1  0.47614600  0.76613200  0.66550200  1
  In  In27  1  0.17564200  0.50354000  0.26675000  1
  In  In28  1  0.92166500  0.11910400  0.94091200  1
  In  In29  1  0.70303900  0.93946200  0.10497600  1
  In  In30  1  0.52385400  0.23386800  0.33449800  1
  In  In31  1  0.07833500  0.88089600  0.05908800  1
  In  In32  1  0.12902800  0.27225800  0.37600000  1
  In  In33  1  0.87097200  0.72774200  0.62400000  1
  In  In34  1  0.05372500  0.65832800  0.15875800  1
  In  In35  1  0.82435800  0.49646000  0.73325000  1
  In  In36  1  0.94627500  0.34167200  0.84124200  1
  In  In37  1  0.29696100  0.06053800  0.89502400  1
  As  As38  1  0.15798600  0.08587700  0.00372400  1
  As  As39  1  0.79042500  0.24473800  0.55386000  1
  As  As40  1  0.58730900  0.44393900  0.69064500  1
  As  As41  1  0.20957500  0.75526200  0.44614000  1
  As  As42  1  0.36620600  0.29400300  0.43322800  1
  As  As43  1  0.29918800  0.18068700  0.27696100  1
  As  As44  1  0.01947400  0.40110800  0.64391700  1
  As  As45  1  0.71700500  0.41807100  0.91752200  1
  As  As46  1  0.63379400  0.70599700  0.56677200  1
  As  As47  1  0.19615400  0.37826600  0.86408100  1
  As  As48  1  0.04912500  0.02403400  0.84139100  1
  As  As49  1  0.70081200  0.81931300  0.72303900  1
  As  As50  1  0.28299500  0.58192900  0.08247800  1
  As  As51  1  0.84201400  0.91412300  0.99627600  1
  As  As52  1  0.41269100  0.55606100  0.30935500  1
  As  As53  1  0.95087500  0.97596600  0.15860900  1
  As  As54  1  0.98052600  0.59889200  0.35608300  1
  As  As55  1  0.80384600  0.62173400  0.13591900  1
