# generated using pymatgen
data_Ba2Zn3(PO3)10
_symmetry_space_group_name_H-M   'P 1'
_cell_length_a   5.43476500
_cell_length_b   10.89607400
_cell_length_c   22.88097296
_cell_angle_alpha   71.60149651
_cell_angle_beta   90.00000000
_cell_angle_gamma   90.00000000
_symmetry_Int_Tables_number   1
_chemical_formula_structural   Ba2Zn3(PO3)10
_chemical_formula_sum   'Ba4 Zn6 P20 O60'
_cell_volume   1285.69673956
_cell_formula_units_Z   2
loop_
 _symmetry_equiv_pos_site_id
 _symmetry_equiv_pos_as_xyz
  1  'x, y, z'
loop_
 _atom_site_type_symbol
 _atom_site_label
 _atom_site_symmetry_multiplicity
 _atom_site_fract_x
 _atom_site_fract_y
 _atom_site_fract_z
 _atom_site_occupancy
  Ba  Ba0  1  0.50469700  0.38975500  0.42440800  1
  Ba  Ba1  1  0.49530300  0.61024500  0.57559200  1
  Ba  Ba2  1  0.49530300  0.38975500  0.92440800  1
  Ba  Ba3  1  0.50469700  0.61024500  0.07559200  1
  Zn  Zn4  1  0.55074100  0.50000000  0.75000000  1
  Zn  Zn5  1  0.50000000  0.00000000  0.50000000  1
  Zn  Zn6  1  0.44925900  0.50000000  0.25000000  1
  Zn  Zn7  1  0.47156500  0.00000000  0.75000000  1
  Zn  Zn8  1  0.50000000  0.00000000  0.00000000  1
  Zn  Zn9  1  0.52843500  0.00000000  0.25000000  1
  P  P10  1  0.95613700  0.68217400  0.19567800  1
  P  P11  1  0.90639000  0.62898600  0.92565600  1
  P  P12  1  0.77695500  0.72488200  0.79568000  1
  P  P13  1  0.01541300  0.16090000  0.52216900  1
  P  P14  1  0.04386300  0.31782600  0.80432200  1
  P  P15  1  0.98458700  0.16090000  0.02216900  1
  P  P16  1  0.09361000  0.62898600  0.42565600  1
  P  P17  1  0.22304500  0.27511800  0.20432000  1
  P  P18  1  0.01541300  0.83910000  0.97783100  1
  P  P19  1  0.95613700  0.31782600  0.30432200  1
  P  P20  1  0.77695500  0.27511800  0.70432000  1
  P  P21  1  0.98458700  0.83910000  0.47783100  1
  P  P22  1  0.21572600  0.95718000  0.62954300  1
  P  P23  1  0.21572600  0.04282000  0.87045700  1
  P  P24  1  0.04386300  0.68217400  0.69567800  1
  P  P25  1  0.78427400  0.04282000  0.37045700  1
  P  P26  1  0.90639000  0.37101400  0.57434400  1
  P  P27  1  0.09361000  0.37101400  0.07434400  1
  P  P28  1  0.22304500  0.72488200  0.29568000  1
  P  P29  1  0.78427400  0.95718000  0.12954300  1
  O  O30  1  0.34473600  0.39616200  0.04550900  1
  O  O31  1  0.95003200  0.48456700  0.07924800  1
  O  O32  1  0.56240000  0.05529500  0.40720200  1
  O  O33  1  0.99213000  0.04666300  0.08606900  1
  O  O34  1  0.76556600  0.14908700  0.98371000  1
  O  O35  1  0.75290500  0.00563400  0.18340600  1
  O  O36  1  0.60601800  0.39037900  0.69045000  1
  O  O37  1  0.97029200  0.69665900  0.26367000  1
  O  O38  1  0.23767900  0.16817700  0.99482500  1
  O  O39  1  0.24709500  0.00563400  0.68340600  1
  O  O40  1  0.68331100  0.85360300  0.75670700  1
  O  O41  1  0.02970800  0.30334100  0.73633000  1
  O  O42  1  0.31668900  0.14639700  0.24329300  1
  O  O43  1  0.05558200  0.82651200  0.64905800  1
  O  O44  1  0.00787000  0.95333700  0.91393100  1
  O  O45  1  0.75290500  0.99436600  0.31659400  1
  O  O46  1  0.68331100  0.14639700  0.74329300  1
  O  O47  1  0.92534900  0.28936100  0.04098100  1
  O  O48  1  0.76556600  0.85091300  0.51629000  1
  O  O49  1  0.04996800  0.51543300  0.92075200  1
  O  O50  1  0.94441800  0.17348800  0.35094200  1
  O  O51  1  0.34473600  0.60383800  0.45449100  1
  O  O52  1  0.71765400  0.38485600  0.30927100  1
  O  O53  1  0.00787000  0.04666300  0.58606900  1
  O  O54  1  0.88437400  0.26103600  0.64189300  1
  O  O55  1  0.65526400  0.39616200  0.54550900  1
  O  O56  1  0.39398200  0.39037900  0.19045000  1
  O  O57  1  0.43760000  0.05529500  0.90720200  1
  O  O58  1  0.43760000  0.94470500  0.59279800  1
  O  O59  1  0.28234600  0.61514400  0.69072900  1
  O  O60  1  0.60601800  0.60962100  0.80955000  1
  O  O61  1  0.88437400  0.73896400  0.85810700  1
  O  O62  1  0.92534900  0.71063900  0.45901900  1
  O  O63  1  0.76232100  0.16817700  0.49482500  1
  O  O64  1  0.65526400  0.60383800  0.95449100  1
  O  O65  1  0.04996800  0.48456700  0.57924800  1
  O  O66  1  0.07465100  0.28936100  0.54098100  1
  O  O67  1  0.23767900  0.83182300  0.50517500  1
  O  O68  1  0.23443400  0.14908700  0.48371000  1
  O  O69  1  0.19450800  0.62617600  0.18229700  1
  O  O70  1  0.71765400  0.61514400  0.19072900  1
  O  O71  1  0.23443400  0.85091300  0.01629000  1
  O  O72  1  0.19450800  0.37382400  0.31770300  1
  O  O73  1  0.76232100  0.83182300  0.00517500  1
  O  O74  1  0.28234600  0.38485600  0.80927100  1
  O  O75  1  0.02970800  0.69665900  0.76367000  1
  O  O76  1  0.95003200  0.51543300  0.42075200  1
  O  O77  1  0.31668900  0.85360300  0.25670700  1
  O  O78  1  0.11562600  0.73896400  0.35810700  1
  O  O79  1  0.80549200  0.37382400  0.81770300  1
  O  O80  1  0.94441800  0.82651200  0.14905800  1
  O  O81  1  0.99213000  0.95333700  0.41393100  1
  O  O82  1  0.11562600  0.26103600  0.14189300  1
  O  O83  1  0.97029200  0.30334100  0.23633000  1
  O  O84  1  0.56240000  0.94470500  0.09279800  1
  O  O85  1  0.80549200  0.62617600  0.68229700  1
  O  O86  1  0.07465100  0.71063900  0.95901900  1
  O  O87  1  0.05558200  0.17348800  0.85094200  1
  O  O88  1  0.24709500  0.99436600  0.81659400  1
  O  O89  1  0.39398200  0.60962100  0.30955000  1
