# generated using pymatgen
data_K3NbAs2O9
_symmetry_space_group_name_H-M   'P 1'
_cell_length_a   5.53984200
_cell_length_b   8.02328600
_cell_length_c   22.94852200
_cell_angle_alpha   90.00000000
_cell_angle_beta   90.00000000
_cell_angle_gamma   90.00000000
_symmetry_Int_Tables_number   1
_chemical_formula_structural   K3NbAs2O9
_chemical_formula_sum   'K12 Nb4 As8 O36'
_cell_volume   1020.00986491
_cell_formula_units_Z   4
loop_
 _symmetry_equiv_pos_site_id
 _symmetry_equiv_pos_as_xyz
  1  'x, y, z'
loop_
 _atom_site_type_symbol
 _atom_site_label
 _atom_site_symmetry_multiplicity
 _atom_site_fract_x
 _atom_site_fract_y
 _atom_site_fract_z
 _atom_site_occupancy
  K  K0  1  0.25000000  0.47895100  0.79711100  1
  K  K1  1  0.75000000  0.84779600  0.40112100  1
  K  K2  1  0.75000000  0.12187200  0.03285800  1
  K  K3  1  0.75000000  0.37812800  0.53285800  1
  K  K4  1  0.75000000  0.52104900  0.20288900  1
  K  K5  1  0.25000000  0.15220400  0.59887900  1
  K  K6  1  0.25000000  0.02104900  0.29711100  1
  K  K7  1  0.25000000  0.62187200  0.46714200  1
  K  K8  1  0.75000000  0.97895100  0.70288900  1
  K  K9  1  0.75000000  0.65220400  0.90112100  1
  K  K10  1  0.25000000  0.87812800  0.96714200  1
  K  K11  1  0.25000000  0.34779600  0.09887900  1
  Nb  Nb12  1  0.25000000  0.81757700  0.14593300  1
  Nb  Nb13  1  0.25000000  0.68242300  0.64593300  1
  Nb  Nb14  1  0.75000000  0.31757700  0.35406700  1
  Nb  Nb15  1  0.75000000  0.18242300  0.85406700  1
  As  As16  1  0.75000000  0.85753100  0.56176200  1
  As  As17  1  0.75000000  0.45280000  0.70912300  1
  As  As18  1  0.25000000  0.54720000  0.29087700  1
  As  As19  1  0.75000000  0.04720000  0.20912300  1
  As  As20  1  0.25000000  0.35753100  0.93823800  1
  As  As21  1  0.25000000  0.14246900  0.43823800  1
  As  As22  1  0.75000000  0.64246900  0.06176200  1
  As  As23  1  0.25000000  0.95280000  0.79087700  1
  O  O24  1  0.75000000  0.29809700  0.65930000  1
  O  O25  1  0.25000000  0.90063800  0.71849600  1
  O  O26  1  0.99589200  0.66593400  0.11063700  1
  O  O27  1  0.25000000  0.97985500  0.09352900  1
  O  O28  1  0.75000000  0.47985500  0.40647100  1
  O  O29  1  0.00321500  0.08712300  0.79835500  1
  O  O30  1  0.50321500  0.91287700  0.20164500  1
  O  O31  1  0.99678500  0.91287700  0.20164500  1
  O  O32  1  0.49678500  0.41287700  0.29835500  1
  O  O33  1  0.75000000  0.20190300  0.15930000  1
  O  O34  1  0.75000000  0.70590700  0.51085300  1
  O  O35  1  0.00410800  0.16593400  0.38936300  1
  O  O36  1  0.50321500  0.58712300  0.70164500  1
  O  O37  1  0.25000000  0.52014500  0.59352900  1
  O  O38  1  0.75000000  0.40063800  0.78150400  1
  O  O39  1  0.50410800  0.83406600  0.61063700  1
  O  O40  1  0.49589200  0.33406600  0.88936300  1
  O  O41  1  0.99589200  0.83406600  0.61063700  1
  O  O42  1  0.00321500  0.41287700  0.29835500  1
  O  O43  1  0.75000000  0.09936200  0.28150400  1
  O  O44  1  0.00410800  0.33406600  0.88936300  1
  O  O45  1  0.25000000  0.79809700  0.84070000  1
  O  O46  1  0.99678500  0.58712300  0.70164500  1
  O  O47  1  0.75000000  0.02014500  0.90647100  1
  O  O48  1  0.49589200  0.16593400  0.38936300  1
  O  O49  1  0.75000000  0.79409300  0.01085300  1
  O  O50  1  0.75000000  0.44184800  0.04149900  1
  O  O51  1  0.25000000  0.70190300  0.34070000  1
  O  O52  1  0.25000000  0.20590700  0.98914700  1
  O  O53  1  0.25000000  0.94184800  0.45850100  1
  O  O54  1  0.25000000  0.59936200  0.21849600  1
  O  O55  1  0.25000000  0.55815200  0.95850100  1
  O  O56  1  0.49678500  0.08712300  0.79835500  1
  O  O57  1  0.50410800  0.66593400  0.11063700  1
  O  O58  1  0.25000000  0.29409300  0.48914700  1
  O  O59  1  0.75000000  0.05815200  0.54149900  1
