# generated using pymatgen
data_Ca14MnBi11
_symmetry_space_group_name_H-M   'P 1'
_cell_length_a   16.60538107
_cell_length_b   16.60538107
_cell_length_c   16.60538107
_cell_angle_alpha   117.56788678
_cell_angle_beta   117.56788678
_cell_angle_gamma   94.26683335
_symmetry_Int_Tables_number   1
_chemical_formula_structural   Ca14MnBi11
_chemical_formula_sum   'Ca56 Mn4 Bi44'
_cell_volume   3346.64360215
_cell_formula_units_Z   4
loop_
 _symmetry_equiv_pos_site_id
 _symmetry_equiv_pos_as_xyz
  1  'x, y, z'
loop_
 _atom_site_type_symbol
 _atom_site_label
 _atom_site_symmetry_multiplicity
 _atom_site_fract_x
 _atom_site_fract_y
 _atom_site_fract_z
 _atom_site_occupancy
  Ca  Ca0  1  0.30769000  0.64561100  0.01869000  1
  Ca  Ca1  1  0.39986900  0.00336700  0.64856100  1
  Ca  Ca2  1  0.39561100  0.87692100  0.83792100  1
  Ca  Ca3  1  0.16153800  0.37882900  0.13464500  1
  Ca  Ca4  1  0.03900000  0.55769000  0.16207900  1
  Ca  Ca5  1  0.25336700  0.14986900  0.14856100  1
  Ca  Ca6  1  0.99663300  0.64519500  0.39650200  1
  Ca  Ca7  1  0.21100000  0.87307900  0.01869000  1
  Ca  Ca8  1  0.47905000  0.87500000  0.10405100  1
  Ca  Ca9  1  0.85013100  0.99869300  0.10349800  1
  Ca  Ca10  1  0.62500000  0.52095000  0.39595000  1
  Ca  Ca11  1  0.35013100  0.24663300  0.85143900  1
  Ca  Ca12  1  0.85438900  0.19231000  0.98131000  1
  Ca  Ca13  1  0.74418400  0.87882900  0.21729100  1
  Ca  Ca14  1  0.77094900  0.37500000  0.89594900  1
  Ca  Ca15  1  0.12117100  0.33846200  0.86535500  1
  Ca  Ca16  1  0.94231000  0.46100000  0.83792100  1
  Ca  Ca17  1  0.75336700  0.60480500  0.10349800  1
  Ca  Ca18  1  0.71100000  0.69231000  0.33792100  1
  Ca  Ca19  1  0.49663300  0.10013100  0.35143900  1
  Ca  Ca20  1  0.89986900  0.25130700  0.39650200  1
  Ca  Ca21  1  0.35480500  0.75130700  0.35143900  1
  Ca  Ca22  1  0.35438900  0.37307900  0.66207900  1
  Ca  Ca23  1  0.50581600  0.22310700  0.63464500  1
  Ca  Ca24  1  0.24418400  0.02689300  0.86535500  1
  Ca  Ca25  1  0.62307900  0.10438900  0.16207900  1
  Ca  Ca26  1  0.85480500  0.50336700  0.60349800  1
  Ca  Ca27  1  0.89519500  0.74663300  0.89650200  1
  Ca  Ca28  1  0.89561100  0.05769000  0.51869000  1
  Ca  Ca29  1  0.12307900  0.96100000  0.51869000  1
  Ca  Ca30  1  0.62882900  0.91153800  0.63464500  1
  Ca  Ca31  1  0.08846200  0.72310700  0.71729100  1
  Ca  Ca32  1  0.12692100  0.14561100  0.33792100  1
  Ca  Ca33  1  0.27095000  0.37500000  0.39594900  1
  Ca  Ca34  1  0.53900000  0.37692100  0.48131000  1
  Ca  Ca35  1  0.62500000  0.02094900  0.89594900  1
  Ca  Ca36  1  0.74869300  0.14519500  0.64856100  1
  Ca  Ca37  1  0.00581600  0.37117100  0.28270900  1
  Ca  Ca38  1  0.12882900  0.49418400  0.71729100  1
  Ca  Ca39  1  0.50130700  0.64986900  0.89650200  1
  Ca  Ca40  1  0.97310700  0.83846200  0.21729100  1
  Ca  Ca41  1  0.58846200  0.87117100  0.36535500  1
  Ca  Ca42  1  0.12500000  0.22905100  0.60405100  1
  Ca  Ca43  1  0.24869300  0.60013100  0.60349800  1
  Ca  Ca44  1  0.77689300  0.41153800  0.28270900  1
  Ca  Ca45  1  0.62117100  0.75581600  0.78270900  1
  Ca  Ca46  1  0.44231000  0.60438900  0.48131000  1
  Ca  Ca47  1  0.12500000  0.72905100  0.10405100  1
  Ca  Ca48  1  0.62692100  0.28900000  0.98131000  1
  Ca  Ca49  1  0.97905100  0.87500000  0.60405100  1
  Ca  Ca50  1  0.39519500  0.49869300  0.14856100  1
  Ca  Ca51  1  0.27689300  0.99418400  0.36535500  1
  Ca  Ca52  1  0.66153800  0.52689300  0.78270900  1
  Ca  Ca53  1  0.00130700  0.10480500  0.85143900  1
  Ca  Ca54  1  0.80769000  0.78900000  0.66207900  1
  Ca  Ca55  1  0.47310700  0.25581600  0.13464500  1
  Mn  Mn56  1  0.00000000  0.00000000  0.00000000  1
  Mn  Mn57  1  0.50000000  0.50000000  0.00000000  1
  Mn  Mn58  1  0.25000000  0.75000000  0.50000000  1
  Mn  Mn59  1  0.75000000  0.25000000  0.50000000  1
  Bi  Bi60  1  0.29713200  0.43148200  0.85440100  1
  Bi  Bi61  1  0.36250900  0.86250900  0.22501900  1
  Bi  Bi62  1  0.79713200  0.94273100  0.86565000  1
  Bi  Bi63  1  0.17291900  0.80726900  0.35440100  1
  Bi  Bi64  1  0.95819100  0.05062400  0.35338000  1
  Bi  Bi65  1  0.18148200  0.82708100  0.63435000  1
  Bi  Bi66  1  0.11250900  0.11250900  0.72501900  1
  Bi  Bi67  1  0.79180900  0.19937600  0.14662000  1
  Bi  Bi68  1  0.35481100  0.20819100  0.40756700  1
  Bi  Bi69  1  0.25000000  0.25000000  0.00000000  1
  Bi  Bi70  1  0.80062400  0.94724300  0.59243300  1
  Bi  Bi71  1  0.45286800  0.81851800  0.64559900  1
  Bi  Bi72  1  0.05726900  0.92291900  0.85440100  1
  Bi  Bi73  1  0.86250900  0.63749100  0.50000000  1
  Bi  Bi74  1  0.55275700  0.69937600  0.40756700  1
  Bi  Bi75  1  0.68148200  0.04713200  0.35440100  1
  Bi  Bi76  1  0.06851800  0.20286800  0.14559900  1
  Bi  Bi77  1  0.13749100  0.36250900  0.50000000  1
  Bi  Bi78  1  0.19273100  0.54713200  0.36565000  1
  Bi  Bi79  1  0.38749100  0.38749100  0.27498100  1
  Bi  Bi80  1  0.50000000  0.00000000  0.50000000  1
  Bi  Bi81  1  0.07708100  0.93148200  0.13435000  1
  Bi  Bi82  1  0.56851800  0.42291900  0.86565000  1
  Bi  Bi83  1  0.44937600  0.54180900  0.64662000  1
  Bi  Bi84  1  0.67291900  0.31851800  0.36565000  1
  Bi  Bi85  1  0.45819100  0.10481100  0.90756700  1
  Bi  Bi86  1  0.39518900  0.04180900  0.09243300  1
  Bi  Bi87  1  0.89518900  0.80275700  0.35338000  1
  Bi  Bi88  1  0.69724300  0.60481100  0.64662000  1
  Bi  Bi89  1  0.69273100  0.32708100  0.64559900  1
  Bi  Bi90  1  0.75000000  0.75000000  0.00000000  1
  Bi  Bi91  1  0.19724300  0.55062400  0.09243300  1
  Bi  Bi92  1  0.95286800  0.30726900  0.63435000  1
  Bi  Bi93  1  0.85481100  0.44724300  0.14662000  1
  Bi  Bi94  1  0.88749100  0.61250900  0.00000000  1
  Bi  Bi95  1  0.30062400  0.70819100  0.85338000  1
  Bi  Bi96  1  0.00000000  0.50000000  0.50000000  1
  Bi  Bi97  1  0.29180900  0.14518900  0.59243300  1
  Bi  Bi98  1  0.63749100  0.13749100  0.77498100  1
  Bi  Bi99  1  0.55726900  0.70286800  0.13435000  1
  Bi  Bi100  1  0.57708100  0.44273100  0.14559900  1
  Bi  Bi101  1  0.05275700  0.64518900  0.85338000  1
  Bi  Bi102  1  0.94937600  0.30275700  0.90756700  1
  Bi  Bi103  1  0.61250900  0.88749100  0.00000000  1
