# generated using pymatgen
data_K6Si2S6O
_symmetry_space_group_name_H-M   'P 1'
_cell_length_a   11.85762300
_cell_length_b   8.42418800
_cell_length_c   8.85654871
_cell_angle_alpha   67.91689279
_cell_angle_beta   90.00000000
_cell_angle_gamma   90.00000000
_symmetry_Int_Tables_number   1
_chemical_formula_structural   K6Si2S6O
_chemical_formula_sum   'K12 Si4 S12 O2'
_cell_volume   819.78698685
_cell_formula_units_Z   2
loop_
 _symmetry_equiv_pos_site_id
 _symmetry_equiv_pos_as_xyz
  1  'x, y, z'
loop_
 _atom_site_type_symbol
 _atom_site_label
 _atom_site_symmetry_multiplicity
 _atom_site_fract_x
 _atom_site_fract_y
 _atom_site_fract_z
 _atom_site_occupancy
  K  K0  1  0.32724100  0.98906700  0.00768800  1
  K  K1  1  0.22085100  0.69204200  0.45650000  1
  K  K2  1  0.56198900  0.28287100  0.22559700  1
  K  K3  1  0.82724100  0.51093300  0.99231200  1
  K  K4  1  0.43801100  0.71712900  0.77440300  1
  K  K5  1  0.77914900  0.30795800  0.54350000  1
  K  K6  1  0.06198900  0.21712900  0.77440300  1
  K  K7  1  0.93801100  0.78287100  0.22559700  1
  K  K8  1  0.27914900  0.19204200  0.45650000  1
  K  K9  1  0.72085100  0.80795800  0.54350000  1
  K  K10  1  0.67275900  0.01093300  0.99231200  1
  K  K11  1  0.17275900  0.48906700  0.00768800  1
  Si  Si12  1  0.48986700  0.35022800  0.68452200  1
  Si  Si13  1  0.98986700  0.14977200  0.31547800  1
  Si  Si14  1  0.51013300  0.64977200  0.31547800  1
  Si  Si15  1  0.01013300  0.85022800  0.68452200  1
  S  S16  1  0.97724400  0.60979400  0.66508200  1
  S  S17  1  0.88442300  0.91167200  0.82670300  1
  S  S18  1  0.82139800  0.13029800  0.23930700  1
  S  S19  1  0.61557700  0.41167200  0.82670300  1
  S  S20  1  0.32139800  0.36970200  0.76069300  1
  S  S21  1  0.11557700  0.08832800  0.17329700  1
  S  S22  1  0.47724400  0.89020600  0.33491800  1
  S  S23  1  0.38442300  0.58832800  0.17329700  1
  S  S24  1  0.02275600  0.39020600  0.33491800  1
  S  S25  1  0.67860200  0.63029800  0.23930700  1
  S  S26  1  0.52275600  0.10979400  0.66508200  1
  S  S27  1  0.17860200  0.86970200  0.76069300  1
  O  O28  1  0.50000000  0.50000000  0.50000000  1
  O  O29  1  0.00000000  0.00000000  0.50000000  1
