# generated using pymatgen
data_Na4Mn3P4O15
_symmetry_space_group_name_H-M   'P 1'
_cell_length_a   6.71912400
_cell_length_b   10.89602200
_cell_length_c   18.36566500
_cell_angle_alpha   90.00000000
_cell_angle_beta   90.00000000
_cell_angle_gamma   90.00000000
_symmetry_Int_Tables_number   1
_chemical_formula_structural   Na4Mn3P4O15
_chemical_formula_sum   'Na16 Mn12 P16 O60'
_cell_volume   1344.58197731
_cell_formula_units_Z   4
loop_
 _symmetry_equiv_pos_site_id
 _symmetry_equiv_pos_as_xyz
  1  'x, y, z'
loop_
 _atom_site_type_symbol
 _atom_site_label
 _atom_site_symmetry_multiplicity
 _atom_site_fract_x
 _atom_site_fract_y
 _atom_site_fract_z
 _atom_site_occupancy
  Na  Na0  1  0.65892300  0.75284500  0.20702900  1
  Na  Na1  1  0.32291800  0.04305500  0.96429600  1
  Na  Na2  1  0.19164300  0.02017400  0.49219400  1
  Na  Na3  1  0.69164300  0.52017400  0.00780600  1
  Na  Na4  1  0.56695500  0.72768800  0.39879300  1
  Na  Na5  1  0.65892300  0.74715500  0.70702900  1
  Na  Na6  1  0.06695500  0.27231200  0.60120700  1
  Na  Na7  1  0.15892300  0.24715500  0.79297100  1
  Na  Na8  1  0.56695500  0.77231200  0.89879300  1
  Na  Na9  1  0.32291800  0.45694500  0.46429600  1
  Na  Na10  1  0.06695500  0.22768800  0.10120700  1
  Na  Na11  1  0.82291800  0.95694500  0.03570400  1
  Na  Na12  1  0.15892300  0.25284500  0.29297100  1
  Na  Na13  1  0.82291800  0.54305500  0.53570400  1
  Na  Na14  1  0.19164300  0.47982600  0.99219400  1
  Na  Na15  1  0.69164300  0.97982600  0.50780600  1
  Mn  Mn16  1  0.40967000  0.98888300  0.64074800  1
  Mn  Mn17  1  0.39818600  0.50554900  0.66196600  1
  Mn  Mn18  1  0.40967000  0.51111700  0.14074800  1
  Mn  Mn19  1  0.67666000  0.25503300  0.23819400  1
  Mn  Mn20  1  0.89818600  0.00554900  0.83803400  1
  Mn  Mn21  1  0.90967000  0.48888300  0.85925200  1
  Mn  Mn22  1  0.90967000  0.01111700  0.35925200  1
  Mn  Mn23  1  0.17666000  0.75503300  0.26180600  1
  Mn  Mn24  1  0.67666000  0.24496700  0.73819400  1
  Mn  Mn25  1  0.89818600  0.49445100  0.33803400  1
  Mn  Mn26  1  0.39818600  0.99445100  0.16196600  1
  Mn  Mn27  1  0.17666000  0.74496700  0.76180600  1
  P  P28  1  0.35427400  0.72979300  0.55173800  1
  P  P29  1  0.41742600  0.48575600  0.82068600  1
  P  P30  1  0.40707000  0.49418000  0.29842100  1
  P  P31  1  0.54477900  0.24213500  0.06396100  1
  P  P32  1  0.35427400  0.77020700  0.05173800  1
  P  P33  1  0.85427400  0.27020700  0.44826200  1
  P  P34  1  0.91742600  0.51424400  0.17931400  1
  P  P35  1  0.40707000  0.00582000  0.79842100  1
  P  P36  1  0.90707000  0.50582000  0.70157900  1
  P  P37  1  0.91742600  0.98575600  0.67931400  1
  P  P38  1  0.04477900  0.74213500  0.43603900  1
  P  P39  1  0.41742600  0.01424400  0.32068600  1
  P  P40  1  0.85427400  0.22979300  0.94826200  1
  P  P41  1  0.90707000  0.99418000  0.20157900  1
  P  P42  1  0.04477900  0.75786500  0.93603900  1
  P  P43  1  0.54477900  0.25786500  0.56396100  1
  O  O44  1  0.44652600  0.12101000  0.26354300  1
  O  O45  1  0.71734900  0.96293400  0.15743600  1
  O  O46  1  0.08055200  0.01571600  0.14855300  1
  O  O47  1  0.89399900  0.63910800  0.42070800  1
  O  O48  1  0.93936800  0.63315000  0.94363800  1
  O  O49  1  0.62813500  0.29309800  0.48234800  1
  O  O50  1  0.59466100  0.99660800  0.37322200  1
  O  O51  1  0.44206200  0.11295500  0.74256000  1
  O  O52  1  0.09466100  0.49660800  0.12677800  1
  O  O53  1  0.21787200  0.74370200  0.38249900  1
  O  O54  1  0.72579600  0.54433500  0.13608100  1
  O  O55  1  0.94206200  0.88704500  0.25744000  1
  O  O56  1  0.93936800  0.86685000  0.44363800  1
  O  O57  1  0.12813500  0.79309800  0.01765200  1
  O  O58  1  0.58055200  0.51571600  0.35144700  1
  O  O59  1  0.94206200  0.61295500  0.75744000  1
  O  O60  1  0.88705100  0.38935800  0.75179000  1
  O  O61  1  0.94652600  0.62101000  0.23645700  1
  O  O62  1  0.44652600  0.37899000  0.76354300  1
  O  O63  1  0.38705100  0.61064200  0.24821000  1
  O  O64  1  0.21734900  0.46293400  0.34256400  1
  O  O65  1  0.71787200  0.25629800  0.61750100  1
  O  O66  1  0.89847100  0.39655800  0.22834600  1
  O  O67  1  0.90488600  0.36557600  0.96153700  1
  O  O68  1  0.62813500  0.20690200  0.98234800  1
  O  O69  1  0.43936800  0.13315000  0.55636200  1
  O  O70  1  0.33705900  0.79891800  0.13336700  1
  O  O71  1  0.83705900  0.20108200  0.86663300  1
  O  O72  1  0.89847100  0.10344200  0.72834600  1
  O  O73  1  0.83705900  0.29891800  0.36663300  1
  O  O74  1  0.98930600  0.36067200  0.48809000  1
  O  O75  1  0.09466100  0.00339200  0.62677800  1
  O  O76  1  0.59466100  0.50339200  0.87322200  1
  O  O77  1  0.39847100  0.89655800  0.27165400  1
  O  O78  1  0.48930600  0.86067200  0.01191000  1
  O  O79  1  0.21734900  0.03706600  0.84256400  1
  O  O80  1  0.72579600  0.95566500  0.63608100  1
  O  O81  1  0.48930600  0.63932800  0.51191000  1
  O  O82  1  0.94652600  0.87899000  0.73645700  1
  O  O83  1  0.38705100  0.88935800  0.74821000  1
  O  O84  1  0.39847100  0.60344200  0.77165400  1
  O  O85  1  0.58055200  0.98428400  0.85144700  1
  O  O86  1  0.33705900  0.70108200  0.63336700  1
  O  O87  1  0.71787200  0.24370200  0.11750100  1
  O  O88  1  0.98930600  0.13932800  0.98809000  1
  O  O89  1  0.40488600  0.63442400  0.03846300  1
  O  O90  1  0.90488600  0.13442400  0.46153700  1
  O  O91  1  0.43936800  0.36685000  0.05636200  1
  O  O92  1  0.44206200  0.38704500  0.24256000  1
  O  O93  1  0.22579600  0.04433500  0.36391900  1
  O  O94  1  0.08055200  0.48428400  0.64855300  1
  O  O95  1  0.40488600  0.86557600  0.53846300  1
  O  O96  1  0.89399900  0.86089200  0.92070800  1
  O  O97  1  0.71734900  0.53706600  0.65743600  1
  O  O98  1  0.22579600  0.45566500  0.86391900  1
  O  O99  1  0.39399900  0.36089200  0.57929200  1
  O  O100  1  0.88705100  0.11064200  0.25179000  1
  O  O101  1  0.12813500  0.70690200  0.51765200  1
  O  O102  1  0.39399900  0.13910800  0.07929200  1
  O  O103  1  0.21787200  0.75629800  0.88249900  1
