# generated using pymatgen
data_TlBi(PSe3)2
_symmetry_space_group_name_H-M   'P 1'
_cell_length_a   7.67905300
_cell_length_b   12.63351300
_cell_length_c   12.85188639
_cell_angle_alpha   66.38727861
_cell_angle_beta   90.00000000
_cell_angle_gamma   90.00000000
_symmetry_Int_Tables_number   1
_chemical_formula_structural   TlBi(PSe3)2
_chemical_formula_sum   'Tl4 Bi4 P8 Se24'
_cell_volume   1142.41514262
_cell_formula_units_Z   4
loop_
 _symmetry_equiv_pos_site_id
 _symmetry_equiv_pos_as_xyz
  1  'x, y, z'
loop_
 _atom_site_type_symbol
 _atom_site_label
 _atom_site_symmetry_multiplicity
 _atom_site_fract_x
 _atom_site_fract_y
 _atom_site_fract_z
 _atom_site_occupancy
  Tl  Tl0  1  0.92326300  0.15198000  0.57898000  1
  Tl  Tl1  1  0.57673700  0.65198000  0.57898000  1
  Tl  Tl2  1  0.42326300  0.34802000  0.42102000  1
  Tl  Tl3  1  0.07673700  0.84802000  0.42102000  1
  Bi  Bi4  1  0.84751300  0.66079400  0.12100000  1
  Bi  Bi5  1  0.34751300  0.83920600  0.87900000  1
  Bi  Bi6  1  0.65248700  0.16079400  0.12100000  1
  Bi  Bi7  1  0.15248700  0.33920600  0.87900000  1
  P  P8  1  0.09122500  0.69392200  0.76291900  1
  P  P9  1  0.59122500  0.80607800  0.23708100  1
  P  P10  1  0.40877500  0.19392200  0.76291900  1
  P  P11  1  0.87010100  0.81402800  0.76421900  1
  P  P12  1  0.12989900  0.18597200  0.23578100  1
  P  P13  1  0.37010100  0.68597200  0.23578100  1
  P  P14  1  0.90877500  0.30607800  0.23708100  1
  P  P15  1  0.62989900  0.31402800  0.76421900  1
  Se  Se16  1  0.79974400  0.68497200  0.33582400  1
  Se  Se17  1  0.68173800  0.69478100  0.88880100  1
  Se  Se18  1  0.70025600  0.18497200  0.33582400  1
  Se  Se19  1  0.26549600  0.60230100  0.40688800  1
  Se  Se20  1  0.73450400  0.39769900  0.59311200  1
  Se  Se21  1  0.68597200  0.88338900  0.05753900  1
  Se  Se22  1  0.00614300  0.42793200  0.30534700  1
  Se  Se23  1  0.76549600  0.89769900  0.59311200  1
  Se  Se24  1  0.99385700  0.57206800  0.69465300  1
  Se  Se25  1  0.31402800  0.11661100  0.94246100  1
  Se  Se26  1  0.23450400  0.10230100  0.40688800  1
  Se  Se27  1  0.49341300  0.56423600  0.16916200  1
  Se  Se28  1  0.31826200  0.30521900  0.11119900  1
  Se  Se29  1  0.50614300  0.07206800  0.69465300  1
  Se  Se30  1  0.81402800  0.38338900  0.05753900  1
  Se  Se31  1  0.49385700  0.92793200  0.30534700  1
  Se  Se32  1  0.50658700  0.43576400  0.83083800  1
  Se  Se33  1  0.20025600  0.31502800  0.66417600  1
  Se  Se34  1  0.18597200  0.61661100  0.94246100  1
  Se  Se35  1  0.18173800  0.80521900  0.11119900  1
  Se  Se36  1  0.81826200  0.19478100  0.88880100  1
  Se  Se37  1  0.29974400  0.81502800  0.66417600  1
  Se  Se38  1  0.00658700  0.06423600  0.16916200  1
  Se  Se39  1  0.99341300  0.93576400  0.83083800  1
