# generated using pymatgen
data_Ba2Zr6BCl17
_symmetry_space_group_name_H-M   'P 1'
_cell_length_a   9.73951684
_cell_length_b   9.73951684
_cell_length_c   9.73951684
_cell_angle_alpha   105.29661026
_cell_angle_beta   105.29661026
_cell_angle_gamma   118.18812071
_symmetry_Int_Tables_number   1
_chemical_formula_structural   Ba2Zr6BCl17
_chemical_formula_sum   'Ba2 Zr6 B1 Cl17'
_cell_volume   698.68138200
_cell_formula_units_Z   1
loop_
 _symmetry_equiv_pos_site_id
 _symmetry_equiv_pos_as_xyz
  1  'x, y, z'
loop_
 _atom_site_type_symbol
 _atom_site_label
 _atom_site_symmetry_multiplicity
 _atom_site_fract_x
 _atom_site_fract_y
 _atom_site_fract_z
 _atom_site_occupancy
  Ba  Ba0  1  0.25000000  0.75000000  0.50000000  1
  Ba  Ba1  1  0.75000000  0.25000000  0.50000000  1
  Zr  Zr2  1  0.23340600  0.23340600  0.00000000  1
  Zr  Zr3  1  0.76659400  0.76659400  0.00000000  1
  Zr  Zr4  1  0.18356500  0.06729600  0.25086200  1
  Zr  Zr5  1  0.93270400  0.18356500  0.11626900  1
  Zr  Zr6  1  0.81643500  0.93270400  0.74913800  1
  Zr  Zr7  1  0.06729600  0.81643500  0.88373100  1
  B  B8  1  0.00000000  0.00000000  0.00000000  1
  Cl  Cl9  1  0.87122500  0.72183400  0.59305900  1
  Cl  Cl10  1  0.27816600  0.87122500  0.14939100  1
  Cl  Cl11  1  0.13068100  0.59506000  0.72574100  1
  Cl  Cl12  1  0.54058100  0.67042200  0.71986800  1
  Cl  Cl13  1  0.86931900  0.40494000  0.27425900  1
  Cl  Cl14  1  0.45941900  0.32957800  0.28013200  1
  Cl  Cl15  1  0.82071300  0.54058100  0.87016000  1
  Cl  Cl16  1  0.40494000  0.13068100  0.53562100  1
  Cl  Cl17  1  0.59506000  0.86931900  0.46437900  1
  Cl  Cl18  1  0.12877500  0.27816600  0.40694100  1
  Cl  Cl19  1  0.32957800  0.04944700  0.87016000  1
  Cl  Cl20  1  0.95055300  0.82071300  0.28013200  1
  Cl  Cl21  1  0.72183400  0.12877500  0.85060900  1
  Cl  Cl22  1  0.50000000  0.50000000  0.00000000  1
  Cl  Cl23  1  0.17928700  0.45941900  0.12984000  1
  Cl  Cl24  1  0.04944700  0.17928700  0.71986800  1
  Cl  Cl25  1  0.67042200  0.95055300  0.12984000  1
