# generated using pymatgen
data_Ba2LaAg5S6
_symmetry_space_group_name_H-M   'P 1'
_cell_length_a   7.39357728
_cell_length_b   7.39357728
_cell_length_c   11.34352461
_cell_angle_alpha   85.04973553
_cell_angle_beta   85.04973553
_cell_angle_gamma   33.72379229
_symmetry_Int_Tables_number   1
_chemical_formula_structural   Ba2LaAg5S6
_chemical_formula_sum   'Ba2 La1 Ag5 S6'
_cell_volume   342.86733063
_cell_formula_units_Z   1
loop_
 _symmetry_equiv_pos_site_id
 _symmetry_equiv_pos_as_xyz
  1  'x, y, z'
loop_
 _atom_site_type_symbol
 _atom_site_label
 _atom_site_symmetry_multiplicity
 _atom_site_fract_x
 _atom_site_fract_y
 _atom_site_fract_z
 _atom_site_occupancy
  Ba  Ba0  1  0.74914300  0.74914300  0.70729200  1
  Ba  Ba1  1  0.25085700  0.25085700  0.29270800  1
  La  La2  1  0.50000000  0.50000000  0.50000000  1
  Ag  Ag3  1  0.64863800  0.64863800  0.03515000  1
  Ag  Ag4  1  0.35136200  0.35136200  0.96485000  1
  Ag  Ag5  1  0.01907200  0.01907200  0.74447900  1
  Ag  Ag6  1  0.98092800  0.98092800  0.25552100  1
  Ag  Ag7  1  0.00000000  0.00000000  0.00000000  1
  S  S8  1  0.41365700  0.41365700  0.74218900  1
  S  S9  1  0.15736200  0.15736200  0.89878100  1
  S  S10  1  0.84263800  0.84263800  0.10121900  1
  S  S11  1  0.58634300  0.58634300  0.25781100  1
  S  S12  1  0.86882200  0.86882200  0.44880300  1
  S  S13  1  0.13117800  0.13117800  0.55119700  1
