# generated using pymatgen
data_NaMn2O4
_symmetry_space_group_name_H-M   'P 1'
_cell_length_a   2.91992200
_cell_length_b   8.99844600
_cell_length_c   11.30892500
_cell_angle_alpha   90.00000000
_cell_angle_beta   90.00000000
_cell_angle_gamma   90.00000000
_symmetry_Int_Tables_number   1
_chemical_formula_structural   NaMn2O4
_chemical_formula_sum   'Na4 Mn8 O16'
_cell_volume   297.13929522
_cell_formula_units_Z   4
loop_
 _symmetry_equiv_pos_site_id
 _symmetry_equiv_pos_as_xyz
  1  'x, y, z'
loop_
 _atom_site_type_symbol
 _atom_site_label
 _atom_site_symmetry_multiplicity
 _atom_site_fract_x
 _atom_site_fract_y
 _atom_site_fract_z
 _atom_site_occupancy
  Na  Na0  1  0.25000000  0.74666600  0.83872200  1
  Na  Na1  1  0.25000000  0.24666600  0.66127800  1
  Na  Na2  1  0.75000000  0.25333400  0.16127800  1
  Na  Na3  1  0.75000000  0.75333400  0.33872200  1
  Mn  Mn4  1  0.25000000  0.56890700  0.61184900  1
  Mn  Mn5  1  0.25000000  0.06890700  0.88815100  1
  Mn  Mn6  1  0.75000000  0.43109300  0.38815100  1
  Mn  Mn7  1  0.75000000  0.93109300  0.11184900  1
  Mn  Mn8  1  0.25000000  0.58254800  0.09611100  1
  Mn  Mn9  1  0.25000000  0.08254800  0.40388900  1
  Mn  Mn10  1  0.75000000  0.41745200  0.90388900  1
  Mn  Mn11  1  0.75000000  0.91745200  0.59611100  1
  O  O12  1  0.25000000  0.78948400  0.15242000  1
  O  O13  1  0.25000000  0.28948400  0.34758000  1
  O  O14  1  0.75000000  0.21051600  0.84758000  1
  O  O15  1  0.75000000  0.71051600  0.65242000  1
  O  O16  1  0.25000000  0.88383000  0.48058500  1
  O  O17  1  0.25000000  0.38383000  0.01941500  1
  O  O18  1  0.75000000  0.11617000  0.51941500  1
  O  O19  1  0.75000000  0.61617000  0.98058500  1
  O  O20  1  0.25000000  0.97195400  0.69788400  1
  O  O21  1  0.25000000  0.47195400  0.80211600  1
  O  O22  1  0.75000000  0.02804600  0.30211600  1
  O  O23  1  0.75000000  0.52804600  0.19788400  1
  O  O24  1  0.25000000  0.56988500  0.41552100  1
  O  O25  1  0.25000000  0.06988500  0.08447900  1
  O  O26  1  0.75000000  0.43011500  0.58447900  1
  O  O27  1  0.75000000  0.93011500  0.91552100  1
