# generated using pymatgen
data_La(AlBr4)3
_symmetry_space_group_name_H-M   'P 1'
_cell_length_a   10.75781691
_cell_length_b   10.75781691
_cell_length_c   19.12822100
_cell_angle_alpha   90.00000000
_cell_angle_beta   90.00000000
_cell_angle_gamma   120.00000562
_symmetry_Int_Tables_number   1
_chemical_formula_structural   La(AlBr4)3
_chemical_formula_sum   'La3 Al9 Br36'
_cell_volume   1917.13848541
_cell_formula_units_Z   3
loop_
 _symmetry_equiv_pos_site_id
 _symmetry_equiv_pos_as_xyz
  1  'x, y, z'
loop_
 _atom_site_type_symbol
 _atom_site_label
 _atom_site_symmetry_multiplicity
 _atom_site_fract_x
 _atom_site_fract_y
 _atom_site_fract_z
 _atom_site_occupancy
  La  La0  1  0.00000000  0.72935100  0.66666700  1
  La  La1  1  0.27064900  0.27064900  0.00000000  1
  La  La2  1  0.72935100  0.00000000  0.33333300  1
  Al  Al3  1  0.36837200  0.67119800  0.05374300  1
  Al  Al4  1  0.67119800  0.36837200  0.94625700  1
  Al  Al5  1  0.32880200  0.69717400  0.38707600  1
  Al  Al6  1  0.90011800  0.90011800  0.50000000  1
  Al  Al7  1  0.69717400  0.32880200  0.61292400  1
  Al  Al8  1  0.09988200  0.00000000  0.83333300  1
  Al  Al9  1  0.30282600  0.63162800  0.72041000  1
  Al  Al10  1  0.63162800  0.30282600  0.27959000  1
  Al  Al11  1  0.00000000  0.09988200  0.16666700  1
  Br  Br12  1  0.86108800  0.57753200  0.98407400  1
  Br  Br13  1  0.42246800  0.28355600  0.31740700  1
  Br  Br14  1  0.20575200  0.97077000  0.93392100  1
  Br  Br15  1  0.08359900  0.58476400  0.77732200  1
  Br  Br16  1  0.57753200  0.86108800  0.01592600  1
  Br  Br17  1  0.49526700  0.77426300  0.78844400  1
  Br  Br18  1  0.49883500  0.41523600  0.88934500  1
  Br  Br19  1  0.27899600  0.50473300  0.45511100  1
  Br  Br20  1  0.50116500  0.91640100  0.44398800  1
  Br  Br21  1  0.79424800  0.76501800  0.39941200  1
  Br  Br22  1  0.58476400  0.08359900  0.22267800  1
  Br  Br23  1  0.76615800  0.29048400  0.37631200  1
  Br  Br24  1  0.47567400  0.70951600  0.29035500  1
  Br  Br25  1  0.29048400  0.76615800  0.62368800  1
  Br  Br26  1  0.23498200  0.02923000  0.73274600  1
  Br  Br27  1  0.72100400  0.22573700  0.87822200  1
  Br  Br28  1  0.76501800  0.79424800  0.60058800  1
  Br  Br29  1  0.80356600  0.87860600  0.19693400  1
  Br  Br30  1  0.92496000  0.12139400  0.46973300  1
  Br  Br31  1  0.50473300  0.27899600  0.54488900  1
  Br  Br32  1  0.71644400  0.13891200  0.65074000  1
  Br  Br33  1  0.70951600  0.47567400  0.70964500  1
  Br  Br34  1  0.77426300  0.49526700  0.21155600  1
  Br  Br35  1  0.97077000  0.20575200  0.06607900  1
  Br  Br36  1  0.41523600  0.49883500  0.11065500  1
  Br  Br37  1  0.19643400  0.07504000  0.13640000  1
  Br  Br38  1  0.91640100  0.50116500  0.55601200  1
  Br  Br39  1  0.07504000  0.19643400  0.86360000  1
  Br  Br40  1  0.13891200  0.71644400  0.34926000  1
  Br  Br41  1  0.87860600  0.80356600  0.80306600  1
  Br  Br42  1  0.12139400  0.92496000  0.53026700  1
  Br  Br43  1  0.02923000  0.23498200  0.26725400  1
  Br  Br44  1  0.28355600  0.42246800  0.68259300  1
  Br  Br45  1  0.23384200  0.52432600  0.95702100  1
  Br  Br46  1  0.22573700  0.72100400  0.12177800  1
  Br  Br47  1  0.52432600  0.23384200  0.04297900  1
