# generated using pymatgen
data_NaI3O8
_symmetry_space_group_name_H-M   'P 1'
_cell_length_a   8.21111500
_cell_length_b   8.21111500
_cell_length_c   5.93214300
_cell_angle_alpha   90.00000000
_cell_angle_beta   90.00000000
_cell_angle_gamma   90.00000000
_symmetry_Int_Tables_number   1
_chemical_formula_structural   NaI3O8
_chemical_formula_sum   'Na2 I6 O16'
_cell_volume   399.95937481
_cell_formula_units_Z   2
loop_
 _symmetry_equiv_pos_site_id
 _symmetry_equiv_pos_as_xyz
  1  'x, y, z'
loop_
 _atom_site_type_symbol
 _atom_site_label
 _atom_site_symmetry_multiplicity
 _atom_site_fract_x
 _atom_site_fract_y
 _atom_site_fract_z
 _atom_site_occupancy
  Na  Na0  1  0.50000000  0.50000000  0.50000000  1
  Na  Na1  1  0.00000000  0.00000000  0.50000000  1
  I  I2  1  0.50000000  0.00000000  0.61344200  1
  I  I3  1  0.72728900  0.75007000  0.11451900  1
  I  I4  1  0.00000000  0.50000000  0.38655800  1
  I  I5  1  0.24993000  0.72728900  0.88548100  1
  I  I6  1  0.27271100  0.24993000  0.11451900  1
  I  I7  1  0.75007000  0.27271100  0.88548100  1
  O  O8  1  0.49006800  0.27328100  0.15838100  1
  O  O9  1  0.23389900  0.06975600  0.28448100  1
  O  O10  1  0.66929300  0.94588500  0.80406400  1
  O  O11  1  0.06975600  0.76610100  0.71551900  1
  O  O12  1  0.05411500  0.66929300  0.19593600  1
  O  O13  1  0.27328100  0.50993200  0.84161900  1
  O  O14  1  0.40948900  0.76529900  0.64253900  1
  O  O15  1  0.72671900  0.49006800  0.84161900  1
  O  O16  1  0.76529900  0.59051100  0.35746100  1
  O  O17  1  0.23470100  0.40948900  0.35746100  1
  O  O18  1  0.76610100  0.93024400  0.28448100  1
  O  O19  1  0.94588500  0.33070700  0.19593600  1
  O  O20  1  0.59051100  0.23470100  0.64253900  1
  O  O21  1  0.33070700  0.05411500  0.80406400  1
  O  O22  1  0.93024400  0.23389900  0.71551900  1
  O  O23  1  0.50993200  0.72671900  0.15838100  1
