# generated using pymatgen
data_Cs4U3Mo3O20
_symmetry_space_group_name_H-M   'P 1'
_cell_length_a   7.77317300
_cell_length_b   8.05532869
_cell_length_c   9.89088615
_cell_angle_alpha   79.13392703
_cell_angle_beta   82.30435549
_cell_angle_gamma   87.61673783
_symmetry_Int_Tables_number   1
_chemical_formula_structural   Cs4U3Mo3O20
_chemical_formula_sum   'Cs4 U3 Mo3 O20'
_cell_volume   602.65534097
_cell_formula_units_Z   1
loop_
 _symmetry_equiv_pos_site_id
 _symmetry_equiv_pos_as_xyz
  1  'x, y, z'
loop_
 _atom_site_type_symbol
 _atom_site_label
 _atom_site_symmetry_multiplicity
 _atom_site_fract_x
 _atom_site_fract_y
 _atom_site_fract_z
 _atom_site_occupancy
  Cs  Cs0  1  0.36177000  0.26548100  0.75106600  1
  Cs  Cs1  1  0.48673200  0.78488500  0.03943100  1
  Cs  Cs2  1  0.47614000  0.25255800  0.26866000  1
  Cs  Cs3  1  0.68612500  0.71417800  0.50730500  1
  U  U4  1  0.98466900  0.53472500  0.15669400  1
  U  U5  1  0.97571200  0.02127800  0.14545700  1
  U  U6  1  0.01282200  0.85207200  0.80274600  1
  Mo  Mo7  1  0.85527800  0.34976400  0.88340500  1
  Mo  Mo8  1  0.19961200  0.72541300  0.44311000  1
  Mo  Mo9  1  0.91363900  0.19480900  0.49924100  1
  O  O10  1  0.74238300  0.97155300  0.18817800  1
  O  O11  1  0.96759100  0.54628200  0.90521300  1
  O  O12  1  0.68618100  0.19621200  0.54401700  1
  O  O13  1  0.05575000  0.73650000  0.60396700  1
  O  O14  1  0.04344400  0.09811700  0.63550200  1
  O  O15  1  0.99120500  0.39281100  0.39228900  1
  O  O16  1  0.75220900  0.57749100  0.20968500  1
  O  O17  1  0.99991400  0.80256200  0.03108600  1
  O  O18  1  0.21081200  0.06526500  0.10585900  1
  O  O19  1  0.86778200  0.38799200  0.70042800  1
  O  O20  1  0.95228100  0.12669200  0.90787900  1
  O  O21  1  0.34785900  0.89135600  0.40798000  1
  O  O22  1  0.90551800  0.29274300  0.11397900  1
  O  O23  1  0.63006000  0.35481300  0.93766400  1
  O  O24  1  0.21884800  0.49292500  0.11435900  1
  O  O25  1  0.77758100  0.85522700  0.79348500  1
  O  O26  1  0.25041200  0.85663600  0.79780400  1
  O  O27  1  0.07295000  0.73911700  0.29396100  1
  O  O28  1  0.32897500  0.53928900  0.46956000  1
  O  O29  1  0.95421600  0.04620400  0.38189200  1
