# generated using pymatgen
data_Rb2Te(WO4)3
_symmetry_space_group_name_H-M   'P 1'
_cell_length_a   7.42208598
_cell_length_b   7.42208598
_cell_length_c   12.49736900
_cell_angle_alpha   90.00000000
_cell_angle_beta   90.00000000
_cell_angle_gamma   119.99999981
_symmetry_Int_Tables_number   1
_chemical_formula_structural   Rb2Te(WO4)3
_chemical_formula_sum   'Rb4 Te2 W6 O24'
_cell_volume   596.21265166
_cell_formula_units_Z   2
loop_
 _symmetry_equiv_pos_site_id
 _symmetry_equiv_pos_as_xyz
  1  'x, y, z'
loop_
 _atom_site_type_symbol
 _atom_site_label
 _atom_site_symmetry_multiplicity
 _atom_site_fract_x
 _atom_site_fract_y
 _atom_site_fract_z
 _atom_site_occupancy
  Rb  Rb0  1  0.33333300  0.66666700  0.87829900  1
  Rb  Rb1  1  0.66666700  0.33333300  0.37829900  1
  Rb  Rb2  1  0.66666700  0.33333300  0.99670200  1
  Rb  Rb3  1  0.33333300  0.66666700  0.49670200  1
  Te  Te4  1  0.00000000  0.00000000  0.43115800  1
  Te  Te5  1  0.00000000  0.00000000  0.93115800  1
  W  W6  1  0.66229500  0.83114700  0.17028400  1
  W  W7  1  0.33770500  0.16885300  0.67028400  1
  W  W8  1  0.16885300  0.83114700  0.17028400  1
  W  W9  1  0.16885300  0.33770500  0.17028400  1
  W  W10  1  0.83114700  0.16885300  0.67028400  1
  W  W11  1  0.83114700  0.66229500  0.67028400  1
  O  O12  1  0.19397500  0.80602500  0.31102100  1
  O  O13  1  0.13130400  0.86869600  0.00387000  1
  O  O14  1  0.91155700  0.45577900  0.63276800  1
  O  O15  1  0.24802900  0.12401400  0.18042700  1
  O  O16  1  0.13130400  0.26260800  0.00387000  1
  O  O17  1  0.12401400  0.24802900  0.68042700  1
  O  O18  1  0.80602500  0.19397500  0.81102100  1
  O  O19  1  0.80602500  0.61205100  0.81102100  1
  O  O20  1  0.87598600  0.12401400  0.18042700  1
  O  O21  1  0.12401400  0.87598600  0.68042700  1
  O  O22  1  0.38794900  0.19397500  0.81102100  1
  O  O23  1  0.45577900  0.54422100  0.13276800  1
  O  O24  1  0.19397500  0.38794900  0.31102100  1
  O  O25  1  0.08844300  0.54422100  0.13276800  1
  O  O26  1  0.54422100  0.08844300  0.63276800  1
  O  O27  1  0.54422100  0.45577900  0.63276800  1
  O  O28  1  0.61205100  0.80602500  0.31102100  1
  O  O29  1  0.86869600  0.13130400  0.50387000  1
  O  O30  1  0.86869600  0.73739200  0.50387000  1
  O  O31  1  0.26260800  0.13130400  0.50387000  1
  O  O32  1  0.73739200  0.86869600  0.00387000  1
  O  O33  1  0.87598600  0.75197100  0.18042700  1
  O  O34  1  0.75197100  0.87598600  0.68042700  1
  O  O35  1  0.45577900  0.91155700  0.13276800  1
