# generated using pymatgen
data_LiLa2S2O8F3
_symmetry_space_group_name_H-M   'P 1'
_cell_length_a   8.66106104
_cell_length_b   8.66106104
_cell_length_c   8.33305697
_cell_angle_alpha   65.72542348
_cell_angle_beta   65.72542348
_cell_angle_gamma   47.82632487
_symmetry_Int_Tables_number   1
_chemical_formula_structural   LiLa2S2O8F3
_chemical_formula_sum   'Li2 La4 S4 O16 F6'
_cell_volume   413.77737454
_cell_formula_units_Z   2
loop_
 _symmetry_equiv_pos_site_id
 _symmetry_equiv_pos_as_xyz
  1  'x, y, z'
loop_
 _atom_site_type_symbol
 _atom_site_label
 _atom_site_symmetry_multiplicity
 _atom_site_fract_x
 _atom_site_fract_y
 _atom_site_fract_z
 _atom_site_occupancy
  Li  Li0  1  0.59300300  0.40699700  0.25000000  1
  Li  Li1  1  0.40699700  0.59300300  0.75000000  1
  La  La2  1  0.78660200  0.97330200  0.96573600  1
  La  La3  1  0.97330200  0.78660200  0.46573600  1
  La  La4  1  0.02669800  0.21339800  0.53426400  1
  La  La5  1  0.21339800  0.02669800  0.03426400  1
  S  S6  1  0.24186100  0.41094700  0.15525400  1
  S  S7  1  0.75813900  0.58905300  0.84474600  1
  S  S8  1  0.41094700  0.24186100  0.65525400  1
  S  S9  1  0.58905300  0.75813900  0.34474600  1
  O  O10  1  0.18158900  0.27935000  0.17011500  1
  O  O11  1  0.27935000  0.18158900  0.67011500  1
  O  O12  1  0.60407600  0.15497800  0.51096300  1
  O  O13  1  0.39592400  0.84502200  0.48903700  1
  O  O14  1  0.15497800  0.60407600  0.01096300  1
  O  O15  1  0.71017100  0.52411900  0.38023000  1
  O  O16  1  0.84502200  0.39592400  0.98903600  1
  O  O17  1  0.47588100  0.28982900  0.11977000  1
  O  O18  1  0.28982900  0.47588100  0.61977000  1
  O  O19  1  0.14837700  0.46633000  0.33733700  1
  O  O20  1  0.46633000  0.14837700  0.83733700  1
  O  O21  1  0.81841100  0.72065000  0.82988500  1
  O  O22  1  0.53367000  0.85162300  0.16266300  1
  O  O23  1  0.72065000  0.81841100  0.32988500  1
  O  O24  1  0.52411900  0.71017100  0.88023000  1
  O  O25  1  0.85162300  0.53367000  0.66266300  1
  F  F26  1  0.00562100  0.08924100  0.33570800  1
  F  F27  1  0.08924100  0.00562100  0.83570800  1
  F  F28  1  0.99437900  0.91075900  0.66429200  1
  F  F29  1  0.91075900  0.99437900  0.16429200  1
  F  F30  1  0.30626800  0.69373200  0.25000000  1
  F  F31  1  0.69373200  0.30626800  0.75000000  1
