# generated using pymatgen
data_CaCo2Te3(ClO4)2
_symmetry_space_group_name_H-M   'P 1'
_cell_length_a   9.29151800
_cell_length_b   6.59413200
_cell_length_c   19.17023824
_cell_angle_alpha   73.60604093
_cell_angle_beta   90.00000000
_cell_angle_gamma   90.00000000
_symmetry_Int_Tables_number   1
_chemical_formula_structural   CaCo2Te3(ClO4)2
_chemical_formula_sum   'Ca4 Co8 Te12 Cl8 O32'
_cell_volume   1126.79799114
_cell_formula_units_Z   4
loop_
 _symmetry_equiv_pos_site_id
 _symmetry_equiv_pos_as_xyz
  1  'x, y, z'
loop_
 _atom_site_type_symbol
 _atom_site_label
 _atom_site_symmetry_multiplicity
 _atom_site_fract_x
 _atom_site_fract_y
 _atom_site_fract_z
 _atom_site_occupancy
  Ca  Ca0  1  0.11367300  0.50971300  0.73095900  1
  Ca  Ca1  1  0.38632700  0.50971300  0.23095900  1
  Ca  Ca2  1  0.88632700  0.49028700  0.26904100  1
  Ca  Ca3  1  0.61367300  0.49028700  0.76904100  1
  Co  Co4  1  0.24376900  0.06388800  0.32317900  1
  Co  Co5  1  0.75623100  0.93611200  0.67682100  1
  Co  Co6  1  0.45761000  0.19168800  0.68000000  1
  Co  Co7  1  0.95761000  0.80831200  0.82000000  1
  Co  Co8  1  0.25623100  0.06388800  0.82317900  1
  Co  Co9  1  0.54239000  0.80831200  0.32000000  1
  Co  Co10  1  0.04239000  0.19168800  0.18000000  1
  Co  Co11  1  0.74376900  0.93611200  0.17682100  1
  Te  Te12  1  0.29630700  0.54249900  0.89138600  1
  Te  Te13  1  0.08089700  0.77701600  0.11170400  1
  Te  Te14  1  0.39205000  0.09163600  0.13891700  1
  Te  Te15  1  0.10795000  0.09163600  0.63891700  1
  Te  Te16  1  0.41910300  0.77701600  0.61170400  1
  Te  Te17  1  0.60795000  0.90836400  0.86108300  1
  Te  Te18  1  0.58089700  0.22298400  0.38829600  1
  Te  Te19  1  0.89205000  0.90836400  0.36108300  1
  Te  Te20  1  0.91910300  0.22298400  0.88829600  1
  Te  Te21  1  0.79630700  0.45750100  0.60861400  1
  Te  Te22  1  0.70369300  0.45750100  0.10861400  1
  Te  Te23  1  0.20369300  0.54249900  0.39138600  1
  Cl  Cl24  1  0.67547600  0.09589000  0.04606800  1
  Cl  Cl25  1  0.82452400  0.09589000  0.54606800  1
  Cl  Cl26  1  0.32452400  0.90411000  0.95393200  1
  Cl  Cl27  1  0.10943200  0.25654500  0.04946400  1
  Cl  Cl28  1  0.17547600  0.90411000  0.45393200  1
  Cl  Cl29  1  0.60943200  0.74345500  0.45053600  1
  Cl  Cl30  1  0.39056800  0.25654500  0.54946400  1
  Cl  Cl31  1  0.89056800  0.74345500  0.95053600  1
  O  O32  1  0.01258400  0.62540400  0.35400700  1
  O  O33  1  0.26818800  0.17331800  0.20637300  1
  O  O34  1  0.80673400  0.23554300  0.17510800  1
  O  O35  1  0.23181200  0.17331800  0.70637300  1
  O  O36  1  0.02190000  0.10123200  0.82434000  1
  O  O37  1  0.22888800  0.80415600  0.64925200  1
  O  O38  1  0.97980600  0.90382400  0.70460700  1
  O  O39  1  0.51258400  0.37459600  0.14599300  1
  O  O40  1  0.73682500  0.63508700  0.16951500  1
  O  O41  1  0.05710400  0.50306600  0.17709300  1
  O  O42  1  0.72888800  0.19584400  0.85074800  1
  O  O43  1  0.02019400  0.09617600  0.29539300  1
  O  O44  1  0.76818800  0.82668200  0.29362700  1
  O  O45  1  0.19326600  0.76445700  0.82489200  1
  O  O46  1  0.27111200  0.80415600  0.14925200  1
  O  O47  1  0.69326600  0.23554300  0.67510800  1
  O  O48  1  0.97810000  0.89876800  0.17566000  1
  O  O49  1  0.23682500  0.36491300  0.33048500  1
  O  O50  1  0.52190000  0.89876800  0.67566000  1
  O  O51  1  0.44289600  0.50306600  0.67709300  1
  O  O52  1  0.30673400  0.76445700  0.32489200  1
  O  O53  1  0.55710400  0.49693400  0.32290700  1
  O  O54  1  0.73181200  0.82668200  0.79362700  1
  O  O55  1  0.26317500  0.36491300  0.83048500  1
  O  O56  1  0.47980600  0.09617600  0.79539300  1
  O  O57  1  0.77111200  0.19584400  0.35074800  1
  O  O58  1  0.98741600  0.37459600  0.64599300  1
  O  O59  1  0.94289600  0.49693400  0.82290700  1
  O  O60  1  0.47810000  0.10123200  0.32434000  1
  O  O61  1  0.52019400  0.90382400  0.20460700  1
  O  O62  1  0.48741600  0.62540400  0.85400700  1
  O  O63  1  0.76317500  0.63508700  0.66951500  1
