# generated using pymatgen
data_MnBiPO5
_symmetry_space_group_name_H-M   'P 1'
_cell_length_a   5.45850788
_cell_length_b   7.60095918
_cell_length_c   11.44234500
_cell_angle_alpha   89.99995466
_cell_angle_beta   90.00008207
_cell_angle_gamma   109.48783329
_symmetry_Int_Tables_number   1
_chemical_formula_structural   MnBiPO5
_chemical_formula_sum   'Mn4 Bi4 P4 O20'
_cell_volume   447.54486436
_cell_formula_units_Z   4
loop_
 _symmetry_equiv_pos_site_id
 _symmetry_equiv_pos_as_xyz
  1  'x, y, z'
loop_
 _atom_site_type_symbol
 _atom_site_label
 _atom_site_symmetry_multiplicity
 _atom_site_fract_x
 _atom_site_fract_y
 _atom_site_fract_z
 _atom_site_occupancy
  Mn  Mn0  1  0.63324900  0.18938200  0.91166700  1
  Mn  Mn1  1  0.86675300  0.31061900  0.41166700  1
  Mn  Mn2  1  0.13329200  0.68939000  0.58832500  1
  Mn  Mn3  1  0.36670700  0.81060800  0.08832600  1
  Bi  Bi4  1  0.62549900  0.68378500  0.40222100  1
  Bi  Bi5  1  0.37450100  0.31621500  0.59778000  1
  Bi  Bi6  1  0.12549900  0.18378500  0.09778000  1
  Bi  Bi7  1  0.87450100  0.81621500  0.90222100  1
  P  P8  1  0.29231800  0.47776000  0.84975800  1
  P  P9  1  0.79231800  0.97776100  0.65024300  1
  P  P10  1  0.70768200  0.52223900  0.15024200  1
  P  P11  1  0.20768200  0.02224000  0.34975800  1
  O  O12  1  0.90043400  0.16477400  0.58221200  1
  O  O13  1  0.40043200  0.66477900  0.91779100  1
  O  O14  1  0.59956600  0.33522700  0.08221300  1
  O  O15  1  0.09956800  0.83522000  0.41779100  1
  O  O16  1  0.19041300  0.50814900  0.72665900  1
  O  O17  1  0.69040700  0.00813100  0.77333800  1
  O  O18  1  0.80959300  0.49187000  0.27333800  1
  O  O19  1  0.30958800  0.99185100  0.22665900  1
  O  O20  1  0.74920400  0.98714400  0.02434500  1
  O  O21  1  0.24921500  0.48715300  0.47566000  1
  O  O22  1  0.75079600  0.51285600  0.52434500  1
  O  O23  1  0.25078600  0.01284700  0.97566000  1
  O  O24  1  0.56752400  0.83897700  0.57793100  1
  O  O25  1  0.43246500  0.16101700  0.42207300  1
  O  O26  1  0.93247400  0.66102300  0.07793200  1
  O  O27  1  0.06753500  0.33898400  0.92207200  1
  O  O28  1  0.51503900  0.39657000  0.82584800  1
  O  O29  1  0.98496000  0.10343100  0.32584800  1
  O  O30  1  0.01503900  0.89655500  0.67414800  1
  O  O31  1  0.48496200  0.60344400  0.17414800  1
