# generated using pymatgen
data_SiB3
_symmetry_space_group_name_H-M   'P 1'
_cell_length_a   8.17498188
_cell_length_b   8.17498188
_cell_length_c   8.17498188
_cell_angle_alpha   135.25511237
_cell_angle_beta   118.33303389
_cell_angle_gamma   79.34796494
_symmetry_Int_Tables_number   1
_chemical_formula_structural   SiB3
_chemical_formula_sum   'Si8 B24'
_cell_volume   328.14503279
_cell_formula_units_Z   8
loop_
 _symmetry_equiv_pos_site_id
 _symmetry_equiv_pos_as_xyz
  1  'x, y, z'
loop_
 _atom_site_type_symbol
 _atom_site_label
 _atom_site_symmetry_multiplicity
 _atom_site_fract_x
 _atom_site_fract_y
 _atom_site_fract_z
 _atom_site_occupancy
  Si  Si0  1  0.48066200  0.81387100  0.79453300  1
  Si  Si1  1  0.98066200  0.18612900  0.66679000  1
  Si  Si2  1  0.15446200  0.15667500  0.00221200  1
  Si  Si3  1  0.01933800  0.81387100  0.33321000  1
  Si  Si4  1  0.51933800  0.18612900  0.20546700  1
  Si  Si5  1  0.34553800  0.34775000  0.00221200  1
  Si  Si6  1  0.65446200  0.65225000  0.99778800  1
  Si  Si7  1  0.84553800  0.84332500  0.99778800  1
  B  B8  1  0.57424900  0.29772100  0.72347200  1
  B  B9  1  0.49818400  0.89026100  0.61326400  1
  B  B10  1  0.99818400  0.38492000  0.60792300  1
  B  B11  1  0.50181600  0.10973900  0.38673600  1
  B  B12  1  0.42575100  0.70227900  0.27652800  1
  B  B13  1  0.72300300  0.10973900  0.60792300  1
  B  B14  1  0.67658600  0.15673800  0.83014100  1
  B  B15  1  0.82341400  0.65355500  0.48015200  1
  B  B16  1  0.17658600  0.34644500  0.51984800  1
  B  B17  1  0.07424900  0.35077700  0.27652800  1
  B  B18  1  0.77699700  0.38492000  0.38673600  1
  B  B19  1  0.67340300  0.84326200  0.51984800  1
  B  B20  1  0.32341400  0.84326200  0.16985900  1
  B  B21  1  0.27699700  0.89026100  0.39207700  1
  B  B22  1  0.93088900  0.20258700  0.27169800  1
  B  B23  1  0.56911100  0.84080900  0.27169800  1
  B  B24  1  0.17340300  0.65355500  0.83014100  1
  B  B25  1  0.00181600  0.61508000  0.39207700  1
  B  B26  1  0.32659700  0.15673800  0.48015200  1
  B  B27  1  0.06911100  0.79741300  0.72830200  1
  B  B28  1  0.43088900  0.15919100  0.72830200  1
  B  B29  1  0.22300300  0.61508000  0.61326400  1
  B  B30  1  0.92575100  0.64922300  0.72347200  1
  B  B31  1  0.82659700  0.34644500  0.16985900  1
