# generated using pymatgen
data_DyNbO4
_symmetry_space_group_name_H-M   'P 1'
_cell_length_a   6.61424784
_cell_length_b   6.61424784
_cell_length_c   5.14675750
_cell_angle_alpha   68.89883430
_cell_angle_beta   68.89883430
_cell_angle_gamma   114.53823319
_symmetry_Int_Tables_number   1
_chemical_formula_structural   DyNbO4
_chemical_formula_sum   'Dy2 Nb2 O8'
_cell_volume   152.81958928
_cell_formula_units_Z   2
loop_
 _symmetry_equiv_pos_site_id
 _symmetry_equiv_pos_as_xyz
  1  'x, y, z'
loop_
 _atom_site_type_symbol
 _atom_site_label
 _atom_site_symmetry_multiplicity
 _atom_site_fract_x
 _atom_site_fract_y
 _atom_site_fract_z
 _atom_site_occupancy
  Dy  Dy0  1  0.62830100  0.37169900  0.75000000  1
  Dy  Dy1  1  0.37169900  0.62830100  0.25000000  1
  Nb  Nb2  1  0.10801600  0.89198400  0.75000000  1
  Nb  Nb3  1  0.89198400  0.10801600  0.25000000  1
  O  O4  1  0.94993400  0.37011700  0.34125000  1
  O  O5  1  0.62988300  0.05006600  0.15875000  1
  O  O6  1  0.05006600  0.62988300  0.65875000  1
  O  O7  1  0.37011700  0.94993400  0.84125000  1
  O  O8  1  0.78253300  0.71701400  0.20368000  1
  O  O9  1  0.28298600  0.21746700  0.29632000  1
  O  O10  1  0.21746700  0.28298600  0.79632000  1
  O  O11  1  0.71701400  0.78253300  0.70368000  1
