# generated using pymatgen
data_KMo(PO4)2
_symmetry_space_group_name_H-M   'P 1'
_cell_length_a   11.97091700
_cell_length_b   5.18355000
_cell_length_c   12.70749765
_cell_angle_alpha   67.13789190
_cell_angle_beta   90.00000000
_cell_angle_gamma   90.00000000
_symmetry_Int_Tables_number   1
_chemical_formula_structural   KMo(PO4)2
_chemical_formula_sum   'K4 Mo4 P8 O32'
_cell_volume   726.57928423
_cell_formula_units_Z   4
loop_
 _symmetry_equiv_pos_site_id
 _symmetry_equiv_pos_as_xyz
  1  'x, y, z'
loop_
 _atom_site_type_symbol
 _atom_site_label
 _atom_site_symmetry_multiplicity
 _atom_site_fract_x
 _atom_site_fract_y
 _atom_site_fract_z
 _atom_site_occupancy
  K  K0  1  0.36920200  0.32673100  0.94732800  1
  K  K1  1  0.86920200  0.67326900  0.55267200  1
  K  K2  1  0.63079800  0.67326900  0.05267200  1
  K  K3  1  0.13079800  0.32673100  0.44732800  1
  Mo  Mo4  1  0.12002100  0.09530600  0.16460000  1
  Mo  Mo5  1  0.62002100  0.90469400  0.33540000  1
  Mo  Mo6  1  0.87997900  0.90469400  0.83540000  1
  Mo  Mo7  1  0.37997900  0.09530600  0.66460000  1
  P  P8  1  0.19305100  0.61662400  0.64783500  1
  P  P9  1  0.69305100  0.38337600  0.85216500  1
  P  P10  1  0.80694900  0.38337600  0.35216500  1
  P  P11  1  0.30694900  0.61662400  0.14783500  1
  P  P12  1  0.06296900  0.38948700  0.86380600  1
  P  P13  1  0.56296900  0.61051300  0.63619400  1
  P  P14  1  0.93703100  0.61051300  0.13619400  1
  P  P15  1  0.43703100  0.38948700  0.36380600  1
  O  O16  1  0.10519100  0.20956700  0.98208100  1
  O  O17  1  0.60519100  0.79043300  0.51791900  1
  O  O18  1  0.89480900  0.79043300  0.01791900  1
  O  O19  1  0.39480900  0.20956700  0.48208100  1
  O  O20  1  0.02644200  0.74770900  0.18328200  1
  O  O21  1  0.52644200  0.25229100  0.31671800  1
  O  O22  1  0.97355800  0.25229100  0.81671800  1
  O  O23  1  0.47355800  0.74770900  0.68328200  1
  O  O24  1  0.26249300  0.90382500  0.14075400  1
  O  O25  1  0.76249300  0.09617500  0.35924600  1
  O  O26  1  0.73750700  0.09617500  0.85924600  1
  O  O27  1  0.23750700  0.90382500  0.64075400  1
  O  O28  1  0.17335300  0.43536900  0.78469800  1
  O  O29  1  0.67335300  0.56463100  0.71530200  1
  O  O30  1  0.82664700  0.56463100  0.21530200  1
  O  O31  1  0.32664700  0.43536900  0.28469800  1
  O  O32  1  0.97385500  0.31633000  0.14805200  1
  O  O33  1  0.47385500  0.68367000  0.35194800  1
  O  O34  1  0.02614500  0.68367000  0.85194800  1
  O  O35  1  0.52614500  0.31633000  0.64805200  1
  O  O36  1  0.08777300  0.64617900  0.58105500  1
  O  O37  1  0.58777300  0.35382100  0.91894500  1
  O  O38  1  0.91222700  0.35382100  0.41894500  1
  O  O39  1  0.41222700  0.64617900  0.08105500  1
  O  O40  1  0.13537300  0.00601200  0.30885100  1
  O  O41  1  0.63537300  0.99398800  0.19114900  1
  O  O42  1  0.86462700  0.99398800  0.69114900  1
  O  O43  1  0.36462700  0.00601200  0.80885100  1
  O  O44  1  0.21369200  0.45495600  0.11600400  1
  O  O45  1  0.71369200  0.54504400  0.38399600  1
  O  O46  1  0.78630800  0.54504400  0.88399600  1
  O  O47  1  0.28630800  0.45495600  0.61600400  1
