# generated using pymatgen
data_Tb2MnNiO6
_symmetry_space_group_name_H-M   'P 1'
_cell_length_a   5.60573300
_cell_length_b   5.29363300
_cell_length_c   9.23242097
_cell_angle_alpha   55.38012008
_cell_angle_beta   90.00000000
_cell_angle_gamma   90.00000000
_symmetry_Int_Tables_number   1
_chemical_formula_structural   Tb2MnNiO6
_chemical_formula_sum   'Tb4 Mn2 Ni2 O12'
_cell_volume   225.46006935
_cell_formula_units_Z   2
loop_
 _symmetry_equiv_pos_site_id
 _symmetry_equiv_pos_as_xyz
  1  'x, y, z'
loop_
 _atom_site_type_symbol
 _atom_site_label
 _atom_site_symmetry_multiplicity
 _atom_site_fract_x
 _atom_site_fract_y
 _atom_site_fract_z
 _atom_site_occupancy
  Tb  Tb0  1  0.57000300  0.76975800  0.74894300  1
  Tb  Tb1  1  0.92999700  0.76975800  0.24894300  1
  Tb  Tb2  1  0.07000300  0.23024200  0.75105700  1
  Tb  Tb3  1  0.42999700  0.23024200  0.25105700  1
  Mn  Mn4  1  0.50000000  0.50000000  0.50000000  1
  Mn  Mn5  1  0.00000000  0.50000000  0.00000000  1
  Ni  Ni6  1  0.00000000  0.00000000  0.50000000  1
  Ni  Ni7  1  0.50000000  0.00000000  0.00000000  1
  O  O8  1  0.70750200  0.25908200  0.05603900  1
  O  O9  1  0.96558100  0.63696600  0.75743000  1
  O  O10  1  0.79249800  0.25908200  0.55603900  1
  O  O11  1  0.53441900  0.63696600  0.25743000  1
  O  O12  1  0.29249800  0.74091800  0.94396100  1
  O  O13  1  0.46558100  0.36303400  0.74257000  1
  O  O14  1  0.31104600  0.15098100  0.55184500  1
  O  O15  1  0.20750200  0.74091800  0.44396100  1
  O  O16  1  0.18895400  0.15098100  0.05184500  1
  O  O17  1  0.03441900  0.36303400  0.24257000  1
  O  O18  1  0.68895400  0.84901900  0.44815500  1
  O  O19  1  0.81104600  0.84901900  0.94815500  1
