# generated using pymatgen
data_H13S2N3O8
_symmetry_space_group_name_H-M   'P 1'
_cell_length_a   5.89898100
_cell_length_b   10.32146600
_cell_length_c   17.33305131
_cell_angle_alpha   65.50094541
_cell_angle_beta   90.00000000
_cell_angle_gamma   90.00000000
_symmetry_Int_Tables_number   1
_chemical_formula_structural   H13S2N3O8
_chemical_formula_sum   'H52 S8 N12 O32'
_cell_volume   960.32797550
_cell_formula_units_Z   4
loop_
 _symmetry_equiv_pos_site_id
 _symmetry_equiv_pos_as_xyz
  1  'x, y, z'
loop_
 _atom_site_type_symbol
 _atom_site_label
 _atom_site_symmetry_multiplicity
 _atom_site_fract_x
 _atom_site_fract_y
 _atom_site_fract_z
 _atom_site_occupancy
  H  H0  1  0.28944400  0.73335900  0.25378800  1
  H  H1  1  0.28944400  0.26664100  0.24621200  1
  H  H2  1  0.71055600  0.26664100  0.74621200  1
  H  H3  1  0.71055600  0.73335900  0.75378800  1
  H  H4  1  0.42419200  0.14191100  0.01258200  1
  H  H5  1  0.42419200  0.85808900  0.48741800  1
  H  H6  1  0.57580800  0.85808900  0.98741800  1
  H  H7  1  0.57580800  0.14191100  0.51258200  1
  H  H8  1  0.36319000  0.14977400  0.91601700  1
  H  H9  1  0.36319000  0.85022600  0.58398300  1
  H  H10  1  0.63681000  0.85022600  0.08398300  1
  H  H11  1  0.63681000  0.14977400  0.41601700  1
  H  H12  1  0.63261300  0.19026900  0.93602900  1
  H  H13  1  0.63261300  0.80973100  0.56397100  1
  H  H14  1  0.36738700  0.80973100  0.06397100  1
  H  H15  1  0.36738700  0.19026900  0.43602900  1
  H  H16  1  0.41644200  0.30261800  0.92836700  1
  H  H17  1  0.41644200  0.69738200  0.57163300  1
  H  H18  1  0.58355800  0.69738200  0.07163300  1
  H  H19  1  0.58355800  0.30261800  0.42836700  1
  H  H20  1  0.07783500  0.64170300  0.43411000  1
  H  H21  1  0.07783500  0.35829700  0.06589000  1
  H  H22  1  0.92216500  0.35829700  0.56589000  1
  H  H23  1  0.92216500  0.64170300  0.93411000  1
  H  H24  1  0.96122400  0.67382800  0.51358200  1
  H  H25  1  0.96122400  0.32617200  0.98641800  1
  H  H26  1  0.03877600  0.32617200  0.48641800  1
  H  H27  1  0.03877600  0.67382800  0.01358200  1
  H  H28  1  0.81368600  0.71306900  0.42426500  1
  H  H29  1  0.81368600  0.28693100  0.07573500  1
  H  H30  1  0.18631400  0.28693100  0.57573500  1
  H  H31  1  0.18631400  0.71306900  0.92426500  1
  H  H32  1  0.04743800  0.81288300  0.42445400  1
  H  H33  1  0.04743800  0.18711700  0.07554600  1
  H  H34  1  0.95256200  0.18711700  0.57554600  1
  H  H35  1  0.95256200  0.81288300  0.92445400  1
  H  H36  1  0.55539200  0.08106800  0.70932800  1
  H  H37  1  0.55539200  0.91893200  0.79067200  1
  H  H38  1  0.44460800  0.91893200  0.29067200  1
  H  H39  1  0.44460800  0.08106800  0.20932800  1
  H  H40  1  0.35428000  0.96420000  0.71319900  1
  H  H41  1  0.35428000  0.03580000  0.78680100  1
  H  H42  1  0.64572000  0.03580000  0.28680100  1
  H  H43  1  0.64572000  0.96420000  0.21319900  1
  H  H44  1  0.85718900  0.52273000  0.29167700  1
  H  H45  1  0.85718900  0.47727000  0.20832300  1
  H  H46  1  0.14281100  0.47727000  0.70832300  1
  H  H47  1  0.14281100  0.52273000  0.79167700  1
  H  H48  1  0.05853000  0.58658700  0.21412600  1
  H  H49  1  0.05853000  0.41341300  0.28587400  1
  H  H50  1  0.94147000  0.41341300  0.78587400  1
  H  H51  1  0.94147000  0.58658700  0.71412600  1
  S  S52  1  0.46918700  0.59368400  0.36723400  1
  S  S53  1  0.46918700  0.40631600  0.13276600  1
  S  S54  1  0.53081300  0.40631600  0.63276600  1
  S  S55  1  0.53081300  0.59368400  0.86723400  1
  S  S56  1  0.95832500  0.10440400  0.85715400  1
  S  S57  1  0.95832500  0.89559600  0.64284600  1
  S  S58  1  0.04167500  0.89559600  0.14284600  1
  S  S59  1  0.04167500  0.10440400  0.35715400  1
  N  N60  1  0.46011100  0.19579700  0.94900500  1
  N  N61  1  0.46011100  0.80420300  0.55099500  1
  N  N62  1  0.53988900  0.80420300  0.05099500  1
  N  N63  1  0.53988900  0.19579700  0.44900500  1
  N  N64  1  0.97593600  0.71068000  0.44893700  1
  N  N65  1  0.97593600  0.28932000  0.05106300  1
  N  N66  1  0.02406400  0.28932000  0.55106300  1
  N  N67  1  0.02406400  0.71068000  0.94893700  1
  N  N68  1  0.45559500  0.00000000  0.75000000  1
  N  N69  1  0.54440500  0.00000000  0.25000000  1
  N  N70  1  0.95993600  0.50000000  0.25000000  1
  N  N71  1  0.04006400  0.50000000  0.75000000  1
  O  O72  1  0.43247900  0.66340700  0.26847800  1
  O  O73  1  0.43247900  0.33659300  0.23152200  1
  O  O74  1  0.56752100  0.33659300  0.73152200  1
  O  O75  1  0.56752100  0.66340700  0.76847800  1
  O  O76  1  0.25705800  0.52137300  0.40658000  1
  O  O77  1  0.25705800  0.47862700  0.09342000  1
  O  O78  1  0.74294200  0.47862700  0.59342000  1
  O  O79  1  0.74294200  0.52137300  0.90658000  1
  O  O80  1  0.65988200  0.49419300  0.38013600  1
  O  O81  1  0.65988200  0.50580700  0.11986400  1
  O  O82  1  0.34011800  0.50580700  0.61986400  1
  O  O83  1  0.34011800  0.49419300  0.88013600  1
  O  O84  1  0.52552500  0.70978800  0.39277400  1
  O  O85  1  0.52552500  0.29021200  0.10722600  1
  O  O86  1  0.47447500  0.29021200  0.60722600  1
  O  O87  1  0.47447500  0.70978800  0.89277400  1
  O  O88  1  0.90705900  0.17744900  0.76343200  1
  O  O89  1  0.90705900  0.82255100  0.73656800  1
  O  O90  1  0.09294100  0.82255100  0.23656800  1
  O  O91  1  0.09294100  0.17744900  0.26343200  1
  O  O92  1  0.91263000  0.20770300  0.89537700  1
  O  O93  1  0.91263000  0.79229700  0.60462300  1
  O  O94  1  0.08737000  0.79229700  0.10462300  1
  O  O95  1  0.08737000  0.20770300  0.39537700  1
  O  O96  1  0.80924500  0.97700900  0.89596500  1
  O  O97  1  0.80924500  0.02299100  0.60403500  1
  O  O98  1  0.19075500  0.02299100  0.10403500  1
  O  O99  1  0.19075500  0.97700900  0.39596500  1
  O  O100  1  0.20144400  0.06118000  0.86816100  1
  O  O101  1  0.20144400  0.93882000  0.63183900  1
  O  O102  1  0.79855600  0.93882000  0.13183900  1
  O  O103  1  0.79855600  0.06118000  0.36816100  1
