# generated using pymatgen
data_Na2MnPO4F
_symmetry_space_group_name_H-M   'P 1'
_cell_length_a   5.39585200
_cell_length_b   13.83818200
_cell_length_c   13.93814186
_cell_angle_alpha   59.92473671
_cell_angle_beta   90.00000000
_cell_angle_gamma   90.00000000
_symmetry_Int_Tables_number   1
_chemical_formula_structural   Na2MnPO4F
_chemical_formula_sum   'Na16 Mn8 P8 O32 F8'
_cell_volume   900.62647460
_cell_formula_units_Z   8
loop_
 _symmetry_equiv_pos_site_id
 _symmetry_equiv_pos_as_xyz
  1  'x, y, z'
loop_
 _atom_site_type_symbol
 _atom_site_label
 _atom_site_symmetry_multiplicity
 _atom_site_fract_x
 _atom_site_fract_y
 _atom_site_fract_z
 _atom_site_occupancy
  Na  Na0  1  0.23594100  0.92058900  0.66651300  1
  Na  Na1  1  0.23586500  0.16454600  0.17196900  1
  Na  Na2  1  0.75944300  0.33467200  0.33624300  1
  Na  Na3  1  0.26413500  0.16454600  0.67196900  1
  Na  Na4  1  0.73594100  0.07941100  0.83348700  1
  Na  Na5  1  0.25944300  0.66532800  0.16375700  1
  Na  Na6  1  0.23912600  0.42020600  0.91256400  1
  Na  Na7  1  0.26087400  0.42020600  0.41256400  1
  Na  Na8  1  0.73912600  0.57979400  0.58743600  1
  Na  Na9  1  0.24055700  0.66532800  0.66375700  1
  Na  Na10  1  0.76405900  0.07941100  0.33348700  1
  Na  Na11  1  0.76087400  0.57979400  0.08743600  1
  Na  Na12  1  0.76413500  0.83545400  0.82803100  1
  Na  Na13  1  0.73586500  0.83545400  0.32803100  1
  Na  Na14  1  0.74055700  0.33467200  0.83624300  1
  Na  Na15  1  0.26405900  0.92058900  0.16651300  1
  Mn  Mn16  1  0.22765600  0.42292600  0.17604600  1
  Mn  Mn17  1  0.77055500  0.07721700  0.59913200  1
  Mn  Mn18  1  0.72944500  0.07721700  0.09913200  1
  Mn  Mn19  1  0.27234400  0.42292600  0.67604600  1
  Mn  Mn20  1  0.22944500  0.92278300  0.40086800  1
  Mn  Mn21  1  0.72765600  0.57707400  0.32395400  1
  Mn  Mn22  1  0.77234400  0.57707400  0.82395400  1
  Mn  Mn23  1  0.27055500  0.92278300  0.90086800  1
  P  P24  1  0.78510500  0.33788000  0.58434000  1
  P  P25  1  0.78150600  0.83788900  0.07679400  1
  P  P26  1  0.71849400  0.83788900  0.57679400  1
  P  P27  1  0.21489500  0.66212000  0.41566000  1
  P  P28  1  0.21849400  0.16211100  0.92320600  1
  P  P29  1  0.28510500  0.66212000  0.91566000  1
  P  P30  1  0.28150600  0.16211100  0.42320600  1
  P  P31  1  0.71489500  0.33788000  0.08434000  1
  O  O32  1  0.06919300  0.85044100  0.05673500  1
  O  O33  1  0.64732200  0.38606600  0.64893000  1
  O  O34  1  0.28931700  0.59686000  0.54013200  1
  O  O35  1  0.28327100  0.78758700  0.36523100  1
  O  O36  1  0.85267800  0.38606600  0.14893000  1
  O  O37  1  0.69959900  0.90387100  0.13463200  1
  O  O38  1  0.42761900  0.34825400  0.09537800  1
  O  O39  1  0.92761900  0.65174600  0.40462200  1
  O  O40  1  0.43080700  0.85044100  0.55673500  1
  O  O41  1  0.71068300  0.40314000  0.45986800  1
  O  O42  1  0.14732200  0.61393400  0.85107000  1
  O  O43  1  0.85374200  0.88348100  0.46377100  1
  O  O44  1  0.80040100  0.90387100  0.63463200  1
  O  O45  1  0.19959900  0.09612900  0.36536800  1
  O  O46  1  0.71701200  0.71216000  0.15165300  1
  O  O47  1  0.57238100  0.65174600  0.90462200  1
  O  O48  1  0.14625800  0.11651900  0.53622900  1
  O  O49  1  0.35374200  0.11651900  0.03622900  1
  O  O50  1  0.07238100  0.34825400  0.59537800  1
  O  O51  1  0.93080700  0.14955900  0.94326500  1
  O  O52  1  0.35267800  0.61393400  0.35107000  1
  O  O53  1  0.78931700  0.40314000  0.95986800  1
  O  O54  1  0.78327100  0.21241300  0.13476900  1
  O  O55  1  0.21701200  0.28784000  0.34834700  1
  O  O56  1  0.28298800  0.28784000  0.84834700  1
  O  O57  1  0.71672900  0.21241300  0.63476900  1
  O  O58  1  0.30040100  0.09612900  0.86536800  1
  O  O59  1  0.78298800  0.71216000  0.65165300  1
  O  O60  1  0.21068300  0.59686000  0.04013200  1
  O  O61  1  0.21672900  0.78758700  0.86523100  1
  O  O62  1  0.56919300  0.14955900  0.44326500  1
  O  O63  1  0.64625800  0.88348100  0.96377100  1
  F  F64  1  0.49974900  0.50852800  0.75912400  1
  F  F65  1  0.99828100  0.99927800  0.23588300  1
  F  F66  1  0.49828100  0.00072200  0.26411700  1
  F  F67  1  0.99974900  0.49147200  0.74087600  1
  F  F68  1  0.00171900  0.00072200  0.76411700  1
  F  F69  1  0.00025100  0.50852800  0.25912400  1
  F  F70  1  0.50025100  0.49147200  0.24087600  1
  F  F71  1  0.50171900  0.99927800  0.73588300  1
