# generated using pymatgen
data_Ba2TbBiO6
_symmetry_space_group_name_H-M   'P 1'
_cell_length_a   6.16068044
_cell_length_b   6.16068044
_cell_length_c   6.19091539
_cell_angle_alpha   59.95777221
_cell_angle_beta   59.95777221
_cell_angle_gamma   60.04907847
_symmetry_Int_Tables_number   1
_chemical_formula_structural   Ba2TbBiO6
_chemical_formula_sum   'Ba2 Tb1 Bi1 O6'
_cell_volume   166.10410358
_cell_formula_units_Z   1
loop_
 _symmetry_equiv_pos_site_id
 _symmetry_equiv_pos_as_xyz
  1  'x, y, z'
loop_
 _atom_site_type_symbol
 _atom_site_label
 _atom_site_symmetry_multiplicity
 _atom_site_fract_x
 _atom_site_fract_y
 _atom_site_fract_z
 _atom_site_occupancy
  Ba  Ba0  1  0.75095600  0.75095600  0.24591100  1
  Ba  Ba1  1  0.24904400  0.24904400  0.75408900  1
  Tb  Tb2  1  0.00000000  0.00000000  0.50000000  1
  Bi  Bi3  1  0.50000000  0.50000000  0.00000000  1
  O  O4  1  0.71615000  0.22731200  0.78553900  1
  O  O5  1  0.77268800  0.28385000  0.21446100  1
  O  O6  1  0.22731200  0.71615000  0.78553900  1
  O  O7  1  0.74310500  0.74310500  0.70356400  1
  O  O8  1  0.25689500  0.25689500  0.29643600  1
  O  O9  1  0.28385000  0.77268800  0.21446100  1
