# generated using pymatgen
data_Ba3WCl2O5
_symmetry_space_group_name_H-M   'P 1'
_cell_length_a   7.61342178
_cell_length_b   7.61342178
_cell_length_c   11.71430400
_cell_angle_alpha   90.00000000
_cell_angle_beta   90.00000000
_cell_angle_gamma   134.25526526
_symmetry_Int_Tables_number   1
_chemical_formula_structural   Ba3WCl2O5
_chemical_formula_sum   'Ba6 W2 Cl4 O10'
_cell_volume   486.33275170
_cell_formula_units_Z   2
loop_
 _symmetry_equiv_pos_site_id
 _symmetry_equiv_pos_as_xyz
  1  'x, y, z'
loop_
 _atom_site_type_symbol
 _atom_site_label
 _atom_site_symmetry_multiplicity
 _atom_site_fract_x
 _atom_site_fract_y
 _atom_site_fract_z
 _atom_site_occupancy
  Ba  Ba0  1  0.34610400  0.65389600  0.95561500  1
  Ba  Ba1  1  0.65389600  0.34610400  0.45561500  1
  Ba  Ba2  1  0.34610400  0.65389600  0.54438500  1
  Ba  Ba3  1  0.09134000  0.90866000  0.75000000  1
  Ba  Ba4  1  0.65389600  0.34610400  0.04438500  1
  Ba  Ba5  1  0.90866000  0.09134000  0.25000000  1
  W  W6  1  0.24621800  0.75378200  0.25000000  1
  W  W7  1  0.75378200  0.24621800  0.75000000  1
  Cl  Cl8  1  0.50442200  0.49557800  0.75000000  1
  Cl  Cl9  1  0.00000000  0.00000000  0.00000000  1
  Cl  Cl10  1  0.00000000  0.00000000  0.50000000  1
  Cl  Cl11  1  0.49557800  0.50442200  0.25000000  1
  O  O12  1  0.50457100  0.94338000  0.13636300  1
  O  O13  1  0.88097900  0.11902100  0.75000000  1
  O  O14  1  0.94338000  0.50457100  0.63636300  1
  O  O15  1  0.49542900  0.05662000  0.86363700  1
  O  O16  1  0.11902100  0.88097900  0.25000000  1
  O  O17  1  0.49542900  0.05662000  0.63636300  1
  O  O18  1  0.94338000  0.50457100  0.86363700  1
  O  O19  1  0.05662000  0.49542900  0.13636300  1
  O  O20  1  0.50457100  0.94338000  0.36363700  1
  O  O21  1  0.05662000  0.49542900  0.36363700  1
