# generated using pymatgen
data_Cs2Zr(Si2O5)3
_symmetry_space_group_name_H-M   'P 1'
_cell_length_a   14.03161846
_cell_length_b   14.03161846
_cell_length_c   11.78537985
_cell_angle_alpha   73.30656721
_cell_angle_beta   73.30656721
_cell_angle_gamma   31.48096952
_symmetry_Int_Tables_number   1
_chemical_formula_structural   Cs2Zr(Si2O5)3
_chemical_formula_sum   'Cs6 Zr3 Si18 O45'
_cell_volume   1156.51634818
_cell_formula_units_Z   3
loop_
 _symmetry_equiv_pos_site_id
 _symmetry_equiv_pos_as_xyz
  1  'x, y, z'
loop_
 _atom_site_type_symbol
 _atom_site_label
 _atom_site_symmetry_multiplicity
 _atom_site_fract_x
 _atom_site_fract_y
 _atom_site_fract_z
 _atom_site_occupancy
  Cs  Cs0  1  0.89741900  0.89741900  0.62914400  1
  Cs  Cs1  1  0.57602700  0.57602700  0.98747000  1
  Cs  Cs2  1  0.24727500  0.24727500  0.36173000  1
  Cs  Cs3  1  0.75272500  0.75272500  0.63827000  1
  Cs  Cs4  1  0.42397300  0.42397300  0.01253000  1
  Cs  Cs5  1  0.10258100  0.10258100  0.37085600  1
  Zr  Zr6  1  0.00000000  0.00000000  0.00000000  1
  Zr  Zr7  1  0.32055400  0.32055400  0.64189700  1
  Zr  Zr8  1  0.67944600  0.67944600  0.35810300  1
  Si  Si9  1  0.56965600  0.17410400  0.37094900  1
  Si  Si10  1  0.81690100  0.81690100  0.26781700  1
  Si  Si11  1  0.86295900  0.86295900  0.99819500  1
  Si  Si12  1  0.10847300  0.50349600  0.90792100  1
  Si  Si13  1  0.43034400  0.82589600  0.62905100  1
  Si  Si14  1  0.20887400  0.81623900  0.73191800  1
  Si  Si15  1  0.81623900  0.20887400  0.73191800  1
  Si  Si16  1  0.89152700  0.49650400  0.09207900  1
  Si  Si17  1  0.18309900  0.18309900  0.73218300  1
  Si  Si18  1  0.45838100  0.45838100  0.63244800  1
  Si  Si19  1  0.54161900  0.54161900  0.36755200  1
  Si  Si20  1  0.49650400  0.89152700  0.09207900  1
  Si  Si21  1  0.18376100  0.79112600  0.26808200  1
  Si  Si22  1  0.82589600  0.43034400  0.62905100  1
  Si  Si23  1  0.79112600  0.18376100  0.26808200  1
  Si  Si24  1  0.13704100  0.13704100  0.00180500  1
  Si  Si25  1  0.17410400  0.56965600  0.37094900  1
  Si  Si26  1  0.50349600  0.10847300  0.90792100  1
  O  O27  1  0.81863400  0.81863400  0.12830000  1
  O  O28  1  0.53264600  0.13811800  0.50693200  1
  O  O29  1  0.92131700  0.92131700  0.00522400  1
  O  O30  1  0.32796600  0.97489800  0.71292100  1
  O  O31  1  0.49232300  0.89603700  0.22906400  1
  O  O32  1  0.50000000  0.00000000  0.00000000  1
  O  O33  1  0.00000000  0.50000000  0.00000000  1
  O  O34  1  0.37464000  0.37464000  0.31009900  1
  O  O35  1  0.18136600  0.18136600  0.87170000  1
  O  O36  1  0.46735400  0.86188200  0.49306800  1
  O  O37  1  0.07868300  0.07868300  0.99477600  1
  O  O38  1  0.82946300  0.30920000  0.63590800  1
  O  O39  1  0.64207500  0.29605200  0.70603900  1
  O  O40  1  0.86188200  0.46735400  0.49306800  1
  O  O41  1  0.10396300  0.50767700  0.77093600  1
  O  O42  1  0.67810700  0.02577400  0.92585800  1
  O  O43  1  0.24165900  0.24165900  0.64507000  1
  O  O44  1  0.35792500  0.70394800  0.29396100  1
  O  O45  1  0.97489800  0.32796600  0.71292100  1
  O  O46  1  0.67883500  0.67883500  0.05447400  1
  O  O47  1  0.13811800  0.53264600  0.50693200  1
  O  O48  1  0.69080000  0.17053700  0.36409200  1
  O  O49  1  0.00362100  0.00362100  0.30526200  1
  O  O50  1  0.97422600  0.32189300  0.07414200  1
  O  O51  1  0.99637900  0.99637900  0.69473800  1
  O  O52  1  0.60063200  0.60063200  0.36932800  1
  O  O53  1  0.89603700  0.49232300  0.22906400  1
  O  O54  1  0.21500100  0.81160100  0.86807600  1
  O  O55  1  0.30920000  0.82946300  0.63590800  1
  O  O56  1  0.70394800  0.35792500  0.29396100  1
  O  O57  1  0.29605200  0.64207500  0.70603900  1
  O  O58  1  0.75834100  0.75834100  0.35493000  1
  O  O59  1  0.39936800  0.39936800  0.63067200  1
  O  O60  1  0.62536000  0.62536000  0.68990100  1
  O  O61  1  0.18839900  0.78499900  0.13192400  1
  O  O62  1  0.50767700  0.10396300  0.77093600  1
  O  O63  1  0.78499900  0.18839900  0.13192400  1
  O  O64  1  0.50000000  0.50000000  0.50000000  1
  O  O65  1  0.32189300  0.97422600  0.07414200  1
  O  O66  1  0.67203400  0.02510200  0.28707900  1
  O  O67  1  0.17053700  0.69080000  0.36409200  1
  O  O68  1  0.02577400  0.67810700  0.92585800  1
  O  O69  1  0.81160100  0.21500100  0.86807600  1
  O  O70  1  0.02510200  0.67203400  0.28707900  1
  O  O71  1  0.32116500  0.32116500  0.94552600  1
