# generated using pymatgen
data_K3Sc(MoO4)3
_symmetry_space_group_name_H-M   'P 1'
_cell_length_a   9.58049600
_cell_length_b   11.13339400
_cell_length_c   13.93601400
_cell_angle_alpha   90.00000000
_cell_angle_beta   90.00000000
_cell_angle_gamma   90.00000000
_symmetry_Int_Tables_number   1
_chemical_formula_structural   K3Sc(MoO4)3
_chemical_formula_sum   'K12 Sc4 Mo12 O48'
_cell_volume   1486.46314691
_cell_formula_units_Z   4
loop_
 _symmetry_equiv_pos_site_id
 _symmetry_equiv_pos_as_xyz
  1  'x, y, z'
loop_
 _atom_site_type_symbol
 _atom_site_label
 _atom_site_symmetry_multiplicity
 _atom_site_fract_x
 _atom_site_fract_y
 _atom_site_fract_z
 _atom_site_occupancy
  K  K0  1  0.47784000  0.51450200  0.25000000  1
  K  K1  1  0.54145900  0.25000000  0.00000000  1
  K  K2  1  0.18076500  0.27286600  0.75000000  1
  K  K3  1  0.45854100  0.75000000  0.50000000  1
  K  K4  1  0.47784000  0.98549800  0.75000000  1
  K  K5  1  0.45854100  0.75000000  0.00000000  1
  K  K6  1  0.81923500  0.77286600  0.75000000  1
  K  K7  1  0.18076500  0.22713400  0.25000000  1
  K  K8  1  0.52216000  0.48549800  0.75000000  1
  K  K9  1  0.54145900  0.25000000  0.50000000  1
  K  K10  1  0.81923500  0.72713400  0.25000000  1
  K  K11  1  0.52216000  0.01450200  0.25000000  1
  Sc  Sc12  1  0.06700300  0.75000000  0.50000000  1
  Sc  Sc13  1  0.06700300  0.75000000  0.00000000  1
  Sc  Sc14  1  0.93299700  0.25000000  0.50000000  1
  Sc  Sc15  1  0.93299700  0.25000000  0.00000000  1
  Mo  Mo16  1  0.18171200  0.83045100  0.25000000  1
  Mo  Mo17  1  0.75050700  0.54772400  0.99405200  1
  Mo  Mo18  1  0.24949300  0.04772400  0.99405200  1
  Mo  Mo19  1  0.81828800  0.33045100  0.25000000  1
  Mo  Mo20  1  0.75050700  0.95227600  0.49405200  1
  Mo  Mo21  1  0.24949300  0.45227600  0.00594800  1
  Mo  Mo22  1  0.18171200  0.66954900  0.75000000  1
  Mo  Mo23  1  0.75050700  0.95227600  0.00594800  1
  Mo  Mo24  1  0.24949300  0.45227600  0.49405200  1
  Mo  Mo25  1  0.24949300  0.04772400  0.50594800  1
  Mo  Mo26  1  0.75050700  0.54772400  0.50594800  1
  Mo  Mo27  1  0.81828800  0.16954900  0.75000000  1
  O  O28  1  0.69151800  0.89130000  0.38331200  1
  O  O29  1  0.61631800  0.57622200  0.07905000  1
  O  O30  1  0.61631800  0.57622200  0.42095000  1
  O  O31  1  0.65252100  0.24136400  0.75000000  1
  O  O32  1  0.30848200  0.39130000  0.11668800  1
  O  O33  1  0.07578000  0.71143200  0.64650000  1
  O  O34  1  0.21026600  0.51305000  0.75000000  1
  O  O35  1  0.90797200  0.87511300  0.96890200  1
  O  O36  1  0.22325100  0.61457200  0.01735600  1
  O  O37  1  0.22325100  0.88542800  0.98264400  1
  O  O38  1  0.77674900  0.38542800  0.51735600  1
  O  O39  1  0.90797200  0.62488700  0.03109800  1
  O  O40  1  0.92422000  0.21143200  0.64650000  1
  O  O41  1  0.92422000  0.21143200  0.85350000  1
  O  O42  1  0.38368200  0.42377800  0.57905000  1
  O  O43  1  0.34747900  0.74136400  0.75000000  1
  O  O44  1  0.34747900  0.75863600  0.25000000  1
  O  O45  1  0.65252100  0.25863600  0.25000000  1
  O  O46  1  0.09202800  0.12488700  0.03109800  1
  O  O47  1  0.21026600  0.98695000  0.25000000  1
  O  O48  1  0.69151800  0.89130000  0.11668800  1
  O  O49  1  0.30848200  0.10870000  0.61668800  1
  O  O50  1  0.09202800  0.37511300  0.96890200  1
  O  O51  1  0.09202800  0.37511300  0.53109800  1
  O  O52  1  0.77674900  0.11457200  0.01735600  1
  O  O53  1  0.78973400  0.48695000  0.25000000  1
  O  O54  1  0.77674900  0.11457200  0.48264400  1
  O  O55  1  0.90797200  0.62488700  0.46890200  1
  O  O56  1  0.61631800  0.92377800  0.92095000  1
  O  O57  1  0.92422000  0.28856800  0.14650000  1
  O  O58  1  0.22325100  0.61457200  0.48264400  1
  O  O59  1  0.38368200  0.42377800  0.92095000  1
  O  O60  1  0.30848200  0.39130000  0.38331200  1
  O  O61  1  0.09202800  0.12488700  0.46890200  1
  O  O62  1  0.77674900  0.38542800  0.98264400  1
  O  O63  1  0.78973400  0.01305000  0.75000000  1
  O  O64  1  0.22325100  0.88542800  0.51735600  1
  O  O65  1  0.30848200  0.10870000  0.88331200  1
  O  O66  1  0.69151800  0.60870000  0.61668800  1
  O  O67  1  0.61631800  0.92377800  0.57905000  1
  O  O68  1  0.90797200  0.87511300  0.53109800  1
  O  O69  1  0.07578000  0.78856800  0.35350000  1
  O  O70  1  0.07578000  0.71143200  0.85350000  1
  O  O71  1  0.38368200  0.07622200  0.07905000  1
  O  O72  1  0.07578000  0.78856800  0.14650000  1
  O  O73  1  0.38368200  0.07622200  0.42095000  1
  O  O74  1  0.69151800  0.60870000  0.88331200  1
  O  O75  1  0.92422000  0.28856800  0.35350000  1
