# generated using pymatgen
data_Na(RhO2)2
_symmetry_space_group_name_H-M   'P 1'
_cell_length_a   3.10115400
_cell_length_b   9.10194300
_cell_length_c   10.90233300
_cell_angle_alpha   90.00000000
_cell_angle_beta   90.00000000
_cell_angle_gamma   90.00000000
_symmetry_Int_Tables_number   1
_chemical_formula_structural   Na(RhO2)2
_chemical_formula_sum   'Na4 Rh8 O16'
_cell_volume   307.73499616
_cell_formula_units_Z   4
loop_
 _symmetry_equiv_pos_site_id
 _symmetry_equiv_pos_as_xyz
  1  'x, y, z'
loop_
 _atom_site_type_symbol
 _atom_site_label
 _atom_site_symmetry_multiplicity
 _atom_site_fract_x
 _atom_site_fract_y
 _atom_site_fract_z
 _atom_site_occupancy
  Na  Na0  1  0.75000000  0.73732000  0.84271800  1
  Na  Na1  1  0.25000000  0.26268000  0.15728200  1
  Na  Na2  1  0.75000000  0.23732000  0.65728200  1
  Na  Na3  1  0.25000000  0.76268000  0.34271800  1
  Rh  Rh4  1  0.75000000  0.08646200  0.39704200  1
  Rh  Rh5  1  0.25000000  0.91353800  0.60295800  1
  Rh  Rh6  1  0.75000000  0.58646200  0.10295800  1
  Rh  Rh7  1  0.25000000  0.41353800  0.89704200  1
  Rh  Rh8  1  0.75000000  0.05738500  0.88391600  1
  Rh  Rh9  1  0.25000000  0.94261500  0.11608400  1
  Rh  Rh10  1  0.75000000  0.55738500  0.61608400  1
  Rh  Rh11  1  0.25000000  0.44261500  0.38391600  1
  O  O12  1  0.75000000  0.30300600  0.34043500  1
  O  O13  1  0.25000000  0.69699400  0.65956500  1
  O  O14  1  0.75000000  0.80300600  0.15956500  1
  O  O15  1  0.25000000  0.19699400  0.84043500  1
  O  O16  1  0.75000000  0.38402100  0.02019700  1
  O  O17  1  0.25000000  0.61597900  0.97980300  1
  O  O18  1  0.75000000  0.88402100  0.47980300  1
  O  O19  1  0.25000000  0.11597900  0.52019700  1
  O  O20  1  0.75000000  0.96728000  0.71279000  1
  O  O21  1  0.25000000  0.03272000  0.28721000  1
  O  O22  1  0.75000000  0.46728000  0.78721000  1
  O  O23  1  0.25000000  0.53272000  0.21279000  1
  O  O24  1  0.75000000  0.08176900  0.06989900  1
  O  O25  1  0.25000000  0.91823100  0.93010100  1
  O  O26  1  0.75000000  0.58176900  0.43010100  1
  O  O27  1  0.25000000  0.41823100  0.56989900  1
