# generated using pymatgen
data_CsBa2Nb3O10
_symmetry_space_group_name_H-M   'P 1'
_cell_length_a   4.02905500
_cell_length_b   4.02905500
_cell_length_c   16.06989500
_cell_angle_alpha   90.00000000
_cell_angle_beta   90.00000000
_cell_angle_gamma   90.00000000
_symmetry_Int_Tables_number   1
_chemical_formula_structural   CsBa2Nb3O10
_chemical_formula_sum   'Cs1 Ba2 Nb3 O10'
_cell_volume   260.86717249
_cell_formula_units_Z   1
loop_
 _symmetry_equiv_pos_site_id
 _symmetry_equiv_pos_as_xyz
  1  'x, y, z'
loop_
 _atom_site_type_symbol
 _atom_site_label
 _atom_site_symmetry_multiplicity
 _atom_site_fract_x
 _atom_site_fract_y
 _atom_site_fract_z
 _atom_site_occupancy
  Cs  Cs0  1  0.50000000  0.50000000  0.50000000  1
  Ba  Ba1  1  0.50000000  0.50000000  0.85614900  1
  Ba  Ba2  1  0.50000000  0.50000000  0.14385100  1
  Nb  Nb3  1  0.00000000  0.00000000  0.29034200  1
  Nb  Nb4  1  0.00000000  0.00000000  0.70965800  1
  Nb  Nb5  1  0.00000000  0.00000000  0.00000000  1
  O  O6  1  0.00000000  0.00000000  0.40149900  1
  O  O7  1  0.50000000  0.00000000  0.26571900  1
  O  O8  1  0.50000000  0.00000000  0.73428100  1
  O  O9  1  0.00000000  0.50000000  0.73428100  1
  O  O10  1  0.00000000  0.00000000  0.12446900  1
  O  O11  1  0.00000000  0.50000000  0.26571900  1
  O  O12  1  0.00000000  0.00000000  0.59850100  1
  O  O13  1  0.00000000  0.00000000  0.87553100  1
  O  O14  1  0.00000000  0.50000000  0.00000000  1
  O  O15  1  0.50000000  0.00000000  0.00000000  1
