# generated using pymatgen
data_K6Co2O5
_symmetry_space_group_name_H-M   'P 1'
_cell_length_a   6.66023400
_cell_length_b   6.66020700
_cell_length_c   11.95937300
_cell_angle_alpha   90.00088810
_cell_angle_beta   90.00009953
_cell_angle_gamma   89.99915694
_symmetry_Int_Tables_number   1
_chemical_formula_structural   K6Co2O5
_chemical_formula_sum   'K12 Co4 O10'
_cell_volume   530.50029095
_cell_formula_units_Z   2
loop_
 _symmetry_equiv_pos_site_id
 _symmetry_equiv_pos_as_xyz
  1  'x, y, z'
loop_
 _atom_site_type_symbol
 _atom_site_label
 _atom_site_symmetry_multiplicity
 _atom_site_fract_x
 _atom_site_fract_y
 _atom_site_fract_z
 _atom_site_occupancy
  K  K0  1  0.50001000  0.49999900  0.71938400  1
  K  K1  1  0.99999000  0.00000000  0.21938600  1
  K  K2  1  0.99998800  0.99999000  0.78061600  1
  K  K3  1  0.50001200  0.49999600  0.28061500  1
  K  K4  1  0.18000800  0.81998400  0.49999700  1
  K  K5  1  0.81998300  0.18001000  0.49999700  1
  K  K6  1  0.31999500  0.31999200  0.00000500  1
  K  K7  1  0.68001700  0.68000800  0.00000300  1
  K  K8  1  0.99998700  0.50000600  0.75000000  1
  K  K9  1  0.50001400  0.00000300  0.25000100  1
  K  K10  1  0.50001200  0.00000700  0.74999900  1
  K  K11  1  0.99998300  0.50000700  0.24999800  1
  Co  Co12  1  0.79391000  0.20609100  0.99999500  1
  Co  Co13  1  0.70609100  0.70609100  0.49999700  1
  Co  Co14  1  0.20609000  0.79390800  0.99999900  1
  Co  Co15  1  0.29390900  0.29390900  0.50000700  1
  O  O16  1  0.99999600  0.00000100  0.00000500  1
  O  O17  1  0.50000300  0.50000000  0.49999500  1
  O  O18  1  0.78818900  0.78818300  0.36163700  1
  O  O19  1  0.28818700  0.71182000  0.13836200  1
  O  O20  1  0.78818600  0.78818000  0.63836700  1
  O  O21  1  0.28819400  0.71181600  0.86163300  1
  O  O22  1  0.21182000  0.21182600  0.36164000  1
  O  O23  1  0.21180000  0.21180900  0.63836800  1
  O  O24  1  0.71180700  0.28818700  0.86163100  1
  O  O25  1  0.71182000  0.28817500  0.13836200  1
