# generated using pymatgen
data_LiB6O9F
_symmetry_space_group_name_H-M   'P 1'
_cell_length_a   7.88270000
_cell_length_b   8.65137000
_cell_length_c   10.95802800
_cell_angle_alpha   90.00000000
_cell_angle_beta   90.00000000
_cell_angle_gamma   90.00000000
_symmetry_Int_Tables_number   1
_chemical_formula_structural   LiB6O9F
_chemical_formula_sum   'Li4 B24 O36 F4'
_cell_volume   747.29536830
_cell_formula_units_Z   4
loop_
 _symmetry_equiv_pos_site_id
 _symmetry_equiv_pos_as_xyz
  1  'x, y, z'
loop_
 _atom_site_type_symbol
 _atom_site_label
 _atom_site_symmetry_multiplicity
 _atom_site_fract_x
 _atom_site_fract_y
 _atom_site_fract_z
 _atom_site_occupancy
  Li  Li0  1  0.23754400  0.30076800  0.22646600  1
  Li  Li1  1  0.76245600  0.69923200  0.72646600  1
  Li  Li2  1  0.73754400  0.19923200  0.22646600  1
  Li  Li3  1  0.26245600  0.80076800  0.72646600  1
  B  B4  1  0.87164300  0.39741200  0.65413100  1
  B  B5  1  0.05814000  0.34844900  0.48695300  1
  B  B6  1  0.59435600  0.91292000  0.60299300  1
  B  B7  1  0.12835700  0.60258800  0.15413100  1
  B  B8  1  0.36302600  0.60648800  0.31308700  1
  B  B9  1  0.94186000  0.65155100  0.98695300  1
  B  B10  1  0.04665500  0.84186800  0.48313600  1
  B  B11  1  0.54665500  0.65813200  0.48313600  1
  B  B12  1  0.63697400  0.39351200  0.81308700  1
  B  B13  1  0.53859100  0.40405100  0.39438600  1
  B  B14  1  0.90564400  0.41292000  0.10299300  1
  B  B15  1  0.55814000  0.15155100  0.48695300  1
  B  B16  1  0.37164300  0.10258800  0.65413100  1
  B  B17  1  0.44186000  0.84844900  0.98695300  1
  B  B18  1  0.95334500  0.15813200  0.98313600  1
  B  B19  1  0.09435600  0.58708000  0.60299300  1
  B  B20  1  0.13697400  0.10648800  0.81308700  1
  B  B21  1  0.45334500  0.34186800  0.98313600  1
  B  B22  1  0.62835700  0.89741200  0.15413100  1
  B  B23  1  0.40564400  0.08708000  0.10299300  1
  B  B24  1  0.03859100  0.09594900  0.39438600  1
  B  B25  1  0.86302600  0.89351200  0.31308700  1
  B  B26  1  0.96140900  0.90405100  0.89438600  1
  B  B27  1  0.46140900  0.59594900  0.89438600  1
  O  O28  1  0.74980200  0.33831700  0.73067600  1
  O  O29  1  0.93239900  0.79148600  0.39557900  1
  O  O30  1  0.63271700  0.01140400  0.49826100  1
  O  O31  1  0.39509600  0.49449800  0.97752000  1
  O  O32  1  0.93545800  0.29620200  0.56800900  1
  O  O33  1  0.06832000  0.45445200  0.16301600  1
  O  O34  1  0.93168000  0.54554800  0.66301600  1
  O  O35  1  0.56760100  0.29148600  0.89557900  1
  O  O36  1  0.43239900  0.70851400  0.39557900  1
  O  O37  1  0.10490400  0.99449800  0.47752000  1
  O  O38  1  0.89787800  0.24750200  0.07554200  1
  O  O39  1  0.56454200  0.79620200  0.06800900  1
  O  O40  1  0.89509600  0.00550200  0.97752000  1
  O  O41  1  0.60490400  0.50550200  0.47752000  1
  O  O42  1  0.75019800  0.83831700  0.23067600  1
  O  O43  1  0.09524400  0.24821700  0.39053200  1
  O  O44  1  0.40475600  0.74821700  0.89053200  1
  O  O45  1  0.86728300  0.51140400  0.99826100  1
  O  O46  1  0.43545800  0.20379800  0.56800900  1
  O  O47  1  0.06760100  0.20851400  0.89557900  1
  O  O48  1  0.06454200  0.70379800  0.06800900  1
  O  O49  1  0.59524400  0.25178300  0.39053200  1
  O  O50  1  0.91493900  0.04898300  0.31156900  1
  O  O51  1  0.08506100  0.95101700  0.81156900  1
  O  O52  1  0.41493900  0.45101700  0.31156900  1
  O  O53  1  0.24980200  0.16168300  0.73067600  1
  O  O54  1  0.58506100  0.54898300  0.81156900  1
  O  O55  1  0.56832000  0.04554800  0.16301600  1
  O  O56  1  0.10212200  0.75249800  0.57554200  1
  O  O57  1  0.39787800  0.25249800  0.07554200  1
  O  O58  1  0.60212200  0.74750200  0.57554200  1
  O  O59  1  0.90475600  0.75178300  0.89053200  1
  O  O60  1  0.13271700  0.48859600  0.49826100  1
  O  O61  1  0.43168000  0.95445200  0.66301600  1
  O  O62  1  0.25019800  0.66168300  0.23067600  1
  O  O63  1  0.36728300  0.98859600  0.99826100  1
  F  F64  1  0.72843500  0.92814600  0.69484300  1
  F  F65  1  0.77156500  0.42814600  0.19484300  1
  F  F66  1  0.22843500  0.57185400  0.69484300  1
  F  F67  1  0.27156500  0.07185400  0.19484300  1
