# generated using pymatgen
data_LiYSiO4
_symmetry_space_group_name_H-M   'P 1'
_cell_length_a   6.25105300
_cell_length_b   5.45199700
_cell_length_c   10.94003802
_cell_angle_alpha   66.37685477
_cell_angle_beta   90.00000000
_cell_angle_gamma   90.00000000
_symmetry_Int_Tables_number   1
_chemical_formula_structural   LiYSiO4
_chemical_formula_sum   'Li4 Y4 Si4 O16'
_cell_volume   341.60038268
_cell_formula_units_Z   4
loop_
 _symmetry_equiv_pos_site_id
 _symmetry_equiv_pos_as_xyz
  1  'x, y, z'
loop_
 _atom_site_type_symbol
 _atom_site_label
 _atom_site_symmetry_multiplicity
 _atom_site_fract_x
 _atom_site_fract_y
 _atom_site_fract_z
 _atom_site_occupancy
  Li  Li0  1  0.13411100  0.91848400  0.42985700  1
  Li  Li1  1  0.63411100  0.08151600  0.07014300  1
  Li  Li2  1  0.86588900  0.08151600  0.57014300  1
  Li  Li3  1  0.36588900  0.91848400  0.92985700  1
  Y  Y4  1  0.11597000  0.44583800  0.84738200  1
  Y  Y5  1  0.88403000  0.55416200  0.15261800  1
  Y  Y6  1  0.61597000  0.55416200  0.65261800  1
  Y  Y7  1  0.38403000  0.44583800  0.34738200  1
  Si  Si8  1  0.65217700  0.90365500  0.35935500  1
  Si  Si9  1  0.34782300  0.09634500  0.64064500  1
  Si  Si10  1  0.15217700  0.09634500  0.14064500  1
  Si  Si11  1  0.84782300  0.90365500  0.85935500  1
  O  O12  1  0.85854700  0.23002900  0.77572400  1
  O  O13  1  0.64145300  0.23002900  0.27572400  1
  O  O14  1  0.16332500  0.18533900  0.52420100  1
  O  O15  1  0.83722300  0.75763400  0.75282300  1
  O  O16  1  0.14145300  0.76997100  0.22427600  1
  O  O17  1  0.57074500  0.22586300  0.55530200  1
  O  O18  1  0.66277700  0.75763400  0.25282300  1
  O  O19  1  0.42925500  0.77413700  0.44469800  1
  O  O20  1  0.07074500  0.77413700  0.94469800  1
  O  O21  1  0.66332500  0.81466100  0.97579900  1
  O  O22  1  0.16277700  0.24236600  0.24717700  1
  O  O23  1  0.92925500  0.22586300  0.05530200  1
  O  O24  1  0.33667500  0.18533900  0.02420100  1
  O  O25  1  0.33722300  0.24236600  0.74717700  1
  O  O26  1  0.35854700  0.76997100  0.72427600  1
  O  O27  1  0.83667500  0.81466100  0.47579900  1
