# generated using pymatgen
data_Nd2SiO5
_symmetry_space_group_name_H-M   'P 1'
_cell_length_a   7.39112500
_cell_length_b   6.92008600
_cell_length_c   9.33078584
_cell_angle_alpha   71.60039193
_cell_angle_beta   90.00000000
_cell_angle_gamma   90.00000000
_symmetry_Int_Tables_number   1
_chemical_formula_structural   Nd2SiO5
_chemical_formula_sum   'Nd8 Si4 O20'
_cell_volume   452.84618798
_cell_formula_units_Z   4
loop_
 _symmetry_equiv_pos_site_id
 _symmetry_equiv_pos_as_xyz
  1  'x, y, z'
loop_
 _atom_site_type_symbol
 _atom_site_label
 _atom_site_symmetry_multiplicity
 _atom_site_fract_x
 _atom_site_fract_y
 _atom_site_fract_z
 _atom_site_occupancy
  Nd  Nd0  1  0.62445100  0.23384900  0.97850800  1
  Nd  Nd1  1  0.12445100  0.26615100  0.02149200  1
  Nd  Nd2  1  0.65403500  0.09205900  0.61066600  1
  Nd  Nd3  1  0.84596500  0.59205900  0.61066600  1
  Nd  Nd4  1  0.15403500  0.40794100  0.38933400  1
  Nd  Nd5  1  0.34596500  0.90794100  0.38933400  1
  Nd  Nd6  1  0.87554900  0.73384900  0.97850800  1
  Nd  Nd7  1  0.37554900  0.76615100  0.02149200  1
  Si  Si8  1  0.08133100  0.04345700  0.70128600  1
  Si  Si9  1  0.58133100  0.45654300  0.29871400  1
  Si  Si10  1  0.41866900  0.54345700  0.70128600  1
  Si  Si11  1  0.91866900  0.95654300  0.29871400  1
  O  O12  1  0.57159200  0.36455500  0.70602800  1
  O  O13  1  0.36515100  0.49325800  0.88175300  1
  O  O14  1  0.37691300  0.04767900  0.11565400  1
  O  O15  1  0.86515100  0.00674200  0.11824700  1
  O  O16  1  0.25302600  0.05743200  0.59102000  1
  O  O17  1  0.74697400  0.94256800  0.40898000  1
  O  O18  1  0.03945700  0.74709100  0.36667600  1
  O  O19  1  0.13484900  0.99325800  0.88175300  1
  O  O20  1  0.46054300  0.24709100  0.36667600  1
  O  O21  1  0.62308700  0.95232100  0.88434600  1
  O  O22  1  0.07159200  0.13544500  0.29397200  1
  O  O23  1  0.12308700  0.54767900  0.11565400  1
  O  O24  1  0.75302600  0.44256800  0.40898000  1
  O  O25  1  0.53945700  0.75290900  0.63332400  1
  O  O26  1  0.96054300  0.25290900  0.63332400  1
  O  O27  1  0.92840800  0.86455500  0.70602800  1
  O  O28  1  0.63484900  0.50674200  0.11824700  1
  O  O29  1  0.87691300  0.45232100  0.88434600  1
  O  O30  1  0.42840800  0.63544500  0.29397200  1
  O  O31  1  0.24697400  0.55743200  0.59102000  1
