# generated using pymatgen
data_Sr11(OsO6)4
_symmetry_space_group_name_H-M   'P 1'
_cell_length_a   11.66722238
_cell_length_b   11.66722238
_cell_length_c   11.66722238
_cell_angle_alpha   119.25659169
_cell_angle_beta   119.25659169
_cell_angle_gamma   91.29251723
_symmetry_Int_Tables_number   1
_chemical_formula_structural   Sr11(OsO6)4
_chemical_formula_sum   'Sr22 Os8 O48'
_cell_volume   1135.32611746
_cell_formula_units_Z   2
loop_
 _symmetry_equiv_pos_site_id
 _symmetry_equiv_pos_as_xyz
  1  'x, y, z'
loop_
 _atom_site_type_symbol
 _atom_site_label
 _atom_site_symmetry_multiplicity
 _atom_site_fract_x
 _atom_site_fract_y
 _atom_site_fract_z
 _atom_site_occupancy
  Sr  Sr0  1  0.12031900  0.93212900  0.23482200  1
  Sr  Sr1  1  0.03310400  0.97463200  0.53205000  1
  Sr  Sr2  1  0.48729000  0.98729000  0.50000000  1
  Sr  Sr3  1  0.73729000  0.73729000  0.00000000  1
  Sr  Sr4  1  0.11450300  0.87968100  0.81181100  1
  Sr  Sr5  1  0.71689600  0.27536800  0.96795000  1
  Sr  Sr6  1  0.01271000  0.51271000  0.50000000  1
  Sr  Sr7  1  0.63549700  0.37031900  0.68818900  1
  Sr  Sr8  1  0.06787100  0.30269200  0.18818900  1
  Sr  Sr9  1  0.69730800  0.88549700  0.76517800  1
  Sr  Sr10  1  0.68212900  0.94730800  0.31181100  1
  Sr  Sr11  1  0.50000000  0.50000000  0.00000000  1
  Sr  Sr12  1  0.05269200  0.36450300  0.73482200  1
  Sr  Sr13  1  0.25000000  0.75000000  0.50000000  1
  Sr  Sr14  1  0.02536800  0.55741800  0.05847300  1
  Sr  Sr15  1  0.62968100  0.31787100  0.26517800  1
  Sr  Sr16  1  0.30741800  0.74894600  0.03205000  1
  Sr  Sr17  1  0.49894600  0.96689600  0.94152700  1
  Sr  Sr18  1  0.72463200  0.69258200  0.44152700  1
  Sr  Sr19  1  0.44258200  0.50105400  0.46795000  1
  Sr  Sr20  1  0.26271000  0.26271000  0.00000000  1
  Sr  Sr21  1  0.25105400  0.28310400  0.55847300  1
  Os  Os22  1  0.87500000  0.12500000  0.75000000  1
  Os  Os23  1  0.37500000  0.62500000  0.25000000  1
  Os  Os24  1  0.37500000  0.12500000  0.75000000  1
  Os  Os25  1  0.87500000  0.12500000  0.25000000  1
  Os  Os26  1  0.37500000  0.62500000  0.75000000  1
  Os  Os27  1  0.37500000  0.12500000  0.25000000  1
  Os  Os28  1  0.87500000  0.62500000  0.75000000  1
  Os  Os29  1  0.87500000  0.62500000  0.25000000  1
  O  O30  1  0.71100700  0.11782700  0.24874500  1
  O  O31  1  0.35883400  0.15271400  0.41705900  1
  O  O32  1  0.23884100  0.48479400  0.51283400  1
  O  O33  1  0.88217300  0.13091800  0.59318000  1
  O  O34  1  0.48004600  0.26898100  0.76509000  1
  O  O35  1  0.53773800  0.28899300  0.40682000  1
  O  O36  1  0.90271400  0.98565500  0.29388000  1
  O  O37  1  0.73565500  0.94177500  0.58294100  1
  O  O38  1  0.27399300  0.76115900  0.24595300  1
  O  O39  1  0.84728600  0.26434500  0.20612000  1
  O  O40  1  0.26304500  0.01728500  0.52113100  1
  O  O41  1  0.49615300  0.74191400  0.47886900  1
  O  O42  1  0.73101900  0.49610800  0.21106500  1
  O  O43  1  0.94617200  0.72870100  0.97302900  1
  O  O44  1  0.98271500  0.50384700  0.24576100  1
  O  O45  1  0.39116600  0.09728600  0.08294100  1
  O  O46  1  0.01434500  0.30822500  0.91705900  1
  O  O47  1  0.50389200  0.71495600  0.23491000  1
  O  O48  1  0.75567200  0.97314300  0.02697100  1
  O  O49  1  0.51520600  0.02804000  0.75404700  1
  O  O50  1  0.80382800  0.52129900  0.52697100  1
  O  O51  1  0.25384700  0.50808600  0.02113100  1
  O  O52  1  0.88091800  0.78773800  0.74874500  1
  O  O53  1  0.48695500  0.23271500  0.97886900  1
  O  O54  1  0.27129900  0.24432800  0.21747100  1
  O  O55  1  0.77804000  0.52399300  0.01283400  1
  O  O56  1  0.49191400  0.51304500  0.74576100  1
  O  O57  1  0.86782700  0.11908200  0.90682000  1
  O  O58  1  0.05822500  0.64116600  0.79388000  1
  O  O59  1  0.86908200  0.46226200  0.75125500  1
  O  O60  1  0.72314300  0.19617200  0.71747100  1
  O  O61  1  0.02685700  0.05382800  0.78252900  1
  O  O62  1  0.24610800  0.53504400  0.26509000  1
  O  O63  1  0.47600700  0.48884100  0.25404700  1
  O  O64  1  0.99432800  0.27685700  0.47302900  1
  O  O65  1  0.26995400  0.98101900  0.73491000  1
  O  O66  1  0.46495600  0.73004600  0.71106500  1
  O  O67  1  0.51115900  0.76520600  0.98716600  1
  O  O68  1  0.01898100  0.75389200  0.28893500  1
  O  O69  1  0.21226200  0.96100700  0.09318000  1
  O  O70  1  0.97196000  0.72600700  0.48716600  1
  O  O71  1  0.76728500  0.74615300  0.25423900  1
  O  O72  1  0.03899300  0.13217300  0.25125500  1
  O  O73  1  0.25808600  0.73695500  0.75423900  1
  O  O74  1  0.69177500  0.60883400  0.70612000  1
  O  O75  1  0.47870100  0.00567200  0.28252900  1
  O  O76  1  0.28504400  0.51995400  0.78893500  1
  O  O77  1  0.23479400  0.22196000  0.74595300  1
