# generated using pymatgen
data_Li3Mo3P3O17
_symmetry_space_group_name_H-M   'P 1'
_cell_length_a   8.42275200
_cell_length_b   12.17195881
_cell_length_c   12.98279846
_cell_angle_alpha   89.81041803
_cell_angle_beta   89.82271236
_cell_angle_gamma   82.82056246
_symmetry_Int_Tables_number   1
_chemical_formula_structural   Li3Mo3P3O17
_chemical_formula_sum   'Li12 Mo12 P12 O68'
_cell_volume   1320.56683721
_cell_formula_units_Z   4
loop_
 _symmetry_equiv_pos_site_id
 _symmetry_equiv_pos_as_xyz
  1  'x, y, z'
loop_
 _atom_site_type_symbol
 _atom_site_label
 _atom_site_symmetry_multiplicity
 _atom_site_fract_x
 _atom_site_fract_y
 _atom_site_fract_z
 _atom_site_occupancy
  Li  Li0  1  0.36134300  0.86524300  0.62383800  1
  Li  Li1  1  0.63865700  0.13475700  0.37616200  1
  Li  Li2  1  0.21685800  0.30906300  0.56852700  1
  Li  Li3  1  0.64676800  0.79427400  0.25345100  1
  Li  Li4  1  0.85646400  0.20643500  0.75460400  1
  Li  Li5  1  0.28700700  0.69229900  0.06824600  1
  Li  Li6  1  0.86445000  0.86661400  0.87285300  1
  Li  Li7  1  0.13555000  0.13338600  0.12714700  1
  Li  Li8  1  0.78314200  0.69093700  0.43147300  1
  Li  Li9  1  0.71299300  0.30770100  0.93175400  1
  Li  Li10  1  0.35323200  0.20572600  0.74654900  1
  Li  Li11  1  0.14353600  0.79356500  0.24539600  1
  Mo  Mo12  1  0.84777100  0.60610900  0.87158100  1
  Mo  Mo13  1  0.81133300  0.47964900  0.61792200  1
  Mo  Mo14  1  0.65459900  0.39596500  0.37023300  1
  Mo  Mo15  1  0.25415900  0.01349000  0.38502000  1
  Mo  Mo16  1  0.15222900  0.39389100  0.12841900  1
  Mo  Mo17  1  0.24753500  0.98515800  0.88489700  1
  Mo  Mo18  1  0.31494100  0.47759900  0.88070700  1
  Mo  Mo19  1  0.68505900  0.52240100  0.11929300  1
  Mo  Mo20  1  0.34540100  0.60403500  0.62976700  1
  Mo  Mo21  1  0.18866700  0.52035100  0.38207800  1
  Mo  Mo22  1  0.74584100  0.98651000  0.61498000  1
  Mo  Mo23  1  0.75246500  0.01484200  0.11510300  1
  P  P24  1  0.06052200  0.27360500  0.34977500  1
  P  P25  1  0.56014600  0.27307600  0.15539000  1
  P  P26  1  0.14409100  0.05416100  0.63820300  1
  P  P27  1  0.85590900  0.94583900  0.36179700  1
  P  P28  1  0.43985400  0.72692400  0.84461000  1
  P  P29  1  0.09990300  0.26388000  0.90709600  1
  P  P30  1  0.59709300  0.26646100  0.59518700  1
  P  P31  1  0.35602700  0.94557600  0.13856000  1
  P  P32  1  0.64397300  0.05442400  0.86144000  1
  P  P33  1  0.40290700  0.73353900  0.40481300  1
  P  P34  1  0.93947800  0.72639500  0.65022500  1
  P  P35  1  0.90009700  0.73612000  0.09290400  1
  O  O36  1  0.45094200  0.45022800  0.36501800  1
  O  O37  1  0.16358300  0.35380400  0.40718400  1
  O  O38  1  0.56935700  0.69206900  0.36735400  1
  O  O39  1  0.87234400  0.73588000  0.97345200  1
  O  O40  1  0.95057000  0.44919400  0.11178200  1
  O  O41  1  0.92689800  0.07371100  0.09634900  1
  O  O42  1  0.26763900  0.02396100  0.22390400  1
  O  O43  1  0.80222200  0.83140600  0.35972200  1
  O  O44  1  0.89410700  0.84259700  0.60505000  1
  O  O45  1  0.72261100  0.47735700  0.47618200  1
  O  O46  1  0.62012400  0.69708200  0.84684400  1
  O  O47  1  0.27228200  0.66964300  0.35285400  1
  O  O48  1  0.93110100  0.30602400  0.87536200  1
  O  O49  1  0.10589300  0.15740300  0.39495000  1
  O  O50  1  0.88437200  0.30789200  0.37203300  1
  O  O51  1  0.80514900  0.51688300  0.76501100  1
  O  O52  1  0.51110000  0.41792900  0.88145400  1
  O  O53  1  0.38606500  0.72908500  0.52511100  1
  O  O54  1  0.85642600  0.85628700  0.13220300  1
  O  O55  1  0.43064300  0.30793100  0.63264600  1
  O  O56  1  0.20144700  0.98606700  0.53835900  1
  O  O57  1  0.72373200  0.47737500  0.26373000  1
  O  O58  1  0.64231100  0.14487000  0.63033400  1
  O  O59  1  0.06889900  0.69397600  0.12463800  1
  O  O60  1  0.48890000  0.58207100  0.11854600  1
  O  O61  1  0.60361300  0.15942300  0.10447900  1
  O  O62  1  0.37881300  0.73265100  0.73090700  1
  O  O63  1  0.35252800  0.64172900  0.90861600  1
  O  O64  1  0.12765600  0.26412000  0.02654800  1
  O  O65  1  0.37987600  0.30291800  0.15315600  1
  O  O66  1  0.04943000  0.55080600  0.88821800  1
  O  O67  1  0.14357400  0.14371300  0.86779700  1
  O  O68  1  0.72771800  0.33035700  0.64714600  1
  O  O69  1  0.07310200  0.92628900  0.90365100  1
  O  O70  1  0.42832200  0.07263700  0.40262700  1
  O  O71  1  0.53987000  0.93772700  0.15348200  1
  O  O72  1  0.70083700  0.98762300  0.96197000  1
  O  O73  1  0.27738900  0.52264300  0.52381800  1
  O  O74  1  0.62118700  0.26734900  0.26909300  1
  O  O75  1  0.90451900  0.72831900  0.76836500  1
  O  O76  1  0.74849000  0.53430800  0.97266900  1
  O  O77  1  0.57167800  0.92736300  0.59737300  1
  O  O78  1  0.96007400  0.06263900  0.65321100  1
  O  O79  1  0.09548100  0.27168100  0.23163500  1
  O  O80  1  0.54905800  0.54977200  0.63498200  1
  O  O81  1  0.46013000  0.06227300  0.84651800  1
  O  O82  1  0.29916300  0.01237700  0.03803000  1
  O  O83  1  0.19777800  0.16859400  0.64027800  1
  O  O84  1  0.79855300  0.01393300  0.46164100  1
  O  O85  1  0.73236100  0.97603900  0.77609600  1
  O  O86  1  0.77393500  0.66981300  0.14749500  1
  O  O87  1  0.99331600  0.57915100  0.39711500  1
  O  O88  1  0.00668400  0.42084900  0.60288500  1
  O  O89  1  0.39638700  0.84057700  0.89552100  1
  O  O90  1  0.61393500  0.27091500  0.47488900  1
  O  O91  1  0.83641700  0.64619600  0.59281600  1
  O  O92  1  0.25151000  0.46569200  0.02733100  1
  O  O93  1  0.19485100  0.48311700  0.23498900  1
  O  O94  1  0.11562800  0.69210800  0.62796700  1
  O  O95  1  0.03992600  0.93736100  0.34678900  1
  O  O96  1  0.22606500  0.33018700  0.85250500  1
  O  O97  1  0.76778700  0.02392100  0.27604600  1
  O  O98  1  0.35768900  0.85513000  0.36966600  1
  O  O99  1  0.27626800  0.52262500  0.73627000  1
  O  O100  1  0.30304800  0.83100500  0.14235600  1
  O  O101  1  0.64747200  0.35827100  0.09138400  1
  O  O102  1  0.23221300  0.97607900  0.72395400  1
  O  O103  1  0.69695200  0.16899500  0.85764400  1
