# generated using pymatgen
data_Cs3Y2Br9
_symmetry_space_group_name_H-M   'P 1'
_cell_length_a   10.49882238
_cell_length_b   10.49882238
_cell_length_c   10.49882273
_cell_angle_alpha   83.63047400
_cell_angle_beta   83.63047400
_cell_angle_gamma   83.63047183
_symmetry_Int_Tables_number   1
_chemical_formula_structural   Cs3Y2Br9
_chemical_formula_sum   'Cs6 Y4 Br18'
_cell_volume   1137.27915628
_cell_formula_units_Z   2
loop_
 _symmetry_equiv_pos_site_id
 _symmetry_equiv_pos_as_xyz
  1  'x, y, z'
loop_
 _atom_site_type_symbol
 _atom_site_label
 _atom_site_symmetry_multiplicity
 _atom_site_fract_x
 _atom_site_fract_y
 _atom_site_fract_z
 _atom_site_occupancy
  Cs  Cs0  1  0.08967900  0.75000000  0.41032100  1
  Cs  Cs1  1  0.75000000  0.41032100  0.08967900  1
  Cs  Cs2  1  0.25000000  0.58967900  0.91032100  1
  Cs  Cs3  1  0.41032100  0.08967900  0.75000000  1
  Cs  Cs4  1  0.91032100  0.25000000  0.58967900  1
  Cs  Cs5  1  0.58967900  0.91032100  0.25000000  1
  Y  Y6  1  0.34813100  0.34813100  0.34813100  1
  Y  Y7  1  0.65186900  0.65186900  0.65186900  1
  Y  Y8  1  0.84813100  0.84813100  0.84813100  1
  Y  Y9  1  0.15186900  0.15186900  0.15186900  1
  Br  Br10  1  0.26465500  0.92000600  0.08150700  1
  Br  Br11  1  0.73534500  0.07999400  0.91849300  1
  Br  Br12  1  0.90383700  0.59616300  0.75000000  1
  Br  Br13  1  0.07999400  0.91849300  0.73534500  1
  Br  Br14  1  0.59616300  0.75000000  0.90383700  1
  Br  Br15  1  0.41849300  0.57999400  0.23534500  1
  Br  Br16  1  0.25000000  0.09616300  0.40383700  1
  Br  Br17  1  0.92000600  0.08150700  0.26465500  1
  Br  Br18  1  0.58150700  0.42000600  0.76465500  1
  Br  Br19  1  0.08150700  0.26465500  0.92000600  1
  Br  Br20  1  0.91849300  0.73534500  0.07999400  1
  Br  Br21  1  0.42000600  0.76465500  0.58150700  1
  Br  Br22  1  0.23534500  0.41849300  0.57999400  1
  Br  Br23  1  0.75000000  0.90383700  0.59616300  1
  Br  Br24  1  0.09616300  0.40383700  0.25000000  1
  Br  Br25  1  0.76465500  0.58150700  0.42000600  1
  Br  Br26  1  0.40383700  0.25000000  0.09616300  1
  Br  Br27  1  0.57999400  0.23534500  0.41849300  1
