# generated using pymatgen
data_K2(TcS2)3
_symmetry_space_group_name_H-M   'P 1'
_cell_length_a   9.68896369
_cell_length_b   9.68896369
_cell_length_c   12.02862840
_cell_angle_alpha   88.71927173
_cell_angle_beta   88.71927173
_cell_angle_gamma   61.11128704
_symmetry_Int_Tables_number   1
_chemical_formula_structural   K2(TcS2)3
_chemical_formula_sum   'K8 Tc12 S24'
_cell_volume   988.34870895
_cell_formula_units_Z   4
loop_
 _symmetry_equiv_pos_site_id
 _symmetry_equiv_pos_as_xyz
  1  'x, y, z'
loop_
 _atom_site_type_symbol
 _atom_site_label
 _atom_site_symmetry_multiplicity
 _atom_site_fract_x
 _atom_site_fract_y
 _atom_site_fract_z
 _atom_site_occupancy
  K  K0  1  0.59854700  0.40145300  0.75000000  1
  K  K1  1  0.40145300  0.59854700  0.25000000  1
  K  K2  1  0.20942600  0.79057400  0.75000000  1
  K  K3  1  0.79057400  0.20942600  0.25000000  1
  K  K4  1  0.12066700  0.64292400  0.02094000  1
  K  K5  1  0.35707600  0.87933300  0.47906000  1
  K  K6  1  0.87933300  0.35707600  0.97906000  1
  K  K7  1  0.64292400  0.12066700  0.52094000  1
  Tc  Tc8  1  0.00329100  0.31001000  0.52560600  1
  Tc  Tc9  1  0.68999000  0.99670900  0.97439400  1
  Tc  Tc10  1  0.99670900  0.68999000  0.47439400  1
  Tc  Tc11  1  0.31001000  0.00329100  0.02560600  1
  Tc  Tc12  1  0.11447300  0.46988400  0.62978200  1
  Tc  Tc13  1  0.53011600  0.88552700  0.87021800  1
  Tc  Tc14  1  0.88552700  0.53011600  0.37021800  1
  Tc  Tc15  1  0.46988400  0.11447300  0.12978200  1
  Tc  Tc16  1  0.81258900  0.60279500  0.58264400  1
  Tc  Tc17  1  0.39720500  0.18741100  0.91735600  1
  Tc  Tc18  1  0.18741100  0.39720500  0.41735600  1
  Tc  Tc19  1  0.60279500  0.81258900  0.08264400  1
  S  S20  1  0.07236500  0.25782800  0.33317300  1
  S  S21  1  0.74217200  0.92763500  0.16682700  1
  S  S22  1  0.92763500  0.74217200  0.66682700  1
  S  S23  1  0.25782800  0.07236500  0.83317300  1
  S  S24  1  0.79333400  0.72148500  0.93109000  1
  S  S25  1  0.27851500  0.20666600  0.56891000  1
  S  S26  1  0.20666600  0.27851500  0.06891000  1
  S  S27  1  0.72148500  0.79333400  0.43109000  1
  S  S28  1  0.06140900  0.61027700  0.28430700  1
  S  S29  1  0.38972300  0.93859100  0.21569300  1
  S  S30  1  0.93859100  0.38972300  0.71569300  1
  S  S31  1  0.61027700  0.06140900  0.78430700  1
  S  S32  1  0.27497000  0.55424700  0.52014300  1
  S  S33  1  0.44575300  0.72503000  0.97985700  1
  S  S34  1  0.72503000  0.44575300  0.47985700  1
  S  S35  1  0.55424700  0.27497000  0.02014300  1
  S  S36  1  0.05968700  0.99968900  0.07297900  1
  S  S37  1  0.00031100  0.94031300  0.42702100  1
  S  S38  1  0.94031300  0.00031100  0.92702100  1
  S  S39  1  0.99968900  0.05968700  0.57297900  1
  S  S40  1  0.26372800  0.43832300  0.80473200  1
  S  S41  1  0.56167700  0.73627200  0.69526800  1
  S  S42  1  0.73627200  0.56167700  0.19526800  1
  S  S43  1  0.43832300  0.26372800  0.30473200  1
