# generated using pymatgen
data_KCu2AsS3
_symmetry_space_group_name_H-M   'P 1'
_cell_length_a   6.33851900
_cell_length_b   8.97342019
_cell_length_c   10.35405763
_cell_angle_alpha   90.70786056
_cell_angle_beta   91.33342679
_cell_angle_gamma   90.65266887
_symmetry_Int_Tables_number   1
_chemical_formula_structural   KCu2AsS3
_chemical_formula_sum   'K4 Cu8 As4 S12'
_cell_volume   588.67551708
_cell_formula_units_Z   4
loop_
 _symmetry_equiv_pos_site_id
 _symmetry_equiv_pos_as_xyz
  1  'x, y, z'
loop_
 _atom_site_type_symbol
 _atom_site_label
 _atom_site_symmetry_multiplicity
 _atom_site_fract_x
 _atom_site_fract_y
 _atom_site_fract_z
 _atom_site_occupancy
  K  K0  1  0.20563300  0.93308500  0.86853300  1
  K  K1  1  0.70211900  0.93015300  0.62915900  1
  K  K2  1  0.29788100  0.06984700  0.37084100  1
  K  K3  1  0.79436700  0.06691500  0.13146700  1
  Cu  Cu4  1  0.57213600  0.34712700  0.54473400  1
  Cu  Cu5  1  0.98507000  0.74834800  0.35570400  1
  Cu  Cu6  1  0.42786400  0.65287300  0.45526600  1
  Cu  Cu7  1  0.06716900  0.35687800  0.96116600  1
  Cu  Cu8  1  0.50085500  0.59735400  0.83490700  1
  Cu  Cu9  1  0.49914500  0.40264600  0.16509300  1
  Cu  Cu10  1  0.01493000  0.25165200  0.64429600  1
  Cu  Cu11  1  0.93283100  0.64312200  0.03883400  1
  As  As12  1  0.46785100  0.68491600  0.15311100  1
  As  As13  1  0.98204200  0.45183600  0.35524300  1
  As  As14  1  0.53214900  0.31508400  0.84688900  1
  As  As15  1  0.01795800  0.54816400  0.64475700  1
  S  S16  1  0.85431600  0.19462500  0.83475000  1
  S  S17  1  0.36486800  0.19591000  0.67105000  1
  S  S18  1  0.13892800  0.58211000  0.85645700  1
  S  S19  1  0.86107200  0.41789000  0.14354300  1
  S  S20  1  0.84951900  0.22918300  0.44412100  1
  S  S21  1  0.63513200  0.80409000  0.32895000  1
  S  S22  1  0.15048100  0.77081700  0.55587900  1
  S  S23  1  0.36346900  0.22474100  0.02617200  1
  S  S24  1  0.14568400  0.80537500  0.16525000  1
  S  S25  1  0.34627500  0.41976800  0.36058800  1
  S  S26  1  0.65372500  0.58023200  0.63941200  1
  S  S27  1  0.63653100  0.77525900  0.97382800  1
