# generated using pymatgen
data_Sr3(SnP2)2
_symmetry_space_group_name_H-M   'P 1'
_cell_length_a   14.19851511
_cell_length_b   14.19851511
_cell_length_c   18.90317900
_cell_angle_alpha   90.00000000
_cell_angle_beta   90.00000000
_cell_angle_gamma   126.77038523
_symmetry_Int_Tables_number   1
_chemical_formula_structural   Sr3(SnP2)2
_chemical_formula_sum   'Sr36 Sn24 P48'
_cell_volume   3052.63855840
_cell_formula_units_Z   12
loop_
 _symmetry_equiv_pos_site_id
 _symmetry_equiv_pos_as_xyz
  1  'x, y, z'
loop_
 _atom_site_type_symbol
 _atom_site_label
 _atom_site_symmetry_multiplicity
 _atom_site_fract_x
 _atom_site_fract_y
 _atom_site_fract_z
 _atom_site_occupancy
  Sr  Sr0  1  0.29296800  0.12664100  0.63191400  1
  Sr  Sr1  1  0.93556500  0.93556500  0.72867300  1
  Sr  Sr2  1  0.28178100  0.61919500  0.75939000  1
  Sr  Sr3  1  0.78178100  0.11919500  0.74061000  1
  Sr  Sr4  1  0.45428100  0.96597100  0.87264100  1
  Sr  Sr5  1  0.71821900  0.38080500  0.24061000  1
  Sr  Sr6  1  0.62664100  0.79296800  0.86808600  1
  Sr  Sr7  1  0.70703200  0.87335900  0.36808600  1
  Sr  Sr8  1  0.38080500  0.71821900  0.24061000  1
  Sr  Sr9  1  0.06443500  0.06443500  0.27132700  1
  Sr  Sr10  1  0.43556500  0.43556500  0.77132700  1
  Sr  Sr11  1  0.88080500  0.21821900  0.25939000  1
  Sr  Sr12  1  0.54571900  0.03402900  0.12735900  1
  Sr  Sr13  1  0.12664100  0.29296800  0.63191400  1
  Sr  Sr14  1  0.20703200  0.37335900  0.13191400  1
  Sr  Sr15  1  0.00000000  0.00000000  0.00000000  1
  Sr  Sr16  1  0.95428100  0.46597100  0.62735900  1
  Sr  Sr17  1  0.17532500  0.82467500  0.50000000  1
  Sr  Sr18  1  0.03402900  0.54571900  0.12735900  1
  Sr  Sr19  1  0.11919500  0.78178100  0.74061000  1
  Sr  Sr20  1  0.61919500  0.28178100  0.75939000  1
  Sr  Sr21  1  0.79296800  0.62664100  0.86808600  1
  Sr  Sr22  1  0.53402900  0.04571900  0.37264100  1
  Sr  Sr23  1  0.82467500  0.17532500  0.50000000  1
  Sr  Sr24  1  0.04571900  0.53402900  0.37264100  1
  Sr  Sr25  1  0.37335900  0.20703200  0.13191400  1
  Sr  Sr26  1  0.96597100  0.45428100  0.87264100  1
  Sr  Sr27  1  0.56443500  0.56443500  0.22867300  1
  Sr  Sr28  1  0.50000000  0.50000000  0.00000000  1
  Sr  Sr29  1  0.50000000  0.50000000  0.50000000  1
  Sr  Sr30  1  0.87335900  0.70703200  0.36808600  1
  Sr  Sr31  1  0.67532500  0.32467500  0.00000000  1
  Sr  Sr32  1  0.46597100  0.95428100  0.62735900  1
  Sr  Sr33  1  0.32467500  0.67532500  0.00000000  1
  Sr  Sr34  1  0.21821900  0.88080500  0.25939000  1
  Sr  Sr35  1  0.00000000  0.00000000  0.50000000  1
  Sn  Sn36  1  0.93627000  0.76564400  0.17833200  1
  Sn  Sn37  1  0.23435600  0.06373000  0.82166800  1
  Sn  Sn38  1  0.79167600  0.62750300  0.06459000  1
  Sn  Sn39  1  0.22756800  0.90370200  0.06098900  1
  Sn  Sn40  1  0.20832400  0.37249700  0.93541000  1
  Sn  Sn41  1  0.12750300  0.29167600  0.43541000  1
  Sn  Sn42  1  0.59629800  0.27243200  0.56098900  1
  Sn  Sn43  1  0.43627000  0.26564400  0.32166800  1
  Sn  Sn44  1  0.26564400  0.43627000  0.32166800  1
  Sn  Sn45  1  0.56373000  0.73435600  0.67833200  1
  Sn  Sn46  1  0.06373000  0.23435600  0.82166800  1
  Sn  Sn47  1  0.70832400  0.87249700  0.56459000  1
  Sn  Sn48  1  0.37249700  0.20832400  0.93541000  1
  Sn  Sn49  1  0.62750300  0.79167600  0.06459000  1
  Sn  Sn50  1  0.09629800  0.77243200  0.93901100  1
  Sn  Sn51  1  0.29167600  0.12750300  0.43541000  1
  Sn  Sn52  1  0.90370200  0.22756800  0.06098900  1
  Sn  Sn53  1  0.73435600  0.56373000  0.67833200  1
  Sn  Sn54  1  0.87249700  0.70832400  0.56459000  1
  Sn  Sn55  1  0.77243200  0.09629800  0.93901100  1
  Sn  Sn56  1  0.40370200  0.72756800  0.43901100  1
  Sn  Sn57  1  0.76564400  0.93627000  0.17833200  1
  Sn  Sn58  1  0.27243200  0.59629800  0.56098900  1
  Sn  Sn59  1  0.72756800  0.40370200  0.43901100  1
  P  P60  1  0.70549100  0.21381000  0.62676200  1
  P  P61  1  0.46528700  0.61932400  0.36454000  1
  P  P62  1  0.71381000  0.20549100  0.87323800  1
  P  P63  1  0.79450900  0.28619000  0.12676200  1
  P  P64  1  0.53471300  0.38067600  0.63546000  1
  P  P65  1  0.05813000  0.88432300  0.61562700  1
  P  P66  1  0.78619000  0.29450900  0.37323800  1
  P  P67  1  0.11567700  0.94187000  0.38437300  1
  P  P68  1  0.61567700  0.44187000  0.11562700  1
  P  P69  1  0.91951200  0.58885000  0.48967900  1
  P  P70  1  0.74990500  0.74990500  0.98714800  1
  P  P71  1  0.20549100  0.71381000  0.87323800  1
  P  P72  1  0.81592500  0.81592500  0.25055000  1
  P  P73  1  0.08048800  0.41115000  0.51032100  1
  P  P74  1  0.13629000  0.46496000  0.24847600  1
  P  P75  1  0.91115000  0.58048800  0.98967900  1
  P  P76  1  0.03504000  0.36371000  0.74847600  1
  P  P77  1  0.94187000  0.11567700  0.38437300  1
  P  P78  1  0.36371000  0.03504000  0.74847600  1
  P  P79  1  0.21381000  0.70549100  0.62676200  1
  P  P80  1  0.03471300  0.88067600  0.86454000  1
  P  P81  1  0.18407500  0.18407500  0.74945000  1
  P  P82  1  0.24990500  0.24990500  0.51285200  1
  P  P83  1  0.63629000  0.96496000  0.25152400  1
  P  P84  1  0.58048800  0.91115000  0.98967900  1
  P  P85  1  0.38067600  0.53471300  0.63546000  1
  P  P86  1  0.28619000  0.79450900  0.12676200  1
  P  P87  1  0.68407500  0.68407500  0.75055000  1
  P  P88  1  0.31592500  0.31592500  0.24945000  1
  P  P89  1  0.96496000  0.63629000  0.25152400  1
  P  P90  1  0.25009500  0.25009500  0.01285200  1
  P  P91  1  0.86371000  0.53504000  0.75152400  1
  P  P92  1  0.53504000  0.86371000  0.75152400  1
  P  P93  1  0.75009500  0.75009500  0.48714800  1
  P  P94  1  0.44187000  0.61567700  0.11562700  1
  P  P95  1  0.88432300  0.05813000  0.61562700  1
  P  P96  1  0.46496000  0.13629000  0.24847600  1
  P  P97  1  0.11932400  0.96528700  0.13546000  1
  P  P98  1  0.58885000  0.91951200  0.48967900  1
  P  P99  1  0.61932400  0.46528700  0.36454000  1
  P  P100  1  0.96528700  0.11932400  0.13546000  1
  P  P101  1  0.38432300  0.55813000  0.88437300  1
  P  P102  1  0.29450900  0.78619000  0.37323800  1
  P  P103  1  0.88067600  0.03471300  0.86454000  1
  P  P104  1  0.41951200  0.08885000  0.01032100  1
  P  P105  1  0.55813000  0.38432300  0.88437300  1
  P  P106  1  0.41115000  0.08048800  0.51032100  1
  P  P107  1  0.08885000  0.41951200  0.01032100  1
