# generated using pymatgen
data_KUVO6
_symmetry_space_group_name_H-M   'P 1'
_cell_length_a   8.48435100
_cell_length_b   6.93248800
_cell_length_c   10.59547063
_cell_angle_alpha   74.96173528
_cell_angle_beta   90.00000000
_cell_angle_gamma   90.00000000
_symmetry_Int_Tables_number   1
_chemical_formula_structural   KUVO6
_chemical_formula_sum   'K4 U4 V4 O24'
_cell_volume   601.85789710
_cell_formula_units_Z   4
loop_
 _symmetry_equiv_pos_site_id
 _symmetry_equiv_pos_as_xyz
  1  'x, y, z'
loop_
 _atom_site_type_symbol
 _atom_site_label
 _atom_site_symmetry_multiplicity
 _atom_site_fract_x
 _atom_site_fract_y
 _atom_site_fract_z
 _atom_site_occupancy
  K  K0  1  0.23218700  0.53867000  0.63734200  1
  K  K1  1  0.26781300  0.53867000  0.13734200  1
  K  K2  1  0.73218700  0.46133000  0.86265800  1
  K  K3  1  0.76781300  0.46133000  0.36265800  1
  U  U4  1  0.02059200  0.98928300  0.81960400  1
  U  U5  1  0.52059200  0.01071700  0.68039600  1
  U  U6  1  0.97940800  0.01071700  0.18039600  1
  U  U7  1  0.47940800  0.98928300  0.31960400  1
  V  V8  1  0.64814800  0.88916200  0.05523000  1
  V  V9  1  0.14814800  0.11083800  0.44477000  1
  V  V10  1  0.85185200  0.88916200  0.55523000  1
  V  V11  1  0.35185200  0.11083800  0.94477000  1
  O  O12  1  0.65515200  0.96976800  0.49293700  1
  O  O13  1  0.93944600  0.27944600  0.12498300  1
  O  O14  1  0.55969100  0.03650800  0.89266200  1
  O  O15  1  0.51898400  0.25888300  0.26428100  1
  O  O16  1  0.15515200  0.03023200  0.00706300  1
  O  O17  1  0.43944600  0.72055400  0.37501700  1
  O  O18  1  0.01898400  0.74111700  0.23571900  1
  O  O19  1  0.06055400  0.72055400  0.87501700  1
  O  O20  1  0.98101600  0.25888300  0.76428100  1
  O  O21  1  0.13494000  0.35140000  0.43189400  1
  O  O22  1  0.86506000  0.64860000  0.56810600  1
  O  O23  1  0.48101600  0.74111700  0.73571900  1
  O  O24  1  0.05969100  0.96349200  0.60733800  1
  O  O25  1  0.21021900  0.07635000  0.28426300  1
  O  O26  1  0.71021900  0.92365000  0.21573700  1
  O  O27  1  0.94030900  0.03650800  0.39266200  1
  O  O28  1  0.56055400  0.27944600  0.62498300  1
  O  O29  1  0.78978100  0.92365000  0.71573700  1
  O  O30  1  0.84484800  0.96976800  0.99293700  1
  O  O31  1  0.34484800  0.03023200  0.50706300  1
  O  O32  1  0.63494000  0.64860000  0.06810600  1
  O  O33  1  0.36506000  0.35140000  0.93189400  1
  O  O34  1  0.28978100  0.07635000  0.78426300  1
  O  O35  1  0.44030900  0.96349200  0.10733800  1
