# generated using pymatgen
data_Cs2K4Fe2O5
_symmetry_space_group_name_H-M   'P 1'
_cell_length_a   6.79650407
_cell_length_b   7.04300681
_cell_length_c   6.79650394
_cell_angle_alpha   90.11197311
_cell_angle_beta   117.02280807
_cell_angle_gamma   90.11195423
_symmetry_Int_Tables_number   1
_chemical_formula_structural   Cs2K4Fe2O5
_chemical_formula_sum   'Cs2 K4 Fe2 O5'
_cell_volume   289.81374331
_cell_formula_units_Z   1
loop_
 _symmetry_equiv_pos_site_id
 _symmetry_equiv_pos_as_xyz
  1  'x, y, z'
loop_
 _atom_site_type_symbol
 _atom_site_label
 _atom_site_symmetry_multiplicity
 _atom_site_fract_x
 _atom_site_fract_y
 _atom_site_fract_z
 _atom_site_occupancy
  Cs  Cs0  1  0.67043400  0.80114100  0.67043400  1
  Cs  Cs1  1  0.32956700  0.19885500  0.32956700  1
  K  K2  1  0.23850400  0.49999900  0.76149500  1
  K  K3  1  0.76149600  0.49999800  0.23850400  1
  K  K4  1  0.77745700  0.99999800  0.22254300  1
  K  K5  1  0.22254300  0.99999800  0.77745700  1
  Fe  Fe6  1  0.19753000  0.69084700  0.19753200  1
  Fe  Fe7  1  0.80246800  0.30917200  0.80246800  1
  O  O8  1  0.00000200  0.50000100  0.00000200  1
  O  O9  1  0.14624100  0.77181700  0.43665200  1
  O  O10  1  0.56334600  0.22817800  0.85376000  1
  O  O11  1  0.85376000  0.22817800  0.56334600  1
  O  O12  1  0.43665200  0.77181800  0.14624100  1
