# generated using pymatgen
data_LaSClO4
_symmetry_space_group_name_H-M   'P 1'
_cell_length_a   8.22704100
_cell_length_b   6.82492900
_cell_length_c   8.73515244
_cell_angle_alpha   66.15988172
_cell_angle_beta   90.00000000
_cell_angle_gamma   90.00000000
_symmetry_Int_Tables_number   1
_chemical_formula_structural   LaSClO4
_chemical_formula_sum   'La4 S4 Cl4 O16'
_cell_volume   448.62140440
_cell_formula_units_Z   4
loop_
 _symmetry_equiv_pos_site_id
 _symmetry_equiv_pos_as_xyz
  1  'x, y, z'
loop_
 _atom_site_type_symbol
 _atom_site_label
 _atom_site_symmetry_multiplicity
 _atom_site_fract_x
 _atom_site_fract_y
 _atom_site_fract_z
 _atom_site_occupancy
  La  La0  1  0.69248700  0.62110700  0.26869700  1
  La  La1  1  0.80751300  0.62110700  0.76869700  1
  La  La2  1  0.19248700  0.37889300  0.23130300  1
  La  La3  1  0.30751300  0.37889300  0.73130300  1
  S  S4  1  0.91820600  0.22425500  0.56604900  1
  S  S5  1  0.58179400  0.22425500  0.06604900  1
  S  S6  1  0.41820600  0.77574500  0.93395100  1
  S  S7  1  0.08179400  0.77574500  0.43395100  1
  Cl  Cl8  1  0.03602600  0.27385900  0.96890300  1
  Cl  Cl9  1  0.46397400  0.27385900  0.46890300  1
  Cl  Cl10  1  0.96397400  0.72614100  0.03109700  1
  Cl  Cl11  1  0.53602600  0.72614100  0.53109700  1
  O  O12  1  0.34905600  0.99226100  0.87050600  1
  O  O13  1  0.08798600  0.67615500  0.62422700  1
  O  O14  1  0.90868100  0.78165600  0.38508300  1
  O  O15  1  0.15094400  0.99226100  0.37050600  1
  O  O16  1  0.18137700  0.63332300  0.37994400  1
  O  O17  1  0.81862300  0.36667700  0.62005600  1
  O  O18  1  0.59131900  0.78165600  0.88508300  1
  O  O19  1  0.65094400  0.00773900  0.12949400  1
  O  O20  1  0.58798600  0.32384500  0.87577300  1
  O  O21  1  0.68137700  0.36667700  0.12005600  1
  O  O22  1  0.41201400  0.67615500  0.12422700  1
  O  O23  1  0.84905600  0.00773900  0.62949400  1
  O  O24  1  0.09131900  0.21834400  0.61491700  1
  O  O25  1  0.31862300  0.63332300  0.87994400  1
  O  O26  1  0.91201400  0.32384500  0.37577300  1
  O  O27  1  0.40868100  0.21834400  0.11491700  1
