# generated using pymatgen
data_As2Pb2O5
_symmetry_space_group_name_H-M   'P 1'
_cell_length_a   5.86084300
_cell_length_b   8.76315300
_cell_length_c   14.01394527
_cell_angle_alpha   70.58801842
_cell_angle_beta   90.00000000
_cell_angle_gamma   90.00000000
_symmetry_Int_Tables_number   1
_chemical_formula_structural   As2Pb2O5
_chemical_formula_sum   'As8 Pb8 O20'
_cell_volume   678.83328836
_cell_formula_units_Z   4
loop_
 _symmetry_equiv_pos_site_id
 _symmetry_equiv_pos_as_xyz
  1  'x, y, z'
loop_
 _atom_site_type_symbol
 _atom_site_label
 _atom_site_symmetry_multiplicity
 _atom_site_fract_x
 _atom_site_fract_y
 _atom_site_fract_z
 _atom_site_occupancy
  As  As0  1  0.87350600  0.38395800  0.93695600  1
  As  As1  1  0.37350600  0.61604200  0.56304400  1
  As  As2  1  0.12649400  0.61604200  0.06304400  1
  As  As3  1  0.62649400  0.38395800  0.43695600  1
  As  As4  1  0.12204200  0.11417000  0.13079800  1
  As  As5  1  0.62204200  0.88583000  0.36920200  1
  As  As6  1  0.87795800  0.88583000  0.86920200  1
  As  As7  1  0.37795800  0.11417000  0.63079800  1
  Pb  Pb8  1  0.34159700  0.14438500  0.87765700  1
  Pb  Pb9  1  0.84159700  0.85561500  0.62234300  1
  Pb  Pb10  1  0.65840300  0.85561500  0.12234300  1
  Pb  Pb11  1  0.15840300  0.14438500  0.37765700  1
  Pb  Pb12  1  0.66274800  0.34808700  0.20391700  1
  Pb  Pb13  1  0.16274800  0.65191300  0.29608300  1
  Pb  Pb14  1  0.33725200  0.65191300  0.79608300  1
  Pb  Pb15  1  0.83725200  0.34808700  0.70391700  1
  O  O16  1  0.66741700  0.34641800  0.85373500  1
  O  O17  1  0.16741700  0.65358200  0.64626500  1
  O  O18  1  0.33258300  0.65358200  0.14626500  1
  O  O19  1  0.83258300  0.34641800  0.35373500  1
  O  O20  1  0.12322400  0.37794700  0.86306400  1
  O  O21  1  0.62322400  0.62205300  0.63693600  1
  O  O22  1  0.87677600  0.62205300  0.13693600  1
  O  O23  1  0.37677600  0.37794700  0.36306400  1
  O  O24  1  0.88674300  0.17722400  0.03423600  1
  O  O25  1  0.38674300  0.82277600  0.46576400  1
  O  O26  1  0.11325700  0.82277600  0.96576400  1
  O  O27  1  0.61325700  0.17722400  0.53423600  1
  O  O28  1  0.04454300  0.23824400  0.20635100  1
  O  O29  1  0.54454300  0.76175600  0.29364900  1
  O  O30  1  0.95545700  0.76175600  0.79364900  1
  O  O31  1  0.45545700  0.23824400  0.70635100  1
  O  O32  1  0.99384000  0.92765200  0.20129800  1
  O  O33  1  0.49384000  0.07234800  0.29870200  1
  O  O34  1  0.00616000  0.07234800  0.79870200  1
  O  O35  1  0.50616000  0.92765200  0.70129800  1
