# generated using pymatgen
data_Ce(SeO3)2
_symmetry_space_group_name_H-M   'P 1'
_cell_length_a   10.85608200
_cell_length_b   7.15528000
_cell_length_c   8.75042515
_cell_angle_alpha   54.51465064
_cell_angle_beta   90.00000000
_cell_angle_gamma   90.00000000
_symmetry_Int_Tables_number   1
_chemical_formula_structural   Ce(SeO3)2
_chemical_formula_sum   'Ce4 Se8 O24'
_cell_volume   553.47005101
_cell_formula_units_Z   4
loop_
 _symmetry_equiv_pos_site_id
 _symmetry_equiv_pos_as_xyz
  1  'x, y, z'
loop_
 _atom_site_type_symbol
 _atom_site_label
 _atom_site_symmetry_multiplicity
 _atom_site_fract_x
 _atom_site_fract_y
 _atom_site_fract_z
 _atom_site_occupancy
  Ce  Ce0  1  0.09674000  0.24838000  0.01210600  1
  Ce  Ce1  1  0.59674000  0.75162000  0.48789400  1
  Ce  Ce2  1  0.90326000  0.75162000  0.98789400  1
  Ce  Ce3  1  0.40326000  0.24838000  0.51210600  1
  Se  Se4  1  0.28523600  0.81368500  0.42709700  1
  Se  Se5  1  0.78523600  0.18631500  0.07290300  1
  Se  Se6  1  0.71476400  0.18631500  0.57290300  1
  Se  Se7  1  0.21476400  0.81368500  0.92709700  1
  Se  Se8  1  0.92820800  0.71618200  0.56939600  1
  Se  Se9  1  0.42820800  0.28381800  0.93060400  1
  Se  Se10  1  0.07179200  0.28381800  0.43060400  1
  Se  Se11  1  0.57179200  0.71618200  0.06939600  1
  O  O12  1  0.24182700  0.94659500  0.19807300  1
  O  O13  1  0.74182700  0.05340500  0.30192700  1
  O  O14  1  0.75817300  0.05340500  0.80192700  1
  O  O15  1  0.25817300  0.94659500  0.69807300  1
  O  O16  1  0.40087300  0.99880100  0.40729600  1
  O  O17  1  0.90087300  0.00119900  0.09270400  1
  O  O18  1  0.59912700  0.00119900  0.59270400  1
  O  O19  1  0.09912700  0.99880100  0.90729600  1
  O  O20  1  0.39485400  0.61413200  0.45831300  1
  O  O21  1  0.89485400  0.38586800  0.04168700  1
  O  O22  1  0.60514600  0.38586800  0.54168700  1
  O  O23  1  0.10514600  0.61413200  0.95831300  1
  O  O24  1  0.02037300  0.47786700  0.71355700  1
  O  O25  1  0.52037300  0.52213300  0.78644300  1
  O  O26  1  0.97962700  0.52213300  0.28644300  1
  O  O27  1  0.47962700  0.47786700  0.21355700  1
  O  O28  1  0.91179600  0.84418700  0.68703800  1
  O  O29  1  0.41179600  0.15581300  0.81296200  1
  O  O30  1  0.08820400  0.15581300  0.31296200  1
  O  O31  1  0.58820400  0.84418700  0.18703800  1
  O  O32  1  0.78437400  0.58934800  0.61240000  1
  O  O33  1  0.28437400  0.41065200  0.88760000  1
  O  O34  1  0.21562600  0.41065200  0.38760000  1
  O  O35  1  0.71562600  0.58934800  0.11240000  1
