# generated using pymatgen
data_Pr4Se3(O5F3)2
_symmetry_space_group_name_H-M   'P 1'
_cell_length_a   11.87695907
_cell_length_b   11.87695907
_cell_length_c   8.44072339
_cell_angle_alpha   81.32627781
_cell_angle_beta   81.32627781
_cell_angle_gamma   35.28785153
_symmetry_Int_Tables_number   1
_chemical_formula_structural   Pr4Se3(O5F3)2
_chemical_formula_sum   'Pr8 Se6 O20 F12'
_cell_volume   679.16225102
_cell_formula_units_Z   2
loop_
 _symmetry_equiv_pos_site_id
 _symmetry_equiv_pos_as_xyz
  1  'x, y, z'
loop_
 _atom_site_type_symbol
 _atom_site_label
 _atom_site_symmetry_multiplicity
 _atom_site_fract_x
 _atom_site_fract_y
 _atom_site_fract_z
 _atom_site_occupancy
  Pr  Pr0  1  0.85555100  0.71906100  0.66960100  1
  Pr  Pr1  1  0.54377200  0.71448300  0.46935600  1
  Pr  Pr2  1  0.45622800  0.28551700  0.53064400  1
  Pr  Pr3  1  0.71906100  0.85555100  0.16960100  1
  Pr  Pr4  1  0.28551700  0.45622800  0.03064400  1
  Pr  Pr5  1  0.14444900  0.28093900  0.33039900  1
  Pr  Pr6  1  0.28093900  0.14444900  0.83039900  1
  Pr  Pr7  1  0.71448300  0.54377200  0.96935600  1
  Se  Se8  1  0.98411700  0.83010700  0.36638700  1
  Se  Se9  1  0.38961900  0.61038100  0.75000000  1
  Se  Se10  1  0.16989300  0.01588300  0.13361300  1
  Se  Se11  1  0.83010700  0.98411700  0.86638700  1
  Se  Se12  1  0.01588300  0.16989300  0.63361300  1
  Se  Se13  1  0.61038100  0.38961900  0.25000000  1
  O  O14  1  0.58208400  0.54044600  0.75637300  1
  O  O15  1  0.74905400  0.29028900  0.08019800  1
  O  O16  1  0.03948500  0.24990300  0.09966900  1
  O  O17  1  0.41791600  0.45955400  0.24362700  1
  O  O18  1  0.10745100  0.63722600  0.50845000  1
  O  O19  1  0.89254900  0.36277400  0.49155000  1
  O  O20  1  0.63722600  0.10745100  0.00845000  1
  O  O21  1  0.75009700  0.96051500  0.40033100  1
  O  O22  1  0.25094600  0.70971100  0.91980200  1
  O  O23  1  0.74320000  0.02410400  0.69085000  1
  O  O24  1  0.25680000  0.97589600  0.30915000  1
  O  O25  1  0.36277400  0.89254900  0.99155000  1
  O  O26  1  0.02410400  0.74320000  0.19085000  1
  O  O27  1  0.54044600  0.58208400  0.25637300  1
  O  O28  1  0.70971100  0.25094600  0.41980200  1
  O  O29  1  0.45955400  0.41791600  0.74362700  1
  O  O30  1  0.29028900  0.74905400  0.58019800  1
  O  O31  1  0.96051500  0.75009700  0.90033100  1
  O  O32  1  0.97589600  0.25680000  0.80915000  1
  O  O33  1  0.24990300  0.03948500  0.59966900  1
  F  F34  1  0.51876200  0.03496000  0.63275700  1
  F  F35  1  0.64588800  0.71180000  0.70202100  1
  F  F36  1  0.35411200  0.28820000  0.29797900  1
  F  F37  1  0.64383800  0.84825600  0.91971400  1
  F  F38  1  0.84825600  0.64383800  0.41971400  1
  F  F39  1  0.96504000  0.48123800  0.86724300  1
  F  F40  1  0.71180000  0.64588800  0.20202100  1
  F  F41  1  0.35616200  0.15174400  0.08028600  1
  F  F42  1  0.48123800  0.96504000  0.36724300  1
  F  F43  1  0.03496000  0.51876200  0.13275700  1
  F  F44  1  0.28820000  0.35411200  0.79797900  1
  F  F45  1  0.15174400  0.35616200  0.58028600  1
