# generated using pymatgen
data_RbZnB(PO4)2
_symmetry_space_group_name_H-M   'P 1'
_cell_length_a   7.54680909
_cell_length_b   7.75712855
_cell_length_c   7.95980774
_cell_angle_alpha   118.62841426
_cell_angle_beta   101.66163337
_cell_angle_gamma   103.70876962
_symmetry_Int_Tables_number   1
_chemical_formula_structural   RbZnB(PO4)2
_chemical_formula_sum   'Rb2 Zn2 B2 P4 O16'
_cell_volume   369.12951866
_cell_formula_units_Z   2
loop_
 _symmetry_equiv_pos_site_id
 _symmetry_equiv_pos_as_xyz
  1  'x, y, z'
loop_
 _atom_site_type_symbol
 _atom_site_label
 _atom_site_symmetry_multiplicity
 _atom_site_fract_x
 _atom_site_fract_y
 _atom_site_fract_z
 _atom_site_occupancy
  Rb  Rb0  1  0.27500300  0.66161700  0.41692000  1
  Rb  Rb1  1  0.72499700  0.33838300  0.58308000  1
  Zn  Zn2  1  0.19842900  0.29431300  0.74108300  1
  Zn  Zn3  1  0.80157100  0.70568700  0.25891700  1
  B  B4  1  0.29773300  0.07358200  0.06931400  1
  B  B5  1  0.70226700  0.92641800  0.93068600  1
  P  P6  1  0.03475300  0.10991500  0.27539600  1
  P  P7  1  0.44968800  0.77860900  0.08142100  1
  P  P8  1  0.55031200  0.22139100  0.91857900  1
  P  P9  1  0.96524700  0.89008500  0.72460400  1
  O  O10  1  0.19980600  0.18572500  0.20338900  1
  O  O11  1  0.26190700  0.58055400  0.97568300  1
  O  O12  1  0.08440500  0.29625900  0.49571500  1
  O  O13  1  0.98143200  0.10126100  0.74963400  1
  O  O14  1  0.80019400  0.81427500  0.79661100  1
  O  O15  1  0.44713500  0.24546100  0.07777000  1
  O  O16  1  0.59578800  0.01511600  0.83727700  1
  O  O17  1  0.16202500  0.90493500  0.85649500  1
  O  O18  1  0.83797500  0.09506500  0.14350500  1
  O  O19  1  0.40929200  0.18490000  0.72440500  1
  O  O20  1  0.91559500  0.70374100  0.50428500  1
  O  O21  1  0.01856800  0.89873900  0.25036600  1
  O  O22  1  0.55286500  0.75453900  0.92223000  1
  O  O23  1  0.59070800  0.81510000  0.27559500  1
  O  O24  1  0.40421200  0.98488400  0.16272300  1
  O  O25  1  0.73809300  0.41944600  0.02431700  1
