# generated using pymatgen
data_SrCr2O7
_symmetry_space_group_name_H-M   'P 1'
_cell_length_a   11.34101700
_cell_length_b   11.34101700
_cell_length_c   9.82832700
_cell_angle_alpha   90.00000000
_cell_angle_beta   90.00000000
_cell_angle_gamma   90.00000000
_symmetry_Int_Tables_number   1
_chemical_formula_structural   SrCr2O7
_chemical_formula_sum   'Sr8 Cr16 O56'
_cell_volume   1264.10631359
_cell_formula_units_Z   8
loop_
 _symmetry_equiv_pos_site_id
 _symmetry_equiv_pos_as_xyz
  1  'x, y, z'
loop_
 _atom_site_type_symbol
 _atom_site_label
 _atom_site_symmetry_multiplicity
 _atom_site_fract_x
 _atom_site_fract_y
 _atom_site_fract_z
 _atom_site_occupancy
  Sr  Sr0  1  0.80019600  0.80019600  0.00000000  1
  Sr  Sr1  1  0.30019600  0.69980400  0.50000000  1
  Sr  Sr2  1  0.19980400  0.19980400  0.00000000  1
  Sr  Sr3  1  0.80019600  0.19980400  0.00000000  1
  Sr  Sr4  1  0.30019600  0.30019600  0.50000000  1
  Sr  Sr5  1  0.69980400  0.69980400  0.50000000  1
  Sr  Sr6  1  0.69980400  0.30019600  0.50000000  1
  Sr  Sr7  1  0.19980400  0.80019600  0.00000000  1
  Cr  Cr8  1  0.14971100  0.00000000  0.30467000  1
  Cr  Cr9  1  0.00000000  0.14971100  0.69533000  1
  Cr  Cr10  1  0.50000000  0.86037100  0.23428900  1
  Cr  Cr11  1  0.13962900  0.50000000  0.76571100  1
  Cr  Cr12  1  0.86037100  0.50000000  0.76571100  1
  Cr  Cr13  1  0.50000000  0.35028900  0.80467000  1
  Cr  Cr14  1  0.36037100  0.00000000  0.73428900  1
  Cr  Cr15  1  0.85028900  0.00000000  0.30467000  1
  Cr  Cr16  1  0.50000000  0.13962900  0.23428900  1
  Cr  Cr17  1  0.00000000  0.85028900  0.69533000  1
  Cr  Cr18  1  0.63962900  0.00000000  0.73428900  1
  Cr  Cr19  1  0.00000000  0.36037100  0.26571100  1
  Cr  Cr20  1  0.50000000  0.64971100  0.80467000  1
  Cr  Cr21  1  0.00000000  0.63962900  0.26571100  1
  Cr  Cr22  1  0.35028900  0.50000000  0.19533000  1
  Cr  Cr23  1  0.64971100  0.50000000  0.19533000  1
  O  O24  1  0.50000000  0.00000000  0.31632600  1
  O  O25  1  0.50000000  0.34487600  0.63576300  1
  O  O26  1  0.61664900  0.85135900  0.13911300  1
  O  O27  1  0.61786500  0.28587600  0.86289900  1
  O  O28  1  0.25792500  0.00000000  0.85525500  1
  O  O29  1  0.75792500  0.50000000  0.64474500  1
  O  O30  1  0.38213500  0.28587600  0.86289900  1
  O  O31  1  0.88335100  0.64864100  0.36088700  1
  O  O32  1  0.78587600  0.11786500  0.36289900  1
  O  O33  1  0.11664900  0.64864100  0.36088700  1
  O  O34  1  0.00000000  0.50000000  0.18367400  1
  O  O35  1  0.61664900  0.14864100  0.13911300  1
  O  O36  1  0.64864100  0.88335100  0.63911300  1
  O  O37  1  0.71412400  0.61786500  0.13710100  1
  O  O38  1  0.61786500  0.71412400  0.86289900  1
  O  O39  1  0.14864100  0.61664900  0.86088700  1
  O  O40  1  0.11664900  0.35135900  0.36088700  1
  O  O41  1  0.00000000  0.15512400  0.86423700  1
  O  O42  1  0.88213500  0.21412400  0.63710100  1
  O  O43  1  0.21412400  0.11786500  0.36289900  1
  O  O44  1  0.35135900  0.11664900  0.63911300  1
  O  O45  1  0.65512400  0.50000000  0.36423700  1
  O  O46  1  0.38213500  0.71412400  0.86289900  1
  O  O47  1  0.50000000  0.50000000  0.85528400  1
  O  O48  1  0.11786500  0.78587600  0.63710100  1
  O  O49  1  0.84487600  0.00000000  0.13576300  1
  O  O50  1  0.50000000  0.50000000  0.14471600  1
  O  O51  1  0.00000000  0.74207500  0.14474500  1
  O  O52  1  0.34487600  0.50000000  0.36423700  1
  O  O53  1  0.78587600  0.88213500  0.36289900  1
  O  O54  1  0.85135900  0.38335100  0.86088700  1
  O  O55  1  0.64864100  0.11664900  0.63911300  1
  O  O56  1  0.88213500  0.78587600  0.63710100  1
  O  O57  1  0.85135900  0.61664900  0.86088700  1
  O  O58  1  0.38335100  0.85135900  0.13911300  1
  O  O59  1  0.00000000  0.50000000  0.68367400  1
  O  O60  1  0.50000000  0.24207500  0.35525500  1
  O  O61  1  0.00000000  0.25792500  0.14474500  1
  O  O62  1  0.00000000  0.00000000  0.64471600  1
  O  O63  1  0.88335100  0.35135900  0.36088700  1
  O  O64  1  0.35135900  0.88335100  0.63911300  1
  O  O65  1  0.14864100  0.38335100  0.86088700  1
  O  O66  1  0.71412400  0.38213500  0.13710100  1
  O  O67  1  0.11786500  0.21412400  0.63710100  1
  O  O68  1  0.50000000  0.65512400  0.63576300  1
  O  O69  1  0.00000000  0.00000000  0.35528400  1
  O  O70  1  0.00000000  0.84487600  0.86423700  1
  O  O71  1  0.74207500  0.00000000  0.85525500  1
  O  O72  1  0.21412400  0.88213500  0.36289900  1
  O  O73  1  0.50000000  0.00000000  0.81632600  1
  O  O74  1  0.38335100  0.14864100  0.13911300  1
  O  O75  1  0.28587600  0.38213500  0.13710100  1
  O  O76  1  0.15512400  0.00000000  0.13576300  1
  O  O77  1  0.24207500  0.50000000  0.64474500  1
  O  O78  1  0.28587600  0.61786500  0.13710100  1
  O  O79  1  0.50000000  0.75792500  0.35525500  1
