# generated using pymatgen
data_Cs2MnS2
_symmetry_space_group_name_H-M   'P 1'
_cell_length_a   8.54310101
_cell_length_b   8.54310101
_cell_length_c   8.54310101
_cell_angle_alpha   135.06782529
_cell_angle_beta   128.22971285
_cell_angle_gamma   70.92781102
_symmetry_Int_Tables_number   1
_chemical_formula_structural   Cs2MnS2
_chemical_formula_sum   'Cs4 Mn2 S4'
_cell_volume   338.88991821
_cell_formula_units_Z   2
loop_
 _symmetry_equiv_pos_site_id
 _symmetry_equiv_pos_as_xyz
  1  'x, y, z'
loop_
 _atom_site_type_symbol
 _atom_site_label
 _atom_site_symmetry_multiplicity
 _atom_site_fract_x
 _atom_site_fract_y
 _atom_site_fract_z
 _atom_site_occupancy
  Cs  Cs0  1  0.80932200  0.14870600  0.66061600  1
  Cs  Cs1  1  0.19067800  0.85129300  0.33938400  1
  Cs  Cs2  1  0.48809100  0.64870600  0.83938400  1
  Cs  Cs3  1  0.51190900  0.35129300  0.16061600  1
  Mn  Mn4  1  0.00000000  0.75000000  0.75000000  1
  Mn  Mn5  1  0.00000000  0.25000000  0.25000000  1
  S  S6  1  0.08015400  0.40657800  0.67357600  1
  S  S7  1  0.91984600  0.59342200  0.32642400  1
  S  S8  1  0.73300200  0.90657800  0.82642400  1
  S  S9  1  0.26699800  0.09342200  0.17357600  1
