# generated using pymatgen
data_Mn23C6
_symmetry_space_group_name_H-M   'P 1'
_cell_length_a   7.36754637
_cell_length_b   7.36754637
_cell_length_c   7.36754637
_cell_angle_alpha   60.00000000
_cell_angle_beta   60.00000000
_cell_angle_gamma   60.00000000
_symmetry_Int_Tables_number   1
_chemical_formula_structural   Mn23C6
_chemical_formula_sum   'Mn23 C6'
_cell_volume   282.78322048
_cell_formula_units_Z   1
loop_
 _symmetry_equiv_pos_site_id
 _symmetry_equiv_pos_as_xyz
  1  'x, y, z'
loop_
 _atom_site_type_symbol
 _atom_site_label
 _atom_site_symmetry_multiplicity
 _atom_site_fract_x
 _atom_site_fract_y
 _atom_site_fract_z
 _atom_site_occupancy
  Mn  Mn0  1  0.00000000  0.00000000  0.00000000  1
  Mn  Mn1  1  0.25000000  0.25000000  0.25000000  1
  Mn  Mn2  1  0.75000000  0.75000000  0.75000000  1
  Mn  Mn3  1  0.38212000  0.38212000  0.38212000  1
  Mn  Mn4  1  0.14635900  0.61788000  0.61788000  1
  Mn  Mn5  1  0.61788000  0.14635900  0.61788000  1
  Mn  Mn6  1  0.61788000  0.61788000  0.14635900  1
  Mn  Mn7  1  0.38212000  0.85364100  0.38212000  1
  Mn  Mn8  1  0.38212000  0.38212000  0.85364100  1
  Mn  Mn9  1  0.85364100  0.38212000  0.38212000  1
  Mn  Mn10  1  0.61788000  0.61788000  0.61788000  1
  Mn  Mn11  1  0.00000000  0.33406200  0.00000000  1
  Mn  Mn12  1  0.33406200  0.00000000  0.00000000  1
  Mn  Mn13  1  0.00000000  0.33406200  0.66593800  1
  Mn  Mn14  1  0.66593800  0.00000000  0.33406200  1
  Mn  Mn15  1  0.33406200  0.00000000  0.66593800  1
  Mn  Mn16  1  0.00000000  0.00000000  0.33406200  1
  Mn  Mn17  1  0.66593800  0.33406200  0.00000000  1
  Mn  Mn18  1  0.00000000  0.66593800  0.33406200  1
  Mn  Mn19  1  0.00000000  0.00000000  0.66593800  1
  Mn  Mn20  1  0.33406200  0.66593800  0.00000000  1
  Mn  Mn21  1  0.66593800  0.00000000  0.00000000  1
  Mn  Mn22  1  0.00000000  0.66593800  0.00000000  1
  C  C23  1  0.27546100  0.72453900  0.27546100  1
  C  C24  1  0.27546100  0.72453900  0.72453900  1
  C  C25  1  0.72453900  0.27546100  0.27546100  1
  C  C26  1  0.72453900  0.72453900  0.27546100  1
  C  C27  1  0.27546100  0.27546100  0.72453900  1
  C  C28  1  0.72453900  0.27546100  0.72453900  1
