# generated using pymatgen
data_Na2Mn(PO3)5
_symmetry_space_group_name_H-M   'P 1'
_cell_length_a   13.74256900
_cell_length_b   5.29794800
_cell_length_c   8.91649682
_cell_angle_alpha   76.88462509
_cell_angle_beta   90.00000000
_cell_angle_gamma   90.00000000
_symmetry_Int_Tables_number   1
_chemical_formula_structural   Na2Mn(PO3)5
_chemical_formula_sum   'Na4 Mn2 P10 O30'
_cell_volume   632.25312024
_cell_formula_units_Z   2
loop_
 _symmetry_equiv_pos_site_id
 _symmetry_equiv_pos_as_xyz
  1  'x, y, z'
loop_
 _atom_site_type_symbol
 _atom_site_label
 _atom_site_symmetry_multiplicity
 _atom_site_fract_x
 _atom_site_fract_y
 _atom_site_fract_z
 _atom_site_occupancy
  Na  Na0  1  0.11009700  0.92544700  0.12774600  1
  Na  Na1  1  0.38990300  0.92544700  0.12774600  1
  Na  Na2  1  0.88990300  0.07455300  0.87225400  1
  Na  Na3  1  0.61009700  0.07455300  0.87225400  1
  Mn  Mn4  1  0.50000000  0.50000000  0.50000000  1
  Mn  Mn5  1  0.00000000  0.50000000  0.50000000  1
  P  P6  1  0.75000000  0.54110100  0.99633900  1
  P  P7  1  0.85970000  0.98300000  0.48685400  1
  P  P8  1  0.57907600  0.34539500  0.19189200  1
  P  P9  1  0.14030000  0.01700000  0.51314600  1
  P  P10  1  0.07907600  0.65460500  0.80810800  1
  P  P11  1  0.25000000  0.45889900  0.00366100  1
  P  P12  1  0.92092400  0.34539500  0.19189200  1
  P  P13  1  0.35970000  0.01700000  0.51314600  1
  P  P14  1  0.64030000  0.98300000  0.48685400  1
  P  P15  1  0.42092400  0.65460500  0.80810800  1
  O  O16  1  0.14467200  0.86325400  0.68864800  1
  O  O17  1  0.65907900  0.55283300  0.11517200  1
  O  O18  1  0.98674000  0.48719800  0.28408500  1
  O  O19  1  0.64467200  0.13674600  0.31135200  1
  O  O20  1  0.34092100  0.44716700  0.88482800  1
  O  O21  1  0.03069500  0.78678600  0.91809100  1
  O  O22  1  0.01326000  0.51280200  0.71591500  1
  O  O23  1  0.07872400  0.87827900  0.41794000  1
  O  O24  1  0.57872400  0.12172100  0.58206000  1
  O  O25  1  0.62124500  0.69868300  0.49253300  1
  O  O26  1  0.12124500  0.30131700  0.50746700  1
  O  O27  1  0.25000000  0.71225800  0.05002300  1
  O  O28  1  0.96930500  0.21321400  0.08190900  1
  O  O29  1  0.35532800  0.86325400  0.68864800  1
  O  O30  1  0.37875500  0.30131700  0.50746700  1
  O  O31  1  0.87875500  0.69868300  0.49253300  1
  O  O32  1  0.25000000  0.20622300  0.11811400  1
  O  O33  1  0.15907900  0.44716700  0.88482800  1
  O  O34  1  0.42127600  0.87827900  0.41794000  1
  O  O35  1  0.46930500  0.78678600  0.91809100  1
  O  O36  1  0.53069500  0.21321400  0.08190900  1
  O  O37  1  0.75000000  0.79377700  0.88188600  1
  O  O38  1  0.48674000  0.51280200  0.71591500  1
  O  O39  1  0.25000000  0.99677300  0.45917300  1
  O  O40  1  0.92127600  0.12172100  0.58206000  1
  O  O41  1  0.85532800  0.13674600  0.31135200  1
  O  O42  1  0.51326000  0.48719800  0.28408500  1
  O  O43  1  0.84092100  0.55283300  0.11517200  1
  O  O44  1  0.75000000  0.28774200  0.94997700  1
  O  O45  1  0.75000000  0.00322700  0.54082700  1
