# generated using pymatgen
data_EuClF
_symmetry_space_group_name_H-M   'P 1'
_cell_length_a   4.13450000
_cell_length_b   4.13450000
_cell_length_c   7.03192100
_cell_angle_alpha   90.00000000
_cell_angle_beta   90.00000000
_cell_angle_gamma   90.00000000
_symmetry_Int_Tables_number   1
_chemical_formula_structural   EuClF
_chemical_formula_sum   'Eu2 Cl2 F2'
_cell_volume   120.20429220
_cell_formula_units_Z   2
loop_
 _symmetry_equiv_pos_site_id
 _symmetry_equiv_pos_as_xyz
  1  'x, y, z'
loop_
 _atom_site_type_symbol
 _atom_site_label
 _atom_site_symmetry_multiplicity
 _atom_site_fract_x
 _atom_site_fract_y
 _atom_site_fract_z
 _atom_site_occupancy
  Eu  Eu0  1  0.00000000  0.50000000  0.79436200  1
  Eu  Eu1  1  0.50000000  0.00000000  0.20563800  1
  Cl  Cl2  1  0.00000000  0.50000000  0.35354700  1
  Cl  Cl3  1  0.50000000  0.00000000  0.64645300  1
  F  F4  1  0.00000000  0.00000000  0.00000000  1
  F  F5  1  0.50000000  0.50000000  0.00000000  1
