# generated using pymatgen
data_Rb5Nb3OF18
_symmetry_space_group_name_H-M   'P 1'
_cell_length_a   11.87740078
_cell_length_b   11.87740078
_cell_length_c   11.87740078
_cell_angle_alpha   96.46941803
_cell_angle_beta   96.46941803
_cell_angle_gamma   140.77369662
_symmetry_Int_Tables_number   1
_chemical_formula_structural   Rb5Nb3OF18
_chemical_formula_sum   'Rb10 Nb6 O2 F36'
_cell_volume   998.13129166
_cell_formula_units_Z   2
loop_
 _symmetry_equiv_pos_site_id
 _symmetry_equiv_pos_as_xyz
  1  'x, y, z'
loop_
 _atom_site_type_symbol
 _atom_site_label
 _atom_site_symmetry_multiplicity
 _atom_site_fract_x
 _atom_site_fract_y
 _atom_site_fract_z
 _atom_site_occupancy
  Rb  Rb0  1  0.23717100  0.73717100  0.50000000  1
  Rb  Rb1  1  0.73717100  0.23717100  0.50000000  1
  Rb  Rb2  1  0.18825800  0.88153600  0.13968200  1
  Rb  Rb3  1  0.04857500  0.18825800  0.30672200  1
  Rb  Rb4  1  0.88153600  0.74185300  0.69327800  1
  Rb  Rb5  1  0.74185300  0.04857500  0.86031800  1
  Rb  Rb6  1  0.38153600  0.68825800  0.13968200  1
  Rb  Rb7  1  0.54857500  0.24185300  0.86031800  1
  Rb  Rb8  1  0.68825800  0.54857500  0.30672200  1
  Rb  Rb9  1  0.24185300  0.38153600  0.69327800  1
  Nb  Nb10  1  0.34402300  0.15636200  0.50000000  1
  Nb  Nb11  1  0.84402300  0.34402300  0.18766200  1
  Nb  Nb12  1  0.15636200  0.65636200  0.81233800  1
  Nb  Nb13  1  0.65636200  0.84402300  0.50000000  1
  Nb  Nb14  1  0.73362500  0.73362500  0.00000000  1
  Nb  Nb15  1  0.23362500  0.23362500  0.00000000  1
  O  O16  1  0.00708500  0.00708500  0.00000000  1
  O  O17  1  0.50708500  0.50708500  0.00000000  1
  F  F18  1  0.60777600  0.37907100  0.50000000  1
  F  F19  1  0.10777600  0.60777600  0.22870500  1
  F  F20  1  0.37907100  0.87907100  0.77129500  1
  F  F21  1  0.87907100  0.10777600  0.50000000  1
  F  F22  1  0.01142700  0.62177100  0.66992500  1
  F  F23  1  0.34150200  0.01142700  0.38965600  1
  F  F24  1  0.62177100  0.95184600  0.61034400  1
  F  F25  1  0.95184600  0.34150200  0.33007500  1
  F  F26  1  0.12177100  0.51142700  0.66992500  1
  F  F27  1  0.84150200  0.45184600  0.33007500  1
  F  F28  1  0.51142700  0.84150200  0.38965600  1
  F  F29  1  0.45184600  0.12177100  0.61034400  1
  F  F30  1  0.39955600  0.60822300  0.50000000  1
  F  F31  1  0.89955600  0.39955600  0.79133300  1
  F  F32  1  0.60822300  0.10822300  0.20866700  1
  F  F33  1  0.10822300  0.89955600  0.50000000  1
  F  F34  1  0.64909100  0.71937600  0.84014600  1
  F  F35  1  0.80894500  0.64909100  0.92971500  1
  F  F36  1  0.71937600  0.87923000  0.07028500  1
  F  F37  1  0.87923000  0.80894500  0.15985400  1
  F  F38  1  0.21937600  0.14909100  0.84014600  1
  F  F39  1  0.30894500  0.37923000  0.15985400  1
  F  F40  1  0.14909100  0.30894500  0.92971500  1
  F  F41  1  0.37923000  0.21937600  0.07028500  1
  F  F42  1  0.80100400  0.45980300  0.12320100  1
  F  F43  1  0.67780300  0.80100400  0.34120100  1
  F  F44  1  0.45980300  0.33660200  0.65879900  1
  F  F45  1  0.33660200  0.67780300  0.87679900  1
  F  F46  1  0.95980300  0.30100400  0.12320100  1
  F  F47  1  0.17780300  0.83660200  0.87679900  1
  F  F48  1  0.30100400  0.17780300  0.34120100  1
  F  F49  1  0.83660200  0.95980300  0.65879900  1
  F  F50  1  0.65969800  0.67884900  0.50000000  1
  F  F51  1  0.15969800  0.65969800  0.98084900  1
  F  F52  1  0.67884900  0.17884900  0.01915100  1
  F  F53  1  0.17884900  0.15969800  0.50000000  1
