# generated using pymatgen
data_Rb2(ReSe2)3
_symmetry_space_group_name_H-M   'P 1'
_cell_length_a   10.35244419
_cell_length_b   10.35244419
_cell_length_c   12.68490297
_cell_angle_alpha   88.98683011
_cell_angle_beta   88.98683011
_cell_angle_gamma   59.76073408
_symmetry_Int_Tables_number   1
_chemical_formula_structural   Rb2(ReSe2)3
_chemical_formula_sum   'Rb8 Re12 Se24'
_cell_volume   1174.25145975
_cell_formula_units_Z   4
loop_
 _symmetry_equiv_pos_site_id
 _symmetry_equiv_pos_as_xyz
  1  'x, y, z'
loop_
 _atom_site_type_symbol
 _atom_site_label
 _atom_site_symmetry_multiplicity
 _atom_site_fract_x
 _atom_site_fract_y
 _atom_site_fract_z
 _atom_site_occupancy
  Rb  Rb0  1  0.61331100  0.38668900  0.25000000  1
  Rb  Rb1  1  0.38668900  0.61331100  0.75000000  1
  Rb  Rb2  1  0.21747900  0.78252100  0.25000000  1
  Rb  Rb3  1  0.78252100  0.21747900  0.75000000  1
  Rb  Rb4  1  0.36018000  0.86546100  0.98075700  1
  Rb  Rb5  1  0.13453900  0.63982000  0.51924300  1
  Rb  Rb6  1  0.63982000  0.13453900  0.01924300  1
  Rb  Rb7  1  0.86546100  0.36018000  0.48075700  1
  Re  Re8  1  0.68146500  0.99694000  0.47729600  1
  Re  Re9  1  0.00306000  0.31853500  0.02270400  1
  Re  Re10  1  0.31853500  0.00306000  0.52270400  1
  Re  Re11  1  0.99694000  0.68146500  0.97729600  1
  Re  Re12  1  0.53487400  0.88597700  0.37638700  1
  Re  Re13  1  0.11402300  0.46512600  0.12361300  1
  Re  Re14  1  0.46512600  0.11402300  0.62361300  1
  Re  Re15  1  0.88597700  0.53487400  0.87638700  1
  Re  Re16  1  0.39950800  0.17789000  0.41810500  1
  Re  Re17  1  0.82211000  0.60049200  0.08189500  1
  Re  Re18  1  0.60049200  0.82211000  0.58189500  1
  Re  Re19  1  0.17789000  0.39950800  0.91810500  1
  Se  Se20  1  0.73857700  0.93186300  0.67104900  1
  Se  Se21  1  0.06813700  0.26142300  0.82895100  1
  Se  Se22  1  0.26142300  0.06813700  0.32895100  1
  Se  Se23  1  0.93186300  0.73857700  0.17104900  1
  Se  Se24  1  0.28109300  0.19959900  0.06427800  1
  Se  Se25  1  0.80040100  0.71890700  0.43572200  1
  Se  Se26  1  0.71890700  0.80040100  0.93572200  1
  Se  Se27  1  0.19959900  0.28109300  0.56427800  1
  Se  Se28  1  0.38682400  0.94605800  0.71633000  1
  Se  Se29  1  0.05394200  0.61317600  0.78367000  1
  Se  Se30  1  0.61317600  0.05394200  0.28367000  1
  Se  Se31  1  0.94605800  0.38682400  0.21633000  1
  Se  Se32  1  0.45675600  0.72125200  0.48102800  1
  Se  Se33  1  0.27874800  0.54324400  0.01897200  1
  Se  Se34  1  0.54324400  0.27874800  0.51897200  1
  Se  Se35  1  0.72125200  0.45675600  0.98102800  1
  Se  Se36  1  0.00439000  0.92567600  0.92270000  1
  Se  Se37  1  0.07432400  0.99561000  0.57730000  1
  Se  Se38  1  0.99561000  0.07432400  0.07730000  1
  Se  Se39  1  0.92567600  0.00439000  0.42270000  1
  Se  Se40  1  0.57216500  0.73248000  0.19989400  1
  Se  Se41  1  0.26752000  0.42783500  0.30010600  1
  Se  Se42  1  0.42783500  0.26752000  0.80010600  1
  Se  Se43  1  0.73248000  0.57216500  0.69989400  1
