# generated using pymatgen
data_Nd(Re2Si)2
_symmetry_space_group_name_H-M   'P 1'
_cell_length_a   4.15741400
_cell_length_b   7.37571100
_cell_length_c   15.48259800
_cell_angle_alpha   90.00000000
_cell_angle_beta   90.00000000
_cell_angle_gamma   90.00000000
_symmetry_Int_Tables_number   1
_chemical_formula_structural   Nd(Re2Si)2
_chemical_formula_sum   'Nd4 Re16 Si8'
_cell_volume   474.75659174
_cell_formula_units_Z   4
loop_
 _symmetry_equiv_pos_site_id
 _symmetry_equiv_pos_as_xyz
  1  'x, y, z'
loop_
 _atom_site_type_symbol
 _atom_site_label
 _atom_site_symmetry_multiplicity
 _atom_site_fract_x
 _atom_site_fract_y
 _atom_site_fract_z
 _atom_site_occupancy
  Nd  Nd0  1  0.00000000  0.57663500  0.11847000  1
  Nd  Nd1  1  0.00000000  0.42336500  0.88153000  1
  Nd  Nd2  1  0.50000000  0.07663500  0.38153000  1
  Nd  Nd3  1  0.50000000  0.92336500  0.61847000  1
  Re  Re4  1  0.00000000  0.13791100  0.05199300  1
  Re  Re5  1  0.00000000  0.86208900  0.94800700  1
  Re  Re6  1  0.50000000  0.63791100  0.44800700  1
  Re  Re7  1  0.50000000  0.36208900  0.55199300  1
  Re  Re8  1  0.00000000  0.73049100  0.32138700  1
  Re  Re9  1  0.00000000  0.26950900  0.67861300  1
  Re  Re10  1  0.50000000  0.23049100  0.17861300  1
  Re  Re11  1  0.50000000  0.76950900  0.82138700  1
  Re  Re12  1  0.00000000  0.43074700  0.41788400  1
  Re  Re13  1  0.00000000  0.56925300  0.58211600  1
  Re  Re14  1  0.50000000  0.93074700  0.08211600  1
  Re  Re15  1  0.50000000  0.06925300  0.91788400  1
  Re  Re16  1  0.00000000  0.98662800  0.20610100  1
  Re  Re17  1  0.00000000  0.01337200  0.79389900  1
  Re  Re18  1  0.50000000  0.48662800  0.29389900  1
  Re  Re19  1  0.50000000  0.51337200  0.70610100  1
  Si  Si20  1  0.00000000  0.82763800  0.47611900  1
  Si  Si21  1  0.00000000  0.17236200  0.52388100  1
  Si  Si22  1  0.50000000  0.32763800  0.02388100  1
  Si  Si23  1  0.50000000  0.67236200  0.97611900  1
  Si  Si24  1  0.00000000  0.28830900  0.27286300  1
  Si  Si25  1  0.00000000  0.71169100  0.72713700  1
  Si  Si26  1  0.50000000  0.78830900  0.22713700  1
  Si  Si27  1  0.50000000  0.21169100  0.77286300  1
