# generated using pymatgen
data_PrScO3
_symmetry_space_group_name_H-M   'P 1'
_cell_length_a   5.64313000
_cell_length_b   5.85553600
_cell_length_c   8.11186500
_cell_angle_alpha   90.00000000
_cell_angle_beta   90.00000000
_cell_angle_gamma   90.00000000
_symmetry_Int_Tables_number   1
_chemical_formula_structural   PrScO3
_chemical_formula_sum   'Pr4 Sc4 O12'
_cell_volume   268.04482376
_cell_formula_units_Z   4
loop_
 _symmetry_equiv_pos_site_id
 _symmetry_equiv_pos_as_xyz
  1  'x, y, z'
loop_
 _atom_site_type_symbol
 _atom_site_label
 _atom_site_symmetry_multiplicity
 _atom_site_fract_x
 _atom_site_fract_y
 _atom_site_fract_z
 _atom_site_occupancy
  Pr  Pr0  1  0.98522900  0.05455000  0.75000000  1
  Pr  Pr1  1  0.51477100  0.55455000  0.75000000  1
  Pr  Pr2  1  0.48522900  0.44545000  0.25000000  1
  Pr  Pr3  1  0.01477100  0.94545000  0.25000000  1
  Sc  Sc4  1  0.00000000  0.50000000  0.50000000  1
  Sc  Sc5  1  0.50000000  0.00000000  0.00000000  1
  Sc  Sc6  1  0.50000000  0.00000000  0.50000000  1
  Sc  Sc7  1  0.00000000  0.50000000  0.00000000  1
  O  O8  1  0.69991400  0.29943800  0.55643300  1
  O  O9  1  0.89342900  0.53945400  0.25000000  1
  O  O10  1  0.80008600  0.79943800  0.94356700  1
  O  O11  1  0.10657100  0.46054600  0.75000000  1
  O  O12  1  0.30008600  0.70056200  0.05643300  1
  O  O13  1  0.19991400  0.20056200  0.44356700  1
  O  O14  1  0.80008600  0.79943800  0.55643300  1
  O  O15  1  0.39342900  0.96054600  0.75000000  1
  O  O16  1  0.30008600  0.70056200  0.44356700  1
  O  O17  1  0.19991400  0.20056200  0.05643300  1
  O  O18  1  0.69991400  0.29943800  0.94356700  1
  O  O19  1  0.60657100  0.03945400  0.25000000  1
