# generated using pymatgen
data_Pr4Ge3
_symmetry_space_group_name_H-M   'P 1'
_cell_length_a   8.01556048
_cell_length_b   8.01556048
_cell_length_c   8.01556048
_cell_angle_alpha   109.47122063
_cell_angle_beta   109.47122063
_cell_angle_gamma   109.47122063
_symmetry_Int_Tables_number   1
_chemical_formula_structural   Pr4Ge3
_chemical_formula_sum   'Pr8 Ge6'
_cell_volume   396.44212474
_cell_formula_units_Z   2
loop_
 _symmetry_equiv_pos_site_id
 _symmetry_equiv_pos_as_xyz
  1  'x, y, z'
loop_
 _atom_site_type_symbol
 _atom_site_label
 _atom_site_symmetry_multiplicity
 _atom_site_fract_x
 _atom_site_fract_y
 _atom_site_fract_z
 _atom_site_occupancy
  Pr  Pr0  1  0.13346400  0.50000000  0.00000000  1
  Pr  Pr1  1  0.63346400  0.50000000  0.00000000  1
  Pr  Pr2  1  0.50000000  0.00000000  0.63346400  1
  Pr  Pr3  1  0.36653600  0.36653600  0.36653600  1
  Pr  Pr4  1  0.50000000  0.00000000  0.13346400  1
  Pr  Pr5  1  0.00000000  0.63346400  0.50000000  1
  Pr  Pr6  1  0.86653600  0.86653600  0.86653600  1
  Pr  Pr7  1  0.00000000  0.13346400  0.50000000  1
  Ge  Ge8  1  0.37500000  0.62500000  0.75000000  1
  Ge  Ge9  1  0.87500000  0.25000000  0.12500000  1
  Ge  Ge10  1  0.62500000  0.75000000  0.37500000  1
  Ge  Ge11  1  0.12500000  0.87500000  0.25000000  1
  Ge  Ge12  1  0.25000000  0.12500000  0.87500000  1
  Ge  Ge13  1  0.75000000  0.37500000  0.62500000  1
