# generated using pymatgen
data_CuS
_symmetry_space_group_name_H-M   'P 1'
_cell_length_a   3.80299815
_cell_length_b   3.80299815
_cell_length_c   16.42138800
_cell_angle_alpha   90.00000000
_cell_angle_beta   90.00000000
_cell_angle_gamma   120.24476202
_symmetry_Int_Tables_number   1
_chemical_formula_structural   CuS
_chemical_formula_sum   'Cu6 S6'
_cell_volume   205.17114988
_cell_formula_units_Z   6
loop_
 _symmetry_equiv_pos_site_id
 _symmetry_equiv_pos_as_xyz
  1  'x, y, z'
loop_
 _atom_site_type_symbol
 _atom_site_label
 _atom_site_symmetry_multiplicity
 _atom_site_fract_x
 _atom_site_fract_y
 _atom_site_fract_z
 _atom_site_occupancy
  Cu  Cu0  1  0.66354100  0.33645900  0.60719900  1
  Cu  Cu1  1  0.33645900  0.66354100  0.10719900  1
  Cu  Cu2  1  0.66354100  0.33645900  0.89280100  1
  Cu  Cu3  1  0.63797600  0.36202400  0.25000000  1
  Cu  Cu4  1  0.33645900  0.66354100  0.39280100  1
  Cu  Cu5  1  0.36202400  0.63797600  0.75000000  1
  S  S6  1  0.99765000  0.00235000  0.56416700  1
  S  S7  1  0.69385700  0.30614300  0.75000000  1
  S  S8  1  0.00235000  0.99765000  0.06416700  1
  S  S9  1  0.30614300  0.69385700  0.25000000  1
  S  S10  1  0.99765000  0.00235000  0.93583300  1
  S  S11  1  0.00235000  0.99765000  0.43583300  1
