# generated using pymatgen
data_Sr2RhF7
_symmetry_space_group_name_H-M   'P 1'
_cell_length_a   11.82805500
_cell_length_b   5.61923000
_cell_length_c   8.80584960
_cell_angle_alpha   89.09782832
_cell_angle_beta   90.00000000
_cell_angle_gamma   90.00000000
_symmetry_Int_Tables_number   1
_chemical_formula_structural   Sr2RhF7
_chemical_formula_sum   'Sr8 Rh4 F28'
_cell_volume   585.20437956
_cell_formula_units_Z   4
loop_
 _symmetry_equiv_pos_site_id
 _symmetry_equiv_pos_as_xyz
  1  'x, y, z'
loop_
 _atom_site_type_symbol
 _atom_site_label
 _atom_site_symmetry_multiplicity
 _atom_site_fract_x
 _atom_site_fract_y
 _atom_site_fract_z
 _atom_site_occupancy
  Sr  Sr0  1  0.55831100  0.22324400  0.84727200  1
  Sr  Sr1  1  0.05831100  0.77675600  0.65272800  1
  Sr  Sr2  1  0.44168900  0.77675600  0.15272800  1
  Sr  Sr3  1  0.94168900  0.22324400  0.34727200  1
  Sr  Sr4  1  0.70727700  0.76799200  0.55199600  1
  Sr  Sr5  1  0.20727700  0.23200800  0.94800400  1
  Sr  Sr6  1  0.29272300  0.23200800  0.44800400  1
  Sr  Sr7  1  0.79272300  0.76799200  0.05199600  1
  Rh  Rh8  1  0.86762000  0.31084700  0.81853600  1
  Rh  Rh9  1  0.36762000  0.68915300  0.68146400  1
  Rh  Rh10  1  0.13238000  0.68915300  0.18146400  1
  Rh  Rh11  1  0.63238000  0.31084700  0.31853600  1
  F  F12  1  0.39413400  0.10702600  0.99059700  1
  F  F13  1  0.89413400  0.89297400  0.50940300  1
  F  F14  1  0.60586600  0.89297400  0.00940300  1
  F  F15  1  0.10586600  0.10702600  0.49059700  1
  F  F16  1  0.48386300  0.13293900  0.32273200  1
  F  F17  1  0.98386300  0.86706100  0.17726800  1
  F  F18  1  0.51613700  0.86706100  0.67726800  1
  F  F19  1  0.01613700  0.13293900  0.82273200  1
  F  F20  1  0.44530900  0.38542800  0.62916600  1
  F  F21  1  0.94530900  0.61457200  0.87083400  1
  F  F22  1  0.55469100  0.61457200  0.37083400  1
  F  F23  1  0.05469100  0.38542800  0.12916600  1
  F  F24  1  0.39860700  0.58397100  0.89768500  1
  F  F25  1  0.89860700  0.41602900  0.60231500  1
  F  F26  1  0.60139300  0.41602900  0.10231500  1
  F  F27  1  0.10139300  0.58397100  0.39768500  1
  F  F28  1  0.16356100  0.76520300  0.96206600  1
  F  F29  1  0.66356100  0.23479700  0.53793400  1
  F  F30  1  0.83643900  0.23479700  0.03793400  1
  F  F31  1  0.33643900  0.76520300  0.46206600  1
  F  F32  1  0.72345300  0.50977000  0.81087300  1
  F  F33  1  0.22345300  0.49023000  0.68912700  1
  F  F34  1  0.27654700  0.49023000  0.18912700  1
  F  F35  1  0.77654700  0.50977000  0.31087300  1
  F  F36  1  0.72629000  0.01124300  0.28495300  1
  F  F37  1  0.22629000  0.98875700  0.21504700  1
  F  F38  1  0.27371000  0.98875700  0.71504700  1
  F  F39  1  0.77371000  0.01124300  0.78495300  1
