# generated using pymatgen
data_CsLi(PO3)2
_symmetry_space_group_name_H-M   'P 1'
_cell_length_a   13.81085467
_cell_length_b   11.94195017
_cell_length_c   11.76171694
_cell_angle_alpha   71.26915413
_cell_angle_beta   54.97314039
_cell_angle_gamma   53.75770548
_symmetry_Int_Tables_number   1
_chemical_formula_structural   CsLi(PO3)2
_chemical_formula_sum   'Cs8 Li8 P16 O48'
_cell_volume   1280.68040680
_cell_formula_units_Z   8
loop_
 _symmetry_equiv_pos_site_id
 _symmetry_equiv_pos_as_xyz
  1  'x, y, z'
loop_
 _atom_site_type_symbol
 _atom_site_label
 _atom_site_symmetry_multiplicity
 _atom_site_fract_x
 _atom_site_fract_y
 _atom_site_fract_z
 _atom_site_occupancy
  Cs  Cs0  1  0.37344700  0.09104700  0.87527800  1
  Cs  Cs1  1  0.37472200  0.58977200  0.87655300  1
  Cs  Cs2  1  0.87668700  0.37979700  0.11909800  1
  Cs  Cs3  1  0.66022800  0.87527800  0.09104700  1
  Cs  Cs4  1  0.62441800  0.11909800  0.37979700  1
  Cs  Cs5  1  0.15895300  0.87655300  0.58977200  1
  Cs  Cs6  1  0.87020300  0.37331300  0.62558200  1
  Cs  Cs7  1  0.13090200  0.62558200  0.37331300  1
  Li  Li8  1  0.91783000  0.60917900  0.78705000  1
  Li  Li9  1  0.68594100  0.78705000  0.60917900  1
  Li  Li10  1  0.64082100  0.33217000  0.56405900  1
  Li  Li11  1  0.95515700  0.85803000  0.08418000  1
  Li  Li12  1  0.16582000  0.14736700  0.29484300  1
  Li  Li13  1  0.46295000  0.56405900  0.33217000  1
  Li  Li14  1  0.39197000  0.29484300  0.14736700  1
  Li  Li15  1  0.10263300  0.08418000  0.85803000  1
  P  P16  1  0.41635800  0.90014000  0.60282100  1
  P  P17  1  0.17033000  0.32374400  0.66861800  1
  P  P18  1  0.31131700  0.13589700  0.42721600  1
  P  P19  1  0.11410300  0.93868300  0.12443000  1
  P  P20  1  0.33107800  0.44149300  0.62726500  1
  P  P21  1  0.62273500  0.64983600  0.91892200  1
  P  P22  1  0.34986000  0.83364200  0.16932000  1
  P  P23  1  0.83730900  0.66861800  0.32374400  1
  P  P24  1  0.58138200  0.41269100  0.07967000  1
  P  P25  1  0.64717900  0.16932000  0.83364200  1
  P  P26  1  0.82278400  0.12443000  0.93868300  1
  P  P27  1  0.60016400  0.62726500  0.44149300  1
  P  P28  1  0.92625600  0.07967000  0.41269100  1
  P  P29  1  0.80850700  0.91892200  0.64983600  1
  P  P30  1  0.08068000  0.60282100  0.90014000  1
  P  P31  1  0.12557000  0.42721600  0.13589700  1
  O  O32  1  0.27384400  0.86799600  0.08521800  1
  O  O33  1  0.02808400  0.96053600  0.29184500  1
  O  O34  1  0.97438800  0.58391000  0.91879700  1
  O  O35  1  0.48271300  0.73977500  0.57065300  1
  O  O36  1  0.95815500  0.53046500  0.22191600  1
  O  O37  1  0.17626300  0.17563600  0.44928800  1
  O  O38  1  0.15160200  0.28448800  0.14445200  1
  O  O39  1  0.70533200  0.68377600  0.33722800  1
  O  O40  1  0.91277200  0.97633600  0.54466800  1
  O  O41  1  0.66898400  0.48991700  0.49945500  1
  O  O42  1  0.67934700  0.04314100  0.76728700  1
  O  O43  1  0.78930600  0.17929900  0.41815800  1
  O  O44  1  0.45698500  0.40660800  0.13337700  1
  O  O45  1  0.51022500  0.76728700  0.04314100  1
  O  O46  1  0.75054500  0.90835600  0.58101600  1
  O  O47  1  0.28946400  0.22191600  0.53046500  1
  O  O48  1  0.04116000  0.73920200  0.93479500  1
  O  O49  1  0.34164400  0.49945500  0.48991700  1
  O  O50  1  0.45604500  0.36551700  0.64292000  1
  O  O51  1  0.00303000  0.13337700  0.40660800  1
  O  O52  1  0.83184200  0.63676300  0.46069400  1
  O  O53  1  0.84339200  0.79301500  0.24697000  1
  O  O54  1  0.20685900  0.57065300  0.73977500  1
  O  O55  1  0.71953500  0.29184500  0.96053600  1
  O  O56  1  0.51079800  0.20884000  0.96515700  1
  O  O57  1  0.41945800  0.14445200  0.28448800  1
  O  O58  1  0.16478200  0.47705800  0.97615600  1
  O  O59  1  0.76008300  0.58101600  0.90835600  1
  O  O60  1  0.28484300  0.93479500  0.73920200  1
  O  O61  1  0.52290600  0.91879700  0.58391000  1
  O  O62  1  0.80071200  0.05118700  0.07373700  1
  O  O63  1  0.27366400  0.33722800  0.68377600  1
  O  O64  1  0.61323700  0.41815800  0.17929900  1
  O  O65  1  0.66609000  0.27561200  0.72709400  1
  O  O66  1  0.07436400  0.07373700  0.05118700  1
  O  O67  1  0.33120300  0.72709400  0.27561200  1
  O  O68  1  0.77294200  0.08521800  0.86799600  1
  O  O69  1  0.53551800  0.64292000  0.36551700  1
  O  O70  1  0.38200400  0.97615600  0.47705800  1
  O  O71  1  0.88448300  0.79395500  0.71448200  1
  O  O72  1  0.96551200  0.09839800  0.83054200  1
  O  O73  1  0.19881300  0.44928800  0.17563600  1
  O  O74  1  0.10554800  0.83054200  0.09839800  1
  O  O75  1  0.11662300  0.24697000  0.79301500  1
  O  O76  1  0.31520500  0.96515700  0.20884000  1
  O  O77  1  0.60708000  0.71448200  0.79395500  1
  O  O78  1  0.07070100  0.46069400  0.63676300  1
  O  O79  1  0.56622400  0.54466800  0.97633600  1
