# generated using pymatgen
data_Mg3Ir
_symmetry_space_group_name_H-M   'P 1'
_cell_length_a   7.92563590
_cell_length_b   7.92563590
_cell_length_c   8.25584700
_cell_angle_alpha   90.00000000
_cell_angle_beta   90.00000000
_cell_angle_gamma   119.99999915
_symmetry_Int_Tables_number   1
_chemical_formula_structural   Mg3Ir
_chemical_formula_sum   'Mg18 Ir6'
_cell_volume   449.11804566
_cell_formula_units_Z   6
loop_
 _symmetry_equiv_pos_site_id
 _symmetry_equiv_pos_as_xyz
  1  'x, y, z'
loop_
 _atom_site_type_symbol
 _atom_site_label
 _atom_site_symmetry_multiplicity
 _atom_site_fract_x
 _atom_site_fract_y
 _atom_site_fract_z
 _atom_site_occupancy
  Mg  Mg0  1  0.37117100  0.00000000  0.91206000  1
  Mg  Mg1  1  0.33333300  0.66666700  0.69640400  1
  Mg  Mg2  1  0.00000000  0.00000000  0.80530000  1
  Mg  Mg3  1  0.00000000  0.37117100  0.91206000  1
  Mg  Mg4  1  0.66666700  0.33333300  0.19640400  1
  Mg  Mg5  1  0.71392900  0.00000000  0.07134400  1
  Mg  Mg6  1  0.62882900  0.62882900  0.91206000  1
  Mg  Mg7  1  0.33333300  0.66666700  0.19640400  1
  Mg  Mg8  1  0.37117100  0.37117100  0.41206000  1
  Mg  Mg9  1  0.28607100  0.00000000  0.57134400  1
  Mg  Mg10  1  0.62882900  0.00000000  0.41206000  1
  Mg  Mg11  1  0.28607100  0.28607100  0.07134400  1
  Mg  Mg12  1  0.00000000  0.71392900  0.07134400  1
  Mg  Mg13  1  0.00000000  0.28607100  0.57134400  1
  Mg  Mg14  1  0.71392900  0.71392900  0.57134400  1
  Mg  Mg15  1  0.00000000  0.62882900  0.41206000  1
  Mg  Mg16  1  0.00000000  0.00000000  0.30530000  1
  Mg  Mg17  1  0.66666700  0.33333300  0.69640400  1
  Ir  Ir18  1  0.32837000  0.32837000  0.74152700  1
  Ir  Ir19  1  0.67163000  0.67163000  0.24152700  1
  Ir  Ir20  1  0.32837000  0.00000000  0.24152700  1
  Ir  Ir21  1  0.67163000  0.00000000  0.74152700  1
  Ir  Ir22  1  0.00000000  0.67163000  0.74152700  1
  Ir  Ir23  1  0.00000000  0.32837000  0.24152700  1
