# generated using pymatgen
data_WF6
_symmetry_space_group_name_H-M   'P 1'
_cell_length_a   5.25629400
_cell_length_b   9.04138800
_cell_length_c   9.94958000
_cell_angle_alpha   90.00000000
_cell_angle_beta   90.00000000
_cell_angle_gamma   90.00000000
_symmetry_Int_Tables_number   1
_chemical_formula_structural   WF6
_chemical_formula_sum   'W4 F24'
_cell_volume   472.84576512
_cell_formula_units_Z   4
loop_
 _symmetry_equiv_pos_site_id
 _symmetry_equiv_pos_as_xyz
  1  'x, y, z'
loop_
 _atom_site_type_symbol
 _atom_site_label
 _atom_site_symmetry_multiplicity
 _atom_site_fract_x
 _atom_site_fract_y
 _atom_site_fract_z
 _atom_site_occupancy
  W  W0  1  0.58542700  0.75000000  0.37198300  1
  W  W1  1  0.08542700  0.25000000  0.12801700  1
  W  W2  1  0.41457300  0.25000000  0.62801700  1
  W  W3  1  0.91457300  0.75000000  0.87198300  1
  F  F4  1  0.56375000  0.39705100  0.73574100  1
  F  F5  1  0.06375000  0.60294900  0.76425900  1
  F  F6  1  0.43625000  0.89705100  0.26425900  1
  F  F7  1  0.93625000  0.10294900  0.23574100  1
  F  F8  1  0.20267800  0.75000000  0.98394100  1
  F  F9  1  0.70267800  0.25000000  0.51605900  1
  F  F10  1  0.79732200  0.25000000  0.01605900  1
  F  F11  1  0.29732200  0.75000000  0.48394100  1
  F  F12  1  0.62562900  0.75000000  0.76014700  1
  F  F13  1  0.12562900  0.25000000  0.73985300  1
  F  F14  1  0.37437100  0.25000000  0.23985300  1
  F  F15  1  0.87437100  0.75000000  0.26014700  1
  F  F16  1  0.76425000  0.89682500  0.97982300  1
  F  F17  1  0.26425000  0.10317500  0.52017700  1
  F  F18  1  0.23575000  0.39682500  0.02017700  1
  F  F19  1  0.73575000  0.60317500  0.47982300  1
  F  F20  1  0.23575000  0.10317500  0.02017700  1
  F  F21  1  0.73575000  0.89682500  0.47982300  1
  F  F22  1  0.76425000  0.60317500  0.97982300  1
  F  F23  1  0.26425000  0.39682500  0.52017700  1
  F  F24  1  0.06375000  0.89705100  0.76425900  1
  F  F25  1  0.56375000  0.10294900  0.73574100  1
  F  F26  1  0.93625000  0.39705100  0.23574100  1
  F  F27  1  0.43625000  0.60294900  0.26425900  1
