# generated using pymatgen
data_Ti3Al2NiC
_symmetry_space_group_name_H-M   'P 1'
_cell_length_a   8.10155574
_cell_length_b   8.10155574
_cell_length_c   8.10155574
_cell_angle_alpha   60.00000000
_cell_angle_beta   60.00000000
_cell_angle_gamma   60.00000000
_symmetry_Int_Tables_number   1
_chemical_formula_structural   Ti3Al2NiC
_chemical_formula_sum   'Ti12 Al8 Ni4 C4'
_cell_volume   376.00210374
_cell_formula_units_Z   4
loop_
 _symmetry_equiv_pos_site_id
 _symmetry_equiv_pos_as_xyz
  1  'x, y, z'
loop_
 _atom_site_type_symbol
 _atom_site_label
 _atom_site_symmetry_multiplicity
 _atom_site_fract_x
 _atom_site_fract_y
 _atom_site_fract_z
 _atom_site_occupancy
  Ti  Ti0  1  0.93896200  0.93896200  0.56103800  1
  Ti  Ti1  1  0.68896200  0.31103800  0.31103800  1
  Ti  Ti2  1  0.31103800  0.68896200  0.68896200  1
  Ti  Ti3  1  0.68896200  0.68896200  0.31103800  1
  Ti  Ti4  1  0.68896200  0.31103800  0.68896200  1
  Ti  Ti5  1  0.31103800  0.68896200  0.31103800  1
  Ti  Ti6  1  0.56103800  0.93896200  0.56103800  1
  Ti  Ti7  1  0.56103800  0.93896200  0.93896200  1
  Ti  Ti8  1  0.93896200  0.56103800  0.56103800  1
  Ti  Ti9  1  0.93896200  0.56103800  0.93896200  1
  Ti  Ti10  1  0.31103800  0.31103800  0.68896200  1
  Ti  Ti11  1  0.56103800  0.56103800  0.93896200  1
  Al  Al12  1  0.91709800  0.24870700  0.91709800  1
  Al  Al13  1  0.33290200  0.33290200  0.00129300  1
  Al  Al14  1  0.00129300  0.33290200  0.33290200  1
  Al  Al15  1  0.33290200  0.33290200  0.33290200  1
  Al  Al16  1  0.24870700  0.91709800  0.91709800  1
  Al  Al17  1  0.91709800  0.91709800  0.91709800  1
  Al  Al18  1  0.91709800  0.91709800  0.24870700  1
  Al  Al19  1  0.33290200  0.00129300  0.33290200  1
  Ni  Ni20  1  0.12500000  0.62500000  0.12500000  1
  Ni  Ni21  1  0.12500000  0.12500000  0.62500000  1
  Ni  Ni22  1  0.62500000  0.12500000  0.12500000  1
  Ni  Ni23  1  0.12500000  0.12500000  0.12500000  1
  C  C24  1  0.62500000  0.12500000  0.62500000  1
  C  C25  1  0.62500000  0.62500000  0.12500000  1
  C  C26  1  0.12500000  0.62500000  0.62500000  1
  C  C27  1  0.62500000  0.62500000  0.62500000  1
