# generated using pymatgen
data_Ta2Se17Br12
_symmetry_space_group_name_H-M   'P 1'
_cell_length_a   12.31798500
_cell_length_b   14.15839566
_cell_length_c   14.17344320
_cell_angle_alpha   111.71002858
_cell_angle_beta   97.60038566
_cell_angle_gamma   99.79885656
_symmetry_Int_Tables_number   1
_chemical_formula_structural   Ta2Se17Br12
_chemical_formula_sum   'Ta4 Se34 Br24'
_cell_volume   2211.00238610
_cell_formula_units_Z   2
loop_
 _symmetry_equiv_pos_site_id
 _symmetry_equiv_pos_as_xyz
  1  'x, y, z'
loop_
 _atom_site_type_symbol
 _atom_site_label
 _atom_site_symmetry_multiplicity
 _atom_site_fract_x
 _atom_site_fract_y
 _atom_site_fract_z
 _atom_site_occupancy
  Ta  Ta0  1  0.68937700  0.27641400  0.47931900  1
  Ta  Ta1  1  0.31062300  0.72358600  0.52068100  1
  Ta  Ta2  1  0.84272500  0.72050100  0.99075200  1
  Ta  Ta3  1  0.15727500  0.27949900  0.00924800  1
  Se  Se4  1  0.47883200  0.82656000  0.98046800  1
  Se  Se5  1  0.52116800  0.17344000  0.01953200  1
  Se  Se6  1  0.32884800  0.90470800  0.97490100  1
  Se  Se7  1  0.67115200  0.09529200  0.02509900  1
  Se  Se8  1  0.34029800  0.01544900  0.15242000  1
  Se  Se9  1  0.65970200  0.98455100  0.84758000  1
  Se  Se10  1  0.27951100  0.89990400  0.22764800  1
  Se  Se11  1  0.72048900  0.10009600  0.77235200  1
  Se  Se12  1  0.44872900  0.83823200  0.24518300  1
  Se  Se13  1  0.55127100  0.16176800  0.75481700  1
  Se  Se14  1  0.38828600  0.66284200  0.14819400  1
  Se  Se15  1  0.61171400  0.33715800  0.85180600  1
  Se  Se16  1  0.39371900  0.64852300  0.96279900  1
  Se  Se17  1  0.60628100  0.35147700  0.03720100  1
  Se  Se18  1  0.19483600  0.63042400  0.92348100  1
  Se  Se19  1  0.80516400  0.36957600  0.07651900  1
  Se  Se20  1  0.16198800  0.58359000  0.74213800  1
  Se  Se21  1  0.83801200  0.41641000  0.25786200  1
  Se  Se22  1  0.12241000  0.39977200  0.67148400  1
  Se  Se23  1  0.87759000  0.60022800  0.32851600  1
  Se  Se24  1  0.30463400  0.36811700  0.65394600  1
  Se  Se25  1  0.69536600  0.63188300  0.34605400  1
  Se  Se26  1  0.24761900  0.19082300  0.66559900  1
  Se  Se27  1  0.75238100  0.80917700  0.33440100  1
  Se  Se28  1  0.24392100  0.06961000  0.50423800  1
  Se  Se29  1  0.75607900  0.93039000  0.49576200  1
  Se  Se30  1  0.05471800  0.03160100  0.40839300  1
  Se  Se31  1  0.94528200  0.96839900  0.59160700  1
  Se  Se32  1  0.08693600  0.10867000  0.29081000  1
  Se  Se33  1  0.91306400  0.89133000  0.70919000  1
  Se  Se34  1  0.12497700  0.29225200  0.38943600  1
  Se  Se35  1  0.87502300  0.70774800  0.61056400  1
  Se  Se36  1  0.31280900  0.33137300  0.47265600  1
  Se  Se37  1  0.68719100  0.66862700  0.52734400  1
  Br  Br38  1  0.84855900  0.43407600  0.51163100  1
  Br  Br39  1  0.15144100  0.56592400  0.48836900  1
  Br  Br40  1  0.60423500  0.39179400  0.62319700  1
  Br  Br41  1  0.39576500  0.60820600  0.37680300  1
  Br  Br42  1  0.53925400  0.11789600  0.45130800  1
  Br  Br43  1  0.46074600  0.88210400  0.54869200  1
  Br  Br44  1  0.77091600  0.16551400  0.33498400  1
  Br  Br45  1  0.22908400  0.83448600  0.66501600  1
  Br  Br46  1  0.56787500  0.32210500  0.35288700  1
  Br  Br47  1  0.43212500  0.67789500  0.64711300  1
  Br  Br48  1  0.81345400  0.24201000  0.61514400  1
  Br  Br49  1  0.18654600  0.75799000  0.38485600  1
  Br  Br50  1  0.79573000  0.88695200  0.10934700  1
  Br  Br51  1  0.20427000  0.11304800  0.89065300  1
  Br  Br52  1  0.98029000  0.72851300  0.14248100  1
  Br  Br53  1  0.01971000  0.27148700  0.85751900  1
  Br  Br54  1  0.88539400  0.55153300  0.87907200  1
  Br  Br55  1  0.11460600  0.44846700  0.12092800  1
  Br  Br56  1  0.69359700  0.70584600  0.84182600  1
  Br  Br57  1  0.30640300  0.29415400  0.15817400  1
  Br  Br58  1  0.68196500  0.61504700  0.04314900  1
  Br  Br59  1  0.31803500  0.38495300  0.95685100  1
  Br  Br60  1  0.98939200  0.82678900  0.93959500  1
  Br  Br61  1  0.01060800  0.17321100  0.06040500  1
