# generated using pymatgen
data_AgTe
_symmetry_space_group_name_H-M   'P 1'
_cell_length_a   4.74265900
_cell_length_b   8.93363000
_cell_length_c   20.35874300
_cell_angle_alpha   90.00000000
_cell_angle_beta   90.00000000
_cell_angle_gamma   90.00000000
_symmetry_Int_Tables_number   1
_chemical_formula_structural   AgTe
_chemical_formula_sum   'Ag16 Te16'
_cell_volume   862.58285427
_cell_formula_units_Z   16
loop_
 _symmetry_equiv_pos_site_id
 _symmetry_equiv_pos_as_xyz
  1  'x, y, z'
loop_
 _atom_site_type_symbol
 _atom_site_label
 _atom_site_symmetry_multiplicity
 _atom_site_fract_x
 _atom_site_fract_y
 _atom_site_fract_z
 _atom_site_occupancy
  Ag  Ag0  1  0.36311200  0.01516800  0.93149100  1
  Ag  Ag1  1  0.74861100  0.25000000  0.15577500  1
  Ag  Ag2  1  0.63688800  0.51516800  0.06850900  1
  Ag  Ag3  1  0.24861100  0.75000000  0.34422500  1
  Ag  Ag4  1  0.32010400  0.75000000  0.55217300  1
  Ag  Ag5  1  0.13688800  0.01516800  0.43149100  1
  Ag  Ag6  1  0.82010400  0.25000000  0.94782700  1
  Ag  Ag7  1  0.36311200  0.48483200  0.93149100  1
  Ag  Ag8  1  0.86311200  0.51516800  0.56850900  1
  Ag  Ag9  1  0.17989600  0.75000000  0.05217300  1
  Ag  Ag10  1  0.63688800  0.98483200  0.06850900  1
  Ag  Ag11  1  0.13688800  0.48483200  0.43149100  1
  Ag  Ag12  1  0.25138900  0.75000000  0.84422500  1
  Ag  Ag13  1  0.67989600  0.25000000  0.44782700  1
  Ag  Ag14  1  0.75138900  0.25000000  0.65577500  1
  Ag  Ag15  1  0.86311200  0.98483200  0.56850900  1
  Te  Te16  1  0.59568700  0.02286400  0.34256400  1
  Te  Te17  1  0.09568700  0.97713600  0.15743600  1
  Te  Te18  1  0.65255400  0.75000000  0.74100000  1
  Te  Te19  1  0.84744600  0.75000000  0.24100000  1
  Te  Te20  1  0.09568700  0.52286400  0.15743600  1
  Te  Te21  1  0.82934200  0.75000000  0.46940100  1
  Te  Te22  1  0.15255400  0.25000000  0.75900000  1
  Te  Te23  1  0.59568700  0.47713600  0.34256400  1
  Te  Te24  1  0.40431300  0.52286400  0.65743600  1
  Te  Te25  1  0.17065800  0.25000000  0.53059900  1
  Te  Te26  1  0.40431300  0.97713600  0.65743600  1
  Te  Te27  1  0.67065800  0.75000000  0.96940100  1
  Te  Te28  1  0.90431300  0.02286400  0.84256400  1
  Te  Te29  1  0.34744600  0.25000000  0.25900000  1
  Te  Te30  1  0.32934200  0.25000000  0.03059900  1
  Te  Te31  1  0.90431300  0.47713600  0.84256400  1
