# generated using pymatgen
data_Zr4Cd(PO4)6
_symmetry_space_group_name_H-M   'P 1'
_cell_length_a   9.11932735
_cell_length_b   9.11932735
_cell_length_c   9.11932753
_cell_angle_alpha   59.06186844
_cell_angle_beta   59.06186844
_cell_angle_gamma   59.06186506
_symmetry_Int_Tables_number   1
_chemical_formula_structural   Zr4Cd(PO4)6
_chemical_formula_sum   'Zr4 Cd1 P6 O24'
_cell_volume   524.78620535
_cell_formula_units_Z   1
loop_
 _symmetry_equiv_pos_site_id
 _symmetry_equiv_pos_as_xyz
  1  'x, y, z'
loop_
 _atom_site_type_symbol
 _atom_site_label
 _atom_site_symmetry_multiplicity
 _atom_site_fract_x
 _atom_site_fract_y
 _atom_site_fract_z
 _atom_site_occupancy
  Zr  Zr0  1  0.13647500  0.13647500  0.13647500  1
  Zr  Zr1  1  0.86352500  0.86352500  0.86352500  1
  Zr  Zr2  1  0.64817900  0.64817900  0.64817900  1
  Zr  Zr3  1  0.35182100  0.35182100  0.35182100  1
  Cd  Cd4  1  0.50000000  0.50000000  0.50000000  1
  P  P5  1  0.95317700  0.52982600  0.25655800  1
  P  P6  1  0.52982600  0.25655800  0.95317700  1
  P  P7  1  0.25655800  0.95317700  0.52982600  1
  P  P8  1  0.04682300  0.47017400  0.74344200  1
  P  P9  1  0.47017400  0.74344200  0.04682300  1
  P  P10  1  0.74344200  0.04682300  0.47017400  1
  O  O11  1  0.99100500  0.36951100  0.21403400  1
  O  O12  1  0.36951100  0.21403400  0.99100500  1
  O  O13  1  0.21403400  0.99100500  0.36951100  1
  O  O14  1  0.00899500  0.63048900  0.78596600  1
  O  O15  1  0.63048900  0.78596600  0.00899500  1
  O  O16  1  0.78596600  0.00899500  0.63048900  1
  O  O17  1  0.50836700  0.68768600  0.89251600  1
  O  O18  1  0.68768600  0.89251600  0.50836700  1
  O  O19  1  0.89251600  0.50836700  0.68768600  1
  O  O20  1  0.49163300  0.31231400  0.10748400  1
  O  O21  1  0.31231400  0.10748400  0.49163300  1
  O  O22  1  0.10748400  0.49163300  0.31231400  1
  O  O23  1  0.06245100  0.29238100  0.90551600  1
  O  O24  1  0.29238100  0.90551600  0.06245100  1
  O  O25  1  0.90551600  0.06245100  0.29238100  1
  O  O26  1  0.93754900  0.70761900  0.09448400  1
  O  O27  1  0.70761900  0.09448400  0.93754900  1
  O  O28  1  0.09448400  0.93754900  0.70761900  1
  O  O29  1  0.55384100  0.41947200  0.76922600  1
  O  O30  1  0.41947200  0.76922600  0.55384100  1
  O  O31  1  0.76922600  0.55384100  0.41947200  1
  O  O32  1  0.44615900  0.58052800  0.23077400  1
  O  O33  1  0.58052800  0.23077400  0.44615900  1
  O  O34  1  0.23077400  0.44615900  0.58052800  1
