# generated using pymatgen
data_LiV(GeO3)2
_symmetry_space_group_name_H-M   'P 1'
_cell_length_a   8.87554300
_cell_length_b   5.47302300
_cell_length_c   9.80838305
_cell_angle_alpha   75.63460115
_cell_angle_beta   90.00000000
_cell_angle_gamma   90.00000000
_symmetry_Int_Tables_number   1
_chemical_formula_structural   LiV(GeO3)2
_chemical_formula_sum   'Li4 V4 Ge8 O24'
_cell_volume   461.55535502
_cell_formula_units_Z   4
loop_
 _symmetry_equiv_pos_site_id
 _symmetry_equiv_pos_as_xyz
  1  'x, y, z'
loop_
 _atom_site_type_symbol
 _atom_site_label
 _atom_site_symmetry_multiplicity
 _atom_site_fract_x
 _atom_site_fract_y
 _atom_site_fract_z
 _atom_site_occupancy
  Li  Li0  1  0.51533000  0.45873600  0.75650800  1
  Li  Li1  1  0.01533000  0.04126400  0.24349200  1
  Li  Li2  1  0.48467000  0.54126400  0.24349200  1
  Li  Li3  1  0.98467000  0.95873600  0.75650800  1
  V  V4  1  0.34406900  0.95867600  0.75197300  1
  V  V5  1  0.84406900  0.54132400  0.24802700  1
  V  V6  1  0.65593100  0.04132400  0.24802700  1
  V  V7  1  0.15593100  0.45867600  0.75197300  1
  Ge  Ge8  1  0.65928100  0.81914900  0.94810600  1
  Ge  Ge9  1  0.15928100  0.68085100  0.05189400  1
  Ge  Ge10  1  0.34071900  0.18085100  0.05189400  1
  Ge  Ge11  1  0.84071900  0.31914900  0.94810600  1
  Ge  Ge12  1  0.65727400  0.23665700  0.54466900  1
  Ge  Ge13  1  0.15727400  0.26334300  0.45533100  1
  Ge  Ge14  1  0.34272600  0.76334300  0.45533100  1
  Ge  Ge15  1  0.84272600  0.73665700  0.54466900  1
  O  O16  1  0.47978300  0.17400100  0.61733500  1
  O  O17  1  0.97978300  0.32599900  0.38266500  1
  O  O18  1  0.52021700  0.82599900  0.38266500  1
  O  O19  1  0.02021700  0.67400100  0.61733500  1
  O  O20  1  0.66745300  0.75323100  0.13542700  1
  O  O21  1  0.16745300  0.74676900  0.86457300  1
  O  O22  1  0.33254700  0.24676900  0.86457300  1
  O  O23  1  0.83254700  0.25323100  0.13542700  1
  O  O24  1  0.16582700  0.17646000  0.64177100  1
  O  O25  1  0.66582700  0.32354000  0.35822900  1
  O  O26  1  0.83417300  0.82354000  0.35822900  1
  O  O27  1  0.33417300  0.67646000  0.64177100  1
  O  O28  1  0.49777700  0.73975600  0.86838200  1
  O  O29  1  0.99777700  0.76024400  0.13161800  1
  O  O30  1  0.50222300  0.26024400  0.13161800  1
  O  O31  1  0.00222300  0.23975600  0.86838200  1
  O  O32  1  0.70986600  0.49549200  0.61603300  1
  O  O33  1  0.20986600  0.00450800  0.38396700  1
  O  O34  1  0.29013400  0.50450800  0.38396700  1
  O  O35  1  0.79013400  0.99549200  0.61603300  1
  O  O36  1  0.81094300  0.65331200  0.88830400  1
  O  O37  1  0.31094300  0.84668800  0.11169600  1
  O  O38  1  0.18905700  0.34668800  0.11169600  1
  O  O39  1  0.68905700  0.15331200  0.88830400  1
