# generated using pymatgen
data_SrMn(SeO3)2
_symmetry_space_group_name_H-M   'P 1'
_cell_length_a   15.09303400
_cell_length_b   4.50411100
_cell_length_c   10.47096434
_cell_angle_alpha   68.70524853
_cell_angle_beta   90.00000000
_cell_angle_gamma   90.00000000
_symmetry_Int_Tables_number   1
_chemical_formula_structural   SrMn(SeO3)2
_chemical_formula_sum   'Sr4 Mn4 Se8 O24'
_cell_volume   663.22338467
_cell_formula_units_Z   4
loop_
 _symmetry_equiv_pos_site_id
 _symmetry_equiv_pos_as_xyz
  1  'x, y, z'
loop_
 _atom_site_type_symbol
 _atom_site_label
 _atom_site_symmetry_multiplicity
 _atom_site_fract_x
 _atom_site_fract_y
 _atom_site_fract_z
 _atom_site_occupancy
  Sr  Sr0  1  0.88332600  0.70730800  0.53500200  1
  Sr  Sr1  1  0.38332600  0.29269200  0.96499800  1
  Sr  Sr2  1  0.11667400  0.29269200  0.46499800  1
  Sr  Sr3  1  0.61667400  0.70730800  0.03500200  1
  Mn  Mn4  1  0.34705800  0.48514300  0.29120900  1
  Mn  Mn5  1  0.65294200  0.51485700  0.70879100  1
  Mn  Mn6  1  0.15294200  0.48514300  0.79120900  1
  Mn  Mn7  1  0.84705800  0.51485700  0.20879100  1
  Se  Se8  1  0.79900100  0.35680400  0.92217600  1
  Se  Se9  1  0.20099900  0.64319600  0.07782400  1
  Se  Se10  1  0.49983700  0.95614400  0.28065500  1
  Se  Se11  1  0.00016300  0.95614400  0.78065500  1
  Se  Se12  1  0.70099900  0.35680400  0.42217600  1
  Se  Se13  1  0.29900100  0.64319600  0.57782400  1
  Se  Se14  1  0.50016300  0.04385600  0.71934500  1
  Se  Se15  1  0.99983700  0.04385600  0.21934500  1
  O  O16  1  0.30021200  0.37073900  0.49635200  1
  O  O17  1  0.99003500  0.42893700  0.21529900  1
  O  O18  1  0.31483100  0.72695400  0.06676000  1
  O  O19  1  0.49003500  0.57106300  0.28470100  1
  O  O20  1  0.11451100  0.03752400  0.77029500  1
  O  O21  1  0.29606200  0.41018100  0.75027800  1
  O  O22  1  0.68516900  0.27304600  0.93324000  1
  O  O23  1  0.70393800  0.58981900  0.24972200  1
  O  O24  1  0.96826700  0.15311900  0.61179800  1
  O  O25  1  0.46826700  0.84688100  0.88820200  1
  O  O26  1  0.20393800  0.41018100  0.25027800  1
  O  O27  1  0.53173300  0.15311900  0.11179800  1
  O  O28  1  0.03173300  0.84688100  0.38820200  1
  O  O29  1  0.69978800  0.62926100  0.50364800  1
  O  O30  1  0.19978800  0.37073900  0.99635200  1
  O  O31  1  0.00996500  0.57106300  0.78470100  1
  O  O32  1  0.88548900  0.96247600  0.22970500  1
  O  O33  1  0.61451100  0.96247600  0.72970500  1
  O  O34  1  0.80021200  0.62926100  0.00364800  1
  O  O35  1  0.79606200  0.58981900  0.74972200  1
  O  O36  1  0.38548900  0.03752400  0.27029500  1
  O  O37  1  0.81483100  0.27304600  0.43324000  1
  O  O38  1  0.18516900  0.72695400  0.56676000  1
  O  O39  1  0.50996500  0.42893700  0.71529900  1
