# generated using pymatgen
data_TmSeO3F
_symmetry_space_group_name_H-M   'P 1'
_cell_length_a   6.92551000
_cell_length_b   6.58846400
_cell_length_c   7.16186476
_cell_angle_alpha   81.67958202
_cell_angle_beta   90.00000000
_cell_angle_gamma   90.00000000
_symmetry_Int_Tables_number   1
_chemical_formula_structural   TmSeO3F
_chemical_formula_sum   'Tm4 Se4 O12 F4'
_cell_volume   323.34530922
_cell_formula_units_Z   4
loop_
 _symmetry_equiv_pos_site_id
 _symmetry_equiv_pos_as_xyz
  1  'x, y, z'
loop_
 _atom_site_type_symbol
 _atom_site_label
 _atom_site_symmetry_multiplicity
 _atom_site_fract_x
 _atom_site_fract_y
 _atom_site_fract_z
 _atom_site_occupancy
  Tm  Tm0  1  0.85901100  0.86190500  0.82466100  1
  Tm  Tm1  1  0.14098900  0.13809500  0.17533900  1
  Tm  Tm2  1  0.64098900  0.86190500  0.32466100  1
  Tm  Tm3  1  0.35901100  0.13809500  0.67533900  1
  Se  Se4  1  0.88044400  0.35151300  0.71024000  1
  Se  Se5  1  0.61955600  0.35151300  0.21024000  1
  Se  Se6  1  0.11955600  0.64848700  0.28976000  1
  Se  Se7  1  0.38044400  0.64848700  0.78976000  1
  O  O8  1  0.46951500  0.17210300  0.35270100  1
  O  O9  1  0.53048500  0.82789700  0.64729900  1
  O  O10  1  0.19228500  0.82601600  0.77914500  1
  O  O11  1  0.30771500  0.82601600  0.27914500  1
  O  O12  1  0.81392800  0.51824200  0.86108400  1
  O  O13  1  0.03048500  0.17210300  0.85270100  1
  O  O14  1  0.69228500  0.17398400  0.72085500  1
  O  O15  1  0.68607200  0.51824200  0.36108400  1
  O  O16  1  0.96951500  0.82789700  0.14729900  1
  O  O17  1  0.18607200  0.48175800  0.13891600  1
  O  O18  1  0.31392800  0.48175800  0.63891600  1
  O  O19  1  0.80771500  0.17398400  0.22085500  1
  F  F20  1  0.62043600  0.83472000  0.02623400  1
  F  F21  1  0.37956400  0.16528000  0.97376600  1
  F  F22  1  0.12043600  0.16528000  0.47376600  1
  F  F23  1  0.87956400  0.83472000  0.52623400  1
