# generated using pymatgen
data_K4Ru2Cl10O
_symmetry_space_group_name_H-M   'P 1'
_cell_length_a   10.09637457
_cell_length_b   10.09637457
_cell_length_c   10.09637457
_cell_angle_alpha   137.55544250
_cell_angle_beta   137.55544250
_cell_angle_gamma   61.58454567
_symmetry_Int_Tables_number   1
_chemical_formula_structural   K4Ru2Cl10O
_chemical_formula_sum   'K4 Ru2 Cl10 O1'
_cell_volume   463.39384037
_cell_formula_units_Z   1
loop_
 _symmetry_equiv_pos_site_id
 _symmetry_equiv_pos_as_xyz
  1  'x, y, z'
loop_
 _atom_site_type_symbol
 _atom_site_label
 _atom_site_symmetry_multiplicity
 _atom_site_fract_x
 _atom_site_fract_y
 _atom_site_fract_z
 _atom_site_occupancy
  K  K0  1  0.00000000  0.50000000  0.50000000  1
  K  K1  1  0.75000000  0.25000000  0.50000000  1
  K  K2  1  0.25000000  0.75000000  0.50000000  1
  K  K3  1  0.50000000  0.00000000  0.50000000  1
  Ru  Ru4  1  0.89562100  0.89562100  0.00000000  1
  Ru  Ru5  1  0.10437900  0.10437900  0.00000000  1
  Cl  Cl6  1  0.34487400  0.88135500  0.00000000  1
  Cl  Cl7  1  0.11864500  0.65512600  0.00000000  1
  Cl  Cl8  1  0.65512600  0.11864500  0.00000000  1
  Cl  Cl9  1  0.88135500  0.88135500  0.53648000  1
  Cl  Cl10  1  0.11864500  0.11864500  0.46352000  1
  Cl  Cl11  1  0.76092500  0.76092500  0.00000000  1
  Cl  Cl12  1  0.88135500  0.34487400  0.00000000  1
  Cl  Cl13  1  0.34487400  0.34487400  0.46352000  1
  Cl  Cl14  1  0.23907500  0.23907500  0.00000000  1
  Cl  Cl15  1  0.65512600  0.65512600  0.53648000  1
  O  O16  1  0.00000000  0.00000000  0.00000000  1
