# generated using pymatgen
data_Tb9(SbO)5
_symmetry_space_group_name_H-M   'P 1'
_cell_length_a   9.92464800
_cell_length_b   9.92464800
_cell_length_c   8.92553500
_cell_angle_alpha   90.00000000
_cell_angle_beta   90.00000000
_cell_angle_gamma   90.00000000
_symmetry_Int_Tables_number   1
_chemical_formula_structural   Tb9(SbO)5
_chemical_formula_sum   'Tb18 Sb10 O10'
_cell_volume   879.15304024
_cell_formula_units_Z   2
loop_
 _symmetry_equiv_pos_site_id
 _symmetry_equiv_pos_as_xyz
  1  'x, y, z'
loop_
 _atom_site_type_symbol
 _atom_site_label
 _atom_site_symmetry_multiplicity
 _atom_site_fract_x
 _atom_site_fract_y
 _atom_site_fract_z
 _atom_site_occupancy
  Tb  Tb0  1  0.20544200  0.89541900  0.34189500  1
  Tb  Tb1  1  0.50000000  0.00000000  0.67164400  1
  Tb  Tb2  1  0.29455800  0.60458100  0.65810500  1
  Tb  Tb3  1  0.70544200  0.39541900  0.65810500  1
  Tb  Tb4  1  0.72594000  0.91751800  0.00146000  1
  Tb  Tb5  1  0.39541900  0.29455800  0.34189500  1
  Tb  Tb6  1  0.10458100  0.20544200  0.65810500  1
  Tb  Tb7  1  0.60458100  0.70544200  0.34189500  1
  Tb  Tb8  1  0.00000000  0.50000000  0.32835600  1
  Tb  Tb9  1  0.89541900  0.79455800  0.65810500  1
  Tb  Tb10  1  0.27406000  0.08248200  0.00146000  1
  Tb  Tb11  1  0.77406000  0.58248200  0.99854000  1
  Tb  Tb12  1  0.22594000  0.41751800  0.99854000  1
  Tb  Tb13  1  0.79455800  0.10458100  0.34189500  1
  Tb  Tb14  1  0.58248200  0.22594000  0.00146000  1
  Tb  Tb15  1  0.91751800  0.27406000  0.99854000  1
  Tb  Tb16  1  0.08248200  0.72594000  0.99854000  1
  Tb  Tb17  1  0.41751800  0.77406000  0.00146000  1
  Sb  Sb18  1  0.59563200  0.69554500  0.69836700  1
  Sb  Sb19  1  0.90436800  0.80445500  0.30163300  1
  Sb  Sb20  1  0.69554500  0.40436800  0.30163300  1
  Sb  Sb21  1  0.00000000  0.50000000  0.68199800  1
  Sb  Sb22  1  0.19554500  0.90436800  0.69836700  1
  Sb  Sb23  1  0.80445500  0.09563200  0.69836700  1
  Sb  Sb24  1  0.30445500  0.59563200  0.30163300  1
  Sb  Sb25  1  0.40436800  0.30445500  0.69836700  1
  Sb  Sb26  1  0.09563200  0.19554500  0.30163300  1
  Sb  Sb27  1  0.50000000  0.00000000  0.31800200  1
  O  O28  1  0.22494000  0.87989200  0.08705800  1
  O  O29  1  0.72494000  0.37989200  0.91294200  1
  O  O30  1  0.50000000  0.00000000  0.93563900  1
  O  O31  1  0.62010800  0.72494000  0.08705800  1
  O  O32  1  0.00000000  0.50000000  0.06436100  1
  O  O33  1  0.87989200  0.77506000  0.91294200  1
  O  O34  1  0.12010800  0.22494000  0.91294200  1
  O  O35  1  0.37989200  0.27506000  0.08705800  1
  O  O36  1  0.77506000  0.12010800  0.08705800  1
  O  O37  1  0.27506000  0.62010800  0.91294200  1
