# generated using pymatgen
data_Ba3Mo2(P2O9)2
_symmetry_space_group_name_H-M   'P 1'
_cell_length_a   4.92679600
_cell_length_b   9.36587620
_cell_length_c   18.26557486
_cell_angle_alpha   88.30757207
_cell_angle_beta   88.20969618
_cell_angle_gamma   78.51834952
_symmetry_Int_Tables_number   1
_chemical_formula_structural   Ba3Mo2(P2O9)2
_chemical_formula_sum   'Ba6 Mo4 P8 O36'
_cell_volume   825.33868848
_cell_formula_units_Z   2
loop_
 _symmetry_equiv_pos_site_id
 _symmetry_equiv_pos_as_xyz
  1  'x, y, z'
loop_
 _atom_site_type_symbol
 _atom_site_label
 _atom_site_symmetry_multiplicity
 _atom_site_fract_x
 _atom_site_fract_y
 _atom_site_fract_z
 _atom_site_occupancy
  Ba  Ba0  1  0.77376600  0.99679400  0.74803900  1
  Ba  Ba1  1  0.09165200  0.40467400  0.85372600  1
  Ba  Ba2  1  0.90834800  0.59532600  0.14627400  1
  Ba  Ba3  1  0.22623400  0.00320600  0.25196100  1
  Ba  Ba4  1  0.53773000  0.40873900  0.34657900  1
  Ba  Ba5  1  0.46227000  0.59126100  0.65342100  1
  Mo  Mo6  1  0.30708800  0.76635400  0.44751900  1
  Mo  Mo7  1  0.69291200  0.23364600  0.55248100  1
  Mo  Mo8  1  0.17041000  0.22630100  0.05131700  1
  Mo  Mo9  1  0.82959000  0.77369900  0.94868300  1
  P  P10  1  0.23914800  0.14104500  0.43453700  1
  P  P11  1  0.76085200  0.85895500  0.56546300  1
  P  P12  1  0.29991000  0.84735000  0.06980400  1
  P  P13  1  0.13387800  0.28782000  0.67855800  1
  P  P14  1  0.70009000  0.15265000  0.93019600  1
  P  P15  1  0.62969500  0.26589800  0.17720500  1
  P  P16  1  0.37030500  0.73410200  0.82279500  1
  P  P17  1  0.86612200  0.71218000  0.32144200  1
  O  O18  1  0.93093100  0.27061700  0.14575900  1
  O  O19  1  0.20224400  0.40662800  0.03681500  1
  O  O20  1  0.30707800  0.77098100  0.14534100  1
  O  O21  1  0.85205100  0.99238500  0.92432200  1
  O  O22  1  0.69292200  0.22901900  0.85465900  1
  O  O23  1  0.39466200  0.15809900  0.95796100  1
  O  O24  1  0.72521900  0.41265900  0.53451900  1
  O  O25  1  0.73342200  0.81441300  0.25980700  1
  O  O26  1  0.65779100  0.01834300  0.59012700  1
  O  O27  1  0.15926100  0.76212000  0.01522500  1
  O  O28  1  0.51180200  0.82128500  0.87647000  1
  O  O29  1  0.88101100  0.22398300  0.65260600  1
  O  O30  1  0.34220900  0.98165700  0.40987300  1
  O  O31  1  0.97194000  0.55554300  0.29421200  1
  O  O32  1  0.11898900  0.77601700  0.34739400  1
  O  O33  1  0.10838100  0.23556200  0.37017300  1
  O  O34  1  0.84073900  0.23788000  0.98477500  1
  O  O35  1  0.79775600  0.59337200  0.96318500  1
  O  O36  1  0.05170300  0.14009100  0.50373900  1
  O  O37  1  0.26657800  0.18558700  0.74019300  1
  O  O38  1  0.67028000  0.69794200  0.38877000  1
  O  O39  1  0.48158000  0.42456800  0.18844300  1
  O  O40  1  0.51842000  0.57543200  0.81155700  1
  O  O41  1  0.27478100  0.58734100  0.46548100  1
  O  O42  1  0.14794900  0.00761500  0.07567800  1
  O  O43  1  0.06906900  0.72938300  0.85424100  1
  O  O44  1  0.89161900  0.76443800  0.62982700  1
  O  O45  1  0.60533800  0.84190100  0.04203900  1
  O  O46  1  0.32972000  0.30205800  0.61123000  1
  O  O47  1  0.48819800  0.17871500  0.12353000  1
  O  O48  1  0.49974200  0.20254900  0.45732000  1
  O  O49  1  0.33739300  0.82269100  0.74988400  1
  O  O50  1  0.66260700  0.17730900  0.25011600  1
  O  O51  1  0.50025800  0.79745100  0.54268000  1
  O  O52  1  0.02806000  0.44445700  0.70578800  1
  O  O53  1  0.94829700  0.85990900  0.49626100  1
