# generated using pymatgen
data_MoF6
_symmetry_space_group_name_H-M   'P 1'
_cell_length_a   5.21108600
_cell_length_b   9.01094800
_cell_length_c   10.07757300
_cell_angle_alpha   90.00000000
_cell_angle_beta   90.00000000
_cell_angle_gamma   90.00000000
_symmetry_Int_Tables_number   1
_chemical_formula_structural   MoF6
_chemical_formula_sum   'Mo4 F24'
_cell_volume   473.21083148
_cell_formula_units_Z   4
loop_
 _symmetry_equiv_pos_site_id
 _symmetry_equiv_pos_as_xyz
  1  'x, y, z'
loop_
 _atom_site_type_symbol
 _atom_site_label
 _atom_site_symmetry_multiplicity
 _atom_site_fract_x
 _atom_site_fract_y
 _atom_site_fract_z
 _atom_site_occupancy
  Mo  Mo0  1  0.06817000  0.25000000  0.86607300  1
  Mo  Mo1  1  0.56817000  0.75000000  0.63392700  1
  Mo  Mo2  1  0.93183000  0.75000000  0.13392700  1
  Mo  Mo3  1  0.43183000  0.25000000  0.36607300  1
  F  F4  1  0.19986600  0.75000000  0.01093300  1
  F  F5  1  0.39949000  0.89686000  0.73132400  1
  F  F6  1  0.10051000  0.60314000  0.23132400  1
  F  F7  1  0.30013400  0.75000000  0.51093300  1
  F  F8  1  0.66509700  0.75000000  0.25801600  1
  F  F9  1  0.89949000  0.39686000  0.76867600  1
  F  F10  1  0.16509700  0.25000000  0.24198400  1
  F  F11  1  0.39949000  0.60314000  0.73132400  1
  F  F12  1  0.83490300  0.75000000  0.75801600  1
  F  F13  1  0.26205800  0.10384000  0.46390300  1
  F  F14  1  0.60051000  0.39686000  0.26867600  1
  F  F15  1  0.73794200  0.89616000  0.53609700  1
  F  F16  1  0.33490300  0.25000000  0.74198400  1
  F  F17  1  0.10051000  0.89686000  0.23132400  1
  F  F18  1  0.26205800  0.39616000  0.46390300  1
  F  F19  1  0.23794200  0.10384000  0.96390300  1
  F  F20  1  0.69986600  0.25000000  0.48906700  1
  F  F21  1  0.80013400  0.25000000  0.98906700  1
  F  F22  1  0.89949000  0.10314000  0.76867600  1
  F  F23  1  0.23794200  0.39616000  0.96390300  1
  F  F24  1  0.76205800  0.60384000  0.03609700  1
  F  F25  1  0.76205800  0.89616000  0.03609700  1
  F  F26  1  0.73794200  0.60384000  0.53609700  1
  F  F27  1  0.60051000  0.10314000  0.26867600  1
