# generated using pymatgen
data_CdSeO3
_symmetry_space_group_name_H-M   'P 1'
_cell_length_a   13.15029900
_cell_length_b   5.84040200
_cell_length_c   8.83237686
_cell_angle_alpha   78.90938412
_cell_angle_beta   90.00000000
_cell_angle_gamma   90.00000000
_symmetry_Int_Tables_number   1
_chemical_formula_structural   CdSeO3
_chemical_formula_sum   'Cd8 Se8 O24'
_cell_volume   665.68452466
_cell_formula_units_Z   8
loop_
 _symmetry_equiv_pos_site_id
 _symmetry_equiv_pos_as_xyz
  1  'x, y, z'
loop_
 _atom_site_type_symbol
 _atom_site_label
 _atom_site_symmetry_multiplicity
 _atom_site_fract_x
 _atom_site_fract_y
 _atom_site_fract_z
 _atom_site_occupancy
  Cd  Cd0  1  0.75557700  0.62183000  0.85122500  1
  Cd  Cd1  1  0.57712700  0.18154700  0.11329500  1
  Cd  Cd2  1  0.25557700  0.37817000  0.64877500  1
  Cd  Cd3  1  0.07712700  0.81845300  0.38670500  1
  Cd  Cd4  1  0.24442300  0.37817000  0.14877500  1
  Cd  Cd5  1  0.92287300  0.18154700  0.61329500  1
  Cd  Cd6  1  0.74442300  0.62183000  0.35122500  1
  Cd  Cd7  1  0.42287300  0.81845300  0.88670500  1
  Se  Se8  1  0.97493600  0.41348700  0.23554200  1
  Se  Se9  1  0.33040100  0.97093700  0.48115500  1
  Se  Se10  1  0.52506400  0.41348700  0.73554200  1
  Se  Se11  1  0.83040100  0.02906300  0.01884500  1
  Se  Se12  1  0.16959900  0.97093700  0.98115500  1
  Se  Se13  1  0.47493600  0.58651300  0.26445800  1
  Se  Se14  1  0.02506400  0.58651300  0.76445800  1
  Se  Se15  1  0.66959900  0.02906300  0.51884500  1
  O  O16  1  0.34974700  0.03408400  0.66277900  1
  O  O17  1  0.23674100  0.75621000  0.50345800  1
  O  O18  1  0.98034500  0.15739200  0.36983300  1
  O  O19  1  0.84974700  0.96591600  0.83722100  1
  O  O20  1  0.51965500  0.15739200  0.86983300  1
  O  O21  1  0.40500500  0.53809400  0.72766100  1
  O  O22  1  0.01965500  0.84260800  0.63016700  1
  O  O23  1  0.57925800  0.59748300  0.84601400  1
  O  O24  1  0.48034500  0.84260800  0.13016700  1
  O  O25  1  0.76228700  0.77587700  0.08569900  1
  O  O26  1  0.73771300  0.77587700  0.58569900  1
  O  O27  1  0.73674100  0.24379000  0.99654200  1
  O  O28  1  0.76325900  0.24379000  0.49654200  1
  O  O29  1  0.92074200  0.59748300  0.34601400  1
  O  O30  1  0.59499500  0.46190600  0.27233900  1
  O  O31  1  0.09499500  0.53809400  0.22766100  1
  O  O32  1  0.90500500  0.46190600  0.77233900  1
  O  O33  1  0.42074200  0.40251700  0.15398600  1
  O  O34  1  0.23771300  0.22412300  0.91430100  1
  O  O35  1  0.26325900  0.75621000  0.00345800  1
  O  O36  1  0.15025300  0.03408400  0.16277900  1
  O  O37  1  0.65025300  0.96591600  0.33722100  1
  O  O38  1  0.26228700  0.22412300  0.41430100  1
  O  O39  1  0.07925800  0.40251700  0.65398600  1
