# generated using pymatgen
data_Cs2CdBi2S5
_symmetry_space_group_name_H-M   'P 1'
_cell_length_a   4.23018700
_cell_length_b   16.09265200
_cell_length_c   18.76976400
_cell_angle_alpha   90.00000000
_cell_angle_beta   90.00000000
_cell_angle_gamma   90.00000000
_symmetry_Int_Tables_number   1
_chemical_formula_structural   Cs2CdBi2S5
_chemical_formula_sum   'Cs8 Cd4 Bi8 S20'
_cell_volume   1277.75031947
_cell_formula_units_Z   4
loop_
 _symmetry_equiv_pos_site_id
 _symmetry_equiv_pos_as_xyz
  1  'x, y, z'
loop_
 _atom_site_type_symbol
 _atom_site_label
 _atom_site_symmetry_multiplicity
 _atom_site_fract_x
 _atom_site_fract_y
 _atom_site_fract_z
 _atom_site_occupancy
  Cs  Cs0  1  0.75000000  0.99336600  0.62698100  1
  Cs  Cs1  1  0.75000000  0.53483900  0.38751400  1
  Cs  Cs2  1  0.25000000  0.46516100  0.61248600  1
  Cs  Cs3  1  0.25000000  0.96516100  0.88751400  1
  Cs  Cs4  1  0.25000000  0.00663400  0.37301900  1
  Cs  Cs5  1  0.25000000  0.50663400  0.12698100  1
  Cs  Cs6  1  0.75000000  0.49336600  0.87301900  1
  Cs  Cs7  1  0.75000000  0.03483900  0.11248600  1
  Cd  Cd8  1  0.25000000  0.71148700  0.85445600  1
  Cd  Cd9  1  0.75000000  0.28851300  0.14554400  1
  Cd  Cd10  1  0.75000000  0.78851300  0.35445600  1
  Cd  Cd11  1  0.25000000  0.21148700  0.64554400  1
  Bi  Bi12  1  0.25000000  0.25508000  0.98174200  1
  Bi  Bi13  1  0.75000000  0.20794300  0.80462200  1
  Bi  Bi14  1  0.25000000  0.29205700  0.30462200  1
  Bi  Bi15  1  0.25000000  0.75508000  0.51825800  1
  Bi  Bi16  1  0.75000000  0.24492000  0.48174200  1
  Bi  Bi17  1  0.25000000  0.79205700  0.19537800  1
  Bi  Bi18  1  0.75000000  0.70794300  0.69537800  1
  Bi  Bi19  1  0.75000000  0.74492000  0.01825800  1
  S  S20  1  0.25000000  0.63774100  0.97582600  1
  S  S21  1  0.25000000  0.13774100  0.52417400  1
  S  S22  1  0.75000000  0.63923800  0.56153200  1
  S  S23  1  0.75000000  0.18290600  0.35289400  1
  S  S24  1  0.25000000  0.36076200  0.43846800  1
  S  S25  1  0.75000000  0.36225900  0.02417400  1
  S  S26  1  0.25000000  0.81709400  0.64710600  1
  S  S27  1  0.25000000  0.70036100  0.33828200  1
  S  S28  1  0.75000000  0.89365900  0.24896800  1
  S  S29  1  0.75000000  0.39365900  0.25103200  1
  S  S30  1  0.25000000  0.10634100  0.75103200  1
  S  S31  1  0.75000000  0.79963900  0.83828200  1
  S  S32  1  0.25000000  0.86076200  0.06153200  1
  S  S33  1  0.25000000  0.60634100  0.74896800  1
  S  S34  1  0.75000000  0.29963900  0.66171800  1
  S  S35  1  0.75000000  0.13923800  0.93846800  1
  S  S36  1  0.75000000  0.68290600  0.14710600  1
  S  S37  1  0.25000000  0.20036100  0.16171800  1
  S  S38  1  0.25000000  0.31709400  0.85289400  1
  S  S39  1  0.75000000  0.86225900  0.47582600  1
