# generated using pymatgen
data_V4S9Br4
_symmetry_space_group_name_H-M   'P 1'
_cell_length_a   11.00248800
_cell_length_b   11.00248800
_cell_length_c   7.33443000
_cell_angle_alpha   90.00000000
_cell_angle_beta   90.00000000
_cell_angle_gamma   90.00000000
_symmetry_Int_Tables_number   1
_chemical_formula_structural   V4S9Br4
_chemical_formula_sum   'V8 S18 Br8'
_cell_volume   887.86753276
_cell_formula_units_Z   2
loop_
 _symmetry_equiv_pos_site_id
 _symmetry_equiv_pos_as_xyz
  1  'x, y, z'
loop_
 _atom_site_type_symbol
 _atom_site_label
 _atom_site_symmetry_multiplicity
 _atom_site_fract_x
 _atom_site_fract_y
 _atom_site_fract_z
 _atom_site_occupancy
  V  V0  1  0.63520100  0.13520100  0.37653300  1
  V  V1  1  0.13520100  0.63520100  0.62346700  1
  V  V2  1  0.36479900  0.86479900  0.37653300  1
  V  V3  1  0.13520100  0.36479900  0.62346700  1
  V  V4  1  0.86479900  0.63520100  0.62346700  1
  V  V5  1  0.63520100  0.86479900  0.37653300  1
  V  V6  1  0.36479900  0.13520100  0.37653300  1
  V  V7  1  0.86479900  0.36479900  0.62346700  1
  S  S8  1  0.00000000  0.28834700  0.84892900  1
  S  S9  1  0.80500300  0.00000000  0.38913400  1
  S  S10  1  0.19499700  0.00000000  0.38913400  1
  S  S11  1  0.69499700  0.50000000  0.61086600  1
  S  S12  1  0.78834700  0.50000000  0.84892900  1
  S  S13  1  0.71165300  0.00000000  0.15107100  1
  S  S14  1  0.50000000  0.00000000  0.52298700  1
  S  S15  1  0.28834700  0.00000000  0.15107100  1
  S  S16  1  0.50000000  0.30500300  0.38913400  1
  S  S17  1  0.30500300  0.50000000  0.61086600  1
  S  S18  1  0.50000000  0.78834700  0.15107100  1
  S  S19  1  0.00000000  0.80500300  0.61086600  1
  S  S20  1  0.00000000  0.50000000  0.47701300  1
  S  S21  1  0.50000000  0.69499700  0.38913400  1
  S  S22  1  0.50000000  0.21165300  0.15107100  1
  S  S23  1  0.00000000  0.19499700  0.61086600  1
  S  S24  1  0.21165300  0.50000000  0.84892900  1
  S  S25  1  0.00000000  0.71165300  0.84892900  1
  Br  Br26  1  0.30118800  0.80118800  0.71008900  1
  Br  Br27  1  0.80118800  0.69881200  0.28991100  1
  Br  Br28  1  0.69881200  0.19881200  0.71008900  1
  Br  Br29  1  0.80118800  0.30118800  0.28991100  1
  Br  Br30  1  0.19881200  0.30118800  0.28991100  1
  Br  Br31  1  0.30118800  0.19881200  0.71008900  1
  Br  Br32  1  0.69881200  0.80118800  0.71008900  1
  Br  Br33  1  0.19881200  0.69881200  0.28991100  1
