# generated using pymatgen
data_GdCuS2
_symmetry_space_group_name_H-M   'P 1'
_cell_length_a   7.06739000
_cell_length_b   6.44115100
_cell_length_c   6.77023292
_cell_angle_alpha   82.25370851
_cell_angle_beta   90.00000000
_cell_angle_gamma   90.00000000
_symmetry_Int_Tables_number   1
_chemical_formula_structural   GdCuS2
_chemical_formula_sum   'Gd4 Cu4 S8'
_cell_volume   305.38299832
_cell_formula_units_Z   4
loop_
 _symmetry_equiv_pos_site_id
 _symmetry_equiv_pos_as_xyz
  1  'x, y, z'
loop_
 _atom_site_type_symbol
 _atom_site_label
 _atom_site_symmetry_multiplicity
 _atom_site_fract_x
 _atom_site_fract_y
 _atom_site_fract_z
 _atom_site_occupancy
  Gd  Gd0  1  0.94983600  0.80627200  0.80246400  1
  Gd  Gd1  1  0.44983600  0.19372800  0.69753600  1
  Gd  Gd2  1  0.05016400  0.19372800  0.19753600  1
  Gd  Gd3  1  0.55016400  0.80627200  0.30246400  1
  Cu  Cu4  1  0.84426300  0.41294200  0.55861700  1
  Cu  Cu5  1  0.34426300  0.58705800  0.94138300  1
  Cu  Cu6  1  0.15573700  0.58705800  0.44138300  1
  Cu  Cu7  1  0.65573700  0.41294200  0.05861700  1
  S  S8  1  0.38389400  0.41192700  0.28030500  1
  S  S9  1  0.88389400  0.58807300  0.21969500  1
  S  S10  1  0.61610600  0.58807300  0.71969500  1
  S  S11  1  0.11610600  0.41192700  0.78030500  1
  S  S12  1  0.77289800  0.07699700  0.50193600  1
  S  S13  1  0.27289800  0.92300300  0.99806400  1
  S  S14  1  0.22710200  0.92300300  0.49806400  1
  S  S15  1  0.72710200  0.07699700  0.00193600  1
