# generated using pymatgen
data_RbSb2Au3S5
_symmetry_space_group_name_H-M   'P 1'
_cell_length_a   7.15820400
_cell_length_b   12.79682700
_cell_length_c   26.64498200
_cell_angle_alpha   90.00000000
_cell_angle_beta   90.00000000
_cell_angle_gamma   90.00000000
_symmetry_Int_Tables_number   1
_chemical_formula_structural   RbSb2Au3S5
_chemical_formula_sum   'Rb8 Sb16 Au24 S40'
_cell_volume   2440.74158720
_cell_formula_units_Z   8
loop_
 _symmetry_equiv_pos_site_id
 _symmetry_equiv_pos_as_xyz
  1  'x, y, z'
loop_
 _atom_site_type_symbol
 _atom_site_label
 _atom_site_symmetry_multiplicity
 _atom_site_fract_x
 _atom_site_fract_y
 _atom_site_fract_z
 _atom_site_occupancy
  Rb  Rb0  1  0.00000000  0.32221000  0.98346800  1
  Rb  Rb1  1  0.00000000  0.67779000  0.01653200  1
  Rb  Rb2  1  0.50000000  0.83858300  0.93071900  1
  Rb  Rb3  1  0.50000000  0.82221000  0.51653200  1
  Rb  Rb4  1  0.00000000  0.33858300  0.56928100  1
  Rb  Rb5  1  0.00000000  0.66141700  0.43071900  1
  Rb  Rb6  1  0.50000000  0.16141700  0.06928100  1
  Rb  Rb7  1  0.50000000  0.17779000  0.48346800  1
  Sb  Sb8  1  0.00000000  0.96716400  0.62537700  1
  Sb  Sb9  1  0.50000000  0.93295200  0.34587800  1
  Sb  Sb10  1  0.00000000  0.95240700  0.11634400  1
  Sb  Sb11  1  0.00000000  0.43295200  0.15412200  1
  Sb  Sb12  1  0.00000000  0.03283600  0.37462300  1
  Sb  Sb13  1  0.00000000  0.04759300  0.88365600  1
  Sb  Sb14  1  0.00000000  0.56704800  0.84587800  1
  Sb  Sb15  1  0.50000000  0.18204200  0.89554400  1
  Sb  Sb16  1  0.50000000  0.81795800  0.10445600  1
  Sb  Sb17  1  0.50000000  0.06704800  0.65412200  1
  Sb  Sb18  1  0.50000000  0.45240700  0.38365600  1
  Sb  Sb19  1  0.50000000  0.54759300  0.61634400  1
  Sb  Sb20  1  0.50000000  0.53283600  0.12537700  1
  Sb  Sb21  1  0.00000000  0.68204200  0.60445600  1
  Sb  Sb22  1  0.00000000  0.31795800  0.39554400  1
  Sb  Sb23  1  0.50000000  0.46716400  0.87462300  1
  Au  Au24  1  0.00000000  0.19362900  0.18088400  1
  Au  Au25  1  0.75086100  0.01418500  0.76661800  1
  Au  Au26  1  0.25346200  0.18569800  0.30619700  1
  Au  Au27  1  0.24653800  0.68569800  0.19380300  1
  Au  Au28  1  0.24913900  0.01418500  0.76661800  1
  Au  Au29  1  0.75086100  0.98581500  0.23338200  1
  Au  Au30  1  0.50000000  0.69362900  0.31911600  1
  Au  Au31  1  0.24913900  0.98581500  0.23338200  1
  Au  Au32  1  0.74653800  0.18569800  0.30619700  1
  Au  Au33  1  0.50000000  0.23137000  0.21276900  1
  Au  Au34  1  0.25346200  0.81430200  0.69380300  1
  Au  Au35  1  0.50000000  0.76863000  0.78723100  1
  Au  Au36  1  0.25086100  0.51418500  0.73338200  1
  Au  Au37  1  0.25086100  0.48581500  0.26661800  1
  Au  Au38  1  0.00000000  0.26863000  0.71276900  1
  Au  Au39  1  0.50000000  0.30637100  0.68088400  1
  Au  Au40  1  0.00000000  0.73137000  0.28723100  1
  Au  Au41  1  0.24653800  0.31430200  0.80619700  1
  Au  Au42  1  0.74653800  0.81430200  0.69380300  1
  Au  Au43  1  0.00000000  0.80637100  0.81911600  1
  Au  Au44  1  0.74913900  0.48581500  0.26661800  1
  Au  Au45  1  0.75346200  0.68569800  0.19380300  1
  Au  Au46  1  0.74913900  0.51418500  0.73338200  1
  Au  Au47  1  0.75346200  0.31430200  0.80619700  1
  S  S48  1  0.25047400  0.08556500  0.58918400  1
  S  S49  1  0.00000000  0.91357800  0.27877500  1
  S  S50  1  0.00000000  0.13936500  0.09721300  1
  S  S51  1  0.24985300  0.59379000  0.55347700  1
  S  S52  1  0.74985300  0.90621000  0.05347700  1
  S  S53  1  0.00000000  0.08642200  0.72122500  1
  S  S54  1  0.50000000  0.75873600  0.23716500  1
  S  S55  1  0.50000000  0.58642200  0.77877500  1
  S  S56  1  0.75047400  0.41443500  0.08918400  1
  S  S57  1  0.24952600  0.58556500  0.91081600  1
  S  S58  1  0.50000000  0.66198300  0.04958500  1
  S  S59  1  0.50000000  0.36063500  0.59721300  1
  S  S60  1  0.00000000  0.25873600  0.26283500  1
  S  S61  1  0.00000000  0.74126400  0.73716500  1
  S  S62  1  0.00000000  0.86063500  0.90278700  1
  S  S63  1  0.74952600  0.91443500  0.41081600  1
  S  S64  1  0.24952600  0.41443500  0.08918400  1
  S  S65  1  0.24985300  0.40621000  0.44652300  1
  S  S66  1  0.50000000  0.13496000  0.35820500  1
  S  S67  1  0.74952600  0.08556500  0.58918400  1
  S  S68  1  0.25014700  0.90621000  0.05347700  1
  S  S69  1  0.50000000  0.94471100  0.81238700  1
  S  S70  1  0.75014700  0.40621000  0.44652300  1
  S  S71  1  0.00000000  0.16198300  0.45041500  1
  S  S72  1  0.75047400  0.58556500  0.91081600  1
  S  S73  1  0.50000000  0.86504000  0.64179500  1
  S  S74  1  0.00000000  0.63496000  0.14179500  1
  S  S75  1  0.75014700  0.59379000  0.55347700  1
  S  S76  1  0.25014700  0.09379000  0.94652300  1
  S  S77  1  0.50000000  0.05528900  0.18761300  1
  S  S78  1  0.74985300  0.09379000  0.94652300  1
  S  S79  1  0.50000000  0.24126400  0.76283500  1
  S  S80  1  0.50000000  0.41357800  0.22122500  1
  S  S81  1  0.00000000  0.83801700  0.54958500  1
  S  S82  1  0.25047400  0.91443500  0.41081600  1
  S  S83  1  0.00000000  0.44471100  0.68761300  1
  S  S84  1  0.50000000  0.63936500  0.40278700  1
  S  S85  1  0.00000000  0.36504000  0.85820500  1
  S  S86  1  0.50000000  0.33801700  0.95041500  1
  S  S87  1  0.00000000  0.55528900  0.31238700  1
