# generated using pymatgen
data_Nd2As4O9
_symmetry_space_group_name_H-M   'P 1'
_cell_length_a   6.97710000
_cell_length_b   7.75732816
_cell_length_c   9.79664519
_cell_angle_alpha   96.24429438
_cell_angle_beta   103.43047179
_cell_angle_gamma   104.60455868
_symmetry_Int_Tables_number   1
_chemical_formula_structural   Nd2As4O9
_chemical_formula_sum   'Nd4 As8 O18'
_cell_volume   491.11591796
_cell_formula_units_Z   2
loop_
 _symmetry_equiv_pos_site_id
 _symmetry_equiv_pos_as_xyz
  1  'x, y, z'
loop_
 _atom_site_type_symbol
 _atom_site_label
 _atom_site_symmetry_multiplicity
 _atom_site_fract_x
 _atom_site_fract_y
 _atom_site_fract_z
 _atom_site_occupancy
  Nd  Nd0  1  0.74838900  0.94311700  0.12029700  1
  Nd  Nd1  1  0.77883300  0.46912700  0.09516600  1
  Nd  Nd2  1  0.25161100  0.05688300  0.87970300  1
  Nd  Nd3  1  0.22116700  0.53087300  0.90483400  1
  As  As4  1  0.82211800  0.22857200  0.43733700  1
  As  As5  1  0.31966100  0.23999700  0.57977300  1
  As  As6  1  0.68033900  0.76000300  0.42022700  1
  As  As7  1  0.17788200  0.77142800  0.56266300  1
  As  As8  1  0.69533700  0.64885600  0.79562300  1
  As  As9  1  0.30466300  0.35114400  0.20437700  1
  As  As10  1  0.24636200  0.92047400  0.21228600  1
  As  As11  1  0.75363800  0.07952600  0.78771400  1
  O  O12  1  0.86651300  0.89622100  0.85547900  1
  O  O13  1  0.12505800  0.45864000  0.12542100  1
  O  O14  1  0.63094200  0.66271200  0.24083300  1
  O  O15  1  0.65824400  0.12943500  0.93981800  1
  O  O16  1  0.10285800  0.32018400  0.49381300  1
  O  O17  1  0.87494200  0.54136000  0.87457900  1
  O  O18  1  0.00472100  0.22411700  0.82768200  1
  O  O19  1  0.13348700  0.10377900  0.14452100  1
  O  O20  1  0.59208400  0.66702400  0.94898100  1
  O  O21  1  0.81393200  0.98566500  0.38468600  1
  O  O22  1  0.36905800  0.33728800  0.75916700  1
  O  O23  1  0.99527900  0.77588300  0.17231800  1
  O  O24  1  0.22507500  0.74824300  0.74358400  1
  O  O25  1  0.40791600  0.33297600  0.05101900  1
  O  O26  1  0.18606800  0.01433500  0.61531400  1
  O  O27  1  0.34175600  0.87056500  0.06018200  1
  O  O28  1  0.77492500  0.25175700  0.25641600  1
  O  O29  1  0.89714200  0.67981600  0.50618700  1
