# generated using pymatgen
data_TaF5
_symmetry_space_group_name_H-M   'P 1'
_cell_length_a   8.88427775
_cell_length_b   8.88427775
_cell_length_c   5.25134645
_cell_angle_alpha   86.65662835
_cell_angle_beta   86.65662835
_cell_angle_gamma   112.49510201
_symmetry_Int_Tables_number   1
_chemical_formula_structural   TaF5
_chemical_formula_sum   'Ta4 F20'
_cell_volume   380.83764517
_cell_formula_units_Z   4
loop_
 _symmetry_equiv_pos_site_id
 _symmetry_equiv_pos_as_xyz
  1  'x, y, z'
loop_
 _atom_site_type_symbol
 _atom_site_label
 _atom_site_symmetry_multiplicity
 _atom_site_fract_x
 _atom_site_fract_y
 _atom_site_fract_z
 _atom_site_occupancy
  Ta  Ta0  1  0.79974300  0.20025700  0.50000000  1
  Ta  Ta1  1  0.74411000  0.74411000  0.24852300  1
  Ta  Ta2  1  0.25589000  0.25589000  0.75147700  1
  Ta  Ta3  1  0.20025700  0.79974300  0.50000000  1
  F  F4  1  0.26895000  0.45746400  0.84966900  1
  F  F5  1  0.33283700  0.33283700  0.40582900  1
  F  F6  1  0.45746400  0.26895000  0.84966900  1
  F  F7  1  0.02535400  0.21465100  0.62057800  1
  F  F8  1  0.66716300  0.66716300  0.59417100  1
  F  F9  1  0.54253600  0.73105000  0.15033100  1
  F  F10  1  0.86782200  0.86782200  0.95092100  1
  F  F11  1  0.97464600  0.78534900  0.37942200  1
  F  F12  1  0.16675500  0.59910400  0.37521700  1
  F  F13  1  0.92269700  0.28873900  0.18308500  1
  F  F14  1  0.59910400  0.16675500  0.37521700  1
  F  F15  1  0.83324500  0.40089600  0.62478300  1
  F  F16  1  0.78534900  0.97464600  0.37942200  1
  F  F17  1  0.71126100  0.07730300  0.81691500  1
  F  F18  1  0.21465100  0.02535400  0.62057800  1
  F  F19  1  0.40089600  0.83324500  0.62478300  1
  F  F20  1  0.13217800  0.13217800  0.04907900  1
  F  F21  1  0.73105000  0.54253600  0.15033100  1
  F  F22  1  0.28873900  0.92269700  0.18308500  1
  F  F23  1  0.07730300  0.71126100  0.81691500  1
