# generated using pymatgen
data_KNb(AgSe2)2
_symmetry_space_group_name_H-M   'P 1'
_cell_length_a   10.44310925
_cell_length_b   10.44310925
_cell_length_c   8.32436300
_cell_angle_alpha   90.00000000
_cell_angle_beta   90.00000000
_cell_angle_gamma   145.81601765
_symmetry_Int_Tables_number   1
_chemical_formula_structural   KNb(AgSe2)2
_chemical_formula_sum   'K2 Nb2 Ag4 Se8'
_cell_volume   510.07341630
_cell_formula_units_Z   2
loop_
 _symmetry_equiv_pos_site_id
 _symmetry_equiv_pos_as_xyz
  1  'x, y, z'
loop_
 _atom_site_type_symbol
 _atom_site_label
 _atom_site_symmetry_multiplicity
 _atom_site_fract_x
 _atom_site_fract_y
 _atom_site_fract_z
 _atom_site_occupancy
  K  K0  1  0.46716500  0.83123800  0.25000000  1
  K  K1  1  0.83123800  0.46716500  0.75000000  1
  Nb  Nb2  1  0.77038000  0.99571000  0.75000000  1
  Nb  Nb3  1  0.99571000  0.77038000  0.25000000  1
  Ag  Ag4  1  0.91875000  0.91875000  0.50000000  1
  Ag  Ag5  1  0.91875000  0.91875000  0.00000000  1
  Ag  Ag6  1  0.26831000  0.49749400  0.75000000  1
  Ag  Ag7  1  0.49749400  0.26831000  0.25000000  1
  Se  Se8  1  0.65945100  0.63972600  0.25000000  1
  Se  Se9  1  0.98891100  0.22614900  0.99612600  1
  Se  Se10  1  0.98891100  0.22614900  0.50387400  1
  Se  Se11  1  0.45192300  0.88064300  0.75000000  1
  Se  Se12  1  0.88064300  0.45192300  0.25000000  1
  Se  Se13  1  0.22614900  0.98891100  0.00387400  1
  Se  Se14  1  0.63972600  0.65945100  0.75000000  1
  Se  Se15  1  0.22614900  0.98891100  0.49612600  1
