# generated using pymatgen
data_TaPO5
_symmetry_space_group_name_H-M   'P 1'
_cell_length_a   5.40742500
_cell_length_b   6.77626800
_cell_length_c   11.42340123
_cell_angle_alpha   89.78392530
_cell_angle_beta   90.00000000
_cell_angle_gamma   90.00000000
_symmetry_Int_Tables_number   1
_chemical_formula_structural   TaPO5
_chemical_formula_sum   'Ta4 P4 O20'
_cell_volume   418.57513048
_cell_formula_units_Z   4
loop_
 _symmetry_equiv_pos_site_id
 _symmetry_equiv_pos_as_xyz
  1  'x, y, z'
loop_
 _atom_site_type_symbol
 _atom_site_label
 _atom_site_symmetry_multiplicity
 _atom_site_fract_x
 _atom_site_fract_y
 _atom_site_fract_z
 _atom_site_occupancy
  Ta  Ta0  1  0.75000000  0.16989400  0.43810000  1
  Ta  Ta1  1  0.25000000  0.83010600  0.56190000  1
  Ta  Ta2  1  0.75000000  0.33206100  0.93624600  1
  Ta  Ta3  1  0.25000000  0.66793900  0.06375400  1
  P  P4  1  0.75000000  0.97104300  0.15474300  1
  P  P5  1  0.25000000  0.02895700  0.84525700  1
  P  P6  1  0.75000000  0.52538700  0.65301500  1
  P  P7  1  0.25000000  0.47461300  0.34698500  1
  O  O8  1  0.00000000  0.50000000  0.00000000  1
  O  O9  1  0.50000000  0.50000000  0.00000000  1
  O  O10  1  0.50000000  0.00000000  0.50000000  1
  O  O11  1  0.00000000  0.00000000  0.50000000  1
  O  O12  1  0.01569000  0.14974500  0.86846900  1
  O  O13  1  0.51569000  0.85025500  0.13153100  1
  O  O14  1  0.98431000  0.85025500  0.13153100  1
  O  O15  1  0.48431000  0.14974500  0.86846900  1
  O  O16  1  0.48454000  0.35728000  0.37568900  1
  O  O17  1  0.98454000  0.64272000  0.62431100  1
  O  O18  1  0.51546000  0.64272000  0.62431100  1
  O  O19  1  0.01546000  0.35728000  0.37568900  1
  O  O20  1  0.75000000  0.47565200  0.78507400  1
  O  O21  1  0.25000000  0.52434800  0.21492600  1
  O  O22  1  0.75000000  0.03714800  0.28402000  1
  O  O23  1  0.25000000  0.96285200  0.71598000  1
  O  O24  1  0.75000000  0.32947000  0.58461800  1
  O  O25  1  0.25000000  0.67053000  0.41538200  1
  O  O26  1  0.75000000  0.15878500  0.07749200  1
  O  O27  1  0.25000000  0.84121500  0.92250800  1
