# generated using pymatgen
data_CaTaF7
_symmetry_space_group_name_H-M   'P 1'
_cell_length_a   11.79176900
_cell_length_b   9.98607500
_cell_length_c   13.64818858
_cell_angle_alpha   89.24702026
_cell_angle_beta   90.00000000
_cell_angle_gamma   90.00000000
_symmetry_Int_Tables_number   1
_chemical_formula_structural   CaTaF7
_chemical_formula_sum   'Ca12 Ta12 F84'
_cell_volume   1606.98305033
_cell_formula_units_Z   12
loop_
 _symmetry_equiv_pos_site_id
 _symmetry_equiv_pos_as_xyz
  1  'x, y, z'
loop_
 _atom_site_type_symbol
 _atom_site_label
 _atom_site_symmetry_multiplicity
 _atom_site_fract_x
 _atom_site_fract_y
 _atom_site_fract_z
 _atom_site_occupancy
  Ca  Ca0  1  0.60069000  0.73708600  0.03813000  1
  Ca  Ca1  1  0.40511700  0.57795100  0.33481400  1
  Ca  Ca2  1  0.39931000  0.26291400  0.96187000  1
  Ca  Ca3  1  0.08281400  0.45565600  0.67924000  1
  Ca  Ca4  1  0.59488300  0.42204900  0.66518600  1
  Ca  Ca5  1  0.91718600  0.54434400  0.32076000  1
  Ca  Ca6  1  0.89931000  0.23708600  0.03813000  1
  Ca  Ca7  1  0.58281400  0.04434400  0.32076000  1
  Ca  Ca8  1  0.41718600  0.95565600  0.67924000  1
  Ca  Ca9  1  0.10069000  0.76291400  0.96187000  1
  Ca  Ca10  1  0.09488300  0.07795100  0.33481400  1
  Ca  Ca11  1  0.90511700  0.92204900  0.66518600  1
  Ta  Ta12  1  0.14837500  0.41981300  0.15488000  1
  Ta  Ta13  1  0.12055500  0.08942200  0.82312900  1
  Ta  Ta14  1  0.62055500  0.41057800  0.17687100  1
  Ta  Ta15  1  0.37944500  0.58942200  0.82312900  1
  Ta  Ta16  1  0.64702900  0.75926800  0.48587600  1
  Ta  Ta17  1  0.14702900  0.74073200  0.51412400  1
  Ta  Ta18  1  0.85162500  0.58018700  0.84512000  1
  Ta  Ta19  1  0.85297100  0.25926800  0.48587600  1
  Ta  Ta20  1  0.64837500  0.08018700  0.84512000  1
  Ta  Ta21  1  0.87944500  0.91057800  0.17687100  1
  Ta  Ta22  1  0.35162500  0.91981300  0.15488000  1
  Ta  Ta23  1  0.35297100  0.24073200  0.51412400  1
  F  F24  1  0.52219800  0.82148600  0.56861100  1
  F  F25  1  0.55183900  0.81591100  0.36784900  1
  F  F26  1  0.74986200  0.81032600  0.12313600  1
  F  F27  1  0.28955000  0.50150500  0.20688200  1
  F  F28  1  0.25940400  0.79510400  0.60862600  1
  F  F29  1  0.95853500  0.09306000  0.18747900  1
  F  F30  1  0.35357400  0.76979000  0.24584400  1
  F  F31  1  0.91658300  0.69010700  0.95314400  1
  F  F32  1  0.02456500  0.58335300  0.83204100  1
  F  F33  1  0.71797300  0.31402000  0.56341900  1
  F  F34  1  0.58341700  0.19010700  0.95314400  1
  F  F35  1  0.97780200  0.32148600  0.56861100  1
  F  F36  1  0.27569400  0.32654500  0.09167500  1
  F  F37  1  0.94601800  0.10320100  0.44426000  1
  F  F38  1  0.75940400  0.70489600  0.39137400  1
  F  F39  1  0.60439200  0.96755800  0.73097200  1
  F  F40  1  0.04146500  0.90694000  0.81252100  1
  F  F41  1  0.10439200  0.53244200  0.26902800  1
  F  F42  1  0.44816100  0.18408900  0.63215100  1
  F  F43  1  0.33261900  0.38145600  0.41181200  1
  F  F44  1  0.09233700  0.28229900  0.79294300  1
  F  F45  1  0.55398200  0.60320100  0.44426000  1
  F  F46  1  0.85357400  0.73021000  0.75415600  1
  F  F47  1  0.78955000  0.99849500  0.79311800  1
  F  F48  1  0.31597400  0.47056700  0.92650700  1
  F  F49  1  0.16738100  0.88145600  0.41181200  1
  F  F50  1  0.86881300  0.42919300  0.93476600  1
  F  F51  1  0.97543500  0.41664700  0.16795900  1
  F  F52  1  0.72430600  0.67345500  0.90832500  1
  F  F53  1  0.81597400  0.02943300  0.07349300  1
  F  F54  1  0.99522700  0.88004900  0.07875100  1
  F  F55  1  0.21045000  0.00150500  0.20688200  1
  F  F56  1  0.89560800  0.46755800  0.73097200  1
  F  F57  1  0.23810500  0.02323600  0.73585500  1
  F  F58  1  0.36881300  0.07080700  0.06523400  1
  F  F59  1  0.52456500  0.91664700  0.16795900  1
  F  F60  1  0.02219800  0.67851400  0.43138900  1
  F  F61  1  0.94816100  0.31591100  0.36784900  1
  F  F62  1  0.05398200  0.89679900  0.55574000  1
  F  F63  1  0.00477300  0.11995100  0.92124900  1
  F  F64  1  0.83261900  0.11854400  0.58818800  1
  F  F65  1  0.13118700  0.57080700  0.06523400  1
  F  F66  1  0.71045000  0.49849500  0.79311800  1
  F  F67  1  0.26189500  0.52323600  0.73585500  1
  F  F68  1  0.83380300  0.45572100  0.46337900  1
  F  F69  1  0.59233700  0.21770100  0.20705700  1
  F  F70  1  0.14642600  0.26979000  0.24584400  1
  F  F71  1  0.18402600  0.97056700  0.92650700  1
  F  F72  1  0.05183900  0.68408900  0.63215100  1
  F  F73  1  0.64642600  0.23021000  0.75415600  1
  F  F74  1  0.16619700  0.54427900  0.53662100  1
  F  F75  1  0.24059600  0.29510400  0.60862600  1
  F  F76  1  0.28202700  0.68598000  0.43658100  1
  F  F77  1  0.63118700  0.92919300  0.93476600  1
  F  F78  1  0.66619700  0.95572100  0.46337900  1
  F  F79  1  0.08341700  0.30989300  0.04685600  1
  F  F80  1  0.24986200  0.68967400  0.87686400  1
  F  F81  1  0.25013800  0.18967400  0.87686400  1
  F  F82  1  0.54146500  0.59306000  0.18747900  1
  F  F83  1  0.75013800  0.31032600  0.12313600  1
  F  F84  1  0.44601800  0.39679900  0.55574000  1
  F  F85  1  0.50477300  0.38004900  0.07875100  1
  F  F86  1  0.41658300  0.80989300  0.04685600  1
  F  F87  1  0.47780200  0.17851400  0.43138900  1
  F  F88  1  0.47543500  0.08335300  0.83204100  1
  F  F89  1  0.21797300  0.18598000  0.43658100  1
  F  F90  1  0.73810500  0.47676400  0.26414500  1
  F  F91  1  0.66738100  0.61854400  0.58818800  1
  F  F92  1  0.45853500  0.40694000  0.81252100  1
  F  F93  1  0.49522700  0.61995100  0.92124900  1
  F  F94  1  0.47186100  0.59457700  0.70344600  1
  F  F95  1  0.90766300  0.71770100  0.20705700  1
  F  F96  1  0.22430600  0.82654500  0.09167500  1
  F  F97  1  0.97186100  0.90542300  0.29655400  1
  F  F98  1  0.40766300  0.78229900  0.79294300  1
  F  F99  1  0.68402600  0.52943300  0.07349300  1
  F  F100  1  0.52813900  0.40542300  0.29655400  1
  F  F101  1  0.33380300  0.04427900  0.53662100  1
  F  F102  1  0.78202700  0.81402000  0.56341900  1
  F  F103  1  0.76189500  0.97676400  0.26414500  1
  F  F104  1  0.77569400  0.17345500  0.90832500  1
  F  F105  1  0.74059600  0.20489600  0.39137400  1
  F  F106  1  0.39560800  0.03244200  0.26902800  1
  F  F107  1  0.02813900  0.09457700  0.70344600  1
