# generated using pymatgen
data_La2GeI2
_symmetry_space_group_name_H-M   'P 1'
_cell_length_a   4.49886356
_cell_length_b   4.49886356
_cell_length_c   11.03762400
_cell_angle_alpha   90.00000000
_cell_angle_beta   90.00000000
_cell_angle_gamma   119.99999348
_symmetry_Int_Tables_number   1
_chemical_formula_structural   La2GeI2
_chemical_formula_sum   'La2 Ge1 I2'
_cell_volume   193.46922841
_cell_formula_units_Z   1
loop_
 _symmetry_equiv_pos_site_id
 _symmetry_equiv_pos_as_xyz
  1  'x, y, z'
loop_
 _atom_site_type_symbol
 _atom_site_label
 _atom_site_symmetry_multiplicity
 _atom_site_fract_x
 _atom_site_fract_y
 _atom_site_fract_z
 _atom_site_occupancy
  La  La0  1  0.66666700  0.33333300  0.65299500  1
  La  La1  1  0.33333300  0.66666700  0.34700500  1
  Ge  Ge2  1  0.00000000  0.00000000  0.50000000  1
  I  I3  1  0.33333300  0.66666700  0.83932300  1
  I  I4  1  0.66666700  0.33333300  0.16067700  1
