# generated using pymatgen
data_GaCl2
_symmetry_space_group_name_H-M   'P 1'
_cell_length_a   7.20295500
_cell_length_b   9.88494900
_cell_length_c   9.91830700
_cell_angle_alpha   90.00000000
_cell_angle_beta   90.00000000
_cell_angle_gamma   90.00000000
_symmetry_Int_Tables_number   1
_chemical_formula_structural   GaCl2
_chemical_formula_sum   'Ga8 Cl16'
_cell_volume   706.19181779
_cell_formula_units_Z   8
loop_
 _symmetry_equiv_pos_site_id
 _symmetry_equiv_pos_as_xyz
  1  'x, y, z'
loop_
 _atom_site_type_symbol
 _atom_site_label
 _atom_site_symmetry_multiplicity
 _atom_site_fract_x
 _atom_site_fract_y
 _atom_site_fract_z
 _atom_site_occupancy
  Ga  Ga0  1  0.75000000  0.00000000  0.81929700  1
  Ga  Ga1  1  0.25000000  0.50000000  0.31929700  1
  Ga  Ga2  1  0.82665800  0.75000000  0.25000000  1
  Ga  Ga3  1  0.17334200  0.25000000  0.75000000  1
  Ga  Ga4  1  0.25000000  0.00000000  0.18070300  1
  Ga  Ga5  1  0.67334200  0.25000000  0.25000000  1
  Ga  Ga6  1  0.75000000  0.50000000  0.68070300  1
  Ga  Ga7  1  0.32665800  0.75000000  0.75000000  1
  Cl  Cl8  1  0.33539600  0.32504000  0.44270500  1
  Cl  Cl9  1  0.49427600  0.54039500  0.18984600  1
  Cl  Cl10  1  0.66460400  0.67496000  0.55729500  1
  Cl  Cl11  1  0.33539600  0.17496000  0.05729500  1
  Cl  Cl12  1  0.00572400  0.04039500  0.31015400  1
  Cl  Cl13  1  0.66460400  0.82504000  0.94270500  1
  Cl  Cl14  1  0.83539600  0.32504000  0.55729500  1
  Cl  Cl15  1  0.99427600  0.54039500  0.81015400  1
  Cl  Cl16  1  0.16460400  0.67496000  0.44270500  1
  Cl  Cl17  1  0.00572400  0.45960500  0.18984600  1
  Cl  Cl18  1  0.49427600  0.95960500  0.31015400  1
  Cl  Cl19  1  0.83539600  0.17496000  0.94270500  1
  Cl  Cl20  1  0.16460400  0.82504000  0.05729500  1
  Cl  Cl21  1  0.99427600  0.95960500  0.68984600  1
  Cl  Cl22  1  0.50572400  0.45960500  0.81015400  1
  Cl  Cl23  1  0.50572400  0.04039500  0.68984600  1
