# generated using pymatgen
data_Cs3Cu2Cl5
_symmetry_space_group_name_H-M   'P 1'
_cell_length_a   9.47826300
_cell_length_b   10.63628800
_cell_length_c   13.30294600
_cell_angle_alpha   90.00000000
_cell_angle_beta   90.00000000
_cell_angle_gamma   90.00000000
_symmetry_Int_Tables_number   1
_chemical_formula_structural   Cs3Cu2Cl5
_chemical_formula_sum   'Cs12 Cu8 Cl20'
_cell_volume   1341.11701228
_cell_formula_units_Z   4
loop_
 _symmetry_equiv_pos_site_id
 _symmetry_equiv_pos_as_xyz
  1  'x, y, z'
loop_
 _atom_site_type_symbol
 _atom_site_label
 _atom_site_symmetry_multiplicity
 _atom_site_fract_x
 _atom_site_fract_y
 _atom_site_fract_z
 _atom_site_occupancy
  Cs  Cs0  1  0.53866300  0.51318200  0.82104000  1
  Cs  Cs1  1  0.46133700  0.48681800  0.17896000  1
  Cs  Cs2  1  0.96133700  0.01318200  0.32104000  1
  Cs  Cs3  1  0.03866300  0.98681800  0.67896000  1
  Cs  Cs4  1  0.39265200  0.75000000  0.45401400  1
  Cs  Cs5  1  0.03866300  0.51318200  0.67896000  1
  Cs  Cs6  1  0.60734800  0.25000000  0.54598600  1
  Cs  Cs7  1  0.46133700  0.01318200  0.17896000  1
  Cs  Cs8  1  0.89265200  0.75000000  0.04598600  1
  Cs  Cs9  1  0.96133700  0.48681800  0.32104000  1
  Cs  Cs10  1  0.10734800  0.25000000  0.95401400  1
  Cs  Cs11  1  0.53866300  0.98681800  0.82104000  1
  Cu  Cu12  1  0.26485800  0.25000000  0.36276100  1
  Cu  Cu13  1  0.29227500  0.75000000  0.04896600  1
  Cu  Cu14  1  0.23514200  0.75000000  0.86276100  1
  Cu  Cu15  1  0.79227500  0.75000000  0.45103400  1
  Cu  Cu16  1  0.73514200  0.75000000  0.63723900  1
  Cu  Cu17  1  0.70772500  0.25000000  0.95103400  1
  Cu  Cu18  1  0.76485800  0.25000000  0.13723900  1
  Cu  Cu19  1  0.20772500  0.25000000  0.54896600  1
  Cl  Cl20  1  0.67924600  0.25000000  0.29313900  1
  Cl  Cl21  1  0.81471300  0.06684100  0.05908900  1
  Cl  Cl22  1  0.80305700  0.25000000  0.79729900  1
  Cl  Cl23  1  0.82075400  0.75000000  0.79313900  1
  Cl  Cl24  1  0.02346400  0.75000000  0.48917600  1
  Cl  Cl25  1  0.69694300  0.75000000  0.29729900  1
  Cl  Cl26  1  0.68528700  0.56684100  0.55908900  1
  Cl  Cl27  1  0.17924600  0.25000000  0.20686100  1
  Cl  Cl28  1  0.32075400  0.75000000  0.70686100  1
  Cl  Cl29  1  0.19694300  0.75000000  0.20270100  1
  Cl  Cl30  1  0.31471300  0.43315900  0.44091100  1
  Cl  Cl31  1  0.47653600  0.25000000  0.98917600  1
  Cl  Cl32  1  0.18528700  0.93315900  0.94091100  1
  Cl  Cl33  1  0.81471300  0.43315900  0.05908900  1
  Cl  Cl34  1  0.31471300  0.06684100  0.44091100  1
  Cl  Cl35  1  0.52346400  0.75000000  0.01082400  1
  Cl  Cl36  1  0.97653600  0.25000000  0.51082400  1
  Cl  Cl37  1  0.18528700  0.56684100  0.94091100  1
  Cl  Cl38  1  0.68528700  0.93315900  0.55908900  1
  Cl  Cl39  1  0.30305700  0.25000000  0.70270100  1
