# generated using pymatgen
data_K2Si4O9
_symmetry_space_group_name_H-M   'P 1'
_cell_length_a   5.00140400
_cell_length_b   8.51696508
_cell_length_c   12.32435969
_cell_angle_alpha   70.84218263
_cell_angle_beta   89.58719434
_cell_angle_gamma   89.00583702
_symmetry_Int_Tables_number   1
_chemical_formula_structural   K2Si4O9
_chemical_formula_sum   'K4 Si8 O18'
_cell_volume   495.82858133
_cell_formula_units_Z   2
loop_
 _symmetry_equiv_pos_site_id
 _symmetry_equiv_pos_as_xyz
  1  'x, y, z'
loop_
 _atom_site_type_symbol
 _atom_site_label
 _atom_site_symmetry_multiplicity
 _atom_site_fract_x
 _atom_site_fract_y
 _atom_site_fract_z
 _atom_site_occupancy
  K  K0  1  0.74405000  0.58862300  0.34895800  1
  K  K1  1  0.25595000  0.41137700  0.65104200  1
  K  K2  1  0.23641200  0.93503300  0.13858200  1
  K  K3  1  0.76358800  0.06496700  0.86141800  1
  Si  Si4  1  0.71696300  0.18219100  0.55231200  1
  Si  Si5  1  0.20735000  0.44121400  0.14565900  1
  Si  Si6  1  0.21277800  0.19762300  0.39877200  1
  Si  Si7  1  0.28303700  0.81780900  0.44768800  1
  Si  Si8  1  0.78722200  0.80237700  0.60122800  1
  Si  Si9  1  0.79265000  0.55878600  0.85434100  1
  Si  Si10  1  0.70822000  0.66821900  0.06358400  1
  Si  Si11  1  0.29178000  0.33178100  0.93641600  1
  O  O12  1  0.71634200  0.65454000  0.71998200  1
  O  O13  1  0.90516600  0.22649500  0.43420600  1
  O  O14  1  0.39787700  0.60163500  0.09554200  1
  O  O15  1  0.28365800  0.34546000  0.28001800  1
  O  O16  1  0.40669900  0.21260900  0.50050200  1
  O  O17  1  0.09483400  0.77350500  0.56579400  1
  O  O18  1  0.59330100  0.78739100  0.49949800  1
  O  O19  1  0.75653300  0.68987100  0.92541400  1
  O  O20  1  0.60212300  0.39836500  0.90445800  1
  O  O21  1  0.24346700  0.31012900  0.07458600  1
  O  O22  1  0.89770000  0.50718800  0.14026200  1
  O  O23  1  0.24769500  0.01983000  0.37680700  1
  O  O24  1  0.10230000  0.49281200  0.85973800  1
  O  O25  1  0.76808300  0.29274100  0.63048100  1
  O  O26  1  0.75230500  0.98017000  0.62319300  1
  O  O27  1  0.23191700  0.70725900  0.36951900  1
  O  O28  1  0.24785700  0.16615800  0.90842000  1
  O  O29  1  0.75214300  0.83384200  0.09158000  1
