# generated using pymatgen
data_Dy(PPt4)2
_symmetry_space_group_name_H-M   'P 1'
_cell_length_a   6.34040367
_cell_length_b   6.34040367
_cell_length_c   9.40935155
_cell_angle_alpha   54.83658748
_cell_angle_beta   54.83658748
_cell_angle_gamma   37.34576269
_symmetry_Int_Tables_number   1
_chemical_formula_structural   Dy(PPt4)2
_chemical_formula_sum   'Dy1 P2 Pt8'
_cell_volume   182.19510705
_cell_formula_units_Z   1
loop_
 _symmetry_equiv_pos_site_id
 _symmetry_equiv_pos_as_xyz
  1  'x, y, z'
loop_
 _atom_site_type_symbol
 _atom_site_label
 _atom_site_symmetry_multiplicity
 _atom_site_fract_x
 _atom_site_fract_y
 _atom_site_fract_z
 _atom_site_occupancy
  Dy  Dy0  1  0.50000000  0.50000000  0.50000000  1
  P  P1  1  0.05836400  0.05836400  0.70944000  1
  P  P2  1  0.94163600  0.94163600  0.29056000  1
  Pt  Pt3  1  0.22363000  0.22363000  0.41370700  1
  Pt  Pt4  1  0.82301100  0.82301100  0.84413300  1
  Pt  Pt5  1  0.17698900  0.17698900  0.15586700  1
  Pt  Pt6  1  0.16633100  0.16633100  0.84790100  1
  Pt  Pt7  1  0.47496100  0.47496100  0.86890300  1
  Pt  Pt8  1  0.52503900  0.52503900  0.13109700  1
  Pt  Pt9  1  0.77637000  0.77637000  0.58629300  1
  Pt  Pt10  1  0.83366900  0.83366900  0.15209900  1
