# generated using pymatgen
data_Sr2CuBrO2
_symmetry_space_group_name_H-M   'P 1'
_cell_length_a   9.83491863
_cell_length_b   9.83491863
_cell_length_c   9.83491884
_cell_angle_alpha   23.91360152
_cell_angle_beta   23.91360152
_cell_angle_gamma   23.91360392
_symmetry_Int_Tables_number   1
_chemical_formula_structural   Sr2CuBrO2
_chemical_formula_sum   'Sr2 Cu1 Br1 O2'
_cell_volume   137.33377498
_cell_formula_units_Z   1
loop_
 _symmetry_equiv_pos_site_id
 _symmetry_equiv_pos_as_xyz
  1  'x, y, z'
loop_
 _atom_site_type_symbol
 _atom_site_label
 _atom_site_symmetry_multiplicity
 _atom_site_fract_x
 _atom_site_fract_y
 _atom_site_fract_z
 _atom_site_occupancy
  Sr  Sr0  1  0.25299900  0.25299900  0.25299900  1
  Sr  Sr1  1  0.74700100  0.74700100  0.74700100  1
  Cu  Cu2  1  0.50000000  0.50000000  0.50000000  1
  Br  Br3  1  0.00000000  0.00000000  0.00000000  1
  O  O4  1  0.43638800  0.43638800  0.43638800  1
  O  O5  1  0.56361200  0.56361200  0.56361200  1
