# generated using pymatgen
data_K2NaH5(CO4)2
_symmetry_space_group_name_H-M   'P 1'
_cell_length_a   8.00471500
_cell_length_b   9.42343500
_cell_length_c   11.61246600
_cell_angle_alpha   90.00000000
_cell_angle_beta   90.00000000
_cell_angle_gamma   90.00000000
_symmetry_Int_Tables_number   1
_chemical_formula_structural   K2NaH5(CO4)2
_chemical_formula_sum   'K8 Na4 H20 C8 O32'
_cell_volume   875.95050756
_cell_formula_units_Z   4
loop_
 _symmetry_equiv_pos_site_id
 _symmetry_equiv_pos_as_xyz
  1  'x, y, z'
loop_
 _atom_site_type_symbol
 _atom_site_label
 _atom_site_symmetry_multiplicity
 _atom_site_fract_x
 _atom_site_fract_y
 _atom_site_fract_z
 _atom_site_occupancy
  K  K0  1  0.48837800  0.79923800  0.11741400  1
  K  K1  1  0.98837800  0.20076200  0.88258600  1
  K  K2  1  0.01162200  0.29923800  0.38258600  1
  K  K3  1  0.51162200  0.70076200  0.61741400  1
  K  K4  1  0.51162200  0.20076200  0.88258600  1
  K  K5  1  0.01162200  0.79923800  0.11741400  1
  K  K6  1  0.98837800  0.70076200  0.61741400  1
  K  K7  1  0.48837800  0.29923800  0.38258600  1
  Na  Na8  1  0.75000000  0.96068500  0.33640800  1
  Na  Na9  1  0.25000000  0.03931500  0.66359200  1
  Na  Na10  1  0.75000000  0.46068500  0.16359200  1
  Na  Na11  1  0.25000000  0.53931500  0.83640800  1
  H  H12  1  0.75000000  0.49748300  0.46742600  1
  H  H13  1  0.25000000  0.50251700  0.53257400  1
  H  H14  1  0.75000000  0.99748300  0.03257400  1
  H  H15  1  0.25000000  0.00251700  0.96742600  1
  H  H16  1  0.88868000  0.60038400  0.88046400  1
  H  H17  1  0.38868000  0.39961600  0.11953600  1
  H  H18  1  0.61132000  0.10038400  0.61953600  1
  H  H19  1  0.11132000  0.89961600  0.38046400  1
  H  H20  1  0.11132000  0.39961600  0.11953600  1
  H  H21  1  0.61132000  0.60038400  0.88046400  1
  H  H22  1  0.38868000  0.89961600  0.38046400  1
  H  H23  1  0.88868000  0.10038400  0.61953600  1
  H  H24  1  0.87982000  0.46503300  0.80062900  1
  H  H25  1  0.37982000  0.53496700  0.19937100  1
  H  H26  1  0.62018000  0.96503300  0.69937100  1
  H  H27  1  0.12018000  0.03496700  0.30062900  1
  H  H28  1  0.12018000  0.53496700  0.19937100  1
  H  H29  1  0.62018000  0.46503300  0.80062900  1
  H  H30  1  0.37982000  0.03496700  0.30062900  1
  H  H31  1  0.87982000  0.96503300  0.69937100  1
  C  C32  1  0.75000000  0.66185000  0.35673600  1
  C  C33  1  0.25000000  0.33815000  0.64326400  1
  C  C34  1  0.75000000  0.16185000  0.14326400  1
  C  C35  1  0.25000000  0.83815000  0.85673600  1
  C  C36  1  0.75000000  0.34709200  0.62897600  1
  C  C37  1  0.25000000  0.65290800  0.37102400  1
  C  C38  1  0.75000000  0.84709200  0.87102400  1
  C  C39  1  0.25000000  0.15290800  0.12897600  1
  O  O40  1  0.75000000  0.74472400  0.44322500  1
  O  O41  1  0.25000000  0.25527600  0.55677500  1
  O  O42  1  0.75000000  0.24472400  0.05677500  1
  O  O43  1  0.25000000  0.75527600  0.94322500  1
  O  O44  1  0.75000000  0.70030900  0.25142600  1
  O  O45  1  0.25000000  0.29969100  0.74857400  1
  O  O46  1  0.75000000  0.20030900  0.24857400  1
  O  O47  1  0.25000000  0.79969100  0.75142600  1
  O  O48  1  0.75000000  0.51862700  0.37571200  1
  O  O49  1  0.25000000  0.48137300  0.62428800  1
  O  O50  1  0.75000000  0.01862700  0.12428800  1
  O  O51  1  0.25000000  0.98137300  0.87571200  1
  O  O52  1  0.75000000  0.47586900  0.58653200  1
  O  O53  1  0.25000000  0.52413100  0.41346800  1
  O  O54  1  0.75000000  0.97586900  0.91346800  1
  O  O55  1  0.25000000  0.02413100  0.08653200  1
  O  O56  1  0.75000000  0.23779600  0.56087000  1
  O  O57  1  0.25000000  0.76220400  0.43913000  1
  O  O58  1  0.75000000  0.73779600  0.93913000  1
  O  O59  1  0.25000000  0.26220400  0.06087000  1
  O  O60  1  0.75000000  0.33269700  0.74048700  1
  O  O61  1  0.25000000  0.66730300  0.25951300  1
  O  O62  1  0.75000000  0.83269700  0.75951300  1
  O  O63  1  0.25000000  0.16730300  0.24048700  1
  O  O64  1  0.95943100  0.52750100  0.84263300  1
  O  O65  1  0.45943100  0.47249900  0.15736700  1
  O  O66  1  0.54056900  0.02750100  0.65736700  1
  O  O67  1  0.04056900  0.97249900  0.34263300  1
  O  O68  1  0.04056900  0.47249900  0.15736700  1
  O  O69  1  0.54056900  0.52750100  0.84263300  1
  O  O70  1  0.45943100  0.97249900  0.34263300  1
  O  O71  1  0.95943100  0.02750100  0.65736700  1
