# generated using pymatgen
data_V2Hg(P2O7)2
_symmetry_space_group_name_H-M   'P 1'
_cell_length_a   4.95188200
_cell_length_b   6.97298622
_cell_length_c   8.28905354
_cell_angle_alpha   92.88507706
_cell_angle_beta   94.02115381
_cell_angle_gamma   105.10991219
_symmetry_Int_Tables_number   1
_chemical_formula_structural   V2Hg(P2O7)2
_chemical_formula_sum   'V2 Hg1 P4 O14'
_cell_volume   274.94021473
_cell_formula_units_Z   1
loop_
 _symmetry_equiv_pos_site_id
 _symmetry_equiv_pos_as_xyz
  1  'x, y, z'
loop_
 _atom_site_type_symbol
 _atom_site_label
 _atom_site_symmetry_multiplicity
 _atom_site_fract_x
 _atom_site_fract_y
 _atom_site_fract_z
 _atom_site_occupancy
  V  V0  1  0.50000000  0.50000000  0.50000000  1
  V  V1  1  0.00000000  0.00000000  0.00000000  1
  Hg  Hg2  1  0.00000000  0.00000000  0.50000000  1
  P  P3  1  0.01349500  0.63663100  0.25692900  1
  P  P4  1  0.98650500  0.36336900  0.74307100  1
  P  P5  1  0.61808400  0.24019700  0.19525400  1
  P  P6  1  0.38191600  0.75980300  0.80474600  1
  O  O7  1  0.78022000  0.46552300  0.15319700  1
  O  O8  1  0.21978000  0.53447700  0.84680300  1
  O  O9  1  0.53432900  0.25787300  0.37110100  1
  O  O10  1  0.46567100  0.74212700  0.62889900  1
  O  O11  1  0.24476200  0.55030400  0.32300700  1
  O  O12  1  0.75523800  0.44969600  0.67699300  1
  O  O13  1  0.84891100  0.70011200  0.40195500  1
  O  O14  1  0.17297400  0.88780700  0.80922500  1
  O  O15  1  0.82702600  0.11219300  0.19077500  1
  O  O16  1  0.88912000  0.19166200  0.84522100  1
  O  O17  1  0.11088000  0.80833800  0.15477900  1
  O  O18  1  0.62615100  0.81392600  0.93301900  1
  O  O19  1  0.37384900  0.18607400  0.06698100  1
  O  O20  1  0.15108900  0.29988800  0.59804500  1
