# generated using pymatgen
data_Nd4GeO8
_symmetry_space_group_name_H-M   'P 1'
_cell_length_a   5.78789800
_cell_length_b   7.52304200
_cell_length_c   18.26279500
_cell_angle_alpha   90.00000000
_cell_angle_beta   90.00000000
_cell_angle_gamma   90.00000000
_symmetry_Int_Tables_number   1
_chemical_formula_structural   Nd4GeO8
_chemical_formula_sum   'Nd16 Ge4 O32'
_cell_volume   795.20957292
_cell_formula_units_Z   4
loop_
 _symmetry_equiv_pos_site_id
 _symmetry_equiv_pos_as_xyz
  1  'x, y, z'
loop_
 _atom_site_type_symbol
 _atom_site_label
 _atom_site_symmetry_multiplicity
 _atom_site_fract_x
 _atom_site_fract_y
 _atom_site_fract_z
 _atom_site_occupancy
  Nd  Nd0  1  0.01971500  0.49080600  0.39775000  1
  Nd  Nd1  1  0.45864700  0.75000000  0.71702400  1
  Nd  Nd2  1  0.47941500  0.75000000  0.51429300  1
  Nd  Nd3  1  0.51971500  0.99080600  0.10225000  1
  Nd  Nd4  1  0.95864700  0.25000000  0.78297600  1
  Nd  Nd5  1  0.98028500  0.50919400  0.60225000  1
  Nd  Nd6  1  0.48028500  0.00919400  0.89775000  1
  Nd  Nd7  1  0.98028500  0.99080600  0.60225000  1
  Nd  Nd8  1  0.97941500  0.25000000  0.98570700  1
  Nd  Nd9  1  0.48028500  0.49080600  0.89775000  1
  Nd  Nd10  1  0.02058500  0.75000000  0.01429300  1
  Nd  Nd11  1  0.54135300  0.25000000  0.28297600  1
  Nd  Nd12  1  0.04135300  0.75000000  0.21702400  1
  Nd  Nd13  1  0.01971500  0.00919400  0.39775000  1
  Nd  Nd14  1  0.51971500  0.50919400  0.10225000  1
  Nd  Nd15  1  0.52058500  0.25000000  0.48570700  1
  Ge  Ge16  1  0.50779200  0.75000000  0.30897000  1
  Ge  Ge17  1  0.49220800  0.25000000  0.69103000  1
  Ge  Ge18  1  0.00779200  0.25000000  0.19103000  1
  Ge  Ge19  1  0.99220800  0.75000000  0.80897000  1
  O  O20  1  0.22475300  0.25000000  0.87481000  1
  O  O21  1  0.19560000  0.25000000  0.66155500  1
  O  O22  1  0.27157200  0.75000000  0.11594100  1
  O  O23  1  0.42682900  0.93944300  0.25619000  1
  O  O24  1  0.75621600  0.98106100  0.49395700  1
  O  O25  1  0.22842800  0.75000000  0.61594100  1
  O  O26  1  0.25621600  0.01893900  0.00604300  1
  O  O27  1  0.69262500  0.25000000  0.61592100  1
  O  O28  1  0.27524700  0.25000000  0.37481000  1
  O  O29  1  0.24378400  0.01893900  0.50604300  1
  O  O30  1  0.77157200  0.25000000  0.38405900  1
  O  O31  1  0.07317100  0.56055700  0.75619000  1
  O  O32  1  0.30737500  0.75000000  0.38407900  1
  O  O33  1  0.72475300  0.75000000  0.62519000  1
  O  O34  1  0.57317100  0.43944300  0.74381000  1
  O  O35  1  0.74378400  0.98106100  0.99395700  1
  O  O36  1  0.74378400  0.51893900  0.99395700  1
  O  O37  1  0.42682900  0.56055700  0.25619000  1
  O  O38  1  0.72842800  0.25000000  0.88405900  1
  O  O39  1  0.07317100  0.93944300  0.75619000  1
  O  O40  1  0.69560000  0.75000000  0.83844500  1
  O  O41  1  0.24378400  0.48106100  0.50604300  1
  O  O42  1  0.75621600  0.51893900  0.49395700  1
  O  O43  1  0.92682900  0.06055700  0.24381000  1
  O  O44  1  0.19262500  0.75000000  0.88407900  1
  O  O45  1  0.77524700  0.75000000  0.12519000  1
  O  O46  1  0.80737500  0.25000000  0.11592100  1
  O  O47  1  0.92682900  0.43944300  0.24381000  1
  O  O48  1  0.80440000  0.75000000  0.33844500  1
  O  O49  1  0.25621600  0.48106100  0.00604300  1
  O  O50  1  0.57317100  0.06055700  0.74381000  1
  O  O51  1  0.30440000  0.25000000  0.16155500  1
