# generated using pymatgen
data_Ba2Zn(BO3)2
_symmetry_space_group_name_H-M   'P 1'
_cell_length_a   8.86034300
_cell_length_b   10.25503100
_cell_length_c   15.29637900
_cell_angle_alpha   90.00000000
_cell_angle_beta   90.00000000
_cell_angle_gamma   90.00000000
_symmetry_Int_Tables_number   1
_chemical_formula_structural   Ba2Zn(BO3)2
_chemical_formula_sum   'Ba16 Zn8 B16 O48'
_cell_volume   1389.87629442
_cell_formula_units_Z   8
loop_
 _symmetry_equiv_pos_site_id
 _symmetry_equiv_pos_as_xyz
  1  'x, y, z'
loop_
 _atom_site_type_symbol
 _atom_site_label
 _atom_site_symmetry_multiplicity
 _atom_site_fract_x
 _atom_site_fract_y
 _atom_site_fract_z
 _atom_site_occupancy
  Ba  Ba0  1  0.13597500  0.62599600  0.38650300  1
  Ba  Ba1  1  0.13597500  0.12599600  0.11349700  1
  Ba  Ba2  1  0.20816400  0.67758200  0.11401500  1
  Ba  Ba3  1  0.79183600  0.17758200  0.88598500  1
  Ba  Ba4  1  0.69040600  0.41385700  0.09912200  1
  Ba  Ba5  1  0.86402500  0.12599600  0.61349700  1
  Ba  Ba6  1  0.67363100  0.88938100  0.11761400  1
  Ba  Ba7  1  0.79183600  0.67758200  0.61401500  1
  Ba  Ba8  1  0.67363100  0.38938100  0.38238600  1
  Ba  Ba9  1  0.30959400  0.41385700  0.59912200  1
  Ba  Ba10  1  0.32636900  0.38938100  0.88238600  1
  Ba  Ba11  1  0.30959400  0.91385700  0.90087800  1
  Ba  Ba12  1  0.69040600  0.91385700  0.40087800  1
  Ba  Ba13  1  0.86402500  0.62599600  0.88650300  1
  Ba  Ba14  1  0.32636900  0.88938100  0.61761400  1
  Ba  Ba15  1  0.20816400  0.17758200  0.38598500  1
  Zn  Zn16  1  0.50609900  0.64998800  0.28800800  1
  Zn  Zn17  1  0.01243500  0.90316800  0.27422300  1
  Zn  Zn18  1  0.98756500  0.90316800  0.77422300  1
  Zn  Zn19  1  0.01243500  0.40316800  0.22577700  1
  Zn  Zn20  1  0.98756500  0.40316800  0.72577700  1
  Zn  Zn21  1  0.49390100  0.14998800  0.71199200  1
  Zn  Zn22  1  0.49390100  0.64998800  0.78800800  1
  Zn  Zn23  1  0.50609900  0.14998800  0.21199200  1
  B  B24  1  0.65434800  0.91132000  0.76429400  1
  B  B25  1  0.55376300  0.17222700  0.51360700  1
  B  B26  1  0.84063800  0.15682400  0.25059600  1
  B  B27  1  0.98935000  0.92143000  0.98503100  1
  B  B28  1  0.55376300  0.67222700  0.98639300  1
  B  B29  1  0.15936200  0.15682400  0.75059600  1
  B  B30  1  0.15936200  0.65682400  0.74940400  1
  B  B31  1  0.34565200  0.41132000  0.23570600  1
  B  B32  1  0.98935000  0.42143000  0.51496900  1
  B  B33  1  0.01065000  0.92143000  0.48503100  1
  B  B34  1  0.44623700  0.17222700  0.01360700  1
  B  B35  1  0.01065000  0.42143000  0.01496900  1
  B  B36  1  0.44623700  0.67222700  0.48639300  1
  B  B37  1  0.84063800  0.65682400  0.24940400  1
  B  B38  1  0.34565200  0.91132000  0.26429400  1
  B  B39  1  0.65434800  0.41132000  0.73570600  1
  O  O40  1  0.65742400  0.77613200  0.76570100  1
  O  O41  1  0.34257600  0.77613200  0.26570100  1
  O  O42  1  0.47928500  0.98069200  0.27436100  1
  O  O43  1  0.99891600  0.36614400  0.09902100  1
  O  O44  1  0.29286100  0.22517900  0.73571400  1
  O  O45  1  0.52965900  0.59452500  0.91162300  1
  O  O46  1  0.78839400  0.47986300  0.74758900  1
  O  O47  1  0.52071500  0.98069200  0.77436100  1
  O  O48  1  0.69108800  0.15836800  0.46971500  1
  O  O49  1  0.10529400  0.89074000  0.04236000  1
  O  O50  1  0.47928500  0.48069200  0.22563900  1
  O  O51  1  0.12477100  0.00607200  0.50845000  1
  O  O52  1  0.47034100  0.59452500  0.41162300  1
  O  O53  1  0.52965900  0.09452500  0.58837700  1
  O  O54  1  0.30891200  0.15836800  0.96971500  1
  O  O55  1  0.02816800  0.22497600  0.77067300  1
  O  O56  1  0.52071500  0.48069200  0.72563900  1
  O  O57  1  0.44777100  0.26033000  0.48347600  1
  O  O58  1  0.44777100  0.76033000  0.01652400  1
  O  O59  1  0.30891200  0.65836800  0.53028500  1
  O  O60  1  0.00108400  0.36614400  0.59902100  1
  O  O61  1  0.47034100  0.09452500  0.08837700  1
  O  O62  1  0.21160600  0.97986300  0.25241100  1
  O  O63  1  0.89470600  0.39074000  0.95764000  1
  O  O64  1  0.12477100  0.50607200  0.99155000  1
  O  O65  1  0.02816800  0.72497600  0.72932700  1
  O  O66  1  0.34257600  0.27613200  0.23429900  1
  O  O67  1  0.78839400  0.97986300  0.75241100  1
  O  O68  1  0.87522900  0.00607200  0.00845000  1
  O  O69  1  0.00108400  0.86614400  0.90097900  1
  O  O70  1  0.87522900  0.50607200  0.49155000  1
  O  O71  1  0.70713900  0.72517900  0.26428600  1
  O  O72  1  0.69108800  0.65836800  0.03028500  1
  O  O73  1  0.55222900  0.26033000  0.98347600  1
  O  O74  1  0.99891600  0.86614400  0.40097900  1
  O  O75  1  0.89470600  0.89074000  0.54236000  1
  O  O76  1  0.21160600  0.47986300  0.24758900  1
  O  O77  1  0.70713900  0.22517900  0.23571400  1
  O  O78  1  0.84351800  0.02170700  0.24460900  1
  O  O79  1  0.15648200  0.52170700  0.75539100  1
  O  O80  1  0.84351800  0.52170700  0.25539100  1
  O  O81  1  0.29286100  0.72517900  0.76428600  1
  O  O82  1  0.15648200  0.02170700  0.74460900  1
  O  O83  1  0.97183200  0.22497600  0.27067300  1
  O  O84  1  0.10529400  0.39074000  0.45764000  1
  O  O85  1  0.55222900  0.76033000  0.51652400  1
  O  O86  1  0.97183200  0.72497600  0.22932700  1
  O  O87  1  0.65742400  0.27613200  0.73429900  1
