# generated using pymatgen
data_Sm3CuGeS7
_symmetry_space_group_name_H-M   'P 1'
_cell_length_a   10.07127029
_cell_length_b   10.07127029
_cell_length_c   5.87278700
_cell_angle_alpha   90.00000000
_cell_angle_beta   90.00000000
_cell_angle_gamma   120.00000189
_symmetry_Int_Tables_number   1
_chemical_formula_structural   Sm3CuGeS7
_chemical_formula_sum   'Sm6 Cu2 Ge2 S14'
_cell_volume   515.87368651
_cell_formula_units_Z   2
loop_
 _symmetry_equiv_pos_site_id
 _symmetry_equiv_pos_as_xyz
  1  'x, y, z'
loop_
 _atom_site_type_symbol
 _atom_site_label
 _atom_site_symmetry_multiplicity
 _atom_site_fract_x
 _atom_site_fract_y
 _atom_site_fract_z
 _atom_site_occupancy
  Sm  Sm0  1  0.12948900  0.77290800  0.74602100  1
  Sm  Sm1  1  0.35658100  0.12948900  0.24602100  1
  Sm  Sm2  1  0.87051100  0.22709200  0.24602100  1
  Sm  Sm3  1  0.22709200  0.35658100  0.74602100  1
  Sm  Sm4  1  0.64341900  0.87051100  0.74602100  1
  Sm  Sm5  1  0.77290800  0.64341900  0.24602100  1
  Cu  Cu6  1  0.00000000  0.00000000  0.69064200  1
  Cu  Cu7  1  0.00000000  0.00000000  0.19064200  1
  Ge  Ge8  1  0.66666700  0.33333300  0.82991400  1
  Ge  Ge9  1  0.33333300  0.66666700  0.32991400  1
  S  S10  1  0.58225000  0.10169500  0.98769200  1
  S  S11  1  0.33333300  0.66666700  0.95457600  1
  S  S12  1  0.09447500  0.83922800  0.21394300  1
  S  S13  1  0.16077200  0.25524700  0.21394300  1
  S  S14  1  0.66666700  0.33333300  0.45457600  1
  S  S15  1  0.83922800  0.74475300  0.71394300  1
  S  S16  1  0.25524700  0.09447500  0.71394300  1
  S  S17  1  0.90552500  0.16077200  0.71394300  1
  S  S18  1  0.74475300  0.90552500  0.21394300  1
  S  S19  1  0.41775000  0.89830500  0.48769200  1
  S  S20  1  0.48055500  0.58225000  0.48769200  1
  S  S21  1  0.51944500  0.41775000  0.98769200  1
  S  S22  1  0.89830500  0.48055500  0.98769200  1
  S  S23  1  0.10169500  0.51944500  0.48769200  1
