# generated using pymatgen
data_K4Ba(VS4)2
_symmetry_space_group_name_H-M   'P 1'
_cell_length_a   11.52454065
_cell_length_b   11.52454065
_cell_length_c   11.52454065
_cell_angle_alpha   133.52433370
_cell_angle_beta   128.39767515
_cell_angle_gamma   71.95411383
_symmetry_Int_Tables_number   1
_chemical_formula_structural   K4Ba(VS4)2
_chemical_formula_sum   'K8 Ba2 V4 S16'
_cell_volume   850.85119371
_cell_formula_units_Z   2
loop_
 _symmetry_equiv_pos_site_id
 _symmetry_equiv_pos_as_xyz
  1  'x, y, z'
loop_
 _atom_site_type_symbol
 _atom_site_label
 _atom_site_symmetry_multiplicity
 _atom_site_fract_x
 _atom_site_fract_y
 _atom_site_fract_z
 _atom_site_occupancy
  K  K0  1  0.49851400  0.24851400  0.25000000  1
  K  K1  1  0.00148600  0.75148600  0.25000000  1
  K  K2  1  0.57714200  0.70309200  0.12595000  1
  K  K3  1  0.42285800  0.29690800  0.87405000  1
  K  K4  1  0.50148600  0.75148600  0.75000000  1
  K  K5  1  0.07714200  0.45119200  0.37405000  1
  K  K6  1  0.92285800  0.54880800  0.62595000  1
  K  K7  1  0.99851400  0.24851400  0.75000000  1
  Ba  Ba8  1  0.25000000  0.00000000  0.25000000  1
  Ba  Ba9  1  0.75000000  0.00000000  0.75000000  1
  V  V10  1  0.13404500  0.92546300  0.79141800  1
  V  V11  1  0.86595500  0.07453700  0.20858200  1
  V  V12  1  0.36595500  0.65737300  0.29141800  1
  V  V13  1  0.63404500  0.34262700  0.70858200  1
  S  S14  1  0.58753000  0.60378100  0.36810100  1
  S  S15  1  0.75137500  0.98350200  0.23212700  1
  S  S16  1  0.89238400  0.86847600  0.97609200  1
  S  S17  1  0.76432000  0.39621900  0.98374900  1
  S  S18  1  0.73568000  0.21942900  0.13189900  1
  S  S19  1  0.74862500  0.48075200  0.73212700  1
  S  S20  1  0.24862500  0.01649800  0.76787300  1
  S  S21  1  0.23568000  0.60378100  0.01625100  1
  S  S22  1  0.25137500  0.51924800  0.26787300  1
  S  S23  1  0.26432000  0.78057100  0.86810100  1
  S  S24  1  0.10761600  0.13152400  0.02390800  1
  S  S25  1  0.91247000  0.78057100  0.51625100  1
  S  S26  1  0.08753000  0.21942900  0.48374900  1
  S  S27  1  0.60761600  0.08370800  0.47609200  1
  S  S28  1  0.41247000  0.39621900  0.63189900  1
  S  S29  1  0.39238400  0.91629200  0.52390800  1
