# generated using pymatgen
data_Sc3(Si2Ni)2
_symmetry_space_group_name_H-M   'P 1'
_cell_length_a   3.98847200
_cell_length_b   11.67343100
_cell_length_c   11.95161700
_cell_angle_alpha   90.00000000
_cell_angle_beta   90.00000000
_cell_angle_gamma   90.00000000
_symmetry_Int_Tables_number   1
_chemical_formula_structural   Sc3(Si2Ni)2
_chemical_formula_sum   'Sc12 Si16 Ni8'
_cell_volume   556.45716076
_cell_formula_units_Z   4
loop_
 _symmetry_equiv_pos_site_id
 _symmetry_equiv_pos_as_xyz
  1  'x, y, z'
loop_
 _atom_site_type_symbol
 _atom_site_label
 _atom_site_symmetry_multiplicity
 _atom_site_fract_x
 _atom_site_fract_y
 _atom_site_fract_z
 _atom_site_occupancy
  Sc  Sc0  1  0.75000000  0.98044400  0.81351000  1
  Sc  Sc1  1  0.25000000  0.01955600  0.18649000  1
  Sc  Sc2  1  0.75000000  0.48044400  0.68649000  1
  Sc  Sc3  1  0.25000000  0.51955600  0.31351000  1
  Sc  Sc4  1  0.75000000  0.75268300  0.65114400  1
  Sc  Sc5  1  0.25000000  0.24731700  0.34885600  1
  Sc  Sc6  1  0.75000000  0.25268300  0.84885600  1
  Sc  Sc7  1  0.25000000  0.74731700  0.15114400  1
  Sc  Sc8  1  0.75000000  0.69577000  0.92000800  1
  Sc  Sc9  1  0.25000000  0.30423000  0.07999200  1
  Sc  Sc10  1  0.75000000  0.19577000  0.57999200  1
  Sc  Sc11  1  0.25000000  0.80423000  0.42000800  1
  Si  Si12  1  0.75000000  0.94163700  0.53225500  1
  Si  Si13  1  0.25000000  0.05836300  0.46774500  1
  Si  Si14  1  0.75000000  0.44163700  0.96774500  1
  Si  Si15  1  0.25000000  0.55836300  0.03225500  1
  Si  Si16  1  0.75000000  0.89210100  0.06379800  1
  Si  Si17  1  0.25000000  0.10789900  0.93620200  1
  Si  Si18  1  0.75000000  0.39210100  0.43620200  1
  Si  Si19  1  0.25000000  0.60789900  0.56379800  1
  Si  Si20  1  0.75000000  0.87777700  0.26683800  1
  Si  Si21  1  0.25000000  0.12222300  0.73316200  1
  Si  Si22  1  0.75000000  0.37777700  0.23316200  1
  Si  Si23  1  0.25000000  0.62222300  0.76683800  1
  Si  Si24  1  0.75000000  0.67356300  0.29767000  1
  Si  Si25  1  0.25000000  0.32643700  0.70233000  1
  Si  Si26  1  0.75000000  0.17356300  0.20233000  1
  Si  Si27  1  0.25000000  0.82643700  0.79767000  1
  Ni  Ni28  1  0.75000000  0.55051400  0.13429300  1
  Ni  Ni29  1  0.25000000  0.44948600  0.86570700  1
  Ni  Ni30  1  0.75000000  0.05051400  0.36570700  1
  Ni  Ni31  1  0.25000000  0.94948600  0.63429300  1
  Ni  Ni32  1  0.75000000  0.59091900  0.47264900  1
  Ni  Ni33  1  0.25000000  0.40908100  0.52735100  1
  Ni  Ni34  1  0.75000000  0.09091900  0.02735100  1
  Ni  Ni35  1  0.25000000  0.90908100  0.97264900  1
