# generated using pymatgen
data_KZr2(PO4)3
_symmetry_space_group_name_H-M   'P 1'
_cell_length_a   9.57116692
_cell_length_b   9.57116692
_cell_length_c   9.57116744
_cell_angle_alpha   55.18406667
_cell_angle_beta   55.18406667
_cell_angle_gamma   55.18406308
_symmetry_Int_Tables_number   1
_chemical_formula_structural   KZr2(PO4)3
_chemical_formula_sum   'K2 Zr4 P6 O24'
_cell_volume   550.56517844
_cell_formula_units_Z   2
loop_
 _symmetry_equiv_pos_site_id
 _symmetry_equiv_pos_as_xyz
  1  'x, y, z'
loop_
 _atom_site_type_symbol
 _atom_site_label
 _atom_site_symmetry_multiplicity
 _atom_site_fract_x
 _atom_site_fract_y
 _atom_site_fract_z
 _atom_site_occupancy
  K  K0  1  0.50000000  0.50000000  0.50000000  1
  K  K1  1  0.00000000  0.00000000  0.00000000  1
  Zr  Zr2  1  0.64954500  0.64954500  0.64954500  1
  Zr  Zr3  1  0.85045500  0.85045500  0.85045500  1
  Zr  Zr4  1  0.35045500  0.35045500  0.35045500  1
  Zr  Zr5  1  0.14954500  0.14954500  0.14954500  1
  P  P6  1  0.03702400  0.46297600  0.75000000  1
  P  P7  1  0.46297600  0.75000000  0.03702400  1
  P  P8  1  0.75000000  0.03702400  0.46297600  1
  P  P9  1  0.96297600  0.53702400  0.25000000  1
  P  P10  1  0.53702400  0.25000000  0.96297600  1
  P  P11  1  0.25000000  0.96297600  0.53702400  1
  O  O12  1  0.92203000  0.07041500  0.29504300  1
  O  O13  1  0.07041500  0.29504300  0.92203000  1
  O  O14  1  0.29504300  0.92203000  0.07041500  1
  O  O15  1  0.42958500  0.57797000  0.20495700  1
  O  O16  1  0.57797000  0.20495700  0.42958500  1
  O  O17  1  0.20495700  0.42958500  0.57797000  1
  O  O18  1  0.07797000  0.92958500  0.70495700  1
  O  O19  1  0.92958500  0.70495700  0.07797000  1
  O  O20  1  0.70495700  0.07797000  0.92958500  1
  O  O21  1  0.57041500  0.42203000  0.79504300  1
  O  O22  1  0.42203000  0.79504300  0.57041500  1
  O  O23  1  0.79504300  0.57041500  0.42203000  1
  O  O24  1  0.74153500  0.86708100  0.48866800  1
  O  O25  1  0.86708100  0.48866800  0.74153500  1
  O  O26  1  0.48866800  0.74153500  0.86708100  1
  O  O27  1  0.63291900  0.75846500  0.01133200  1
  O  O28  1  0.75846500  0.01133200  0.63291900  1
  O  O29  1  0.01133200  0.63291900  0.75846500  1
  O  O30  1  0.25846500  0.13291900  0.51133200  1
  O  O31  1  0.13291900  0.51133200  0.25846500  1
  O  O32  1  0.51133200  0.25846500  0.13291900  1
  O  O33  1  0.36708100  0.24153500  0.98866800  1
  O  O34  1  0.24153500  0.98866800  0.36708100  1
  O  O35  1  0.98866800  0.36708100  0.24153500  1
