# generated using pymatgen
data_ThSiO4
_symmetry_space_group_name_H-M   'P 1'
_cell_length_a   6.00445734
_cell_length_b   6.00445734
_cell_length_c   6.00445734
_cell_angle_alpha   106.30319597
_cell_angle_beta   106.30319597
_cell_angle_gamma   116.01200808
_symmetry_Int_Tables_number   1
_chemical_formula_structural   ThSiO4
_chemical_formula_sum   'Th2 Si2 O8'
_cell_volume   165.00077764
_cell_formula_units_Z   2
loop_
 _symmetry_equiv_pos_site_id
 _symmetry_equiv_pos_as_xyz
  1  'x, y, z'
loop_
 _atom_site_type_symbol
 _atom_site_label
 _atom_site_symmetry_multiplicity
 _atom_site_fract_x
 _atom_site_fract_y
 _atom_site_fract_z
 _atom_site_occupancy
  Th  Th0  1  0.50000000  0.50000000  0.00000000  1
  Th  Th1  1  0.75000000  0.25000000  0.50000000  1
  Si  Si2  1  0.00000000  0.00000000  0.00000000  1
  Si  Si3  1  0.25000000  0.75000000  0.50000000  1
  O  O4  1  0.34290000  0.16643000  0.17647000  1
  O  O5  1  0.41643000  0.73996000  0.32353000  1
  O  O6  1  0.41643000  0.09290000  0.67647000  1
  O  O7  1  0.98996000  0.16643000  0.82353000  1
  O  O8  1  0.83357000  0.65710000  0.82353000  1
  O  O9  1  0.26004000  0.58357000  0.67647000  1
  O  O10  1  0.90710000  0.58357000  0.32353000  1
  O  O11  1  0.83357000  0.01004000  0.17647000  1
