# generated using pymatgen
data_Na3FeF6
_symmetry_space_group_name_H-M   'P 1'
_cell_length_a   5.81611500
_cell_length_b   5.57056600
_cell_length_c   9.77963778
_cell_angle_alpha   55.67611529
_cell_angle_beta   90.00000000
_cell_angle_gamma   90.00000000
_symmetry_Int_Tables_number   1
_chemical_formula_structural   Na3FeF6
_chemical_formula_sum   'Na6 Fe2 F12'
_cell_volume   261.67561275
_cell_formula_units_Z   2
loop_
 _symmetry_equiv_pos_site_id
 _symmetry_equiv_pos_as_xyz
  1  'x, y, z'
loop_
 _atom_site_type_symbol
 _atom_site_label
 _atom_site_symmetry_multiplicity
 _atom_site_fract_x
 _atom_site_fract_y
 _atom_site_fract_z
 _atom_site_occupancy
  Na  Na0  1  0.94187900  0.27235300  0.24433800  1
  Na  Na1  1  0.44187900  0.72764700  0.25566200  1
  Na  Na2  1  0.05812100  0.72764700  0.75566200  1
  Na  Na3  1  0.55812100  0.27235300  0.74433800  1
  Na  Na4  1  0.50000000  0.50000000  0.00000000  1
  Na  Na5  1  0.00000000  0.50000000  0.50000000  1
  Fe  Fe6  1  0.00000000  0.00000000  0.00000000  1
  Fe  Fe7  1  0.50000000  0.00000000  0.50000000  1
  F  F8  1  0.28000500  0.24001000  0.92662500  1
  F  F9  1  0.78000500  0.75999000  0.57337500  1
  F  F10  1  0.17705500  0.65881200  0.05309300  1
  F  F11  1  0.67705500  0.34118800  0.44690700  1
  F  F12  1  0.94088200  0.10594100  0.77407500  1
  F  F13  1  0.44088200  0.89405900  0.72592500  1
  F  F14  1  0.71999500  0.75999000  0.07337500  1
  F  F15  1  0.21999500  0.24001000  0.42662500  1
  F  F16  1  0.55911800  0.10594100  0.27407500  1
  F  F17  1  0.05911800  0.89405900  0.22592500  1
  F  F18  1  0.32294500  0.65881200  0.55309300  1
  F  F19  1  0.82294500  0.34118800  0.94690700  1
