# generated using pymatgen
data_Ca6Cu2Sn7
_symmetry_space_group_name_H-M   'P 1'
_cell_length_a   7.53633619
_cell_length_b   7.53633619
_cell_length_c   12.42500261
_cell_angle_alpha   86.24135331
_cell_angle_beta   86.24135331
_cell_angle_gamma   35.36153085
_symmetry_Int_Tables_number   1
_chemical_formula_structural   Ca6Cu2Sn7
_chemical_formula_sum   'Ca6 Cu2 Sn7'
_cell_volume   407.44165069
_cell_formula_units_Z   1
loop_
 _symmetry_equiv_pos_site_id
 _symmetry_equiv_pos_as_xyz
  1  'x, y, z'
loop_
 _atom_site_type_symbol
 _atom_site_label
 _atom_site_symmetry_multiplicity
 _atom_site_fract_x
 _atom_site_fract_y
 _atom_site_fract_z
 _atom_site_occupancy
  Ca  Ca0  1  0.46200500  0.46200500  0.70068200  1
  Ca  Ca1  1  0.80489000  0.80489000  0.29346800  1
  Ca  Ca2  1  0.19511000  0.19511000  0.70653200  1
  Ca  Ca3  1  0.36295800  0.36295800  0.00297500  1
  Ca  Ca4  1  0.53799500  0.53799500  0.29931800  1
  Ca  Ca5  1  0.63704200  0.63704200  0.99702500  1
  Cu  Cu6  1  0.16970500  0.16970500  0.38881500  1
  Cu  Cu7  1  0.83029500  0.83029500  0.61118500  1
  Sn  Sn8  1  0.34039400  0.34039400  0.48142700  1
  Sn  Sn9  1  0.18257100  0.18257100  0.17550600  1
  Sn  Sn10  1  0.98898000  0.98898000  0.11855100  1
  Sn  Sn11  1  0.81742900  0.81742900  0.82449400  1
  Sn  Sn12  1  0.00000000  0.00000000  0.50000000  1
  Sn  Sn13  1  0.01102000  0.01102000  0.88144900  1
  Sn  Sn14  1  0.65960600  0.65960600  0.51857300  1
