# generated using pymatgen
data_Nd12Ni6Sn
_symmetry_space_group_name_H-M   'P 1'
_cell_length_a   8.71674314
_cell_length_b   8.71674314
_cell_length_c   8.71674314
_cell_angle_alpha   109.47122063
_cell_angle_beta   109.47122063
_cell_angle_gamma   109.47122063
_symmetry_Int_Tables_number   1
_chemical_formula_structural   Nd12Ni6Sn
_chemical_formula_sum   'Nd12 Ni6 Sn1'
_cell_volume   509.84815914
_cell_formula_units_Z   1
loop_
 _symmetry_equiv_pos_site_id
 _symmetry_equiv_pos_as_xyz
  1  'x, y, z'
loop_
 _atom_site_type_symbol
 _atom_site_label
 _atom_site_symmetry_multiplicity
 _atom_site_fract_x
 _atom_site_fract_y
 _atom_site_fract_z
 _atom_site_occupancy
  Nd  Nd0  1  0.69326200  0.18505700  0.87831900  1
  Nd  Nd1  1  0.81494300  0.50820500  0.69326200  1
  Nd  Nd2  1  0.49179500  0.30673800  0.18505700  1
  Nd  Nd3  1  0.81494300  0.12168100  0.30673800  1
  Nd  Nd4  1  0.50820500  0.69326200  0.81494300  1
  Nd  Nd5  1  0.18505700  0.49179500  0.30673800  1
  Nd  Nd6  1  0.12168100  0.30673800  0.81494300  1
  Nd  Nd7  1  0.87831900  0.69326200  0.18505700  1
  Nd  Nd8  1  0.18505700  0.87831900  0.69326200  1
  Nd  Nd9  1  0.69326200  0.81494300  0.50820500  1
  Nd  Nd10  1  0.30673800  0.18505700  0.49179500  1
  Nd  Nd11  1  0.30673800  0.81494300  0.12168100  1
  Ni  Ni12  1  0.62211800  0.12211800  0.50000000  1
  Ni  Ni13  1  0.87788200  0.50000000  0.37788200  1
  Ni  Ni14  1  0.50000000  0.37788200  0.87788200  1
  Ni  Ni15  1  0.12211800  0.50000000  0.62211800  1
  Ni  Ni16  1  0.50000000  0.62211800  0.12211800  1
  Ni  Ni17  1  0.37788200  0.87788200  0.50000000  1
  Sn  Sn18  1  0.00000000  0.00000000  0.00000000  1
