# generated using pymatgen
data_CaMg2(SO4)3
_symmetry_space_group_name_H-M   'P 1'
_cell_length_a   8.46958495
_cell_length_b   8.46958495
_cell_length_c   7.44717600
_cell_angle_alpha   90.00000000
_cell_angle_beta   90.00000000
_cell_angle_gamma   120.00000742
_symmetry_Int_Tables_number   1
_chemical_formula_structural   CaMg2(SO4)3
_chemical_formula_sum   'Ca2 Mg4 S6 O24'
_cell_volume   462.64350933
_cell_formula_units_Z   2
loop_
 _symmetry_equiv_pos_site_id
 _symmetry_equiv_pos_as_xyz
  1  'x, y, z'
loop_
 _atom_site_type_symbol
 _atom_site_label
 _atom_site_symmetry_multiplicity
 _atom_site_fract_x
 _atom_site_fract_y
 _atom_site_fract_z
 _atom_site_occupancy
  Ca  Ca0  1  0.00000000  0.00000000  0.00000000  1
  Ca  Ca1  1  0.00000000  0.00000000  0.50000000  1
  Mg  Mg2  1  0.66666700  0.33333300  0.95283900  1
  Mg  Mg3  1  0.33333300  0.66666700  0.04716100  1
  Mg  Mg4  1  0.33333300  0.66666700  0.45283900  1
  Mg  Mg5  1  0.66666700  0.33333300  0.54716100  1
  S  S6  1  0.03349900  0.67006400  0.75000000  1
  S  S7  1  0.67006400  0.63656500  0.25000000  1
  S  S8  1  0.63656500  0.96650100  0.75000000  1
  S  S9  1  0.36343500  0.03349900  0.25000000  1
  S  S10  1  0.96650100  0.32993600  0.25000000  1
  S  S11  1  0.32993600  0.36343500  0.75000000  1
  O  O12  1  0.87239200  0.48022300  0.75000000  1
  O  O13  1  0.16277700  0.96333700  0.25000000  1
  O  O14  1  0.44152700  0.14234500  0.08580200  1
  O  O15  1  0.19943900  0.16277700  0.75000000  1
  O  O16  1  0.60783000  0.12760800  0.75000000  1
  O  O17  1  0.51977700  0.39217000  0.75000000  1
  O  O18  1  0.85765500  0.29918200  0.08580200  1
  O  O19  1  0.14234500  0.70081800  0.58580200  1
  O  O20  1  0.29918200  0.44152700  0.58580200  1
  O  O21  1  0.12760800  0.51977700  0.25000000  1
  O  O22  1  0.03666300  0.19943900  0.25000000  1
  O  O23  1  0.96333700  0.80056100  0.75000000  1
  O  O24  1  0.80056100  0.83722300  0.25000000  1
  O  O25  1  0.29918200  0.44152700  0.91419800  1
  O  O26  1  0.14234500  0.70081800  0.91419800  1
  O  O27  1  0.48022300  0.60783000  0.25000000  1
  O  O28  1  0.70081800  0.55847300  0.08580200  1
  O  O29  1  0.44152700  0.14234500  0.41419800  1
  O  O30  1  0.39217000  0.87239200  0.25000000  1
  O  O31  1  0.85765500  0.29918200  0.41419800  1
  O  O32  1  0.70081800  0.55847300  0.41419800  1
  O  O33  1  0.83722300  0.03666300  0.75000000  1
  O  O34  1  0.55847300  0.85765500  0.58580200  1
  O  O35  1  0.55847300  0.85765500  0.91419800  1
