# generated using pymatgen
data_NaLa6OsI12
_symmetry_space_group_name_H-M   'P 1'
_cell_length_a   10.18415485
_cell_length_b   10.18415485
_cell_length_c   10.18415472
_cell_angle_alpha   107.21653140
_cell_angle_beta   107.21653140
_cell_angle_gamma   107.21653444
_symmetry_Int_Tables_number   1
_chemical_formula_structural   NaLa6OsI12
_chemical_formula_sum   'Na1 La6 Os1 I12'
_cell_volume   874.42378716
_cell_formula_units_Z   1
loop_
 _symmetry_equiv_pos_site_id
 _symmetry_equiv_pos_as_xyz
  1  'x, y, z'
loop_
 _atom_site_type_symbol
 _atom_site_label
 _atom_site_symmetry_multiplicity
 _atom_site_fract_x
 _atom_site_fract_y
 _atom_site_fract_z
 _atom_site_occupancy
  Na  Na0  1  0.00000000  0.00000000  0.00000000  1
  La  La1  1  0.46745100  0.39542700  0.19038900  1
  La  La2  1  0.60457300  0.80961100  0.53254900  1
  La  La3  1  0.19038900  0.46745100  0.39542700  1
  La  La4  1  0.39542700  0.19038900  0.46745100  1
  La  La5  1  0.53254900  0.60457300  0.80961100  1
  La  La6  1  0.80961100  0.53254900  0.60457300  1
  Os  Os7  1  0.50000000  0.50000000  0.50000000  1
  I  I8  1  0.11980500  0.34825700  0.04052600  1
  I  I9  1  0.95947400  0.88019500  0.65174300  1
  I  I10  1  0.72748900  0.18435400  0.57531300  1
  I  I11  1  0.65174300  0.95947400  0.88019500  1
  I  I12  1  0.04052600  0.11980500  0.34825700  1
  I  I13  1  0.18435400  0.57531300  0.72748900  1
  I  I14  1  0.88019500  0.65174300  0.95947400  1
  I  I15  1  0.27251100  0.81564600  0.42468700  1
  I  I16  1  0.34825700  0.04052600  0.11980500  1
  I  I17  1  0.42468700  0.27251100  0.81564600  1
  I  I18  1  0.81564600  0.42468700  0.27251100  1
  I  I19  1  0.57531300  0.72748900  0.18435400  1
