# generated using pymatgen
data_Th7Ir3
_symmetry_space_group_name_H-M   'P 1'
_cell_length_a   10.08842942
_cell_length_b   10.08842942
_cell_length_c   6.31211100
_cell_angle_alpha   90.00000000
_cell_angle_beta   90.00000000
_cell_angle_gamma   119.99999623
_symmetry_Int_Tables_number   1
_chemical_formula_structural   Th7Ir3
_chemical_formula_sum   'Th14 Ir6'
_cell_volume   556.35551311
_cell_formula_units_Z   2
loop_
 _symmetry_equiv_pos_site_id
 _symmetry_equiv_pos_as_xyz
  1  'x, y, z'
loop_
 _atom_site_type_symbol
 _atom_site_label
 _atom_site_symmetry_multiplicity
 _atom_site_fract_x
 _atom_site_fract_y
 _atom_site_fract_z
 _atom_site_occupancy
  Th  Th0  1  0.45768000  0.54232000  0.29305100  1
  Th  Th1  1  0.08463900  0.54232000  0.29305100  1
  Th  Th2  1  0.91536100  0.45768000  0.79305100  1
  Th  Th3  1  0.25685200  0.12842600  0.49886800  1
  Th  Th4  1  0.54232000  0.08463900  0.79305100  1
  Th  Th5  1  0.74314800  0.87157400  0.99886800  1
  Th  Th6  1  0.66666700  0.33333300  0.30579400  1
  Th  Th7  1  0.12842600  0.87157400  0.99886800  1
  Th  Th8  1  0.45768000  0.91536100  0.29305100  1
  Th  Th9  1  0.54232000  0.45768000  0.79305100  1
  Th  Th10  1  0.87157400  0.12842600  0.49886800  1
  Th  Th11  1  0.12842600  0.25685200  0.99886800  1
  Th  Th12  1  0.87157400  0.74314800  0.49886800  1
  Th  Th13  1  0.33333300  0.66666700  0.80579400  1
  Ir  Ir14  1  0.81291300  0.62582600  0.05348300  1
  Ir  Ir15  1  0.81291300  0.18708700  0.05348300  1
  Ir  Ir16  1  0.62582600  0.81291300  0.55348300  1
  Ir  Ir17  1  0.37417400  0.18708700  0.05348300  1
  Ir  Ir18  1  0.18708700  0.37417400  0.55348300  1
  Ir  Ir19  1  0.18708700  0.81291300  0.55348300  1
