# generated using pymatgen
data_FeP2HO7
_symmetry_space_group_name_H-M   'P 1'
_cell_length_a   12.92191300
_cell_length_b   4.96486200
_cell_length_c   8.95646258
_cell_angle_alpha   65.19235994
_cell_angle_beta   90.00000000
_cell_angle_gamma   90.00000000
_symmetry_Int_Tables_number   1
_chemical_formula_structural   FeP2HO7
_chemical_formula_sum   'Fe4 P8 H4 O28'
_cell_volume   521.58266745
_cell_formula_units_Z   4
loop_
 _symmetry_equiv_pos_site_id
 _symmetry_equiv_pos_as_xyz
  1  'x, y, z'
loop_
 _atom_site_type_symbol
 _atom_site_label
 _atom_site_symmetry_multiplicity
 _atom_site_fract_x
 _atom_site_fract_y
 _atom_site_fract_z
 _atom_site_occupancy
  Fe  Fe0  1  0.37531600  0.09010000  0.00720900  1
  Fe  Fe1  1  0.12468400  0.09010000  0.50720900  1
  Fe  Fe2  1  0.87531600  0.90990000  0.49279100  1
  Fe  Fe3  1  0.62468400  0.90990000  0.99279100  1
  P  P4  1  0.17337600  0.77527200  0.25360900  1
  P  P5  1  0.45970100  0.40725800  0.24932800  1
  P  P6  1  0.95970100  0.59274200  0.25067200  1
  P  P7  1  0.67337600  0.22472800  0.24639100  1
  P  P8  1  0.32662400  0.77527200  0.75360900  1
  P  P9  1  0.82662400  0.22472800  0.74639100  1
  P  P10  1  0.54029900  0.59274200  0.75067200  1
  P  P11  1  0.04029900  0.40725800  0.74932800  1
  H  H12  1  0.17390300  0.43602900  0.89817700  1
  H  H13  1  0.82609700  0.56397100  0.10182300  1
  H  H14  1  0.67390300  0.56397100  0.60182300  1
  H  H15  1  0.32609700  0.43602900  0.39817700  1
  O  O16  1  0.79791000  0.52462900  0.60353400  1
  O  O17  1  0.52130300  0.28204900  0.89497100  1
  O  O18  1  0.64826400  0.98477900  0.18950700  1
  O  O19  1  0.92994100  0.28700900  0.82970100  1
  O  O20  1  0.90447800  0.56903300  0.10317100  1
  O  O21  1  0.09132100  0.19027000  0.69444700  1
  O  O22  1  0.90867900  0.80973000  0.30555300  1
  O  O23  1  0.20209000  0.47537100  0.39646600  1
  O  O24  1  0.57005900  0.28700900  0.32970100  1
  O  O25  1  0.09552200  0.43096700  0.89682900  1
  O  O26  1  0.47869700  0.71795100  0.10502900  1
  O  O27  1  0.40867900  0.19027000  0.19444700  1
  O  O28  1  0.59552200  0.56903300  0.60317100  1
  O  O29  1  0.24636400  0.86268100  0.61757800  1
  O  O30  1  0.02130300  0.71795100  0.60502900  1
  O  O31  1  0.25363600  0.86268100  0.11757800  1
  O  O32  1  0.70209000  0.52462900  0.10353400  1
  O  O33  1  0.59132100  0.80973000  0.80555300  1
  O  O34  1  0.74636400  0.13731900  0.88242200  1
  O  O35  1  0.97869700  0.28204900  0.39497100  1
  O  O36  1  0.75363600  0.13731900  0.38242200  1
  O  O37  1  0.07005900  0.71299100  0.17029900  1
  O  O38  1  0.35173600  0.01522100  0.81049300  1
  O  O39  1  0.14826400  0.01522100  0.31049300  1
  O  O40  1  0.85173600  0.98477900  0.68950700  1
  O  O41  1  0.29791000  0.47537100  0.89646600  1
  O  O42  1  0.42994100  0.71299100  0.67029900  1
  O  O43  1  0.40447800  0.43096700  0.39682900  1
