# generated using pymatgen
data_NbTl(BO3)2
_symmetry_space_group_name_H-M   'P 1'
_cell_length_a   7.49855000
_cell_length_b   8.02265800
_cell_length_c   9.58601900
_cell_angle_alpha   90.00000000
_cell_angle_beta   90.00000000
_cell_angle_gamma   90.00000000
_symmetry_Int_Tables_number   1
_chemical_formula_structural   NbTl(BO3)2
_chemical_formula_sum   'Nb4 Tl4 B8 O24'
_cell_volume   576.67862738
_cell_formula_units_Z   4
loop_
 _symmetry_equiv_pos_site_id
 _symmetry_equiv_pos_as_xyz
  1  'x, y, z'
loop_
 _atom_site_type_symbol
 _atom_site_label
 _atom_site_symmetry_multiplicity
 _atom_site_fract_x
 _atom_site_fract_y
 _atom_site_fract_z
 _atom_site_occupancy
  Nb  Nb0  1  0.24082100  0.83810900  0.13391600  1
  Nb  Nb1  1  0.74082100  0.66189100  0.63391600  1
  Nb  Nb2  1  0.75917900  0.16189100  0.63391600  1
  Nb  Nb3  1  0.25917900  0.33810900  0.13391600  1
  Tl  Tl4  1  0.25929300  0.00320100  0.74775700  1
  Tl  Tl5  1  0.75929300  0.49679900  0.24775700  1
  Tl  Tl6  1  0.74070700  0.99679900  0.24775700  1
  Tl  Tl7  1  0.24070700  0.50320100  0.74775700  1
  B  B8  1  0.41879800  0.21386300  0.42072900  1
  B  B9  1  0.09014600  0.26206900  0.42330100  1
  B  B10  1  0.90985400  0.73793100  0.92330100  1
  B  B11  1  0.40985400  0.76206900  0.42330100  1
  B  B12  1  0.08120200  0.71386300  0.42072900  1
  B  B13  1  0.58120200  0.78613700  0.92072900  1
  B  B14  1  0.91879800  0.28613700  0.92072900  1
  B  B15  1  0.59014600  0.23793100  0.92330100  1
  O  O16  1  0.44177100  0.84820500  0.99744500  1
  O  O17  1  0.69413300  0.44014300  0.63447000  1
  O  O18  1  0.08578100  0.34011000  0.29684700  1
  O  O19  1  0.58578100  0.15989000  0.79684700  1
  O  O20  1  0.25093200  0.21419600  0.48673900  1
  O  O21  1  0.05822900  0.34820500  0.99744500  1
  O  O22  1  0.05926500  0.76834600  0.28689000  1
  O  O23  1  0.74906800  0.78580400  0.98673900  1
  O  O24  1  0.43595600  0.27229800  0.99170500  1
  O  O25  1  0.44073500  0.26834600  0.28689000  1
  O  O26  1  0.06404400  0.77229800  0.99170500  1
  O  O27  1  0.41421900  0.84011000  0.29684700  1
  O  O28  1  0.94073500  0.23165400  0.78689000  1
  O  O29  1  0.94177100  0.65179500  0.49744500  1
  O  O30  1  0.93595600  0.22770200  0.49170500  1
  O  O31  1  0.19413300  0.05985700  0.13447000  1
  O  O32  1  0.80586700  0.94014300  0.63447000  1
  O  O33  1  0.30586700  0.55985700  0.13447000  1
  O  O34  1  0.55926500  0.73165400  0.78689000  1
  O  O35  1  0.75093200  0.28580400  0.98673900  1
  O  O36  1  0.56404400  0.72770200  0.49170500  1
  O  O37  1  0.24906800  0.71419600  0.48673900  1
  O  O38  1  0.55822900  0.15179500  0.49744500  1
  O  O39  1  0.91421900  0.65989000  0.79684700  1
