# generated using pymatgen
data_KTh2(PO4)3
_symmetry_space_group_name_H-M   'P 1'
_cell_length_a   9.56026706
_cell_length_b   9.56026706
_cell_length_c   8.23383192
_cell_angle_alpha   78.81059450
_cell_angle_beta   78.81059450
_cell_angle_gamma   42.36745654
_symmetry_Int_Tables_number   1
_chemical_formula_structural   KTh2(PO4)3
_chemical_formula_sum   'K2 Th4 P6 O24'
_cell_volume   496.03410470
_cell_formula_units_Z   2
loop_
 _symmetry_equiv_pos_site_id
 _symmetry_equiv_pos_as_xyz
  1  'x, y, z'
loop_
 _atom_site_type_symbol
 _atom_site_label
 _atom_site_symmetry_multiplicity
 _atom_site_fract_x
 _atom_site_fract_y
 _atom_site_fract_z
 _atom_site_occupancy
  K  K0  1  0.59758600  0.40241400  0.25000000  1
  K  K1  1  0.40241400  0.59758600  0.75000000  1
  Th  Th2  1  0.75166100  0.94064400  0.03457600  1
  Th  Th3  1  0.05935600  0.24833900  0.46542400  1
  Th  Th4  1  0.24833900  0.05935600  0.96542400  1
  Th  Th5  1  0.94064400  0.75166100  0.53457600  1
  P  P6  1  0.60020500  0.78109500  0.31494600  1
  P  P7  1  0.21890500  0.39979500  0.18505400  1
  P  P8  1  0.39979500  0.21890500  0.68505400  1
  P  P9  1  0.78109500  0.60020500  0.81494600  1
  P  P10  1  0.09746900  0.90253100  0.25000000  1
  P  P11  1  0.90253100  0.09746900  0.75000000  1
  O  O12  1  0.89629900  0.96041200  0.24577100  1
  O  O13  1  0.03958800  0.10370100  0.25422900  1
  O  O14  1  0.10370100  0.03958800  0.75422900  1
  O  O15  1  0.96041200  0.89629900  0.74577100  1
  O  O16  1  0.24595700  0.80634400  0.09100100  1
  O  O17  1  0.19365600  0.75404300  0.40899900  1
  O  O18  1  0.75404300  0.19365600  0.90899900  1
  O  O19  1  0.80634400  0.24595700  0.59100100  1
  O  O20  1  0.72514600  0.82576300  0.32986500  1
  O  O21  1  0.17423700  0.27485400  0.17013500  1
  O  O22  1  0.27485400  0.17423700  0.67013500  1
  O  O23  1  0.82576300  0.72514600  0.82986500  1
  O  O24  1  0.73620200  0.54764200  0.34472700  1
  O  O25  1  0.45235800  0.26379800  0.15527300  1
  O  O26  1  0.26379800  0.45235800  0.65527300  1
  O  O27  1  0.54764200  0.73620200  0.84472700  1
  O  O28  1  0.55198600  0.85496700  0.12690900  1
  O  O29  1  0.14503300  0.44801400  0.37309100  1
  O  O30  1  0.44801400  0.14503300  0.87309100  1
  O  O31  1  0.85496700  0.55198600  0.62690900  1
  O  O32  1  0.39661700  0.91160300  0.42626600  1
  O  O33  1  0.08839700  0.60338300  0.07373400  1
  O  O34  1  0.60338300  0.08839700  0.57373400  1
  O  O35  1  0.91160300  0.39661700  0.92626600  1
