# generated using pymatgen
data_B13C2
_symmetry_space_group_name_H-M   'P 1'
_cell_length_a   5.19592804
_cell_length_b   5.19592804
_cell_length_c   5.19592786
_cell_angle_alpha   65.99280099
_cell_angle_beta   65.99280099
_cell_angle_gamma   65.99278873
_symmetry_Int_Tables_number   1
_chemical_formula_structural   B13C2
_chemical_formula_sum   'B13 C2'
_cell_volume   112.05620148
_cell_formula_units_Z   1
loop_
 _symmetry_equiv_pos_site_id
 _symmetry_equiv_pos_as_xyz
  1  'x, y, z'
loop_
 _atom_site_type_symbol
 _atom_site_label
 _atom_site_symmetry_multiplicity
 _atom_site_fract_x
 _atom_site_fract_y
 _atom_site_fract_z
 _atom_site_occupancy
  B  B0  1  0.50000000  0.50000000  0.50000000  1
  B  B1  1  0.31845200  0.80350200  0.80350200  1
  B  B2  1  0.80350200  0.80350200  0.31845200  1
  B  B3  1  0.80350200  0.31845200  0.80350200  1
  B  B4  1  0.19649800  0.68154800  0.19649800  1
  B  B5  1  0.68154800  0.19649800  0.19649800  1
  B  B6  1  0.19649800  0.19649800  0.68154800  1
  B  B7  1  0.32357600  0.00787400  0.00787400  1
  B  B8  1  0.00787400  0.00787400  0.32357600  1
  B  B9  1  0.00787400  0.32357600  0.00787400  1
  B  B10  1  0.99212600  0.67642400  0.99212600  1
  B  B11  1  0.67642400  0.99212600  0.99212600  1
  B  B12  1  0.99212600  0.99212600  0.67642400  1
  C  C13  1  0.61907900  0.61907900  0.61907900  1
  C  C14  1  0.38092100  0.38092100  0.38092100  1
