# generated using pymatgen
data_Ag4Mo2Se3O16
_symmetry_space_group_name_H-M   'P 1'
_cell_length_a   5.78497900
_cell_length_b   16.10779700
_cell_length_c   16.16141500
_cell_angle_alpha   90.00000000
_cell_angle_beta   90.00000000
_cell_angle_gamma   90.00000000
_symmetry_Int_Tables_number   1
_chemical_formula_structural   Ag4Mo2Se3O16
_chemical_formula_sum   'Ag16 Mo8 Se12 O64'
_cell_volume   1505.97345520
_cell_formula_units_Z   4
loop_
 _symmetry_equiv_pos_site_id
 _symmetry_equiv_pos_as_xyz
  1  'x, y, z'
loop_
 _atom_site_type_symbol
 _atom_site_label
 _atom_site_symmetry_multiplicity
 _atom_site_fract_x
 _atom_site_fract_y
 _atom_site_fract_z
 _atom_site_occupancy
  Ag  Ag0  1  0.82164600  0.25000000  0.16026700  1
  Ag  Ag1  1  0.16793000  0.07685100  0.49732200  1
  Ag  Ag2  1  0.83207000  0.07685100  0.99732200  1
  Ag  Ag3  1  0.16793000  0.42314900  0.49732200  1
  Ag  Ag4  1  0.69471800  0.75000000  0.00065200  1
  Ag  Ag5  1  0.69471800  0.25000000  0.49934800  1
  Ag  Ag6  1  0.83207000  0.42314900  0.99732200  1
  Ag  Ag7  1  0.30528200  0.75000000  0.50065200  1
  Ag  Ag8  1  0.82164600  0.75000000  0.33973300  1
  Ag  Ag9  1  0.83207000  0.57685100  0.50267800  1
  Ag  Ag10  1  0.30528200  0.25000000  0.99934800  1
  Ag  Ag11  1  0.16793000  0.57685100  0.00267800  1
  Ag  Ag12  1  0.17835400  0.75000000  0.83973300  1
  Ag  Ag13  1  0.83207000  0.92314900  0.50267800  1
  Ag  Ag14  1  0.16793000  0.92314900  0.00267800  1
  Ag  Ag15  1  0.17835400  0.25000000  0.66026700  1
  Mo  Mo16  1  0.35974400  0.41163800  0.82728000  1
  Mo  Mo17  1  0.64025600  0.91163800  0.17272000  1
  Mo  Mo18  1  0.35974400  0.58836200  0.67272000  1
  Mo  Mo19  1  0.35974400  0.91163800  0.67272000  1
  Mo  Mo20  1  0.64025600  0.58836200  0.17272000  1
  Mo  Mo21  1  0.35974400  0.08836200  0.82728000  1
  Mo  Mo22  1  0.64025600  0.08836200  0.32728000  1
  Mo  Mo23  1  0.64025600  0.41163800  0.32728000  1
  Se  Se24  1  0.24532400  0.75000000  0.13588300  1
  Se  Se25  1  0.75467600  0.25000000  0.86411700  1
  Se  Se26  1  0.24532400  0.25000000  0.36411700  1
  Se  Se27  1  0.33039600  0.60108300  0.36051900  1
  Se  Se28  1  0.66960400  0.89891700  0.86051900  1
  Se  Se29  1  0.33039600  0.10108300  0.13948100  1
  Se  Se30  1  0.66960400  0.39891700  0.63948100  1
  Se  Se31  1  0.75467600  0.75000000  0.63588300  1
  Se  Se32  1  0.66960400  0.60108300  0.86051900  1
  Se  Se33  1  0.66960400  0.10108300  0.63948100  1
  Se  Se34  1  0.33039600  0.39891700  0.13948100  1
  Se  Se35  1  0.33039600  0.89891700  0.36051900  1
  O  O36  1  0.17842600  0.16218900  0.78313100  1
  O  O37  1  0.45306700  0.85064700  0.91109300  1
  O  O38  1  0.56055600  0.66733900  0.60444000  1
  O  O39  1  0.79906400  0.55416800  0.08618800  1
  O  O40  1  0.56055600  0.83266100  0.60444000  1
  O  O41  1  0.20093600  0.44583200  0.91381200  1
  O  O42  1  0.79906400  0.94583200  0.08618800  1
  O  O43  1  0.65185300  0.12178700  0.74186100  1
  O  O44  1  0.34814700  0.37821300  0.24186100  1
  O  O45  1  0.17842600  0.66218900  0.71686900  1
  O  O46  1  0.31052100  0.00000000  0.75000000  1
  O  O47  1  0.45306700  0.64935300  0.91109300  1
  O  O48  1  0.92119500  0.13800500  0.60414500  1
  O  O49  1  0.82157400  0.16218900  0.28313100  1
  O  O50  1  0.07880500  0.86199500  0.39585500  1
  O  O51  1  0.45306700  0.35064700  0.58890700  1
  O  O52  1  0.65897100  0.49717300  0.87652900  1
  O  O53  1  0.92119500  0.86199500  0.89585500  1
  O  O54  1  0.92119500  0.36199500  0.60414500  1
  O  O55  1  0.65185300  0.87821300  0.75813900  1
  O  O56  1  0.43944400  0.33266100  0.39556000  1
  O  O57  1  0.65897100  0.99717300  0.62347100  1
  O  O58  1  0.43944400  0.16733900  0.39556000  1
  O  O59  1  0.34814700  0.87821300  0.25813900  1
  O  O60  1  0.65185300  0.37821300  0.74186100  1
  O  O61  1  0.45306700  0.14935300  0.58890700  1
  O  O62  1  0.20093600  0.94583200  0.58618800  1
  O  O63  1  0.79906400  0.05416800  0.41381200  1
  O  O64  1  0.17842600  0.83781100  0.71686900  1
  O  O65  1  0.31052100  0.50000000  0.75000000  1
  O  O66  1  0.20093600  0.55416800  0.58618800  1
  O  O67  1  0.68947900  0.50000000  0.25000000  1
  O  O68  1  0.54693300  0.85064700  0.41109300  1
  O  O69  1  0.34102900  0.99717300  0.12347100  1
  O  O70  1  0.43944400  0.66733900  0.10444000  1
  O  O71  1  0.65897100  0.50282700  0.62347100  1
  O  O72  1  0.92085400  0.25000000  0.94826600  1
  O  O73  1  0.92085400  0.75000000  0.55173400  1
  O  O74  1  0.82157400  0.66218900  0.21686900  1
  O  O75  1  0.54693300  0.35064700  0.08890700  1
  O  O76  1  0.56055600  0.33266100  0.89556000  1
  O  O77  1  0.07880500  0.13800500  0.10414500  1
  O  O78  1  0.20093600  0.05416800  0.91381200  1
  O  O79  1  0.56055600  0.16733900  0.89556000  1
  O  O80  1  0.07914600  0.25000000  0.44826600  1
  O  O81  1  0.34102900  0.00282700  0.37652900  1
  O  O82  1  0.79906400  0.44583200  0.41381200  1
  O  O83  1  0.82157400  0.83781100  0.21686900  1
  O  O84  1  0.07880500  0.63800500  0.39585500  1
  O  O85  1  0.34102900  0.49717300  0.37652900  1
  O  O86  1  0.07880500  0.36199500  0.10414500  1
  O  O87  1  0.34102900  0.50282700  0.12347100  1
  O  O88  1  0.92119500  0.63800500  0.89585500  1
  O  O89  1  0.54693300  0.64935300  0.41109300  1
  O  O90  1  0.68947900  0.00000000  0.25000000  1
  O  O91  1  0.43944400  0.83266100  0.10444000  1
  O  O92  1  0.34814700  0.12178700  0.24186100  1
  O  O93  1  0.65897100  0.00282700  0.87652900  1
  O  O94  1  0.65185300  0.62178700  0.75813900  1
  O  O95  1  0.07914600  0.75000000  0.05173400  1
  O  O96  1  0.34814700  0.62178700  0.25813900  1
  O  O97  1  0.54693300  0.14935300  0.08890700  1
  O  O98  1  0.82157400  0.33781100  0.28313100  1
  O  O99  1  0.17842600  0.33781100  0.78313100  1
