# generated using pymatgen
data_Cr2P2O7
_symmetry_space_group_name_H-M   'P 1'
_cell_length_a   11.10214552
_cell_length_b   11.10214552
_cell_length_c   9.42802701
_cell_angle_alpha   84.03650223
_cell_angle_beta   84.03650223
_cell_angle_gamma   45.22822452
_symmetry_Int_Tables_number   1
_chemical_formula_structural   Cr2P2O7
_chemical_formula_sum   'Cr12 P12 O42'
_cell_volume   819.73693382
_cell_formula_units_Z   6
loop_
 _symmetry_equiv_pos_site_id
 _symmetry_equiv_pos_as_xyz
  1  'x, y, z'
loop_
 _atom_site_type_symbol
 _atom_site_label
 _atom_site_symmetry_multiplicity
 _atom_site_fract_x
 _atom_site_fract_y
 _atom_site_fract_z
 _atom_site_occupancy
  Cr  Cr0  1  0.36781900  0.98936800  0.81042600  1
  Cr  Cr1  1  0.69897500  0.32191000  0.97685400  1
  Cr  Cr2  1  0.02117500  0.65091900  0.16091400  1
  Cr  Cr3  1  0.98936800  0.36781900  0.31042600  1
  Cr  Cr4  1  0.01063200  0.63218100  0.68957400  1
  Cr  Cr5  1  0.30102500  0.67809000  0.02314600  1
  Cr  Cr6  1  0.32191000  0.69897500  0.47685400  1
  Cr  Cr7  1  0.65091900  0.02117500  0.66091400  1
  Cr  Cr8  1  0.63218100  0.01063200  0.18957400  1
  Cr  Cr9  1  0.97882500  0.34908100  0.83908600  1
  Cr  Cr10  1  0.67809000  0.30102500  0.52314600  1
  Cr  Cr11  1  0.34908100  0.97882500  0.33908600  1
  P  P12  1  0.38104300  0.40731900  0.32310400  1
  P  P13  1  0.61895700  0.59268100  0.67689600  1
  P  P14  1  0.25071900  0.28351200  0.53056100  1
  P  P15  1  0.40731900  0.38104300  0.82310400  1
  P  P16  1  0.28351200  0.25071900  0.03056100  1
  P  P17  1  0.74928100  0.71648800  0.46943900  1
  P  P18  1  0.95526700  0.91917000  0.85262600  1
  P  P19  1  0.04473300  0.08083000  0.14737400  1
  P  P20  1  0.71648800  0.74928100  0.96943900  1
  P  P21  1  0.91917000  0.95526700  0.35262600  1
  P  P22  1  0.59268100  0.61895700  0.17689600  1
  P  P23  1  0.08083000  0.04473300  0.64737400  1
  O  O24  1  0.08401400  0.91598600  0.75000000  1
  O  O25  1  0.21068000  0.22086000  0.42182800  1
  O  O26  1  0.73048500  0.59890100  0.55732700  1
  O  O27  1  0.59890100  0.73048500  0.05732700  1
  O  O28  1  0.81074700  0.09241700  0.91146500  1
  O  O29  1  0.77914000  0.78932000  0.07817200  1
  O  O30  1  0.18925300  0.90758300  0.08853500  1
  O  O31  1  0.41319500  0.13265900  0.60508000  1
  O  O32  1  0.90100800  0.59419900  0.36616200  1
  O  O33  1  0.40109900  0.26951500  0.94267300  1
  O  O34  1  0.07113600  0.77690500  0.96510100  1
  O  O35  1  0.54243000  0.54722300  0.09320600  1
  O  O36  1  0.74444400  0.45235600  0.78549500  1
  O  O37  1  0.78932000  0.77914000  0.57817200  1
  O  O38  1  0.58680500  0.86734100  0.39492000  1
  O  O39  1  0.09241700  0.81074700  0.41146500  1
  O  O40  1  0.54764400  0.25555600  0.71450500  1
  O  O41  1  0.45277700  0.45757000  0.40679400  1
  O  O42  1  0.87059400  0.88856200  0.25858900  1
  O  O43  1  0.77690500  0.07113600  0.46510100  1
  O  O44  1  0.76351200  0.47867700  0.24033100  1
  O  O45  1  0.52132300  0.23648800  0.25966900  1
  O  O46  1  0.45235600  0.74444500  0.28549500  1
  O  O47  1  0.47867700  0.76351200  0.74033100  1
  O  O48  1  0.26951500  0.40109900  0.44267300  1
  O  O49  1  0.59419900  0.90100800  0.86616200  1
  O  O50  1  0.23648800  0.52132300  0.75966900  1
  O  O51  1  0.88856200  0.87059400  0.75858900  1
  O  O52  1  0.22309500  0.92886400  0.53489900  1
  O  O53  1  0.11143800  0.12940600  0.24141100  1
  O  O54  1  0.86734100  0.58680500  0.89492000  1
  O  O55  1  0.09899100  0.40580100  0.63383800  1
  O  O56  1  0.54722300  0.54243000  0.59320600  1
  O  O57  1  0.22086000  0.21068000  0.92182800  1
  O  O58  1  0.92886400  0.22309500  0.03489900  1
  O  O59  1  0.40580100  0.09899200  0.13383800  1
  O  O60  1  0.91598600  0.08401400  0.25000000  1
  O  O61  1  0.45757000  0.45277700  0.90679400  1
  O  O62  1  0.12940600  0.11143800  0.74141100  1
  O  O63  1  0.13265900  0.41319500  0.10508000  1
  O  O64  1  0.25555500  0.54764400  0.21450500  1
  O  O65  1  0.90758300  0.18925300  0.58853500  1
