# generated using pymatgen
data_Gd2WO6
_symmetry_space_group_name_H-M   'P 1'
_cell_length_a   5.34825200
_cell_length_b   9.26501700
_cell_length_c   10.12362800
_cell_angle_alpha   90.00000000
_cell_angle_beta   90.00000000
_cell_angle_gamma   90.00000000
_symmetry_Int_Tables_number   1
_chemical_formula_structural   Gd2WO6
_chemical_formula_sum   'Gd8 W4 O24'
_cell_volume   501.64242786
_cell_formula_units_Z   4
loop_
 _symmetry_equiv_pos_site_id
 _symmetry_equiv_pos_as_xyz
  1  'x, y, z'
loop_
 _atom_site_type_symbol
 _atom_site_label
 _atom_site_symmetry_multiplicity
 _atom_site_fract_x
 _atom_site_fract_y
 _atom_site_fract_z
 _atom_site_occupancy
  Gd  Gd0  1  0.47988500  0.60363200  0.53571600  1
  Gd  Gd1  1  0.97988500  0.89636800  0.46428400  1
  Gd  Gd2  1  0.52011500  0.10363200  0.96428400  1
  Gd  Gd3  1  0.02011500  0.39636800  0.03571600  1
  Gd  Gd4  1  0.96315800  0.78109100  0.86980000  1
  Gd  Gd5  1  0.46315800  0.71890900  0.13020000  1
  Gd  Gd6  1  0.03684200  0.28109100  0.63020000  1
  Gd  Gd7  1  0.53684200  0.21890900  0.36980000  1
  W  W8  1  0.46054100  0.99591900  0.65069600  1
  W  W9  1  0.96054100  0.50408100  0.34930400  1
  W  W10  1  0.53945900  0.49591900  0.84930400  1
  W  W11  1  0.03945900  0.00408100  0.15069600  1
  O  O12  1  0.25250800  0.08870300  0.50704400  1
  O  O13  1  0.75250800  0.41129700  0.49295600  1
  O  O14  1  0.74749200  0.58870300  0.99295600  1
  O  O15  1  0.24749200  0.91129700  0.00704400  1
  O  O16  1  0.72859900  0.11407700  0.56736900  1
  O  O17  1  0.22859900  0.38592300  0.43263100  1
  O  O18  1  0.27140100  0.61407700  0.93263100  1
  O  O19  1  0.77140100  0.88592300  0.06736900  1
  O  O20  1  0.18430300  0.86385300  0.68048100  1
  O  O21  1  0.68430300  0.63614700  0.31951900  1
  O  O22  1  0.81569700  0.36385300  0.81951900  1
  O  O23  1  0.31569700  0.13614700  0.18048100  1
  O  O24  1  0.18913600  0.86002500  0.26246000  1
  O  O25  1  0.68913600  0.63997500  0.73754000  1
  O  O26  1  0.81086400  0.36002500  0.23754000  1
  O  O27  1  0.31086400  0.13997500  0.76246000  1
  O  O28  1  0.82710800  0.04800900  0.29528200  1
  O  O29  1  0.32710800  0.45199100  0.70471800  1
  O  O30  1  0.17289200  0.54800900  0.20471800  1
  O  O31  1  0.67289200  0.95199100  0.79528200  1
  O  O32  1  0.91668100  0.15493800  0.03037900  1
  O  O33  1  0.41668100  0.34506200  0.96962100  1
  O  O34  1  0.08331900  0.65493800  0.46962100  1
  O  O35  1  0.58331900  0.84506200  0.53037900  1
