# generated using pymatgen
data_RbSbS(O2F)2
_symmetry_space_group_name_H-M   'P 1'
_cell_length_a   5.41747400
_cell_length_b   9.76087800
_cell_length_c   11.63745800
_cell_angle_alpha   90.00000000
_cell_angle_beta   90.00000000
_cell_angle_gamma   90.00000000
_symmetry_Int_Tables_number   1
_chemical_formula_structural   RbSbS(O2F)2
_chemical_formula_sum   'Rb4 Sb4 S4 O16 F8'
_cell_volume   615.38066520
_cell_formula_units_Z   4
loop_
 _symmetry_equiv_pos_site_id
 _symmetry_equiv_pos_as_xyz
  1  'x, y, z'
loop_
 _atom_site_type_symbol
 _atom_site_label
 _atom_site_symmetry_multiplicity
 _atom_site_fract_x
 _atom_site_fract_y
 _atom_site_fract_z
 _atom_site_occupancy
  Rb  Rb0  1  0.24173400  0.51586000  0.84058400  1
  Rb  Rb1  1  0.24173400  0.01586000  0.65941600  1
  Rb  Rb2  1  0.74173400  0.98414000  0.34058400  1
  Rb  Rb3  1  0.74173400  0.48414000  0.15941600  1
  Sb  Sb4  1  0.75729600  0.82878500  0.91645000  1
  Sb  Sb5  1  0.25729600  0.67121500  0.41645000  1
  Sb  Sb6  1  0.75729600  0.32878500  0.58355000  1
  Sb  Sb7  1  0.25729600  0.17121500  0.08355000  1
  S  S8  1  0.20076100  0.79891700  0.13370900  1
  S  S9  1  0.70076100  0.20108300  0.86629100  1
  S  S10  1  0.20076100  0.29891700  0.36629100  1
  S  S11  1  0.70076100  0.70108300  0.63370900  1
  O  O12  1  0.32871800  0.70132100  0.05939400  1
  O  O13  1  0.35457900  0.41828400  0.33499400  1
  O  O14  1  0.96550000  0.35427400  0.42239100  1
  O  O15  1  0.46550000  0.14572600  0.92239100  1
  O  O16  1  0.85457900  0.58171600  0.66500600  1
  O  O17  1  0.85457900  0.08171600  0.83499400  1
  O  O18  1  0.10616700  0.22723600  0.25874800  1
  O  O19  1  0.60616700  0.27276400  0.75874800  1
  O  O20  1  0.82871800  0.29867900  0.94060600  1
  O  O21  1  0.96550000  0.85427400  0.07760900  1
  O  O22  1  0.35457900  0.91828400  0.16500600  1
  O  O23  1  0.60616700  0.77276400  0.74125200  1
  O  O24  1  0.10616700  0.72723600  0.24125200  1
  O  O25  1  0.32871800  0.20132100  0.44060600  1
  O  O26  1  0.46550000  0.64572600  0.57760900  1
  O  O27  1  0.82871800  0.79867900  0.55939400  1
  F  F28  1  0.58166300  0.67972100  0.34117700  1
  F  F29  1  0.28738400  0.37241300  0.06116600  1
  F  F30  1  0.28738400  0.87241300  0.43883400  1
  F  F31  1  0.58166300  0.17972100  0.15882300  1
  F  F32  1  0.08166300  0.32027900  0.65882300  1
  F  F33  1  0.08166300  0.82027900  0.84117700  1
  F  F34  1  0.78738400  0.62758700  0.93883400  1
  F  F35  1  0.78738400  0.12758700  0.56116600  1
