# generated using pymatgen
data_Cs2Te3
_symmetry_space_group_name_H-M   'P 1'
_cell_length_a   7.60919705
_cell_length_b   7.60919705
_cell_length_c   8.75915500
_cell_angle_alpha   90.00000000
_cell_angle_beta   90.00000000
_cell_angle_gamma   110.22463430
_symmetry_Int_Tables_number   1
_chemical_formula_structural   Cs2Te3
_chemical_formula_sum   'Cs4 Te6'
_cell_volume   475.88517407
_cell_formula_units_Z   2
loop_
 _symmetry_equiv_pos_site_id
 _symmetry_equiv_pos_as_xyz
  1  'x, y, z'
loop_
 _atom_site_type_symbol
 _atom_site_label
 _atom_site_symmetry_multiplicity
 _atom_site_fract_x
 _atom_site_fract_y
 _atom_site_fract_z
 _atom_site_occupancy
  Cs  Cs0  1  0.90871000  0.09129000  0.13266800  1
  Cs  Cs1  1  0.09129000  0.90871000  0.63266800  1
  Cs  Cs2  1  0.41645200  0.58354800  0.84494500  1
  Cs  Cs3  1  0.58354800  0.41645200  0.34494500  1
  Te  Te4  1  0.21914000  0.78086000  0.18922700  1
  Te  Te5  1  0.78086000  0.21914000  0.68922700  1
  Te  Te6  1  0.41754000  0.08274500  0.99708000  1
  Te  Te7  1  0.58246000  0.91725500  0.49708000  1
  Te  Te8  1  0.91725500  0.58246000  0.99708000  1
  Te  Te9  1  0.08274500  0.41754000  0.49708000  1
