# generated using pymatgen
data_Y3CuSiS7
_symmetry_space_group_name_H-M   'P 1'
_cell_length_a   9.92602405
_cell_length_b   9.92602405
_cell_length_c   5.70726300
_cell_angle_alpha   90.00000000
_cell_angle_beta   90.00000000
_cell_angle_gamma   120.00000033
_symmetry_Int_Tables_number   1
_chemical_formula_structural   Y3CuSiS7
_chemical_formula_sum   'Y6 Cu2 Si2 S14'
_cell_volume   486.97779902
_cell_formula_units_Z   2
loop_
 _symmetry_equiv_pos_site_id
 _symmetry_equiv_pos_as_xyz
  1  'x, y, z'
loop_
 _atom_site_type_symbol
 _atom_site_label
 _atom_site_symmetry_multiplicity
 _atom_site_fract_x
 _atom_site_fract_y
 _atom_site_fract_z
 _atom_site_occupancy
  Y  Y0  1  0.12814400  0.35697500  0.74322800  1
  Y  Y1  1  0.87185600  0.64302500  0.24322800  1
  Y  Y2  1  0.22883100  0.87185600  0.74322800  1
  Y  Y3  1  0.35697500  0.22883100  0.24322800  1
  Y  Y4  1  0.77116900  0.12814400  0.24322800  1
  Y  Y5  1  0.64302500  0.77116900  0.74322800  1
  Cu  Cu6  1  0.00000000  0.00000000  0.70274800  1
  Cu  Cu7  1  0.00000000  0.00000000  0.20274800  1
  Si  Si8  1  0.66666700  0.33333300  0.83088100  1
  Si  Si9  1  0.33333300  0.66666700  0.33088100  1
  S  S10  1  0.25753400  0.16409700  0.71884600  1
  S  S11  1  0.41588400  0.52301600  0.48084800  1
  S  S12  1  0.33333300  0.66666700  0.96070600  1
  S  S13  1  0.16409700  0.90656200  0.21884600  1
  S  S14  1  0.47698400  0.89286800  0.48084800  1
  S  S15  1  0.58411600  0.47698400  0.98084800  1
  S  S16  1  0.52301600  0.10713200  0.98084800  1
  S  S17  1  0.83590300  0.09343800  0.71884600  1
  S  S18  1  0.90656200  0.74246600  0.71884600  1
  S  S19  1  0.66666700  0.33333300  0.46070600  1
  S  S20  1  0.89286800  0.41588400  0.98084800  1
  S  S21  1  0.09343800  0.25753400  0.21884600  1
  S  S22  1  0.10713200  0.58411600  0.48084800  1
  S  S23  1  0.74246600  0.83590300  0.21884600  1
