# generated using pymatgen
data_La10S14O
_symmetry_space_group_name_H-M   'P 1'
_cell_length_a   14.92933413
_cell_length_b   14.92933413
_cell_length_c   14.92933413
_cell_angle_alpha   117.92453808
_cell_angle_beta   117.92453808
_cell_angle_gamma   93.63404172
_symmetry_Int_Tables_number   1
_chemical_formula_structural   La10S14O
_chemical_formula_sum   'La40 S56 O4'
_cell_volume   2421.45906138
_cell_formula_units_Z   4
loop_
 _symmetry_equiv_pos_site_id
 _symmetry_equiv_pos_as_xyz
  1  'x, y, z'
loop_
 _atom_site_type_symbol
 _atom_site_label
 _atom_site_symmetry_multiplicity
 _atom_site_fract_x
 _atom_site_fract_y
 _atom_site_fract_z
 _atom_site_occupancy
  La  La0  1  0.39401200  0.29971800  0.35041800  1
  La  La1  1  0.88462300  0.88462300  0.26924700  1
  La  La2  1  0.44930000  0.79971800  0.90570600  1
  La  La3  1  0.68910100  0.05051400  0.37387300  1
  La  La4  1  0.95640600  0.60598800  0.90570600  1
  La  La5  1  0.80051400  0.92664100  0.86141300  1
  La  La6  1  0.56522800  0.42664100  0.12612700  1
  La  La7  1  0.13462300  0.63462300  0.76924700  1
  La  La8  1  0.63462300  0.86537700  0.50000000  1
  La  La9  1  0.89401200  0.54359400  0.09429400  1
  La  La10  1  0.80070000  0.20640600  0.85041800  1
  La  La11  1  0.11537700  0.38462300  0.00000000  1
  La  La12  1  0.06089900  0.19948600  0.12612700  1
  La  La13  1  0.36537700  0.13462300  0.50000000  1
  La  La14  1  0.04971800  0.19930000  0.40570600  1
  La  La15  1  0.30051400  0.43910100  0.87387300  1
  La  La16  1  0.06522800  0.93910100  0.13858700  1
  La  La17  1  0.57335900  0.69948600  0.13858700  1
  La  La18  1  0.61537700  0.61537700  0.73075300  1
  La  La19  1  0.45640600  0.55070000  0.35041800  1
  La  La20  1  0.44948600  0.81089900  0.62612700  1
  La  La21  1  0.85598800  0.70640600  0.40570600  1
  La  La22  1  0.20028200  0.10598800  0.64958200  1
  La  La23  1  0.35598800  0.95028200  0.14958200  1
  La  La24  1  0.67664100  0.31522800  0.62612700  1
  La  La25  1  0.38462300  0.11537700  0.00000000  1
  La  La26  1  0.30070000  0.45028200  0.59429400  1
  La  La27  1  0.29359400  0.69930000  0.14958200  1
  La  La28  1  0.68477200  0.31089900  0.36141300  1
  La  La29  1  0.17664100  0.55051400  0.36141300  1
  La  La30  1  0.18910100  0.81522800  0.63858700  1
  La  La31  1  0.94948600  0.32335900  0.63858700  1
  La  La32  1  0.86537700  0.36537700  0.23075300  1
  La  La33  1  0.94930000  0.04359400  0.64958200  1
  La  La34  1  0.79359400  0.64401200  0.59429400  1
  La  La35  1  0.18477200  0.82335900  0.37387300  1
  La  La36  1  0.56089900  0.43477200  0.86141300  1
  La  La37  1  0.70028200  0.05070000  0.09429400  1
  La  La38  1  0.54971800  0.14401200  0.85041800  1
  La  La39  1  0.07335900  0.93477200  0.87387300  1
  S  S40  1  0.77232800  0.87500000  0.39732800  1
  S  S41  1  0.62500000  0.72767200  0.60267200  1
  S  S42  1  0.43891000  0.95947400  0.83483900  1
  S  S43  1  0.39592900  0.56109000  0.52056400  1
  S  S44  1  0.90237000  0.51064300  0.65761800  1
  S  S45  1  0.61774000  0.83497900  0.85923000  1
  S  S46  1  0.12463500  0.60407100  0.16516100  1
  S  S47  1  0.98935700  0.59763000  0.34238200  1
  S  S48  1  0.31109000  0.29052600  0.66516100  1
  S  S49  1  0.48935700  0.14697500  0.39172700  1
  S  S50  1  0.26064300  0.10302500  0.10827300  1
  S  S51  1  0.40237000  0.74475200  0.39172700  1
  S  S52  1  0.24149000  0.38226000  0.21723900  1
  S  S53  1  0.97574900  0.75851000  0.14077000  1
  S  S54  1  0.08497900  0.36774000  0.35923000  1
  S  S55  1  0.04052600  0.87536500  0.47943600  1
  S  S56  1  0.47767200  0.37500000  0.60267200  1
  S  S57  1  0.99475200  0.15237000  0.89172700  1
  S  S58  1  0.12500000  0.52232800  0.89732800  1
  S  S59  1  0.34763000  0.50524800  0.10827300  1
  S  S60  1  0.74149000  0.52425100  0.85923000  1
  S  S61  1  0.16502100  0.02425100  0.78276100  1
  S  S62  1  0.20947400  0.18891000  0.33483900  1
  S  S63  1  0.62500000  0.22767200  0.10267200  1
  S  S64  1  0.70947400  0.37463500  0.02056400  1
  S  S65  1  0.66502100  0.88226000  0.14077000  1
  S  S66  1  0.89592900  0.37536500  0.83483900  1
  S  S67  1  0.27425100  0.91502100  0.28276100  1
  S  S68  1  0.11774000  0.25851000  0.78276100  1
  S  S69  1  0.49475200  0.60302500  0.84238200  1
  S  S70  1  0.75524800  0.09763000  0.60827300  1
  S  S71  1  0.00851000  0.72574900  0.64077000  1
  S  S72  1  0.62463500  0.45947400  0.52056400  1
  S  S73  1  0.84763000  0.73935700  0.84238200  1
  S  S74  1  0.27232800  0.87500000  0.89732800  1
  S  S75  1  0.76064300  0.65237000  0.15761800  1
  S  S76  1  0.77425100  0.49149000  0.35923000  1
  S  S77  1  0.58497900  0.22574900  0.71723900  1
  S  S78  1  0.25524800  0.64697500  0.65761800  1
  S  S79  1  0.85407100  0.87463500  0.66516100  1
  S  S80  1  0.93891000  0.10407100  0.47943600  1
  S  S81  1  0.12500000  0.02232800  0.39732800  1
  S  S82  1  0.39697500  0.23935700  0.89172700  1
  S  S83  1  0.13226000  0.41502100  0.64077000  1
  S  S84  1  0.63226000  0.99149000  0.71723900  1
  S  S85  1  0.50851000  0.86774000  0.28276100  1
  S  S86  1  0.62536500  0.64592900  0.33483900  1
  S  S87  1  0.35407100  0.68891000  0.97943600  1
  S  S88  1  0.54052600  0.06109000  0.16516100  1
  S  S89  1  0.47574900  0.33497900  0.21723900  1
  S  S90  1  0.97767200  0.37500000  0.10267200  1
  S  S91  1  0.89697500  0.00524800  0.15761800  1
  S  S92  1  0.85302500  0.24475200  0.34238200  1
  S  S93  1  0.12536500  0.79052600  0.97943600  1
  S  S94  1  0.35302500  0.01064300  0.60827300  1
  S  S95  1  0.81109000  0.14592900  0.02056400  1
  O  O96  1  0.75000000  0.25000000  0.50000000  1
  O  O97  1  0.50000000  0.50000000  0.00000000  1
  O  O98  1  0.25000000  0.75000000  0.50000000  1
  O  O99  1  0.00000000  0.00000000  0.00000000  1
