# generated using pymatgen
data_BaCa(PO3)4
_symmetry_space_group_name_H-M   'P 1'
_cell_length_a   9.38750600
_cell_length_b   7.35596800
_cell_length_c   16.97310056
_cell_angle_alpha   65.34727937
_cell_angle_beta   90.00000000
_cell_angle_gamma   90.00000000
_symmetry_Int_Tables_number   1
_chemical_formula_structural   BaCa(PO3)4
_chemical_formula_sum   'Ba4 Ca4 P16 O48'
_cell_volume   1065.23330717
_cell_formula_units_Z   4
loop_
 _symmetry_equiv_pos_site_id
 _symmetry_equiv_pos_as_xyz
  1  'x, y, z'
loop_
 _atom_site_type_symbol
 _atom_site_label
 _atom_site_symmetry_multiplicity
 _atom_site_fract_x
 _atom_site_fract_y
 _atom_site_fract_z
 _atom_site_occupancy
  Ba  Ba0  1  0.89194700  0.14680500  0.36704400  1
  Ba  Ba1  1  0.39194700  0.85319500  0.13295600  1
  Ba  Ba2  1  0.10805300  0.85319500  0.63295600  1
  Ba  Ba3  1  0.60805300  0.14680500  0.86704400  1
  Ca  Ca4  1  0.76449300  0.65351200  0.84482300  1
  Ca  Ca5  1  0.23550700  0.34648800  0.15517700  1
  Ca  Ca6  1  0.26449300  0.34648800  0.65517700  1
  Ca  Ca7  1  0.73550700  0.65351200  0.34482300  1
  P  P8  1  0.51954800  0.69389100  0.67274800  1
  P  P9  1  0.10148800  0.91599300  0.82256600  1
  P  P10  1  0.98045200  0.69389100  0.17274800  1
  P  P11  1  0.89851200  0.08400700  0.17743400  1
  P  P12  1  0.48045200  0.30610900  0.32725200  1
  P  P13  1  0.33759200  0.68784300  0.93910900  1
  P  P14  1  0.74825000  0.72011700  0.04336800  1
  P  P15  1  0.01954800  0.30610900  0.82725200  1
  P  P16  1  0.39851200  0.91599300  0.32256600  1
  P  P17  1  0.66240800  0.31215700  0.06089100  1
  P  P18  1  0.25175000  0.27988300  0.95663200  1
  P  P19  1  0.83759200  0.31215700  0.56089100  1
  P  P20  1  0.60148800  0.08400700  0.67743400  1
  P  P21  1  0.16240800  0.68784300  0.43910900  1
  P  P22  1  0.24825000  0.27988300  0.45663200  1
  P  P23  1  0.75175000  0.72011700  0.54336800  1
  O  O24  1  0.49976300  0.22618200  0.69140700  1
  O  O25  1  0.22542400  0.21737000  0.05186400  1
  O  O26  1  0.90341500  0.69806000  0.08708700  1
  O  O27  1  0.68492500  0.19789700  0.58769100  1
  O  O28  1  0.39404000  0.42133500  0.24719100  1
  O  O29  1  0.68631300  0.49604900  0.08906200  1
  O  O30  1  0.10596000  0.42133500  0.74719100  1
  O  O31  1  0.50023700  0.77381800  0.30859300  1
  O  O32  1  0.81368700  0.49604900  0.58906200  1
  O  O33  1  0.65257000  0.85411500  0.06639600  1
  O  O34  1  0.31368700  0.50395100  0.91093800  1
  O  O35  1  0.98888500  0.92772500  0.15386300  1
  O  O36  1  0.86842500  0.36782400  0.83201400  1
  O  O37  1  0.65755000  0.38677300  0.96354100  1
  O  O38  1  0.27457600  0.21737000  0.55186400  1
  O  O39  1  0.60596000  0.57866500  0.75280900  1
  O  O40  1  0.72542400  0.78263000  0.44813600  1
  O  O41  1  0.31507500  0.80210300  0.41230900  1
  O  O42  1  0.15755000  0.61322700  0.53645900  1
  O  O43  1  0.00023700  0.22618200  0.19140700  1
  O  O44  1  0.63157500  0.36782400  0.33201400  1
  O  O45  1  0.84743000  0.85411500  0.56639600  1
  O  O46  1  0.13157500  0.63217600  0.16798600  1
  O  O47  1  0.45765500  0.80948000  0.88570800  1
  O  O48  1  0.20280500  0.02053200  0.74856400  1
  O  O49  1  0.54234500  0.19052000  0.11429200  1
  O  O50  1  0.34245000  0.61322700  0.03645900  1
  O  O51  1  0.40341500  0.30194000  0.41291300  1
  O  O52  1  0.89404000  0.57866500  0.25280900  1
  O  O53  1  0.59658500  0.69806000  0.58708700  1
  O  O54  1  0.29719500  0.02053200  0.24856400  1
  O  O55  1  0.81507500  0.19789700  0.08769100  1
  O  O56  1  0.79719500  0.97946800  0.25143600  1
  O  O57  1  0.70280500  0.97946800  0.75143600  1
  O  O58  1  0.51111500  0.92772500  0.65386300  1
  O  O59  1  0.04234500  0.80948000  0.38570800  1
  O  O60  1  0.15257000  0.14588500  0.43360400  1
  O  O61  1  0.77457600  0.78263000  0.94813600  1
  O  O62  1  0.48888500  0.07227500  0.34613700  1
  O  O63  1  0.01111500  0.07227500  0.84613700  1
  O  O64  1  0.18492500  0.80210300  0.91230900  1
  O  O65  1  0.84245000  0.38677300  0.46354100  1
  O  O66  1  0.99976300  0.77381800  0.80859300  1
  O  O67  1  0.09658500  0.30194000  0.91291300  1
  O  O68  1  0.36842500  0.63217600  0.66798600  1
  O  O69  1  0.18631300  0.50395100  0.41093800  1
  O  O70  1  0.95765500  0.19052000  0.61429200  1
  O  O71  1  0.34743000  0.14588500  0.93360400  1
