# generated using pymatgen
data_Ca2B5BrO9
_symmetry_space_group_name_H-M   'P 1'
_cell_length_a   6.33787800
_cell_length_b   11.38144100
_cell_length_c   11.52693500
_cell_angle_alpha   90.00000000
_cell_angle_beta   90.00000000
_cell_angle_gamma   90.00000000
_symmetry_Int_Tables_number   1
_chemical_formula_structural   Ca2B5BrO9
_chemical_formula_sum   'Ca8 B20 Br4 O36'
_cell_volume   831.48605627
_cell_formula_units_Z   4
loop_
 _symmetry_equiv_pos_site_id
 _symmetry_equiv_pos_as_xyz
  1  'x, y, z'
loop_
 _atom_site_type_symbol
 _atom_site_label
 _atom_site_symmetry_multiplicity
 _atom_site_fract_x
 _atom_site_fract_y
 _atom_site_fract_z
 _atom_site_occupancy
  Ca  Ca0  1  0.79249900  0.03759600  0.75296000  1
  Ca  Ca1  1  0.29249900  0.46240400  0.25296000  1
  Ca  Ca2  1  0.46040400  0.24519500  0.53400700  1
  Ca  Ca3  1  0.96040400  0.25480500  0.03400700  1
  Ca  Ca4  1  0.46040400  0.75480500  0.46599300  1
  Ca  Ca5  1  0.79249900  0.96240400  0.24704000  1
  Ca  Ca6  1  0.96040400  0.74519500  0.96599300  1
  Ca  Ca7  1  0.29249900  0.53759600  0.74704000  1
  B  B8  1  0.59945700  0.32072700  0.77440000  1
  B  B9  1  0.33422300  0.01321700  0.23555600  1
  B  B10  1  0.99874800  0.75161200  0.52703300  1
  B  B11  1  0.09945700  0.17927300  0.27440000  1
  B  B12  1  0.09945700  0.82072700  0.72560000  1
  B  B13  1  0.95826100  0.72055000  0.30586100  1
  B  B14  1  0.95826100  0.27945000  0.69413900  1
  B  B15  1  0.99874800  0.24838800  0.47296700  1
  B  B16  1  0.83422300  0.51321700  0.26444400  1
  B  B17  1  0.83422300  0.48678300  0.73555600  1
  B  B18  1  0.45826100  0.77945000  0.80586100  1
  B  B19  1  0.77233300  0.70899000  0.69332500  1
  B  B20  1  0.77233300  0.29101000  0.30667500  1
  B  B21  1  0.27233300  0.79101000  0.19332500  1
  B  B22  1  0.27233300  0.20899000  0.80667500  1
  B  B23  1  0.45826100  0.22055000  0.19413900  1
  B  B24  1  0.59945700  0.67927300  0.22560000  1
  B  B25  1  0.33422300  0.98678300  0.76444400  1
  B  B26  1  0.49874800  0.74838800  0.02703300  1
  B  B27  1  0.49874800  0.25161200  0.97296700  1
  Br  Br28  1  0.87716600  0.00000000  0.00000000  1
  Br  Br29  1  0.37716600  0.50000000  0.50000000  1
  Br  Br30  1  0.13871300  0.50000000  0.00000000  1
  Br  Br31  1  0.63871300  0.00000000  0.50000000  1
  O  O32  1  0.80065500  0.71887000  0.56303300  1
  O  O33  1  0.04647200  0.20600600  0.78748100  1
  O  O34  1  0.37734000  0.30758900  0.74808500  1
  O  O35  1  0.04647200  0.79399400  0.21251900  1
  O  O36  1  0.65497000  0.28310500  0.89456600  1
  O  O37  1  0.13516900  0.04977000  0.26394400  1
  O  O38  1  0.22899500  0.24529600  0.18864700  1
  O  O39  1  0.89256100  0.39765400  0.26687800  1
  O  O40  1  0.49376100  0.90779800  0.78613000  1
  O  O41  1  0.54647200  0.29399400  0.28748100  1
  O  O42  1  0.56596400  0.74478500  0.91453400  1
  O  O43  1  0.37734000  0.69241100  0.25191500  1
  O  O44  1  0.30065500  0.21887000  0.93696700  1
  O  O45  1  0.99376100  0.59220200  0.28613000  1
  O  O46  1  0.56596400  0.25521500  0.08546600  1
  O  O47  1  0.72899500  0.74529600  0.31135300  1
  O  O48  1  0.63516900  0.54977000  0.23605600  1
  O  O49  1  0.99376100  0.40779800  0.71387000  1
  O  O50  1  0.06596400  0.24478500  0.58546600  1
  O  O51  1  0.06596400  0.75521500  0.41453400  1
  O  O52  1  0.72899500  0.25470400  0.68864700  1
  O  O53  1  0.65497000  0.71689500  0.10543400  1
  O  O54  1  0.15497000  0.78310500  0.60543400  1
  O  O55  1  0.87734000  0.19241100  0.24808500  1
  O  O56  1  0.54647200  0.70600600  0.71251900  1
  O  O57  1  0.87734000  0.80758900  0.75191500  1
  O  O58  1  0.89256100  0.60234600  0.73312200  1
  O  O59  1  0.22899500  0.75470400  0.81135300  1
  O  O60  1  0.49376100  0.09220200  0.21387000  1
  O  O61  1  0.30065500  0.78113000  0.06303300  1
  O  O62  1  0.39256100  0.10234600  0.76687800  1
  O  O63  1  0.63516900  0.45023000  0.76394400  1
  O  O64  1  0.80065500  0.28113000  0.43696700  1
  O  O65  1  0.13516900  0.95023000  0.73605600  1
  O  O66  1  0.39256100  0.89765400  0.23312200  1
  O  O67  1  0.15497000  0.21689500  0.39456600  1
