# generated using pymatgen
data_Hf2NiP
_symmetry_space_group_name_H-M   'P 1'
_cell_length_a   3.59291100
_cell_length_b   5.17763000
_cell_length_c   7.42691303
_cell_angle_alpha   70.38747536
_cell_angle_beta   90.00000000
_cell_angle_gamma   90.00000000
_symmetry_Int_Tables_number   1
_chemical_formula_structural   Hf2NiP
_chemical_formula_sum   'Hf4 Ni2 P2'
_cell_volume   130.14556791
_cell_formula_units_Z   2
loop_
 _symmetry_equiv_pos_site_id
 _symmetry_equiv_pos_as_xyz
  1  'x, y, z'
loop_
 _atom_site_type_symbol
 _atom_site_label
 _atom_site_symmetry_multiplicity
 _atom_site_fract_x
 _atom_site_fract_y
 _atom_site_fract_z
 _atom_site_occupancy
  Hf  Hf0  1  0.25000000  0.22111200  0.57161100  1
  Hf  Hf1  1  0.75000000  0.77888800  0.42838900  1
  Hf  Hf2  1  0.75000000  0.28405200  0.92555600  1
  Hf  Hf3  1  0.25000000  0.71594800  0.07444400  1
  Ni  Ni4  1  0.25000000  0.64387500  0.70822600  1
  Ni  Ni5  1  0.75000000  0.35612500  0.29177400  1
  P  P6  1  0.75000000  0.86042800  0.79030600  1
  P  P7  1  0.25000000  0.13957200  0.20969400  1
