# generated using pymatgen
data_TlCr3S5
_symmetry_space_group_name_H-M   'P 1'
_cell_length_a   9.91342558
_cell_length_b   9.91342558
_cell_length_c   12.09023532
_cell_angle_alpha   58.38346489
_cell_angle_beta   58.38346489
_cell_angle_gamma   20.39836283
_symmetry_Int_Tables_number   1
_chemical_formula_structural   TlCr3S5
_chemical_formula_sum   'Tl2 Cr6 S10'
_cell_volume   350.49718782
_cell_formula_units_Z   2
loop_
 _symmetry_equiv_pos_site_id
 _symmetry_equiv_pos_as_xyz
  1  'x, y, z'
loop_
 _atom_site_type_symbol
 _atom_site_label
 _atom_site_symmetry_multiplicity
 _atom_site_fract_x
 _atom_site_fract_y
 _atom_site_fract_z
 _atom_site_occupancy
  Tl  Tl0  1  0.26132800  0.26132800  0.82573600  1
  Tl  Tl1  1  0.73867200  0.73867200  0.17426400  1
  Cr  Cr2  1  0.50000000  0.50000000  0.00000000  1
  Cr  Cr3  1  0.50000000  0.50000000  0.50000000  1
  Cr  Cr4  1  0.16443600  0.16443600  0.61188200  1
  Cr  Cr5  1  0.83556400  0.83556400  0.38811800  1
  Cr  Cr6  1  0.98351400  0.98351400  0.77258300  1
  Cr  Cr7  1  0.01648600  0.01648600  0.22741700  1
  S  S8  1  0.07594900  0.07594900  0.84877600  1
  S  S9  1  0.92405100  0.92405100  0.15122400  1
  S  S10  1  0.41028400  0.41028400  0.91733400  1
  S  S11  1  0.58971600  0.58971600  0.08266600  1
  S  S12  1  0.57591700  0.57591700  0.60745100  1
  S  S13  1  0.42408300  0.42408300  0.39254900  1
  S  S14  1  0.74434600  0.74434600  0.61778300  1
  S  S15  1  0.25565400  0.25565400  0.38221700  1
  S  S16  1  0.92000900  0.92000900  0.65190700  1
  S  S17  1  0.07999100  0.07999100  0.34809300  1
