# generated using pymatgen
data_NClOF4
_symmetry_space_group_name_H-M   'P 1'
_cell_length_a   7.01942949
_cell_length_b   7.01942949
_cell_length_c   7.01942949
_cell_angle_alpha   127.92200107
_cell_angle_beta   127.92200107
_cell_angle_gamma   76.75141734
_symmetry_Int_Tables_number   1
_chemical_formula_structural   NClOF4
_chemical_formula_sum   'N2 Cl2 O2 F8'
_cell_volume   209.00303573
_cell_formula_units_Z   2
loop_
 _symmetry_equiv_pos_site_id
 _symmetry_equiv_pos_as_xyz
  1  'x, y, z'
loop_
 _atom_site_type_symbol
 _atom_site_label
 _atom_site_symmetry_multiplicity
 _atom_site_fract_x
 _atom_site_fract_y
 _atom_site_fract_z
 _atom_site_occupancy
  N  N0  1  0.32921400  0.32921400  0.00000000  1
  N  N1  1  0.82921400  0.82921400  0.00000000  1
  Cl  Cl2  1  0.50005300  0.00005300  0.50000000  1
  Cl  Cl3  1  0.00005300  0.50005300  0.50000000  1
  O  O4  1  0.72857100  0.72857100  0.00000000  1
  O  O5  1  0.22857100  0.22857100  0.00000000  1
  F  F6  1  0.97058000  0.75559600  0.50000000  1
  F  F7  1  0.53476800  0.03476800  0.81305100  1
  F  F8  1  0.25559600  0.47058000  0.50000000  1
  F  F9  1  0.03476800  0.22171700  0.50000000  1
  F  F10  1  0.47058000  0.97058000  0.21498400  1
  F  F11  1  0.72171700  0.53476800  0.50000000  1
  F  F12  1  0.75559600  0.25559600  0.78501600  1
  F  F13  1  0.22171700  0.72171700  0.18694900  1
