# generated using pymatgen
data_Ba2SnS4
_symmetry_space_group_name_H-M   'P 1'
_cell_length_a   8.68419900
_cell_length_b   8.61714800
_cell_length_c   12.17349512
_cell_angle_alpha   67.15602969
_cell_angle_beta   90.00000000
_cell_angle_gamma   90.00000000
_symmetry_Int_Tables_number   1
_chemical_formula_structural   Ba2SnS4
_chemical_formula_sum   'Ba8 Sn4 S16'
_cell_volume   839.52727123
_cell_formula_units_Z   4
loop_
 _symmetry_equiv_pos_site_id
 _symmetry_equiv_pos_as_xyz
  1  'x, y, z'
loop_
 _atom_site_type_symbol
 _atom_site_label
 _atom_site_symmetry_multiplicity
 _atom_site_fract_x
 _atom_site_fract_y
 _atom_site_fract_z
 _atom_site_occupancy
  Ba  Ba0  1  0.80737200  0.04019600  0.64972500  1
  Ba  Ba1  1  0.30737200  0.95980400  0.85027500  1
  Ba  Ba2  1  0.19262800  0.95980400  0.35027500  1
  Ba  Ba3  1  0.69262800  0.04019600  0.14972500  1
  Ba  Ba4  1  0.87653400  0.42568300  0.83460800  1
  Ba  Ba5  1  0.37653400  0.57431700  0.66539200  1
  Ba  Ba6  1  0.12346600  0.57431700  0.16539200  1
  Ba  Ba7  1  0.62346600  0.42568300  0.33460800  1
  Sn  Sn8  1  0.81139500  0.70007300  0.49057600  1
  Sn  Sn9  1  0.31139500  0.29992700  0.00942400  1
  Sn  Sn10  1  0.18860500  0.29992700  0.50942400  1
  Sn  Sn11  1  0.68860500  0.70007300  0.99057600  1
  S  S12  1  0.98475700  0.24624400  0.39218100  1
  S  S13  1  0.48475700  0.75375600  0.10781900  1
  S  S14  1  0.01524300  0.75375600  0.60781900  1
  S  S15  1  0.51524300  0.24624400  0.89218100  1
  S  S16  1  0.89809200  0.73082300  0.29477000  1
  S  S17  1  0.39809200  0.26917700  0.20523000  1
  S  S18  1  0.10190800  0.26917700  0.70523000  1
  S  S19  1  0.60190800  0.73082300  0.79477000  1
  S  S20  1  0.88236200  0.91348200  0.94541200  1
  S  S21  1  0.38236200  0.08651800  0.55458800  1
  S  S22  1  0.11763800  0.08651800  0.05458800  1
  S  S23  1  0.61763800  0.91348200  0.44541200  1
  S  S24  1  0.80783800  0.42742600  0.09798700  1
  S  S25  1  0.30783800  0.57257400  0.40201300  1
  S  S26  1  0.19216200  0.57257400  0.90201300  1
  S  S27  1  0.69216200  0.42742600  0.59798700  1
