# generated using pymatgen
data_Pr5(CBr4)2
_symmetry_space_group_name_H-M   'P 1'
_cell_length_a   9.29346800
_cell_length_b   12.45059842
_cell_length_c   17.09196909
_cell_angle_alpha   100.13488524
_cell_angle_beta   90.10666722
_cell_angle_gamma   95.79886964
_symmetry_Int_Tables_number   1
_chemical_formula_structural   Pr5(CBr4)2
_chemical_formula_sum   'Pr20 C8 Br32'
_cell_volume   1936.48705864
_cell_formula_units_Z   4
loop_
 _symmetry_equiv_pos_site_id
 _symmetry_equiv_pos_as_xyz
  1  'x, y, z'
loop_
 _atom_site_type_symbol
 _atom_site_label
 _atom_site_symmetry_multiplicity
 _atom_site_fract_x
 _atom_site_fract_y
 _atom_site_fract_z
 _atom_site_occupancy
  Pr  Pr0  1  0.25952300  0.00576600  0.30203900  1
  Pr  Pr1  1  0.12931200  0.36932800  0.22662600  1
  Pr  Pr2  1  0.83536600  0.93437800  0.90664200  1
  Pr  Pr3  1  0.16463400  0.06562200  0.09335800  1
  Pr  Pr4  1  0.41413300  0.56539400  0.38225800  1
  Pr  Pr5  1  0.55388800  0.74010400  0.75375400  1
  Pr  Pr6  1  0.74047700  0.99423400  0.69796100  1
  Pr  Pr7  1  0.65880000  0.51262900  0.20029800  1
  Pr  Pr8  1  0.34120000  0.48737100  0.79970200  1
  Pr  Pr9  1  0.58586700  0.43460600  0.61774200  1
  Pr  Pr10  1  0.31681100  0.62726800  0.17718100  1
  Pr  Pr11  1  0.38012700  0.35204500  0.03654400  1
  Pr  Pr12  1  0.68318900  0.37273200  0.82281900  1
  Pr  Pr13  1  0.91485900  0.11547300  0.27502000  1
  Pr  Pr14  1  0.44611200  0.25989600  0.24624600  1
  Pr  Pr15  1  0.17715100  0.26844500  0.44132800  1
  Pr  Pr16  1  0.61987300  0.64795500  0.96345600  1
  Pr  Pr17  1  0.87068800  0.63067200  0.77337400  1
  Pr  Pr18  1  0.08514100  0.88452700  0.72498000  1
  Pr  Pr19  1  0.82284900  0.73155500  0.55867200  1
  C  C20  1  0.60177200  0.52392500  0.74873300  1
  C  C21  1  0.81811300  0.79644600  0.69461900  1
  C  C22  1  0.39822800  0.47607500  0.25126700  1
  C  C23  1  0.82244100  0.84540700  0.77565300  1
  C  C24  1  0.18188700  0.20355400  0.30538100  1
  C  C25  1  0.17755900  0.15459300  0.22434700  1
  C  C26  1  0.39139000  0.42736100  0.17045600  1
  C  C27  1  0.60861000  0.57263900  0.82954400  1
  Br  Br28  1  0.92977700  0.72524400  0.95426900  1
  Br  Br29  1  0.86895800  0.20669100  0.44478400  1
  Br  Br30  1  0.30209900  0.56591000  0.98742400  1
  Br  Br31  1  0.52216000  0.85488200  0.92948300  1
  Br  Br32  1  0.78531800  0.31284700  0.23087400  1
  Br  Br33  1  0.00247100  0.57082600  0.18126000  1
  Br  Br34  1  0.10416100  0.48890000  0.40290100  1
  Br  Br35  1  0.21468200  0.68715300  0.76912600  1
  Br  Br36  1  0.70990000  0.92666400  0.52354900  1
  Br  Br37  1  0.42725500  0.94567800  0.71854400  1
  Br  Br38  1  0.13104200  0.79330900  0.55521600  1
  Br  Br39  1  0.49722600  0.64436700  0.57048400  1
  Br  Br40  1  0.99752900  0.42917400  0.81874000  1
  Br  Br41  1  0.03749900  0.09459500  0.68625300  1
  Br  Br42  1  0.74863500  0.14101200  0.86462200  1
  Br  Br43  1  0.25136500  0.85898800  0.13537800  1
  Br  Br44  1  0.89584000  0.51110000  0.59709900  1
  Br  Br45  1  0.66304900  0.22983000  0.66229000  1
  Br  Br46  1  0.61843700  0.72460700  0.15300400  1
  Br  Br47  1  0.07022300  0.27475600  0.04573100  1
  Br  Br48  1  0.57274500  0.05432200  0.28145600  1
  Br  Br49  1  0.33695100  0.77017000  0.33771000  1
  Br  Br50  1  0.15004500  0.99695800  0.89988200  1
  Br  Br51  1  0.96250100  0.90540500  0.31374700  1
  Br  Br52  1  0.84995500  0.00304200  0.10011800  1
  Br  Br53  1  0.69790100  0.43409000  0.01257600  1
  Br  Br54  1  0.38156300  0.27539300  0.84699600  1
  Br  Br55  1  0.72956800  0.62398000  0.36838800  1
  Br  Br56  1  0.27043200  0.37602000  0.63161200  1
  Br  Br57  1  0.47784000  0.14511800  0.07051700  1
  Br  Br58  1  0.50277400  0.35563300  0.42951600  1
  Br  Br59  1  0.29010000  0.07333600  0.47645100  1
