# generated using pymatgen
data_CrF4
_symmetry_space_group_name_H-M   'P 1'
_cell_length_a   9.10630551
_cell_length_b   9.10630551
_cell_length_c   7.36946219
_cell_angle_alpha   79.48571793
_cell_angle_beta   79.48571793
_cell_angle_gamma   67.43261579
_symmetry_Int_Tables_number   1
_chemical_formula_structural   CrF4
_chemical_formula_sum   'Cr8 F32'
_cell_volume   550.57043462
_cell_formula_units_Z   8
loop_
 _symmetry_equiv_pos_site_id
 _symmetry_equiv_pos_as_xyz
  1  'x, y, z'
loop_
 _atom_site_type_symbol
 _atom_site_label
 _atom_site_symmetry_multiplicity
 _atom_site_fract_x
 _atom_site_fract_y
 _atom_site_fract_z
 _atom_site_occupancy
  Cr  Cr0  1  0.25709200  0.74738200  0.50208300  1
  Cr  Cr1  1  0.81773500  0.81426300  0.10544300  1
  Cr  Cr2  1  0.18573700  0.18226500  0.39455700  1
  Cr  Cr3  1  0.81426300  0.81773500  0.60544300  1
  Cr  Cr4  1  0.18226500  0.18573700  0.89455700  1
  Cr  Cr5  1  0.74738200  0.25709200  0.00208300  1
  Cr  Cr6  1  0.74290800  0.25261800  0.49791700  1
  Cr  Cr7  1  0.25261800  0.74290800  0.99791700  1
  F  F8  1  0.24349900  0.95957000  0.00056700  1
  F  F9  1  0.02491200  0.83809400  0.09634100  1
  F  F10  1  0.16190600  0.97508800  0.40365900  1
  F  F11  1  0.76114500  0.88253400  0.35184300  1
  F  F12  1  0.11746600  0.23885500  0.14815700  1
  F  F13  1  0.62309200  0.82480600  0.10301100  1
  F  F14  1  0.54499900  0.31817600  0.09132200  1
  F  F15  1  0.23885500  0.11746600  0.64815700  1
  F  F16  1  0.45500100  0.68182400  0.90867800  1
  F  F17  1  0.95957000  0.24349900  0.50056700  1
  F  F18  1  0.09501200  0.38641500  0.80681900  1
  F  F19  1  0.81156500  0.18843500  0.25000000  1
  F  F20  1  0.22636400  0.56106900  0.01236700  1
  F  F21  1  0.77363600  0.43893100  0.98763300  1
  F  F22  1  0.90498700  0.61358500  0.19318100  1
  F  F23  1  0.69178800  0.30821200  0.75000000  1
  F  F24  1  0.18843500  0.81156500  0.75000000  1
  F  F25  1  0.17519400  0.37690800  0.39698900  1
  F  F26  1  0.04043000  0.75650100  0.49943300  1
  F  F27  1  0.97508800  0.16190600  0.90365900  1
  F  F28  1  0.83809400  0.02491200  0.59634100  1
  F  F29  1  0.43893100  0.77363600  0.48763300  1
  F  F30  1  0.82480600  0.62309200  0.60301100  1
  F  F31  1  0.38641500  0.09501300  0.30681900  1
  F  F32  1  0.37690800  0.17519400  0.89698900  1
  F  F33  1  0.30821200  0.69178800  0.25000000  1
  F  F34  1  0.88253400  0.76114500  0.85184300  1
  F  F35  1  0.75650100  0.04043000  0.99943300  1
  F  F36  1  0.56106900  0.22636400  0.51236700  1
  F  F37  1  0.31817600  0.54499900  0.59132200  1
  F  F38  1  0.61358500  0.90498800  0.69318100  1
  F  F39  1  0.68182400  0.45500100  0.40867800  1
