# generated using pymatgen
data_Mg2B24C
_symmetry_space_group_name_H-M   'P 1'
_cell_length_a   8.96590600
_cell_length_b   8.96590600
_cell_length_c   5.08913900
_cell_angle_alpha   90.00000000
_cell_angle_beta   90.00000000
_cell_angle_gamma   90.00000000
_symmetry_Int_Tables_number   1
_chemical_formula_structural   Mg2B24C
_chemical_formula_sum   'Mg4 B48 C2'
_cell_volume   409.10301073
_cell_formula_units_Z   2
loop_
 _symmetry_equiv_pos_site_id
 _symmetry_equiv_pos_as_xyz
  1  'x, y, z'
loop_
 _atom_site_type_symbol
 _atom_site_label
 _atom_site_symmetry_multiplicity
 _atom_site_fract_x
 _atom_site_fract_y
 _atom_site_fract_z
 _atom_site_occupancy
  Mg  Mg0  1  0.00000000  0.00000000  0.00000000  1
  Mg  Mg1  1  0.50000000  0.50000000  0.50000000  1
  Mg  Mg2  1  0.00000000  0.50000000  0.75000000  1
  Mg  Mg3  1  0.50000000  0.00000000  0.25000000  1
  B  B4  1  0.59843100  0.80587000  0.08291600  1
  B  B5  1  0.75903900  0.07769000  0.91534800  1
  B  B6  1  0.61578400  0.37165600  0.87573600  1
  B  B7  1  0.75151900  0.73521900  0.91507900  1
  B  B8  1  0.25151900  0.76478100  0.41507900  1
  B  B9  1  0.40156900  0.19413000  0.08291600  1
  B  B10  1  0.26478100  0.75151900  0.08492100  1
  B  B11  1  0.73085500  0.40716800  0.58750700  1
  B  B12  1  0.92231000  0.75903900  0.08465200  1
  B  B13  1  0.32528000  0.92046400  0.59859100  1
  B  B14  1  0.24096100  0.92231000  0.91534800  1
  B  B15  1  0.90716800  0.23085500  0.91249300  1
  B  B16  1  0.73521900  0.24848100  0.08492100  1
  B  B17  1  0.38421600  0.62834400  0.87573600  1
  B  B18  1  0.07769000  0.24096100  0.08465200  1
  B  B19  1  0.42231000  0.74096100  0.58465200  1
  B  B20  1  0.90156900  0.30587000  0.58291600  1
  B  B21  1  0.23521900  0.25151900  0.58492100  1
  B  B22  1  0.11578400  0.12834400  0.37573600  1
  B  B23  1  0.80587000  0.40156900  0.91708400  1
  B  B24  1  0.62834400  0.61578400  0.12426400  1
  B  B25  1  0.76914500  0.90716800  0.08750700  1
  B  B26  1  0.74848100  0.23521900  0.41507900  1
  B  B27  1  0.74096100  0.57769000  0.41534800  1
  B  B28  1  0.09283200  0.76914500  0.91249300  1
  B  B29  1  0.25903900  0.42231000  0.41534800  1
  B  B30  1  0.40716800  0.26914500  0.41249300  1
  B  B31  1  0.24848100  0.26478100  0.91507900  1
  B  B32  1  0.88421600  0.87165600  0.37573600  1
  B  B33  1  0.57953600  0.17472000  0.90140900  1
  B  B34  1  0.42046400  0.82528000  0.90140900  1
  B  B35  1  0.69413000  0.90156900  0.41708400  1
  B  B36  1  0.57769000  0.25903900  0.58465200  1
  B  B37  1  0.87165600  0.11578400  0.62426400  1
  B  B38  1  0.30587000  0.09843100  0.41708400  1
  B  B39  1  0.59283200  0.73085500  0.41249300  1
  B  B40  1  0.07953600  0.32528000  0.40140900  1
  B  B41  1  0.37165600  0.38421600  0.12426400  1
  B  B42  1  0.92046400  0.67472000  0.40140900  1
  B  B43  1  0.26914500  0.59283200  0.58750700  1
  B  B44  1  0.09843100  0.69413000  0.58291600  1
  B  B45  1  0.19413000  0.59843100  0.91708400  1
  B  B46  1  0.76478100  0.74848100  0.58492100  1
  B  B47  1  0.23085500  0.09283200  0.08750700  1
  B  B48  1  0.17472000  0.42046400  0.09859100  1
  B  B49  1  0.12834400  0.88421600  0.62426400  1
  B  B50  1  0.82528000  0.57953600  0.09859100  1
  B  B51  1  0.67472000  0.07953600  0.59859100  1
  C  C52  1  0.00000000  0.00000000  0.50000000  1
  C  C53  1  0.50000000  0.50000000  0.00000000  1
