# generated using pymatgen
data_Yb(IO3)3
_symmetry_space_group_name_H-M   'P 1'
_cell_length_a   6.11836100
_cell_length_b   8.91783300
_cell_length_c   16.48305956
_cell_angle_alpha   64.84555906
_cell_angle_beta   90.00000000
_cell_angle_gamma   90.00000000
_symmetry_Int_Tables_number   1
_chemical_formula_structural   Yb(IO3)3
_chemical_formula_sum   'Yb4 I12 O36'
_cell_volume   814.06703912
_cell_formula_units_Z   4
loop_
 _symmetry_equiv_pos_site_id
 _symmetry_equiv_pos_as_xyz
  1  'x, y, z'
loop_
 _atom_site_type_symbol
 _atom_site_label
 _atom_site_symmetry_multiplicity
 _atom_site_fract_x
 _atom_site_fract_y
 _atom_site_fract_z
 _atom_site_occupancy
  Yb  Yb0  1  0.77310100  0.64517400  0.39361100  1
  Yb  Yb1  1  0.72689900  0.64517400  0.89361100  1
  Yb  Yb2  1  0.27310100  0.35482600  0.10638900  1
  Yb  Yb3  1  0.22689900  0.35482600  0.60638900  1
  I  I4  1  0.85805500  0.13971500  0.52345200  1
  I  I5  1  0.14194500  0.86028500  0.47654800  1
  I  I6  1  0.80784200  0.56043500  0.14939000  1
  I  I7  1  0.19215800  0.43956500  0.85061000  1
  I  I8  1  0.40573600  0.91741600  0.69595600  1
  I  I9  1  0.64194500  0.13971500  0.02345200  1
  I  I10  1  0.90573600  0.08258400  0.80404400  1
  I  I11  1  0.35805500  0.86028500  0.97654800  1
  I  I12  1  0.69215800  0.56043500  0.64939000  1
  I  I13  1  0.30784200  0.43956500  0.35061000  1
  I  I14  1  0.09426400  0.91741600  0.19595600  1
  I  I15  1  0.59426400  0.08258400  0.30404400  1
  O  O16  1  0.59536000  0.16043300  0.39112800  1
  O  O17  1  0.50454000  0.86626500  0.37019000  1
  O  O18  1  0.45004200  0.43407600  0.70038100  1
  O  O19  1  0.42091700  0.13996200  0.94366100  1
  O  O20  1  0.81770900  0.84522900  0.23799000  1
  O  O21  1  0.89449100  0.39165400  0.67539800  1
  O  O22  1  0.46960300  0.10780400  0.12061900  1
  O  O23  1  0.53039700  0.89219600  0.87938100  1
  O  O24  1  0.87162600  0.36712600  0.47776000  1
  O  O25  1  0.57908300  0.86003800  0.05633900  1
  O  O26  1  0.07908300  0.13996200  0.44366100  1
  O  O27  1  0.18229100  0.15477100  0.76201000  1
  O  O28  1  0.54995800  0.56592400  0.29961900  1
  O  O29  1  0.96960300  0.89219600  0.37938100  1
  O  O30  1  0.37087600  0.40224700  0.46566800  1
  O  O31  1  0.09536000  0.83956700  0.10887200  1
  O  O32  1  0.90464000  0.16043300  0.89112800  1
  O  O33  1  0.39449100  0.60834600  0.82460200  1
  O  O34  1  0.00454000  0.13373500  0.12981000  1
  O  O35  1  0.62912400  0.59775300  0.53433200  1
  O  O36  1  0.68229100  0.84522900  0.73799000  1
  O  O37  1  0.62837400  0.36712600  0.97776000  1
  O  O38  1  0.92091700  0.86003800  0.55633900  1
  O  O39  1  0.40464000  0.83956700  0.60887200  1
  O  O40  1  0.49546000  0.13373500  0.62981000  1
  O  O41  1  0.60550900  0.39165400  0.17539800  1
  O  O42  1  0.04995800  0.43407600  0.20038100  1
  O  O43  1  0.99546000  0.86626500  0.87019000  1
  O  O44  1  0.10550900  0.60834600  0.32460200  1
  O  O45  1  0.03039700  0.10780400  0.62061900  1
  O  O46  1  0.95004200  0.56592400  0.79961900  1
  O  O47  1  0.87087600  0.59775300  0.03433200  1
  O  O48  1  0.12912400  0.40224700  0.96566800  1
  O  O49  1  0.12837400  0.63287400  0.52224000  1
  O  O50  1  0.37162600  0.63287400  0.02224000  1
  O  O51  1  0.31770900  0.15477100  0.26201000  1
