# generated using pymatgen
data_Ba6Mg23
_symmetry_space_group_name_H-M   'P 1'
_cell_length_a   10.77372641
_cell_length_b   10.77372641
_cell_length_c   10.77372641
_cell_angle_alpha   60.00000000
_cell_angle_beta   60.00000000
_cell_angle_gamma   60.00000000
_symmetry_Int_Tables_number   1
_chemical_formula_structural   Ba6Mg23
_chemical_formula_sum   'Ba6 Mg23'
_cell_volume   884.26580308
_cell_formula_units_Z   1
loop_
 _symmetry_equiv_pos_site_id
 _symmetry_equiv_pos_as_xyz
  1  'x, y, z'
loop_
 _atom_site_type_symbol
 _atom_site_label
 _atom_site_symmetry_multiplicity
 _atom_site_fract_x
 _atom_site_fract_y
 _atom_site_fract_z
 _atom_site_occupancy
  Ba  Ba0  1  0.21295100  0.78704900  0.21295100  1
  Ba  Ba1  1  0.21295100  0.78704900  0.78704900  1
  Ba  Ba2  1  0.21295100  0.21295100  0.78704900  1
  Ba  Ba3  1  0.78704900  0.21295100  0.21295100  1
  Ba  Ba4  1  0.78704900  0.78704900  0.21295100  1
  Ba  Ba5  1  0.78704900  0.21295100  0.78704900  1
  Mg  Mg6  1  0.62387300  0.62387300  0.62387300  1
  Mg  Mg7  1  0.17654000  0.47038000  0.17654000  1
  Mg  Mg8  1  0.00000000  0.50000000  0.50000000  1
  Mg  Mg9  1  0.50000000  0.50000000  0.50000000  1
  Mg  Mg10  1  0.82346000  0.82346000  0.82346000  1
  Mg  Mg11  1  0.82346000  0.82346000  0.52962000  1
  Mg  Mg12  1  0.17654000  0.17654000  0.47038000  1
  Mg  Mg13  1  0.62387300  0.62387300  0.12838100  1
  Mg  Mg14  1  0.37612700  0.87161900  0.37612700  1
  Mg  Mg15  1  0.50000000  0.50000000  0.00000000  1
  Mg  Mg16  1  0.12838100  0.62387300  0.62387300  1
  Mg  Mg17  1  0.87161900  0.37612700  0.37612700  1
  Mg  Mg18  1  0.82346000  0.52962000  0.82346000  1
  Mg  Mg19  1  0.17654000  0.17654000  0.17654000  1
  Mg  Mg20  1  0.47038000  0.17654000  0.17654000  1
  Mg  Mg21  1  0.50000000  0.00000000  0.50000000  1
  Mg  Mg22  1  0.62387300  0.12838100  0.62387300  1
  Mg  Mg23  1  0.37612700  0.37612700  0.37612700  1
  Mg  Mg24  1  0.37612700  0.37612700  0.87161900  1
  Mg  Mg25  1  0.50000000  0.00000000  0.00000000  1
  Mg  Mg26  1  0.52962000  0.82346000  0.82346000  1
  Mg  Mg27  1  0.00000000  0.50000000  0.00000000  1
  Mg  Mg28  1  0.00000000  0.00000000  0.50000000  1
