# generated using pymatgen
data_AlAu2
_symmetry_space_group_name_H-M   'P 1'
_cell_length_a   3.27803500
_cell_length_b   6.87025800
_cell_length_c   9.08277400
_cell_angle_alpha   90.00000000
_cell_angle_beta   90.00000000
_cell_angle_gamma   90.00000000
_symmetry_Int_Tables_number   1
_chemical_formula_structural   AlAu2
_chemical_formula_sum   'Al4 Au8'
_cell_volume   204.55266445
_cell_formula_units_Z   4
loop_
 _symmetry_equiv_pos_site_id
 _symmetry_equiv_pos_as_xyz
  1  'x, y, z'
loop_
 _atom_site_type_symbol
 _atom_site_label
 _atom_site_symmetry_multiplicity
 _atom_site_fract_x
 _atom_site_fract_y
 _atom_site_fract_z
 _atom_site_occupancy
  Al  Al0  1  0.75000000  0.87043100  0.22045800  1
  Al  Al1  1  0.25000000  0.12956900  0.77954200  1
  Al  Al2  1  0.25000000  0.62956900  0.72045800  1
  Al  Al3  1  0.75000000  0.37043100  0.27954200  1
  Au  Au4  1  0.75000000  0.34979800  0.57710700  1
  Au  Au5  1  0.75000000  0.91357800  0.61586700  1
  Au  Au6  1  0.25000000  0.08642200  0.38413300  1
  Au  Au7  1  0.25000000  0.58642200  0.11586700  1
  Au  Au8  1  0.75000000  0.84979800  0.92289300  1
  Au  Au9  1  0.25000000  0.15020200  0.07710700  1
  Au  Au10  1  0.75000000  0.41357800  0.88413300  1
  Au  Au11  1  0.25000000  0.65020200  0.42289300  1
