# generated using pymatgen
data_La4Al5Br2
_symmetry_space_group_name_H-M   'P 1'
_cell_length_a   11.87201445
_cell_length_b   11.87201445
_cell_length_c   4.36389300
_cell_angle_alpha   90.00000000
_cell_angle_beta   90.00000000
_cell_angle_gamma   93.68466155
_symmetry_Int_Tables_number   1
_chemical_formula_structural   La4Al5Br2
_chemical_formula_sum   'La8 Al10 Br4'
_cell_volume   613.79627564
_cell_formula_units_Z   2
loop_
 _symmetry_equiv_pos_site_id
 _symmetry_equiv_pos_as_xyz
  1  'x, y, z'
loop_
 _atom_site_type_symbol
 _atom_site_label
 _atom_site_symmetry_multiplicity
 _atom_site_fract_x
 _atom_site_fract_y
 _atom_site_fract_z
 _atom_site_occupancy
  La  La0  1  0.73494900  0.73494900  0.00000000  1
  La  La1  1  0.04030600  0.67689200  0.50000000  1
  La  La2  1  0.36371200  0.63628800  0.00000000  1
  La  La3  1  0.95969400  0.32310800  0.50000000  1
  La  La4  1  0.26505100  0.26505100  0.00000000  1
  La  La5  1  0.63628800  0.36371200  0.00000000  1
  La  La6  1  0.67689200  0.04030600  0.50000000  1
  La  La7  1  0.32310800  0.95969400  0.50000000  1
  Al  Al8  1  0.57915800  0.57915800  0.50000000  1
  Al  Al9  1  0.42084200  0.42084200  0.50000000  1
  Al  Al10  1  0.21609400  0.47971800  0.50000000  1
  Al  Al11  1  0.78390600  0.52028200  0.50000000  1
  Al  Al12  1  0.52856100  0.89797300  0.00000000  1
  Al  Al13  1  0.52028200  0.78390600  0.50000000  1
  Al  Al14  1  0.47143900  0.10202700  0.00000000  1
  Al  Al15  1  0.10202700  0.47143900  0.00000000  1
  Al  Al16  1  0.47971800  0.21609400  0.50000000  1
  Al  Al17  1  0.89797300  0.52856100  0.00000000  1
  Br  Br18  1  0.87736600  0.87736600  0.50000000  1
  Br  Br19  1  0.17226600  0.82773400  0.00000000  1
  Br  Br20  1  0.12263400  0.12263400  0.50000000  1
  Br  Br21  1  0.82773400  0.17226600  0.00000000  1
