# generated using pymatgen
data_CeAg6(NO3)9
_symmetry_space_group_name_H-M   'P 1'
_cell_length_a   10.83501230
_cell_length_b   10.83501230
_cell_length_c   10.83501306
_cell_angle_alpha   100.68433178
_cell_angle_beta   100.68433178
_cell_angle_gamma   100.68433468
_symmetry_Int_Tables_number   1
_chemical_formula_structural   CeAg6(NO3)9
_chemical_formula_sum   'Ce2 Ag12 N18 O54'
_cell_volume   1196.04690347
_cell_formula_units_Z   2
loop_
 _symmetry_equiv_pos_site_id
 _symmetry_equiv_pos_as_xyz
  1  'x, y, z'
loop_
 _atom_site_type_symbol
 _atom_site_label
 _atom_site_symmetry_multiplicity
 _atom_site_fract_x
 _atom_site_fract_y
 _atom_site_fract_z
 _atom_site_occupancy
  Ce  Ce0  1  0.00000000  0.00000000  0.00000000  1
  Ce  Ce1  1  0.50000000  0.50000000  0.50000000  1
  Ag  Ag2  1  0.25000000  0.86728000  0.63272000  1
  Ag  Ag3  1  0.45821600  0.25000000  0.04178400  1
  Ag  Ag4  1  0.86728000  0.63272000  0.25000000  1
  Ag  Ag5  1  0.75000000  0.13272000  0.36728000  1
  Ag  Ag6  1  0.75000000  0.95821600  0.54178400  1
  Ag  Ag7  1  0.04178400  0.45821600  0.25000000  1
  Ag  Ag8  1  0.25000000  0.04178400  0.45821600  1
  Ag  Ag9  1  0.36728000  0.75000000  0.13272000  1
  Ag  Ag10  1  0.95821600  0.54178400  0.75000000  1
  Ag  Ag11  1  0.63272000  0.25000000  0.86728000  1
  Ag  Ag12  1  0.54178400  0.75000000  0.95821600  1
  Ag  Ag13  1  0.13272000  0.36728000  0.75000000  1
  N  N14  1  0.50679900  0.21313400  0.43145700  1
  N  N15  1  0.31617800  0.18382200  0.75000000  1
  N  N16  1  0.56854300  0.49320100  0.78686600  1
  N  N17  1  0.28686600  0.99320100  0.06854300  1
  N  N18  1  0.18382200  0.75000000  0.31617800  1
  N  N19  1  0.93145700  0.71313400  0.00679900  1
  N  N20  1  0.78686600  0.56854300  0.49320000  1
  N  N21  1  0.81617800  0.25000000  0.68382200  1
  N  N22  1  0.25000000  0.68382200  0.81617800  1
  N  N23  1  0.71313400  0.00680000  0.93145700  1
  N  N24  1  0.43145700  0.50679900  0.21313400  1
  N  N25  1  0.99320100  0.06854300  0.28686600  1
  N  N26  1  0.68382200  0.81617800  0.25000000  1
  N  N27  1  0.49320100  0.78686600  0.56854300  1
  N  N28  1  0.06854300  0.28686600  0.99320100  1
  N  N29  1  0.00679900  0.93145700  0.71313400  1
  N  N30  1  0.21313400  0.43145700  0.50680000  1
  N  N31  1  0.75000000  0.31617800  0.18382200  1
  O  O32  1  0.24724400  0.44718600  0.40210700  1
  O  O33  1  0.44718600  0.40210700  0.24724400  1
  O  O34  1  0.40424000  0.51120700  0.09765600  1
  O  O35  1  0.05281400  0.25275600  0.09789300  1
  O  O36  1  0.27610200  0.84741100  0.32985000  1
  O  O37  1  0.17015000  0.65258900  0.22389800  1
  O  O38  1  0.48879300  0.90234400  0.59576000  1
  O  O39  1  0.51120700  0.09765600  0.40424000  1
  O  O40  1  0.72389800  0.15258900  0.67015000  1
  O  O41  1  0.98879300  0.09576000  0.40234400  1
  O  O42  1  0.19629600  0.89402500  0.05482300  1
  O  O43  1  0.77610200  0.82985000  0.34741100  1
  O  O44  1  0.34741100  0.77610200  0.82985000  1
  O  O45  1  0.09576000  0.40234400  0.98879300  1
  O  O46  1  0.89402500  0.05482300  0.19629600  1
  O  O47  1  0.67015000  0.72389800  0.15258900  1
  O  O48  1  0.94718600  0.74724400  0.90210700  1
  O  O49  1  0.30370400  0.44517700  0.60597500  1
  O  O50  1  0.39402500  0.69629600  0.55482300  1
  O  O51  1  0.40210700  0.24724400  0.44718600  1
  O  O52  1  0.09789300  0.05281400  0.25275600  1
  O  O53  1  0.40234400  0.98879300  0.09576000  1
  O  O54  1  0.90210700  0.94718600  0.74724400  1
  O  O55  1  0.84741100  0.32985000  0.27610200  1
  O  O56  1  0.74724400  0.90210700  0.94718600  1
  O  O57  1  0.80370400  0.10597500  0.94517700  1
  O  O58  1  0.09765600  0.40424000  0.51120700  1
  O  O59  1  0.90234400  0.59576000  0.48879300  1
  O  O60  1  0.25275600  0.09789300  0.05281400  1
  O  O61  1  0.90424000  0.59765600  0.01120700  1
  O  O62  1  0.75000000  0.39175800  0.10824200  1
  O  O63  1  0.59789300  0.75275600  0.55281400  1
  O  O64  1  0.75275600  0.55281400  0.59789300  1
  O  O65  1  0.94517700  0.80370400  0.10597500  1
  O  O66  1  0.69629600  0.55482300  0.39402500  1
  O  O67  1  0.15258900  0.67015000  0.72389800  1
  O  O68  1  0.65258900  0.22389800  0.17015000  1
  O  O69  1  0.01120700  0.90424000  0.59765600  1
  O  O70  1  0.59576000  0.48879300  0.90234400  1
  O  O71  1  0.60597500  0.30370400  0.44517700  1
  O  O72  1  0.55281400  0.59789300  0.75275600  1
  O  O73  1  0.10597500  0.94517700  0.80370400  1
  O  O74  1  0.82985000  0.34741100  0.77610200  1
  O  O75  1  0.05482300  0.19629600  0.89402500  1
  O  O76  1  0.60824200  0.89175800  0.25000000  1
  O  O77  1  0.39175800  0.10824200  0.75000000  1
  O  O78  1  0.25000000  0.60824200  0.89175800  1
  O  O79  1  0.32985000  0.27610200  0.84741100  1
  O  O80  1  0.59765600  0.01120700  0.90424000  1
  O  O81  1  0.55482300  0.39402500  0.69629600  1
  O  O82  1  0.44517700  0.60597500  0.30370400  1
  O  O83  1  0.10824200  0.75000000  0.39175800  1
  O  O84  1  0.22389800  0.17015000  0.65258900  1
  O  O85  1  0.89175800  0.25000000  0.60824200  1
