# generated using pymatgen
data_SrFe3P3O13
_symmetry_space_group_name_H-M   'P 1'
_cell_length_a   6.43414100
_cell_length_b   7.70245100
_cell_length_c   10.47583658
_cell_angle_alpha   80.44288196
_cell_angle_beta   90.00000000
_cell_angle_gamma   90.00000000
_symmetry_Int_Tables_number   1
_chemical_formula_structural   SrFe3P3O13
_chemical_formula_sum   'Sr2 Fe6 P6 O26'
_cell_volume   511.96262089
_cell_formula_units_Z   2
loop_
 _symmetry_equiv_pos_site_id
 _symmetry_equiv_pos_as_xyz
  1  'x, y, z'
loop_
 _atom_site_type_symbol
 _atom_site_label
 _atom_site_symmetry_multiplicity
 _atom_site_fract_x
 _atom_site_fract_y
 _atom_site_fract_z
 _atom_site_occupancy
  Sr  Sr0  1  0.25000000  0.33629900  0.70122000  1
  Sr  Sr1  1  0.75000000  0.66370100  0.29878000  1
  Fe  Fe2  1  0.25000000  0.78935700  0.05823400  1
  Fe  Fe3  1  0.00000000  0.00000000  0.50000000  1
  Fe  Fe4  1  0.75000000  0.21064300  0.94176600  1
  Fe  Fe5  1  0.25000000  0.35050200  0.30192800  1
  Fe  Fe6  1  0.75000000  0.64949800  0.69807200  1
  Fe  Fe7  1  0.50000000  0.00000000  0.50000000  1
  P  P8  1  0.25000000  0.21625200  0.01908800  1
  P  P9  1  0.75000000  0.78374800  0.98091200  1
  P  P10  1  0.75000000  0.31235000  0.61649600  1
  P  P11  1  0.75000000  0.25316300  0.26296900  1
  P  P12  1  0.25000000  0.74683700  0.73703100  1
  P  P13  1  0.25000000  0.68765000  0.38350400  1
  O  O14  1  0.25000000  0.80039300  0.87143900  1
  O  O15  1  0.75000000  0.07932200  0.36720100  1
  O  O16  1  0.05925300  0.24955800  0.92587000  1
  O  O17  1  0.93839900  0.36741900  0.28768300  1
  O  O18  1  0.55925300  0.75044200  0.07413000  1
  O  O19  1  0.44777500  0.79085600  0.40800600  1
  O  O20  1  0.56160100  0.36741900  0.28768300  1
  O  O21  1  0.25000000  0.12235200  0.41037900  1
  O  O22  1  0.94074700  0.75044200  0.07413000  1
  O  O23  1  0.25000000  0.02416400  0.09243400  1
  O  O24  1  0.94777500  0.20914400  0.59199400  1
  O  O25  1  0.06160100  0.63258100  0.71231700  1
  O  O26  1  0.05222500  0.79085600  0.40800600  1
  O  O27  1  0.75000000  0.34883000  0.75961100  1
  O  O28  1  0.25000000  0.34500100  0.11499500  1
  O  O29  1  0.55222500  0.20914400  0.59199400  1
  O  O30  1  0.43839900  0.63258100  0.71231700  1
  O  O31  1  0.75000000  0.50355700  0.54198400  1
  O  O32  1  0.75000000  0.19960700  0.12856100  1
  O  O33  1  0.25000000  0.92067800  0.63279900  1
  O  O34  1  0.25000000  0.49644300  0.45801600  1
  O  O35  1  0.75000000  0.87764800  0.58962100  1
  O  O36  1  0.44074700  0.24955800  0.92587000  1
  O  O37  1  0.75000000  0.97583600  0.90756600  1
  O  O38  1  0.75000000  0.65499900  0.88500500  1
  O  O39  1  0.25000000  0.65117000  0.24038900  1
