# generated using pymatgen
data_InSiTe3
_symmetry_space_group_name_H-M   'P 1'
_cell_length_a   7.17108544
_cell_length_b   7.17108544
_cell_length_c   7.50061900
_cell_angle_alpha   90.00000000
_cell_angle_beta   90.00000000
_cell_angle_gamma   119.99999482
_symmetry_Int_Tables_number   1
_chemical_formula_structural   InSiTe3
_chemical_formula_sum   'In2 Si2 Te6'
_cell_volume   334.03929139
_cell_formula_units_Z   2
loop_
 _symmetry_equiv_pos_site_id
 _symmetry_equiv_pos_as_xyz
  1  'x, y, z'
loop_
 _atom_site_type_symbol
 _atom_site_label
 _atom_site_symmetry_multiplicity
 _atom_site_fract_x
 _atom_site_fract_y
 _atom_site_fract_z
 _atom_site_occupancy
  In  In0  1  0.66666700  0.33333300  0.50000000  1
  In  In1  1  0.33333300  0.66666700  0.50000000  1
  Si  Si2  1  0.00000000  0.00000000  0.34476400  1
  Si  Si3  1  0.00000000  0.00000000  0.65523600  1
  Te  Te4  1  0.00000000  0.66280400  0.24371400  1
  Te  Te5  1  0.33719600  0.33719600  0.24371400  1
  Te  Te6  1  0.00000000  0.33719600  0.75628600  1
  Te  Te7  1  0.33719600  0.00000000  0.75628600  1
  Te  Te8  1  0.66280400  0.00000000  0.24371400  1
  Te  Te9  1  0.66280400  0.66280400  0.75628600  1
