# generated using pymatgen
data_Ta3P
_symmetry_space_group_name_H-M   'P 1'
_cell_length_a   10.22605100
_cell_length_b   10.22605100
_cell_length_c   5.04418100
_cell_angle_alpha   90.00000000
_cell_angle_beta   90.00000000
_cell_angle_gamma   90.00000000
_symmetry_Int_Tables_number   1
_chemical_formula_structural   Ta3P
_chemical_formula_sum   'Ta24 P8'
_cell_volume   527.48069606
_cell_formula_units_Z   8
loop_
 _symmetry_equiv_pos_site_id
 _symmetry_equiv_pos_as_xyz
  1  'x, y, z'
loop_
 _atom_site_type_symbol
 _atom_site_label
 _atom_site_symmetry_multiplicity
 _atom_site_fract_x
 _atom_site_fract_y
 _atom_site_fract_z
 _atom_site_occupancy
  Ta  Ta0  1  0.40562100  0.90900200  0.49328100  1
  Ta  Ta1  1  0.40900200  0.09437900  0.99328100  1
  Ta  Ta2  1  0.59099800  0.90562100  0.99328100  1
  Ta  Ta3  1  0.59437900  0.09099800  0.49328100  1
  Ta  Ta4  1  0.09437900  0.59099800  0.00671900  1
  Ta  Ta5  1  0.09099800  0.40562100  0.50671900  1
  Ta  Ta6  1  0.90900200  0.59437900  0.50671900  1
  Ta  Ta7  1  0.90562100  0.40900200  0.00671900  1
  Ta  Ta8  1  0.00368600  0.85439000  0.25487300  1
  Ta  Ta9  1  0.35439000  0.49631400  0.75487300  1
  Ta  Ta10  1  0.64561000  0.50368600  0.75487300  1
  Ta  Ta11  1  0.99631400  0.14561000  0.25487300  1
  Ta  Ta12  1  0.49631400  0.64561000  0.24512700  1
  Ta  Ta13  1  0.14561000  0.00368600  0.74512700  1
  Ta  Ta14  1  0.85439000  0.99631400  0.74512700  1
  Ta  Ta15  1  0.50368600  0.35439000  0.24512700  1
  Ta  Ta16  1  0.29568800  0.80275300  0.99741900  1
  Ta  Ta17  1  0.30275300  0.20431200  0.49741900  1
  Ta  Ta18  1  0.69724700  0.79568800  0.49741900  1
  Ta  Ta19  1  0.70431200  0.19724700  0.99741900  1
  Ta  Ta20  1  0.20431200  0.69724700  0.50258100  1
  Ta  Ta21  1  0.19724700  0.29568800  0.00258100  1
  Ta  Ta22  1  0.80275300  0.70431200  0.00258100  1
  Ta  Ta23  1  0.79568800  0.30275300  0.50258100  1
  P  P24  1  0.00794400  0.79245400  0.75625300  1
  P  P25  1  0.29245400  0.49205600  0.25625300  1
  P  P26  1  0.70754600  0.50794400  0.25625300  1
  P  P27  1  0.99205600  0.20754600  0.75625300  1
  P  P28  1  0.49205600  0.70754600  0.74374700  1
  P  P29  1  0.20754600  0.00794400  0.24374700  1
  P  P30  1  0.79245400  0.99205600  0.24374700  1
  P  P31  1  0.50794400  0.29245400  0.74374700  1
