# generated using pymatgen
data_Sb3Au3F22
_symmetry_space_group_name_H-M   'P 1'
_cell_length_a   10.96937200
_cell_length_b   10.44591800
_cell_length_c   15.83429772
_cell_angle_alpha   85.67050369
_cell_angle_beta   90.00000000
_cell_angle_gamma   90.00000000
_symmetry_Int_Tables_number   1
_chemical_formula_structural   Sb3Au3F22
_chemical_formula_sum   'Sb12 Au12 F88'
_cell_volume   1809.19804605
_cell_formula_units_Z   4
loop_
 _symmetry_equiv_pos_site_id
 _symmetry_equiv_pos_as_xyz
  1  'x, y, z'
loop_
 _atom_site_type_symbol
 _atom_site_label
 _atom_site_symmetry_multiplicity
 _atom_site_fract_x
 _atom_site_fract_y
 _atom_site_fract_z
 _atom_site_occupancy
  Sb  Sb0  1  0.12492200  0.10177200  0.03117300  1
  Sb  Sb1  1  0.37573600  0.09982500  0.52906100  1
  Sb  Sb2  1  0.87507800  0.10177200  0.53117300  1
  Sb  Sb3  1  0.63215600  0.36328200  0.72987400  1
  Sb  Sb4  1  0.37706900  0.64952500  0.94395700  1
  Sb  Sb5  1  0.87455700  0.36440700  0.23527300  1
  Sb  Sb6  1  0.86930000  0.64308200  0.93509500  1
  Sb  Sb7  1  0.62426400  0.09982500  0.02906100  1
  Sb  Sb8  1  0.36784400  0.36328200  0.22987400  1
  Sb  Sb9  1  0.62293100  0.64952500  0.44395700  1
  Sb  Sb10  1  0.12544300  0.36440700  0.73527300  1
  Sb  Sb11  1  0.13070000  0.64308200  0.43509500  1
  Au  Au12  1  0.88344700  0.05039900  0.86635900  1
  Au  Au13  1  0.37534500  0.62930700  0.68873800  1
  Au  Au14  1  0.63168200  0.86965900  0.73530600  1
  Au  Au15  1  0.36831800  0.86965900  0.23530600  1
  Au  Au16  1  0.86943700  0.86260000  0.23628200  1
  Au  Au17  1  0.61741900  0.05379700  0.36591800  1
  Au  Au18  1  0.87492900  0.68987600  0.60056400  1
  Au  Au19  1  0.11655300  0.05039900  0.36635900  1
  Au  Au20  1  0.62465500  0.62930700  0.18873800  1
  Au  Au21  1  0.13056300  0.86260000  0.73628200  1
  Au  Au22  1  0.38258100  0.05379700  0.86591800  1
  Au  Au23  1  0.12507100  0.68987600  0.10056400  1
  F  F24  1  0.28751800  0.94598500  0.78351000  1
  F  F25  1  0.53199400  0.53616100  0.72803600  1
  F  F26  1  0.71248200  0.94598500  0.28351000  1
  F  F27  1  0.21420000  0.11537500  0.91974000  1
  F  F28  1  0.78580000  0.11537500  0.41974000  1
  F  F29  1  0.72479700  0.20932100  0.73316500  1
  F  F30  1  0.01415500  0.27421200  0.27968700  1
  F  F31  1  0.19002900  0.39241400  0.84317800  1
  F  F32  1  0.91624400  0.34979800  0.12037600  1
  F  F33  1  0.98584500  0.27421200  0.77968700  1
  F  F34  1  0.05025500  0.52951700  0.73006000  1
  F  F35  1  0.03636100  0.62865500  0.54974600  1
  F  F36  1  0.28230600  0.46019000  0.68450400  1
  F  F37  1  0.53159100  0.79680400  0.18739600  1
  F  F38  1  0.22377700  0.21386400  0.73350400  1
  F  F39  1  0.23052000  0.03678600  0.58270100  1
  F  F40  1  0.47306200  0.08317300  0.62805200  1
  F  F41  1  0.94974500  0.52951700  0.23006000  1
  F  F42  1  0.48605700  0.27957300  0.76992200  1
  F  F43  1  0.08198600  0.47217400  0.42307800  1
  F  F44  1  0.01913100  0.70621500  0.88613800  1
  F  F45  1  0.83480300  0.81661200  0.96019700  1
  F  F46  1  0.16519700  0.81661200  0.46019700  1
  F  F47  1  0.08078200  0.93198300  0.00518200  1
  F  F48  1  0.51830200  0.16002100  0.45523500  1
  F  F49  1  0.51394300  0.27957300  0.26992200  1
  F  F50  1  0.77622300  0.21386400  0.23350400  1
  F  F51  1  0.71799900  0.74960000  0.65278700  1
  F  F52  1  0.78245800  0.66510400  0.83103800  1
  F  F53  1  0.40803000  0.47525900  0.92943300  1
  F  F54  1  0.04030900  0.98865000  0.81021800  1
  F  F55  1  0.98086900  0.70621500  0.38613800  1
  F  F56  1  0.73360100  0.58888900  0.00322500  1
  F  F57  1  0.71769400  0.46019000  0.18450400  1
  F  F58  1  0.98046000  0.15500600  0.95887600  1
  F  F59  1  0.59197000  0.47525900  0.42943300  1
  F  F60  1  0.91921800  0.93198300  0.50518200  1
  F  F61  1  0.72648200  0.66063000  0.34558900  1
  F  F62  1  0.78978300  0.95106800  0.77828500  1
  F  F63  1  0.27520300  0.20932100  0.23316500  1
  F  F64  1  0.28200100  0.74960000  0.15278700  1
  F  F65  1  0.67633000  0.81914000  0.46462500  1
  F  F66  1  0.46800600  0.53616100  0.22803600  1
  F  F67  1  0.45944800  0.99349300  0.31072200  1
  F  F68  1  0.96363900  0.62865500  0.04974600  1
  F  F69  1  0.76948000  0.03678600  0.08270100  1
  F  F70  1  0.84056900  0.27657300  0.53935600  1
  F  F71  1  0.51026600  0.71345400  0.87576900  1
  F  F72  1  0.21021700  0.95106800  0.27828500  1
  F  F73  1  0.57857100  0.93379700  0.99913600  1
  F  F74  1  0.26639900  0.58888900  0.50322500  1
  F  F75  1  0.48169800  0.16002100  0.95523500  1
  F  F76  1  0.72838200  0.03982000  0.58328200  1
  F  F77  1  0.22702300  0.73938000  0.65925900  1
  F  F78  1  0.71744700  0.11725700  0.91840800  1
  F  F79  1  0.27161800  0.03982000  0.08328200  1
  F  F80  1  0.22598700  0.59093500  0.01328900  1
  F  F81  1  0.01954000  0.15500600  0.45887600  1
  F  F82  1  0.66933400  0.39877000  0.84248000  1
  F  F83  1  0.53260200  0.64208700  0.54667200  1
  F  F84  1  0.77297700  0.73938000  0.15925900  1
  F  F85  1  0.23523900  0.47021100  0.19024700  1
  F  F86  1  0.15943100  0.27657300  0.03935600  1
  F  F87  1  0.65941400  0.27417000  0.03838500  1
  F  F88  1  0.34058600  0.27417000  0.53838500  1
  F  F89  1  0.46840900  0.79680400  0.68739600  1
  F  F90  1  0.80997100  0.39241400  0.34317800  1
  F  F91  1  0.21754200  0.66510400  0.33103800  1
  F  F92  1  0.96965300  0.08452900  0.63127900  1
  F  F93  1  0.33066600  0.39877000  0.34248000  1
  F  F94  1  0.54055200  0.99349300  0.81072200  1
  F  F95  1  0.52693800  0.08317300  0.12805200  1
  F  F96  1  0.76476100  0.47021100  0.69024700  1
  F  F97  1  0.46739800  0.64208700  0.04667200  1
  F  F98  1  0.95969100  0.98865000  0.31021800  1
  F  F99  1  0.91801400  0.47217400  0.92307800  1
  F  F100  1  0.77401300  0.59093500  0.51328900  1
  F  F101  1  0.42142900  0.93379700  0.49913600  1
  F  F102  1  0.03121400  0.78936800  0.18508600  1
  F  F103  1  0.32367000  0.81914000  0.96462500  1
  F  F104  1  0.03034700  0.08452900  0.13127900  1
  F  F105  1  0.48973400  0.71345400  0.37576900  1
  F  F106  1  0.08375600  0.34979800  0.62037600  1
  F  F107  1  0.42162700  0.35572200  0.11678800  1
  F  F108  1  0.57837300  0.35572200  0.61678800  1
  F  F109  1  0.28255300  0.11725700  0.41840800  1
  F  F110  1  0.27351800  0.66063000  0.84558900  1
  F  F111  1  0.96878600  0.78936800  0.68508600  1
