# generated using pymatgen
data_CrHg6As4Br7
_symmetry_space_group_name_H-M   'P 1'
_cell_length_a   12.61122500
_cell_length_b   12.61122500
_cell_length_c   12.61122500
_cell_angle_alpha   90.00000000
_cell_angle_beta   90.00000000
_cell_angle_gamma   90.00000000
_symmetry_Int_Tables_number   1
_chemical_formula_structural   CrHg6As4Br7
_chemical_formula_sum   'Cr4 Hg24 As16 Br28'
_cell_volume   2005.72700724
_cell_formula_units_Z   4
loop_
 _symmetry_equiv_pos_site_id
 _symmetry_equiv_pos_as_xyz
  1  'x, y, z'
loop_
 _atom_site_type_symbol
 _atom_site_label
 _atom_site_symmetry_multiplicity
 _atom_site_fract_x
 _atom_site_fract_y
 _atom_site_fract_z
 _atom_site_occupancy
  Cr  Cr0  1  0.00000000  0.00000000  0.50000000  1
  Cr  Cr1  1  0.50000000  0.00000000  0.00000000  1
  Cr  Cr2  1  0.00000000  0.50000000  0.00000000  1
  Cr  Cr3  1  0.50000000  0.50000000  0.50000000  1
  Hg  Hg4  1  0.79921400  0.45966800  0.30675100  1
  Hg  Hg5  1  0.20078600  0.54033200  0.69324900  1
  Hg  Hg6  1  0.54033200  0.80675100  0.70078600  1
  Hg  Hg7  1  0.69324900  0.20078600  0.54033200  1
  Hg  Hg8  1  0.30675100  0.70078600  0.95966800  1
  Hg  Hg9  1  0.69324900  0.29921400  0.04033200  1
  Hg  Hg10  1  0.19324900  0.20078600  0.95966800  1
  Hg  Hg11  1  0.70078600  0.54033200  0.80675100  1
  Hg  Hg12  1  0.80675100  0.70078600  0.54033200  1
  Hg  Hg13  1  0.30675100  0.79921400  0.45966800  1
  Hg  Hg14  1  0.80675100  0.79921400  0.04033200  1
  Hg  Hg15  1  0.29921400  0.04033200  0.69324900  1
  Hg  Hg16  1  0.20078600  0.95966800  0.19324900  1
  Hg  Hg17  1  0.45966800  0.30675100  0.79921400  1
  Hg  Hg18  1  0.04033200  0.80675100  0.79921400  1
  Hg  Hg19  1  0.04033200  0.69324900  0.29921400  1
  Hg  Hg20  1  0.70078600  0.95966800  0.30675100  1
  Hg  Hg21  1  0.95966800  0.19324900  0.20078600  1
  Hg  Hg22  1  0.95966800  0.30675100  0.70078600  1
  Hg  Hg23  1  0.45966800  0.19324900  0.29921400  1
  Hg  Hg24  1  0.79921400  0.04033200  0.80675100  1
  Hg  Hg25  1  0.29921400  0.45966800  0.19324900  1
  Hg  Hg26  1  0.54033200  0.69324900  0.20078600  1
  Hg  Hg27  1  0.19324900  0.29921400  0.45966800  1
  As  As28  1  0.22877800  0.72877800  0.77122200  1
  As  As29  1  0.72877800  0.77122200  0.22877800  1
  As  As30  1  0.15708600  0.15708600  0.15708600  1
  As  As31  1  0.15708600  0.34291400  0.65708600  1
  As  As32  1  0.27122200  0.27122200  0.27122200  1
  As  As33  1  0.22877800  0.77122200  0.27122200  1
  As  As34  1  0.77122200  0.27122200  0.22877800  1
  As  As35  1  0.65708600  0.34291400  0.84291400  1
  As  As36  1  0.84291400  0.84291400  0.84291400  1
  As  As37  1  0.34291400  0.84291400  0.65708600  1
  As  As38  1  0.34291400  0.65708600  0.15708600  1
  As  As39  1  0.27122200  0.22877800  0.77122200  1
  As  As40  1  0.72877800  0.72877800  0.72877800  1
  As  As41  1  0.77122200  0.22877800  0.72877800  1
  As  As42  1  0.65708600  0.15708600  0.34291400  1
  As  As43  1  0.84291400  0.65708600  0.34291400  1
  Br  Br44  1  0.95652700  0.30817600  0.96198700  1
  Br  Br45  1  0.53801300  0.04347300  0.80817600  1
  Br  Br46  1  0.96198700  0.54347300  0.80817600  1
  Br  Br47  1  0.00000000  0.50000000  0.50000000  1
  Br  Br48  1  0.96198700  0.95652700  0.30817600  1
  Br  Br49  1  0.80817600  0.53801300  0.04347300  1
  Br  Br50  1  0.46198700  0.54347300  0.69182400  1
  Br  Br51  1  0.54347300  0.80817600  0.96198700  1
  Br  Br52  1  0.45652700  0.19182400  0.03801300  1
  Br  Br53  1  0.69182400  0.46198700  0.54347300  1
  Br  Br54  1  0.45652700  0.30817600  0.53801300  1
  Br  Br55  1  0.03801300  0.04347300  0.69182400  1
  Br  Br56  1  0.19182400  0.46198700  0.95652700  1
  Br  Br57  1  0.53801300  0.45652700  0.30817600  1
  Br  Br58  1  0.95652700  0.19182400  0.46198700  1
  Br  Br59  1  0.19182400  0.03801300  0.45652700  1
  Br  Br60  1  0.46198700  0.95652700  0.19182400  1
  Br  Br61  1  0.00000000  0.00000000  0.00000000  1
  Br  Br62  1  0.04347300  0.80817600  0.53801300  1
  Br  Br63  1  0.80817600  0.96198700  0.54347300  1
  Br  Br64  1  0.69182400  0.03801300  0.04347300  1
  Br  Br65  1  0.30817600  0.96198700  0.95652700  1
  Br  Br66  1  0.30817600  0.53801300  0.45652700  1
  Br  Br67  1  0.50000000  0.00000000  0.50000000  1
  Br  Br68  1  0.54347300  0.69182400  0.46198700  1
  Br  Br69  1  0.04347300  0.69182400  0.03801300  1
  Br  Br70  1  0.03801300  0.45652700  0.19182400  1
  Br  Br71  1  0.50000000  0.50000000  0.00000000  1
