# generated using pymatgen
data_Rb3U2Ge2O11
_symmetry_space_group_name_H-M   'P 1'
_cell_length_a   12.40711800
_cell_length_b   7.06285500
_cell_length_c   15.91191868
_cell_angle_alpha   74.62540833
_cell_angle_beta   90.00000000
_cell_angle_gamma   90.00000000
_symmetry_Int_Tables_number   1
_chemical_formula_structural   Rb3U2Ge2O11
_chemical_formula_sum   'Rb12 U8 Ge8 O44'
_cell_volume   1344.45654226
_cell_formula_units_Z   4
loop_
 _symmetry_equiv_pos_site_id
 _symmetry_equiv_pos_as_xyz
  1  'x, y, z'
loop_
 _atom_site_type_symbol
 _atom_site_label
 _atom_site_symmetry_multiplicity
 _atom_site_fract_x
 _atom_site_fract_y
 _atom_site_fract_z
 _atom_site_occupancy
  Rb  Rb0  1  0.64998100  0.50940900  0.91177300  1
  Rb  Rb1  1  0.84039400  0.45324200  0.66191900  1
  Rb  Rb2  1  0.85001900  0.50940900  0.41177300  1
  Rb  Rb3  1  0.82726400  0.98904400  0.92541100  1
  Rb  Rb4  1  0.67273600  0.98904400  0.42541100  1
  Rb  Rb5  1  0.65960600  0.45324200  0.16191900  1
  Rb  Rb6  1  0.17273600  0.01095600  0.07458900  1
  Rb  Rb7  1  0.35001900  0.49059100  0.08822700  1
  Rb  Rb8  1  0.34039400  0.54675800  0.83808100  1
  Rb  Rb9  1  0.14998100  0.49059100  0.58822700  1
  Rb  Rb10  1  0.15960600  0.54675800  0.33808100  1
  Rb  Rb11  1  0.32726400  0.01095600  0.57458900  1
  U  U12  1  0.55684600  0.15346000  0.74375700  1
  U  U13  1  0.44315400  0.84654000  0.25624300  1
  U  U14  1  0.05684600  0.84654000  0.75624300  1
  U  U15  1  0.50000000  0.00000000  0.00000000  1
  U  U16  1  0.00000000  0.50000000  0.00000000  1
  U  U17  1  0.94315400  0.15346000  0.24375700  1
  U  U18  1  0.00000000  0.00000000  0.50000000  1
  U  U19  1  0.50000000  0.50000000  0.50000000  1
  Ge  Ge20  1  0.42698600  0.29890400  0.32480100  1
  Ge  Ge21  1  0.79234500  0.95660200  0.65914200  1
  Ge  Ge22  1  0.70765500  0.95660200  0.15914200  1
  Ge  Ge23  1  0.57301400  0.70109600  0.67519900  1
  Ge  Ge24  1  0.20765500  0.04339800  0.34085800  1
  Ge  Ge25  1  0.29234500  0.04339800  0.84085800  1
  Ge  Ge26  1  0.92698600  0.70109600  0.17519900  1
  Ge  Ge27  1  0.07301400  0.29890400  0.82480100  1
  O  O28  1  0.02067300  0.69009800  0.09370900  1
  O  O29  1  0.02499600  0.16079200  0.75433200  1
  O  O30  1  0.27205000  0.90311100  0.27884800  1
  O  O31  1  0.89506700  0.46177200  0.24009100  1
  O  O32  1  0.88628900  0.79789500  0.72682200  1
  O  O33  1  0.97932700  0.30990200  0.90629100  1
  O  O34  1  0.47500400  0.16079200  0.25433200  1
  O  O35  1  0.47729300  0.76402900  0.38556100  1
  O  O36  1  0.22795000  0.90311100  0.77884800  1
  O  O37  1  0.97729300  0.23597100  0.11443900  1
  O  O38  1  0.52499600  0.83920800  0.74566800  1
  O  O39  1  0.38628900  0.20210500  0.77317800  1
  O  O40  1  0.61371100  0.79789500  0.22682200  1
  O  O41  1  0.39506700  0.53822800  0.25990900  1
  O  O42  1  0.94827100  0.73873200  0.52401800  1
  O  O43  1  0.30501200  0.19075400  0.37870600  1
  O  O44  1  0.52067300  0.30990200  0.40629100  1
  O  O45  1  0.59222600  0.07814400  0.87503700  1
  O  O46  1  0.52270700  0.23597100  0.61443900  1
  O  O47  1  0.64427100  0.10359500  0.06508400  1
  O  O48  1  0.85106100  0.54658400  0.99560700  1
  O  O49  1  0.14427100  0.89640500  0.43491600  1
  O  O50  1  0.80501200  0.80924600  0.12129400  1
  O  O51  1  0.11371100  0.20210500  0.27317800  1
  O  O52  1  0.69498800  0.80924600  0.62129400  1
  O  O53  1  0.35106100  0.45341600  0.50439300  1
  O  O54  1  0.97500400  0.83920800  0.24566800  1
  O  O55  1  0.02270700  0.76402900  0.88556100  1
  O  O56  1  0.90777400  0.07814400  0.37503700  1
  O  O57  1  0.44827100  0.26126800  0.97598200  1
  O  O58  1  0.72795000  0.09688900  0.72115200  1
  O  O59  1  0.64893900  0.54658400  0.49560700  1
  O  O60  1  0.05172900  0.26126800  0.47598200  1
  O  O61  1  0.14893900  0.45341600  0.00439300  1
  O  O62  1  0.77205000  0.09688900  0.22115200  1
  O  O63  1  0.09222600  0.92185600  0.62496300  1
  O  O64  1  0.40777400  0.92185600  0.12496300  1
  O  O65  1  0.85572900  0.10359500  0.56508400  1
  O  O66  1  0.55172900  0.73873200  0.02401800  1
  O  O67  1  0.10493300  0.53822800  0.75990900  1
  O  O68  1  0.19498800  0.19075400  0.87870600  1
  O  O69  1  0.60493300  0.46177200  0.74009100  1
  O  O70  1  0.47932700  0.69009800  0.59370900  1
  O  O71  1  0.35572900  0.89640500  0.93491600  1
