# generated using pymatgen
data_KMoPClO5
_symmetry_space_group_name_H-M   'P 1'
_cell_length_a   6.55381400
_cell_length_b   6.55381400
_cell_length_c   7.43011900
_cell_angle_alpha   90.00000000
_cell_angle_beta   90.00000000
_cell_angle_gamma   90.00000000
_symmetry_Int_Tables_number   1
_chemical_formula_structural   KMoPClO5
_chemical_formula_sum   'K2 Mo2 P2 Cl2 O10'
_cell_volume   319.14202249
_cell_formula_units_Z   2
loop_
 _symmetry_equiv_pos_site_id
 _symmetry_equiv_pos_as_xyz
  1  'x, y, z'
loop_
 _atom_site_type_symbol
 _atom_site_label
 _atom_site_symmetry_multiplicity
 _atom_site_fract_x
 _atom_site_fract_y
 _atom_site_fract_z
 _atom_site_occupancy
  K  K0  1  0.00000000  0.00000000  0.50000000  1
  K  K1  1  0.50000000  0.50000000  0.50000000  1
  Mo  Mo2  1  0.50000000  0.00000000  0.09527300  1
  Mo  Mo3  1  0.00000000  0.50000000  0.90472700  1
  P  P4  1  0.50000000  0.50000000  0.00000000  1
  P  P5  1  0.00000000  0.00000000  0.00000000  1
  Cl  Cl6  1  0.00000000  0.50000000  0.55495500  1
  Cl  Cl7  1  0.50000000  0.00000000  0.44504500  1
  O  O8  1  0.50000000  0.31372700  0.12844300  1
  O  O9  1  0.00000000  0.81372700  0.87155700  1
  O  O10  1  0.68627300  0.50000000  0.87155700  1
  O  O11  1  0.00000000  0.50000000  0.13377000  1
  O  O12  1  0.81372700  0.00000000  0.12844300  1
  O  O13  1  0.18627300  0.00000000  0.12844300  1
  O  O14  1  0.00000000  0.18627300  0.87155700  1
  O  O15  1  0.31372700  0.50000000  0.87155700  1
  O  O16  1  0.50000000  0.00000000  0.86623000  1
  O  O17  1  0.50000000  0.68627300  0.12844300  1
