# generated using pymatgen
data_Sr2V3BiO11
_symmetry_space_group_name_H-M   'P 1'
_cell_length_a   7.09465100
_cell_length_b   7.12976843
_cell_length_c   10.37861581
_cell_angle_alpha   99.23046837
_cell_angle_beta   95.93400983
_cell_angle_gamma   92.89805319
_symmetry_Int_Tables_number   1
_chemical_formula_structural   Sr2V3BiO11
_chemical_formula_sum   'Sr4 V6 Bi2 O22'
_cell_volume   514.20246981
_cell_formula_units_Z   2
loop_
 _symmetry_equiv_pos_site_id
 _symmetry_equiv_pos_as_xyz
  1  'x, y, z'
loop_
 _atom_site_type_symbol
 _atom_site_label
 _atom_site_symmetry_multiplicity
 _atom_site_fract_x
 _atom_site_fract_y
 _atom_site_fract_z
 _atom_site_occupancy
  Sr  Sr0  1  0.64991900  0.25143100  0.97937900  1
  Sr  Sr1  1  0.35008100  0.74856900  0.02062100  1
  Sr  Sr2  1  0.34043100  0.38837800  0.63681700  1
  Sr  Sr3  1  0.65956900  0.61162200  0.36318300  1
  V  V4  1  0.64052900  0.11124500  0.33548100  1
  V  V5  1  0.35947100  0.88875500  0.66451900  1
  V  V6  1  0.15954900  0.23566700  0.96190000  1
  V  V7  1  0.84045100  0.76433300  0.03810000  1
  V  V8  1  0.13283600  0.42743900  0.26475900  1
  V  V9  1  0.86716400  0.57256100  0.73524100  1
  Bi  Bi10  1  0.84927000  0.07144900  0.64041000  1
  Bi  Bi11  1  0.15073000  0.92855100  0.35959000  1
  O  O12  1  0.99126000  0.39438500  0.65473200  1
  O  O13  1  0.00874000  0.60561500  0.34526800  1
  O  O14  1  0.02847400  0.34015800  0.09566200  1
  O  O15  1  0.97152600  0.65984200  0.90433800  1
  O  O16  1  0.41929900  0.74671600  0.52567000  1
  O  O17  1  0.58070100  0.25328400  0.47433000  1
  O  O18  1  0.69996800  0.26215800  0.23222900  1
  O  O19  1  0.30003200  0.73784200  0.76777100  1
  O  O20  1  0.97056200  0.12116800  0.85079300  1
  O  O21  1  0.02943800  0.87883200  0.14920700  1
  O  O22  1  0.68121200  0.91341700  0.98821100  1
  O  O23  1  0.31878800  0.08658300  0.01178900  1
  O  O24  1  0.54246000  0.05960800  0.73485600  1
  O  O25  1  0.45754000  0.94039200  0.26514400  1
  O  O26  1  0.16738600  0.02589800  0.60461100  1
  O  O27  1  0.83261400  0.97410200  0.39538900  1
  O  O28  1  0.29989300  0.39739500  0.90243000  1
  O  O29  1  0.70010700  0.60260500  0.09757000  1
  O  O30  1  0.66141400  0.46076200  0.76154300  1
  O  O31  1  0.33858600  0.53923800  0.23845700  1
  O  O32  1  0.82585400  0.74374000  0.63490800  1
  O  O33  1  0.17414600  0.25626000  0.36509200  1
