# generated using pymatgen
data_Ti5Ge3
_symmetry_space_group_name_H-M   'P 1'
_cell_length_a   7.59071833
_cell_length_b   7.59071833
_cell_length_c   5.22672000
_cell_angle_alpha   90.00000000
_cell_angle_beta   90.00000000
_cell_angle_gamma   120.00000286
_symmetry_Int_Tables_number   1
_chemical_formula_structural   Ti5Ge3
_chemical_formula_sum   'Ti10 Ge6'
_cell_volume   260.81082130
_cell_formula_units_Z   2
loop_
 _symmetry_equiv_pos_site_id
 _symmetry_equiv_pos_as_xyz
  1  'x, y, z'
loop_
 _atom_site_type_symbol
 _atom_site_label
 _atom_site_symmetry_multiplicity
 _atom_site_fract_x
 _atom_site_fract_y
 _atom_site_fract_z
 _atom_site_occupancy
  Ti  Ti0  1  0.00000000  0.74906600  0.75000000  1
  Ti  Ti1  1  0.25093400  0.25093400  0.75000000  1
  Ti  Ti2  1  0.00000000  0.25093400  0.25000000  1
  Ti  Ti3  1  0.33333300  0.66666700  0.50000000  1
  Ti  Ti4  1  0.74906600  0.00000000  0.75000000  1
  Ti  Ti5  1  0.74906600  0.74906600  0.25000000  1
  Ti  Ti6  1  0.33333300  0.66666700  0.00000000  1
  Ti  Ti7  1  0.25093400  0.00000000  0.25000000  1
  Ti  Ti8  1  0.66666700  0.33333300  0.50000000  1
  Ti  Ti9  1  0.66666700  0.33333300  0.00000000  1
  Ge  Ge10  1  0.61044300  0.61044300  0.75000000  1
  Ge  Ge11  1  0.38955700  0.00000000  0.75000000  1
  Ge  Ge12  1  0.00000000  0.61044300  0.25000000  1
  Ge  Ge13  1  0.61044300  0.00000000  0.25000000  1
  Ge  Ge14  1  0.00000000  0.38955700  0.75000000  1
  Ge  Ge15  1  0.38955700  0.38955700  0.25000000  1
