# generated using pymatgen
data_Ba3As14
_symmetry_space_group_name_H-M   'P 1'
_cell_length_a   13.94995100
_cell_length_b   6.93790900
_cell_length_c   12.47955243
_cell_angle_alpha   56.40670168
_cell_angle_beta   90.00000000
_cell_angle_gamma   90.00000000
_symmetry_Int_Tables_number   1
_chemical_formula_structural   Ba3As14
_chemical_formula_sum   'Ba6 As28'
_cell_volume   1006.09264549
_cell_formula_units_Z   2
loop_
 _symmetry_equiv_pos_site_id
 _symmetry_equiv_pos_as_xyz
  1  'x, y, z'
loop_
 _atom_site_type_symbol
 _atom_site_label
 _atom_site_symmetry_multiplicity
 _atom_site_fract_x
 _atom_site_fract_y
 _atom_site_fract_z
 _atom_site_occupancy
  Ba  Ba0  1  0.00000000  0.00000000  0.00000000  1
  Ba  Ba1  1  0.50000000  0.00000000  0.50000000  1
  Ba  Ba2  1  0.84198800  0.80311000  0.38350700  1
  Ba  Ba3  1  0.34198800  0.19689000  0.11649300  1
  Ba  Ba4  1  0.15801200  0.19689000  0.61649300  1
  Ba  Ba5  1  0.65801200  0.80311000  0.88350700  1
  As  As6  1  0.49980900  0.71275400  0.18563100  1
  As  As7  1  0.99980900  0.28724600  0.31436900  1
  As  As8  1  0.50019100  0.28724600  0.81436900  1
  As  As9  1  0.00019100  0.71275400  0.68563100  1
  As  As10  1  0.64556500  0.96259400  0.14321100  1
  As  As11  1  0.14556500  0.03740600  0.35678900  1
  As  As12  1  0.35443500  0.03740600  0.85678900  1
  As  As13  1  0.85443500  0.96259400  0.64321100  1
  As  As14  1  0.43990100  0.60886400  0.82163900  1
  As  As15  1  0.93990100  0.39113600  0.67836100  1
  As  As16  1  0.56009900  0.39113600  0.17836100  1
  As  As17  1  0.06009900  0.60886400  0.32163900  1
  As  As18  1  0.81407900  0.35214100  0.96907600  1
  As  As19  1  0.31407900  0.64785900  0.53092400  1
  As  As20  1  0.18592100  0.64785900  0.03092400  1
  As  As21  1  0.68592100  0.35214100  0.46907600  1
  As  As22  1  0.91948000  0.68458300  0.87252200  1
  As  As23  1  0.41948000  0.31541700  0.62747800  1
  As  As24  1  0.08052000  0.31541700  0.12747800  1
  As  As25  1  0.58052000  0.68458300  0.37252200  1
  As  As26  1  0.77952600  0.74690000  0.13395700  1
  As  As27  1  0.27952600  0.25310000  0.36604300  1
  As  As28  1  0.22047400  0.25310000  0.86604300  1
  As  As29  1  0.72047400  0.74690000  0.63395700  1
  As  As30  1  0.78059600  0.34823300  0.77633100  1
  As  As31  1  0.28059600  0.65176700  0.72366900  1
  As  As32  1  0.21940400  0.65176700  0.22366900  1
  As  As33  1  0.71940400  0.34823300  0.27633100  1
