# generated using pymatgen
data_BaCrF5
_symmetry_space_group_name_H-M   'P 1'
_cell_length_a   5.06828200
_cell_length_b   5.82100000
_cell_length_c   14.20438000
_cell_angle_alpha   90.00000000
_cell_angle_beta   90.00000000
_cell_angle_gamma   90.00000000
_symmetry_Int_Tables_number   1
_chemical_formula_structural   BaCrF5
_chemical_formula_sum   'Ba4 Cr4 F20'
_cell_volume   419.06428803
_cell_formula_units_Z   4
loop_
 _symmetry_equiv_pos_site_id
 _symmetry_equiv_pos_as_xyz
  1  'x, y, z'
loop_
 _atom_site_type_symbol
 _atom_site_label
 _atom_site_symmetry_multiplicity
 _atom_site_fract_x
 _atom_site_fract_y
 _atom_site_fract_z
 _atom_site_occupancy
  Ba  Ba0  1  0.73529900  0.66112500  0.65730400  1
  Ba  Ba1  1  0.23529900  0.83887500  0.34269600  1
  Ba  Ba2  1  0.26470100  0.16112500  0.84269600  1
  Ba  Ba3  1  0.76470100  0.33887500  0.15730400  1
  Cr  Cr4  1  0.32409000  0.14809100  0.58495200  1
  Cr  Cr5  1  0.82409000  0.35190900  0.41504800  1
  Cr  Cr6  1  0.67591000  0.64809100  0.91504800  1
  Cr  Cr7  1  0.17591000  0.85190900  0.08495200  1
  F  F8  1  0.96849900  0.60737100  0.48354300  1
  F  F9  1  0.46849900  0.89262900  0.51645700  1
  F  F10  1  0.03150100  0.10737100  0.01645700  1
  F  F11  1  0.53150100  0.39262900  0.98354300  1
  F  F12  1  0.66230800  0.56495500  0.32847300  1
  F  F13  1  0.16230800  0.93504500  0.67152700  1
  F  F14  1  0.33769200  0.06495500  0.17152700  1
  F  F15  1  0.83769200  0.43504500  0.82847300  1
  F  F16  1  0.19390600  0.40390500  0.65898600  1
  F  F17  1  0.69390600  0.09609500  0.34101400  1
  F  F18  1  0.80609400  0.90390500  0.84101400  1
  F  F19  1  0.30609400  0.59609500  0.15898600  1
  F  F20  1  0.61851800  0.14978200  0.67032000  1
  F  F21  1  0.11851800  0.35021800  0.32968000  1
  F  F22  1  0.38148200  0.64978200  0.82968000  1
  F  F23  1  0.88148200  0.85021800  0.17032000  1
  F  F24  1  0.51754200  0.36696100  0.50284100  1
  F  F25  1  0.01754200  0.13303900  0.49715900  1
  F  F26  1  0.48245800  0.86696100  0.99715900  1
  F  F27  1  0.98245800  0.63303900  0.00284100  1
