# generated using pymatgen
data_Dy5Sn11
_symmetry_space_group_name_H-M   'P 1'
_cell_length_a   21.68545655
_cell_length_b   21.68545655
_cell_length_c   21.68545655
_cell_angle_alpha   168.38403867
_cell_angle_beta   168.16623435
_cell_angle_gamma   16.61136236
_symmetry_Int_Tables_number   1
_chemical_formula_structural   Dy5Sn11
_chemical_formula_sum   'Dy5 Sn11'
_cell_volume   421.05921701
_cell_formula_units_Z   1
loop_
 _symmetry_equiv_pos_site_id
 _symmetry_equiv_pos_as_xyz
  1  'x, y, z'
loop_
 _atom_site_type_symbol
 _atom_site_label
 _atom_site_symmetry_multiplicity
 _atom_site_fract_x
 _atom_site_fract_y
 _atom_site_fract_z
 _atom_site_occupancy
  Dy  Dy0  1  0.30758400  0.80758400  0.50000000  1
  Dy  Dy1  1  0.61695200  0.61695200  0.00000000  1
  Dy  Dy2  1  0.00000000  0.00000000  0.00000000  1
  Dy  Dy3  1  0.69241600  0.19241600  0.50000000  1
  Dy  Dy4  1  0.38304800  0.38304800  0.00000000  1
  Sn  Sn5  1  0.93996500  0.43996500  0.50000000  1
  Sn  Sn6  1  0.13144800  0.13144800  0.00000000  1
  Sn  Sn7  1  0.24960800  0.24960800  0.00000000  1
  Sn  Sn8  1  0.06003500  0.56003500  0.50000000  1
  Sn  Sn9  1  0.82015400  0.32015400  0.50000000  1
  Sn  Sn10  1  0.75039200  0.75039200  0.00000000  1
  Sn  Sn11  1  0.55923400  0.05923400  0.50000000  1
  Sn  Sn12  1  0.44076600  0.94076600  0.50000000  1
  Sn  Sn13  1  0.86855200  0.86855200  0.00000000  1
  Sn  Sn14  1  0.50000000  0.50000000  0.00000000  1
  Sn  Sn15  1  0.17984600  0.67984600  0.50000000  1
