# generated using pymatgen
data_Rb2NaAl3F12
_symmetry_space_group_name_H-M   'P 1'
_cell_length_a   7.10707400
_cell_length_b   7.20736800
_cell_length_c   10.02867022
_cell_angle_alpha   88.95680380
_cell_angle_beta   90.00000000
_cell_angle_gamma   90.00000000
_symmetry_Int_Tables_number   1
_chemical_formula_structural   Rb2NaAl3F12
_chemical_formula_sum   'Rb4 Na2 Al6 F24'
_cell_volume   513.61641604
_cell_formula_units_Z   2
loop_
 _symmetry_equiv_pos_site_id
 _symmetry_equiv_pos_as_xyz
  1  'x, y, z'
loop_
 _atom_site_type_symbol
 _atom_site_label
 _atom_site_symmetry_multiplicity
 _atom_site_fract_x
 _atom_site_fract_y
 _atom_site_fract_z
 _atom_site_occupancy
  Rb  Rb0  1  0.75000000  0.00414700  0.11650600  1
  Rb  Rb1  1  0.25000000  0.99585300  0.88349400  1
  Rb  Rb2  1  0.25000000  0.48018200  0.63820500  1
  Rb  Rb3  1  0.75000000  0.51981800  0.36179500  1
  Na  Na4  1  0.75000000  0.21855200  0.75519500  1
  Na  Na5  1  0.25000000  0.78144800  0.24480500  1
  Al  Al6  1  0.50000000  0.00000000  0.50000000  1
  Al  Al7  1  0.00000000  0.00000000  0.50000000  1
  Al  Al8  1  0.00000000  0.50000000  0.00000000  1
  Al  Al9  1  0.50000000  0.50000000  0.00000000  1
  Al  Al10  1  0.75000000  0.71124800  0.72901200  1
  Al  Al11  1  0.25000000  0.28875200  0.27098800  1
  F  F12  1  0.75000000  0.07680500  0.48959200  1
  F  F13  1  0.25000000  0.92319500  0.51040800  1
  F  F14  1  0.75000000  0.49990400  0.63908600  1
  F  F15  1  0.25000000  0.50009600  0.36091400  1
  F  F16  1  0.25000000  0.49312700  0.94358300  1
  F  F17  1  0.75000000  0.50687300  0.05641700  1
  F  F18  1  0.25000000  0.08493400  0.17714000  1
  F  F19  1  0.75000000  0.91506600  0.82286000  1
  F  F20  1  0.96866300  0.85511400  0.36068900  1
  F  F21  1  0.46866300  0.14488600  0.63931100  1
  F  F22  1  0.03133700  0.14488600  0.63931100  1
  F  F23  1  0.53133700  0.85511400  0.36068900  1
  F  F24  1  0.93663000  0.80207000  0.61471800  1
  F  F25  1  0.43663000  0.19793000  0.38528200  1
  F  F26  1  0.06337000  0.19793000  0.38528200  1
  F  F27  1  0.56337000  0.80207000  0.61471800  1
  F  F28  1  0.03632700  0.72198500  0.06946300  1
  F  F29  1  0.53632700  0.27801500  0.93053700  1
  F  F30  1  0.96367300  0.27801500  0.93053700  1
  F  F31  1  0.46367300  0.72198500  0.06946300  1
  F  F32  1  0.44020400  0.38842800  0.16321500  1
  F  F33  1  0.94020400  0.61157200  0.83678500  1
  F  F34  1  0.55979600  0.61157200  0.83678500  1
  F  F35  1  0.05979600  0.38842800  0.16321500  1
