# generated using pymatgen
data_Na2UF6
_symmetry_space_group_name_H-M   'P 1'
_cell_length_a   6.65452224
_cell_length_b   6.65452224
_cell_length_c   6.65452224
_cell_angle_alpha   144.23793544
_cell_angle_beta   130.22060124
_cell_angle_gamma   62.79450554
_symmetry_Int_Tables_number   1
_chemical_formula_structural   Na2UF6
_chemical_formula_sum   'Na2 U1 F6'
_cell_volume   130.01716736
_cell_formula_units_Z   1
loop_
 _symmetry_equiv_pos_site_id
 _symmetry_equiv_pos_as_xyz
  1  'x, y, z'
loop_
 _atom_site_type_symbol
 _atom_site_label
 _atom_site_symmetry_multiplicity
 _atom_site_fract_x
 _atom_site_fract_y
 _atom_site_fract_z
 _atom_site_occupancy
  Na  Na0  1  0.33004600  0.33004600  0.00000000  1
  Na  Na1  1  0.66995400  0.66995400  0.00000000  1
  U  U2  1  0.00000000  0.00000000  0.00000000  1
  F  F3  1  0.60259400  0.84669400  0.75590100  1
  F  F4  1  0.39740600  0.15330600  0.24409900  1
  F  F5  1  0.90920700  0.15330600  0.75590100  1
  F  F6  1  0.22456000  0.50000000  0.72456000  1
  F  F7  1  0.09079300  0.84669400  0.24409900  1
  F  F8  1  0.77544000  0.50000000  0.27544000  1
