# generated using pymatgen
data_Ba3V4O13
_symmetry_space_group_name_H-M   'P 1'
_cell_length_a   9.29444325
_cell_length_b   9.29444325
_cell_length_c   10.43472333
_cell_angle_alpha   70.95480837
_cell_angle_beta   70.95480837
_cell_angle_gamma   58.67393336
_symmetry_Int_Tables_number   1
_chemical_formula_structural   Ba3V4O13
_chemical_formula_sum   'Ba6 V8 O26'
_cell_volume   714.03402891
_cell_formula_units_Z   2
loop_
 _symmetry_equiv_pos_site_id
 _symmetry_equiv_pos_as_xyz
  1  'x, y, z'
loop_
 _atom_site_type_symbol
 _atom_site_label
 _atom_site_symmetry_multiplicity
 _atom_site_fract_x
 _atom_site_fract_y
 _atom_site_fract_z
 _atom_site_occupancy
  Ba  Ba0  1  0.11098300  0.88901700  0.75000000  1
  Ba  Ba1  1  0.88901700  0.11098300  0.25000000  1
  Ba  Ba2  1  0.96861400  0.62648300  0.19014800  1
  Ba  Ba3  1  0.37351700  0.03138600  0.30985200  1
  Ba  Ba4  1  0.03138600  0.37351700  0.80985200  1
  Ba  Ba5  1  0.62648300  0.96861400  0.69014800  1
  V  V6  1  0.62941800  0.59521100  0.13511600  1
  V  V7  1  0.40478900  0.37058200  0.36488400  1
  V  V8  1  0.37058200  0.40478900  0.86488400  1
  V  V9  1  0.59521100  0.62941800  0.63511600  1
  V  V10  1  0.27971700  0.89934600  0.00173800  1
  V  V11  1  0.10065400  0.72028300  0.49826200  1
  V  V12  1  0.72028300  0.10065400  0.99826200  1
  V  V13  1  0.89934600  0.27971700  0.50173800  1
  O  O14  1  0.56753800  0.43246200  0.25000000  1
  O  O15  1  0.43246200  0.56753800  0.75000000  1
  O  O16  1  0.27910400  0.01029700  0.83369300  1
  O  O17  1  0.98970300  0.72089600  0.66630700  1
  O  O18  1  0.72089600  0.98970300  0.16630700  1
  O  O19  1  0.01029700  0.27910400  0.33369300  1
  O  O20  1  0.14264600  0.81399000  0.03944900  1
  O  O21  1  0.18601000  0.85735400  0.46055100  1
  O  O22  1  0.85735400  0.18601000  0.96055100  1
  O  O23  1  0.81399000  0.14264600  0.53944900  1
  O  O24  1  0.21538700  0.03286100  0.11266700  1
  O  O25  1  0.96713900  0.78461300  0.38733300  1
  O  O26  1  0.78461300  0.96713900  0.88733300  1
  O  O27  1  0.03286100  0.21538700  0.61266700  1
  O  O28  1  0.72868400  0.50221200  0.50539900  1
  O  O29  1  0.49778800  0.27131600  0.99460100  1
  O  O30  1  0.27131600  0.49778800  0.49460100  1
  O  O31  1  0.50221200  0.72868400  0.00539900  1
  O  O32  1  0.48775900  0.83860800  0.56380000  1
  O  O33  1  0.16139200  0.51224100  0.93620000  1
  O  O34  1  0.61674300  0.71974300  0.22863500  1
  O  O35  1  0.83860800  0.48775900  0.06380000  1
  O  O36  1  0.71974300  0.61674300  0.72863500  1
  O  O37  1  0.38325700  0.28025700  0.77136500  1
  O  O38  1  0.28025700  0.38325700  0.27136500  1
  O  O39  1  0.51224100  0.16139200  0.43620000  1
