# generated using pymatgen
data_NpF4
_symmetry_space_group_name_H-M   'P 1'
_cell_length_a   8.38358950
_cell_length_b   8.38358950
_cell_length_c   8.37807934
_cell_angle_alpha   62.93527323
_cell_angle_beta   62.93527323
_cell_angle_gamma   80.71139539
_symmetry_Int_Tables_number   1
_chemical_formula_structural   NpF4
_chemical_formula_sum   'Np6 F24'
_cell_volume   466.17166281
_cell_formula_units_Z   6
loop_
 _symmetry_equiv_pos_site_id
 _symmetry_equiv_pos_as_xyz
  1  'x, y, z'
loop_
 _atom_site_type_symbol
 _atom_site_label
 _atom_site_symmetry_multiplicity
 _atom_site_fract_x
 _atom_site_fract_y
 _atom_site_fract_z
 _atom_site_occupancy
  Np  Np0  1  0.78675200  0.21324800  0.25000000  1
  Np  Np1  1  0.21324800  0.78675200  0.75000000  1
  Np  Np2  1  0.63287100  0.77735600  0.16941500  1
  Np  Np3  1  0.77735600  0.63287100  0.66941500  1
  Np  Np4  1  0.36712900  0.22264400  0.83058500  1
  Np  Np5  1  0.22264400  0.36712900  0.33058500  1
  F  F6  1  0.74176400  0.68152100  0.39536100  1
  F  F7  1  0.59785000  0.18454000  0.57253800  1
  F  F8  1  0.74043800  0.49724400  0.21759700  1
  F  F9  1  0.31847900  0.25823600  0.10463900  1
  F  F10  1  0.06501700  0.17389200  0.04414500  1
  F  F11  1  0.18454000  0.59785000  0.07253800  1
  F  F12  1  0.40215000  0.81546000  0.42746200  1
  F  F13  1  0.39636600  0.60363400  0.25000000  1
  F  F14  1  0.60363400  0.39636600  0.75000000  1
  F  F15  1  0.49724400  0.74043800  0.71759700  1
  F  F16  1  0.82610800  0.93498300  0.45585500  1
  F  F17  1  0.17389200  0.06501700  0.54414500  1
  F  F18  1  0.25956200  0.50275600  0.78240300  1
  F  F19  1  0.25823600  0.31847900  0.60463900  1
  F  F20  1  0.72628600  0.02835500  0.14986600  1
  F  F21  1  0.00000000  0.50000000  0.50000000  1
  F  F22  1  0.97164500  0.27371400  0.35013400  1
  F  F23  1  0.81546000  0.40215000  0.92746200  1
  F  F24  1  0.50275600  0.25956200  0.28240300  1
  F  F25  1  0.93498300  0.82610800  0.95585500  1
  F  F26  1  0.27371400  0.97164500  0.85013400  1
  F  F27  1  0.68152100  0.74176400  0.89536100  1
  F  F28  1  0.02835500  0.72628600  0.64986600  1
  F  F29  1  0.50000000  0.00000000  0.00000000  1
