# generated using pymatgen
data_Cs3P7
_symmetry_space_group_name_H-M   'P 1'
_cell_length_a   9.25153400
_cell_length_b   9.25153400
_cell_length_c   16.94100100
_cell_angle_alpha   90.00000000
_cell_angle_beta   90.00000000
_cell_angle_gamma   90.00000000
_symmetry_Int_Tables_number   1
_chemical_formula_structural   Cs3P7
_chemical_formula_sum   'Cs12 P28'
_cell_volume   1449.99520659
_cell_formula_units_Z   4
loop_
 _symmetry_equiv_pos_site_id
 _symmetry_equiv_pos_as_xyz
  1  'x, y, z'
loop_
 _atom_site_type_symbol
 _atom_site_label
 _atom_site_symmetry_multiplicity
 _atom_site_fract_x
 _atom_site_fract_y
 _atom_site_fract_z
 _atom_site_occupancy
  Cs  Cs0  1  0.74598300  0.38086700  0.00084100  1
  Cs  Cs1  1  0.61913300  0.74598300  0.25084100  1
  Cs  Cs2  1  0.38086700  0.25401700  0.75084100  1
  Cs  Cs3  1  0.25401700  0.61913300  0.50084100  1
  Cs  Cs4  1  0.41771000  0.73561400  0.83826300  1
  Cs  Cs5  1  0.26438600  0.41771000  0.08826300  1
  Cs  Cs6  1  0.73561400  0.58229000  0.58826300  1
  Cs  Cs7  1  0.58229000  0.26438600  0.33826300  1
  Cs  Cs8  1  0.02400400  0.83797300  0.99533300  1
  Cs  Cs9  1  0.16202700  0.02400400  0.24533300  1
  Cs  Cs10  1  0.83797300  0.97599600  0.74533300  1
  Cs  Cs11  1  0.97599600  0.16202700  0.49533300  1
  P  P12  1  0.78985300  0.59871500  0.81046900  1
  P  P13  1  0.40128500  0.78985300  0.06046900  1
  P  P14  1  0.59871500  0.21014700  0.56046900  1
  P  P15  1  0.21014700  0.40128500  0.31046900  1
  P  P16  1  0.44478700  0.09371000  0.94518100  1
  P  P17  1  0.90629000  0.44478700  0.19518100  1
  P  P18  1  0.09371000  0.55521300  0.69518100  1
  P  P19  1  0.55521300  0.90629000  0.44518100  1
  P  P20  1  0.10557600  0.47670400  0.89095800  1
  P  P21  1  0.52329600  0.10557600  0.14095800  1
  P  P22  1  0.47670400  0.89442400  0.64095800  1
  P  P23  1  0.89442400  0.52329600  0.39095800  1
  P  P24  1  0.35825600  0.02359200  0.05927300  1
  P  P25  1  0.97640800  0.35825600  0.30927300  1
  P  P26  1  0.02359200  0.64174400  0.80927300  1
  P  P27  1  0.64174400  0.97640800  0.55927300  1
  P  P28  1  0.62628600  0.79653300  0.03174500  1
  P  P29  1  0.20346700  0.62628600  0.28174500  1
  P  P30  1  0.79653300  0.37371400  0.78174500  1
  P  P31  1  0.37371400  0.20346700  0.53174500  1
  P  P32  1  0.99846500  0.34463700  0.70509000  1
  P  P33  1  0.65536300  0.99846500  0.95509000  1
  P  P34  1  0.34463700  0.00153500  0.45509000  1
  P  P35  1  0.00153500  0.65536300  0.20509000  1
  P  P36  1  0.00774500  0.29030400  0.83804600  1
  P  P37  1  0.70969600  0.00774500  0.08804600  1
  P  P38  1  0.29030400  0.99225500  0.58804600  1
  P  P39  1  0.99225500  0.70969600  0.33804600  1
