# generated using pymatgen
data_Ca(LuS2)2
_symmetry_space_group_name_H-M   'P 1'
_cell_length_a   3.83602300
_cell_length_b   12.79064100
_cell_length_c   12.98780800
_cell_angle_alpha   90.00000000
_cell_angle_beta   90.00000000
_cell_angle_gamma   90.00000000
_symmetry_Int_Tables_number   1
_chemical_formula_structural   Ca(LuS2)2
_chemical_formula_sum   'Ca4 Lu8 S16'
_cell_volume   637.24930696
_cell_formula_units_Z   4
loop_
 _symmetry_equiv_pos_site_id
 _symmetry_equiv_pos_as_xyz
  1  'x, y, z'
loop_
 _atom_site_type_symbol
 _atom_site_label
 _atom_site_symmetry_multiplicity
 _atom_site_fract_x
 _atom_site_fract_y
 _atom_site_fract_z
 _atom_site_occupancy
  Ca  Ca0  1  0.75000000  0.86856700  0.08344800  1
  Ca  Ca1  1  0.25000000  0.13143300  0.91655200  1
  Ca  Ca2  1  0.75000000  0.36856700  0.41655200  1
  Ca  Ca3  1  0.25000000  0.63143300  0.58344800  1
  Lu  Lu4  1  0.75000000  0.60682700  0.91668900  1
  Lu  Lu5  1  0.25000000  0.39317300  0.08331100  1
  Lu  Lu6  1  0.75000000  0.10682700  0.58331100  1
  Lu  Lu7  1  0.25000000  0.89317300  0.41668900  1
  Lu  Lu8  1  0.75000000  0.64688300  0.29756300  1
  Lu  Lu9  1  0.25000000  0.35311700  0.70243700  1
  Lu  Lu10  1  0.75000000  0.14688300  0.20243700  1
  Lu  Lu11  1  0.25000000  0.85311700  0.79756300  1
  S  S12  1  0.75000000  0.71806200  0.73829100  1
  S  S13  1  0.25000000  0.28193800  0.26170900  1
  S  S14  1  0.75000000  0.21806200  0.76170900  1
  S  S15  1  0.25000000  0.78193800  0.23829100  1
  S  S16  1  0.75000000  0.75815200  0.47256500  1
  S  S17  1  0.25000000  0.24184800  0.52743500  1
  S  S18  1  0.75000000  0.25815200  0.02743500  1
  S  S19  1  0.25000000  0.74184800  0.97256500  1
  S  S20  1  0.75000000  0.96937000  0.88047800  1
  S  S21  1  0.25000000  0.03063000  0.11952200  1
  S  S22  1  0.75000000  0.46937000  0.61952200  1
  S  S23  1  0.25000000  0.53063000  0.38047800  1
  S  S24  1  0.75000000  0.53419300  0.11755800  1
  S  S25  1  0.25000000  0.46580700  0.88244200  1
  S  S26  1  0.75000000  0.03419300  0.38244200  1
  S  S27  1  0.25000000  0.96580700  0.61755800  1
