# generated using pymatgen
data_La3S3N
_symmetry_space_group_name_H-M   'P 1'
_cell_length_a   4.17284900
_cell_length_b   12.22769300
_cell_length_c   13.25664400
_cell_angle_alpha   90.00000000
_cell_angle_beta   90.00000000
_cell_angle_gamma   90.00000000
_symmetry_Int_Tables_number   1
_chemical_formula_structural   La3S3N
_chemical_formula_sum   'La12 S12 N4'
_cell_volume   676.41119928
_cell_formula_units_Z   4
loop_
 _symmetry_equiv_pos_site_id
 _symmetry_equiv_pos_as_xyz
  1  'x, y, z'
loop_
 _atom_site_type_symbol
 _atom_site_label
 _atom_site_symmetry_multiplicity
 _atom_site_fract_x
 _atom_site_fract_y
 _atom_site_fract_z
 _atom_site_occupancy
  La  La0  1  0.75000000  0.40478900  0.87450700  1
  La  La1  1  0.75000000  0.27034500  0.63007000  1
  La  La2  1  0.25000000  0.22965500  0.13007000  1
  La  La3  1  0.25000000  0.09521100  0.37450700  1
  La  La4  1  0.75000000  0.96665000  0.15232500  1
  La  La5  1  0.75000000  0.46665000  0.34767500  1
  La  La6  1  0.25000000  0.72965500  0.36993000  1
  La  La7  1  0.75000000  0.77034500  0.86993000  1
  La  La8  1  0.25000000  0.53335000  0.65232500  1
  La  La9  1  0.75000000  0.90478900  0.62549300  1
  La  La10  1  0.25000000  0.59521100  0.12549300  1
  La  La11  1  0.25000000  0.03335000  0.84767500  1
  S  S12  1  0.25000000  0.26577400  0.79443800  1
  S  S13  1  0.25000000  0.57158600  0.89255700  1
  S  S14  1  0.25000000  0.85398000  0.00207800  1
  S  S15  1  0.75000000  0.73422600  0.20556200  1
  S  S16  1  0.75000000  0.14602000  0.99792200  1
  S  S17  1  0.75000000  0.92841400  0.39255700  1
  S  S18  1  0.25000000  0.76577400  0.70556200  1
  S  S19  1  0.75000000  0.64602000  0.50207800  1
  S  S20  1  0.25000000  0.35398000  0.49792200  1
  S  S21  1  0.75000000  0.42841400  0.10744300  1
  S  S22  1  0.25000000  0.07158600  0.60744300  1
  S  S23  1  0.75000000  0.23422600  0.29443800  1
  N  N24  1  0.75000000  0.94498400  0.79830100  1
  N  N25  1  0.25000000  0.55501600  0.29830100  1
  N  N26  1  0.75000000  0.44498400  0.70169900  1
  N  N27  1  0.25000000  0.05501600  0.20169900  1
