# generated using pymatgen
data_Hg3PO4
_symmetry_space_group_name_H-M   'P 1'
_cell_length_a   8.36854200
_cell_length_b   8.07624200
_cell_length_c   10.22677340
_cell_angle_alpha   61.20699190
_cell_angle_beta   90.00000000
_cell_angle_gamma   90.00000000
_symmetry_Int_Tables_number   1
_chemical_formula_structural   Hg3PO4
_chemical_formula_sum   'Hg12 P4 O16'
_cell_volume   605.73547761
_cell_formula_units_Z   4
loop_
 _symmetry_equiv_pos_site_id
 _symmetry_equiv_pos_as_xyz
  1  'x, y, z'
loop_
 _atom_site_type_symbol
 _atom_site_label
 _atom_site_symmetry_multiplicity
 _atom_site_fract_x
 _atom_site_fract_y
 _atom_site_fract_z
 _atom_site_occupancy
  Hg  Hg0  1  0.22505800  0.43800300  0.57275100  1
  Hg  Hg1  1  0.39706200  0.86468700  0.52943700  1
  Hg  Hg2  1  0.94639700  0.84919800  0.38844500  1
  Hg  Hg3  1  0.60293800  0.13531300  0.47056300  1
  Hg  Hg4  1  0.55360300  0.84919800  0.88844500  1
  Hg  Hg5  1  0.89706200  0.13531300  0.97056300  1
  Hg  Hg6  1  0.27494200  0.43800300  0.07275100  1
  Hg  Hg7  1  0.05360300  0.15080200  0.61155500  1
  Hg  Hg8  1  0.72505800  0.56199700  0.92724900  1
  Hg  Hg9  1  0.77494200  0.56199700  0.42724900  1
  Hg  Hg10  1  0.10293800  0.86468700  0.02943700  1
  Hg  Hg11  1  0.44639700  0.15080200  0.11155500  1
  P  P12  1  0.06758200  0.70352200  0.75378900  1
  P  P13  1  0.43241800  0.70352200  0.25378900  1
  P  P14  1  0.93241800  0.29647800  0.24621100  1
  P  P15  1  0.56758200  0.29647800  0.74621100  1
  O  O16  1  0.81693000  0.26917500  0.13816600  1
  O  O17  1  0.31693000  0.73082500  0.36183400  1
  O  O18  1  0.68307000  0.26917500  0.63816600  1
  O  O19  1  0.03024800  0.48068200  0.16929600  1
  O  O20  1  0.53024800  0.51931800  0.33070400  1
  O  O21  1  0.83035700  0.29865600  0.37580600  1
  O  O22  1  0.96975200  0.51931800  0.83070400  1
  O  O23  1  0.55174500  0.87512200  0.18003500  1
  O  O24  1  0.33035700  0.70134400  0.12419400  1
  O  O25  1  0.18307000  0.73082500  0.86183400  1
  O  O26  1  0.16964300  0.70134400  0.62419400  1
  O  O27  1  0.46975200  0.48068200  0.66929600  1
  O  O28  1  0.94825500  0.87512200  0.68003500  1
  O  O29  1  0.05174500  0.12487800  0.31996500  1
  O  O30  1  0.66964300  0.29865600  0.87580600  1
  O  O31  1  0.44825500  0.12487800  0.81996500  1
