# generated using pymatgen
data_Sb4Au(Xe2F11)2
_symmetry_space_group_name_H-M   'P 1'
_cell_length_a   8.15956900
_cell_length_b   9.42745268
_cell_length_c   17.88227619
_cell_angle_alpha   99.78963147
_cell_angle_beta   92.68401796
_cell_angle_gamma   94.62175165
_symmetry_Int_Tables_number   1
_chemical_formula_structural   Sb4Au(Xe2F11)2
_chemical_formula_sum   'Sb8 Au2 Xe8 F44'
_cell_volume   1348.56953819
_cell_formula_units_Z   2
loop_
 _symmetry_equiv_pos_site_id
 _symmetry_equiv_pos_as_xyz
  1  'x, y, z'
loop_
 _atom_site_type_symbol
 _atom_site_label
 _atom_site_symmetry_multiplicity
 _atom_site_fract_x
 _atom_site_fract_y
 _atom_site_fract_z
 _atom_site_occupancy
  Sb  Sb0  1  0.78678800  0.29910800  0.41690800  1
  Sb  Sb1  1  0.70435100  0.83408200  0.91533100  1
  Sb  Sb2  1  0.89624900  0.39246700  0.12636900  1
  Sb  Sb3  1  0.64363900  0.94636600  0.63469500  1
  Sb  Sb4  1  0.10375100  0.60753300  0.87363100  1
  Sb  Sb5  1  0.35636100  0.05363400  0.36530500  1
  Sb  Sb6  1  0.29564900  0.16591800  0.08466900  1
  Sb  Sb7  1  0.21321200  0.70089200  0.58309200  1
  Au  Au8  1  0.60028000  0.72103400  0.25661200  1
  Au  Au9  1  0.39972000  0.27896600  0.74338800  1
  Xe  Xe10  1  0.63243600  0.30478800  0.86702300  1
  Xe  Xe11  1  0.84260400  0.74209000  0.37549900  1
  Xe  Xe12  1  0.36756400  0.69521200  0.13297700  1
  Xe  Xe13  1  0.81645900  0.89060000  0.18170000  1
  Xe  Xe14  1  0.15739600  0.25791000  0.62450100  1
  Xe  Xe15  1  0.38011100  0.55575300  0.33185900  1
  Xe  Xe16  1  0.18354100  0.10940000  0.81830000  1
  Xe  Xe17  1  0.61988900  0.44424700  0.66814100  1
  F  F18  1  0.84175700  0.11755500  0.36504400  1
  F  F19  1  0.69285800  0.46265700  0.47035800  1
  F  F20  1  0.51139100  0.97908000  0.72063000  1
  F  F21  1  0.30714200  0.53734300  0.52964200  1
  F  F22  1  0.61220500  0.71399400  0.98116100  1
  F  F23  1  0.99883300  0.39720600  0.41630000  1
  F  F24  1  0.24738000  0.09694700  0.45672300  1
  F  F25  1  0.18211400  0.04655300  0.99853400  1
  F  F26  1  0.02340600  0.44362200  0.91501100  1
  F  F27  1  0.81388000  0.08603200  0.68369100  1
  F  F28  1  0.03172200  0.46834900  0.21637500  1
  F  F29  1  0.78102900  0.31212300  0.03191500  1
  F  F30  1  0.90432300  0.70473600  0.91762200  1
  F  F31  1  0.18612000  0.91396800  0.31630900  1
  F  F32  1  0.72781000  0.78669700  0.67011800  1
  F  F33  1  0.16807300  0.76157900  0.48829500  1
  F  F34  1  0.83868100  0.22185900  0.16539600  1
  F  F35  1  0.82927400  0.93684800  0.85080600  1
  F  F36  1  0.17072600  0.06315200  0.14919400  1
  F  F37  1  0.54822400  0.19839300  0.41890500  1
  F  F38  1  0.47603000  0.05203500  0.08786600  1
  F  F39  1  0.21897100  0.68787700  0.96808500  1
  F  F40  1  0.96827800  0.53165100  0.78362500  1
  F  F41  1  0.37690700  0.30769500  0.16969800  1
  F  F42  1  0.81788600  0.95344700  0.00146600  1
  F  F43  1  0.75262000  0.90305300  0.54327700  1
  F  F44  1  0.28894900  0.64955600  0.67622400  1
  F  F45  1  0.15824300  0.88244500  0.63495600  1
  F  F46  1  0.97659400  0.55637800  0.08498900  1
  F  F47  1  0.52924400  0.08835100  0.59436800  1
  F  F48  1  0.48860900  0.02092000  0.27937000  1
  F  F49  1  0.16131900  0.77814100  0.83460400  1
  F  F50  1  0.28857700  0.51128100  0.83474700  1
  F  F51  1  0.62309300  0.69230500  0.83030200  1
  F  F52  1  0.47075600  0.91164900  0.40563200  1
  F  F53  1  0.71105100  0.35044400  0.32377600  1
  F  F54  1  0.71142300  0.48871900  0.16525300  1
  F  F55  1  0.38779500  0.28600600  0.01883900  1
  F  F56  1  0.52397000  0.94796500  0.91213400  1
  F  F57  1  0.00116700  0.60279400  0.58370000  1
  F  F58  1  0.27219000  0.21330300  0.32988200  1
  F  F59  1  0.45177600  0.80160700  0.58109500  1
  F  F60  1  0.09567700  0.29526400  0.08237800  1
  F  F61  1  0.83192700  0.23842100  0.51170500  1
