# generated using pymatgen
data_BaY2Si3O10
_symmetry_space_group_name_H-M   'P 1'
_cell_length_a   12.35796800
_cell_length_b   5.47404500
_cell_length_c   6.93551346
_cell_angle_alpha   73.64028063
_cell_angle_beta   90.00000000
_cell_angle_gamma   90.00000000
_symmetry_Int_Tables_number   1
_chemical_formula_structural   BaY2Si3O10
_chemical_formula_sum   'Ba2 Y4 Si6 O20'
_cell_volume   450.17830748
_cell_formula_units_Z   2
loop_
 _symmetry_equiv_pos_site_id
 _symmetry_equiv_pos_as_xyz
  1  'x, y, z'
loop_
 _atom_site_type_symbol
 _atom_site_label
 _atom_site_symmetry_multiplicity
 _atom_site_fract_x
 _atom_site_fract_y
 _atom_site_fract_z
 _atom_site_occupancy
  Ba  Ba0  1  0.75000000  0.76278000  0.98484000  1
  Ba  Ba1  1  0.25000000  0.23722000  0.01516000  1
  Y  Y2  1  0.59865200  0.15882800  0.31542600  1
  Y  Y3  1  0.90134800  0.15882800  0.31542600  1
  Y  Y4  1  0.09865200  0.84117200  0.68457400  1
  Y  Y5  1  0.40134800  0.84117200  0.68457400  1
  Si  Si6  1  0.06172000  0.69565600  0.21420200  1
  Si  Si7  1  0.25000000  0.41864200  0.48822900  1
  Si  Si8  1  0.75000000  0.58135800  0.51177100  1
  Si  Si9  1  0.43828000  0.69565600  0.21420200  1
  Si  Si10  1  0.56172000  0.30434400  0.78579800  1
  Si  Si11  1  0.93828000  0.30434400  0.78579800  1
  O  O12  1  0.44974400  0.89745700  0.35171100  1
  O  O13  1  0.14340000  0.45405100  0.33851400  1
  O  O14  1  0.85660000  0.54594900  0.66148600  1
  O  O15  1  0.35660000  0.45405100  0.33851400  1
  O  O16  1  0.37758000  0.83603500  0.00347200  1
  O  O17  1  0.87758000  0.16396500  0.99652800  1
  O  O18  1  0.05365200  0.43482100  0.80805700  1
  O  O19  1  0.94974400  0.10254300  0.64828900  1
  O  O20  1  0.55025600  0.10254300  0.64828900  1
  O  O21  1  0.25000000  0.62695600  0.61654000  1
  O  O22  1  0.12242000  0.83603500  0.00347200  1
  O  O23  1  0.55365200  0.56517900  0.19194300  1
  O  O24  1  0.25000000  0.12497300  0.63292600  1
  O  O25  1  0.64340000  0.54594900  0.66148600  1
  O  O26  1  0.75000000  0.87502700  0.36707400  1
  O  O27  1  0.94634800  0.56517900  0.19194300  1
  O  O28  1  0.75000000  0.37304400  0.38346000  1
  O  O29  1  0.44634800  0.43482100  0.80805700  1
  O  O30  1  0.62242000  0.16396500  0.99652800  1
  O  O31  1  0.05025600  0.89745700  0.35171100  1
