# generated using pymatgen
data_Lu2CCl2
_symmetry_space_group_name_H-M   'P 1'
_cell_length_a   9.41648690
_cell_length_b   9.41648690
_cell_length_c   9.41648620
_cell_angle_alpha   22.11422308
_cell_angle_beta   22.11422308
_cell_angle_gamma   22.11421977
_symmetry_Int_Tables_number   1
_chemical_formula_structural   Lu2CCl2
_chemical_formula_sum   'Lu2 C1 Cl2'
_cell_volume   103.74750853
_cell_formula_units_Z   1
loop_
 _symmetry_equiv_pos_site_id
 _symmetry_equiv_pos_as_xyz
  1  'x, y, z'
loop_
 _atom_site_type_symbol
 _atom_site_label
 _atom_site_symmetry_multiplicity
 _atom_site_fract_x
 _atom_site_fract_y
 _atom_site_fract_z
 _atom_site_occupancy
  Lu  Lu0  1  0.88040000  0.88040000  0.88040000  1
  Lu  Lu1  1  0.11960000  0.11960000  0.11960000  1
  C  C2  1  0.50000000  0.50000000  0.50000000  1
  Cl  Cl3  1  0.27645300  0.27645300  0.27645300  1
  Cl  Cl4  1  0.72354700  0.72354700  0.72354700  1
