# generated using pymatgen
data_Hg3AsSe4Br
_symmetry_space_group_name_H-M   'P 1'
_cell_length_a   7.87690489
_cell_length_b   7.87690489
_cell_length_c   10.34961700
_cell_angle_alpha   90.00000000
_cell_angle_beta   90.00000000
_cell_angle_gamma   120.00000751
_symmetry_Int_Tables_number   1
_chemical_formula_structural   Hg3AsSe4Br
_chemical_formula_sum   'Hg6 As2 Se8 Br2'
_cell_volume   556.11688441
_cell_formula_units_Z   2
loop_
 _symmetry_equiv_pos_site_id
 _symmetry_equiv_pos_as_xyz
  1  'x, y, z'
loop_
 _atom_site_type_symbol
 _atom_site_label
 _atom_site_symmetry_multiplicity
 _atom_site_fract_x
 _atom_site_fract_y
 _atom_site_fract_z
 _atom_site_occupancy
  Hg  Hg0  1  0.49967900  0.50032100  0.23848200  1
  Hg  Hg1  1  0.50032100  0.00064100  0.73848200  1
  Hg  Hg2  1  0.50032100  0.49967900  0.73848200  1
  Hg  Hg3  1  0.00064100  0.50032100  0.23848200  1
  Hg  Hg4  1  0.49967900  0.99935900  0.23848200  1
  Hg  Hg5  1  0.99935900  0.49967900  0.73848200  1
  As  As6  1  0.00000000  0.00000000  0.23331900  1
  As  As7  1  0.00000000  0.00000000  0.73331900  1
  Se  Se8  1  0.84899300  0.69798600  0.36046000  1
  Se  Se9  1  0.33333300  0.66666700  0.11114600  1
  Se  Se10  1  0.15100700  0.84899300  0.86046000  1
  Se  Se11  1  0.15100700  0.30201400  0.86046000  1
  Se  Se12  1  0.69798600  0.84899300  0.86046000  1
  Se  Se13  1  0.84899300  0.15100700  0.36046000  1
  Se  Se14  1  0.66666700  0.33333300  0.61114600  1
  Se  Se15  1  0.30201400  0.15100700  0.36046000  1
  Br  Br16  1  0.33333300  0.66666700  0.54280900  1
  Br  Br17  1  0.66666700  0.33333300  0.04280900  1
