# generated using pymatgen
data_BaBe2(BO3)2
_symmetry_space_group_name_H-M   'P 1'
_cell_length_a   8.81518280
_cell_length_b   7.27290530
_cell_length_c   6.74717240
_cell_angle_alpha   77.81674129
_cell_angle_beta   53.75159845
_cell_angle_gamma   48.43166026
_symmetry_Int_Tables_number   1
_chemical_formula_structural   BaBe2(BO3)2
_chemical_formula_sum   'Ba2 Be4 B4 O12'
_cell_volume   248.94105399
_cell_formula_units_Z   2
loop_
 _symmetry_equiv_pos_site_id
 _symmetry_equiv_pos_as_xyz
  1  'x, y, z'
loop_
 _atom_site_type_symbol
 _atom_site_label
 _atom_site_symmetry_multiplicity
 _atom_site_fract_x
 _atom_site_fract_y
 _atom_site_fract_z
 _atom_site_occupancy
  Ba  Ba0  1  0.25000000  0.25000000  0.25000000  1
  Ba  Ba1  1  0.00000000  0.00000000  0.00000000  1
  Be  Be2  1  0.40747100  0.40747100  0.59252900  1
  Be  Be3  1  0.84252900  0.84252900  0.65747100  1
  Be  Be4  1  0.65747100  0.65747100  0.84252900  1
  Be  Be5  1  0.59252900  0.59252900  0.40747100  1
  B  B6  1  0.28592100  0.71407900  0.28592100  1
  B  B7  1  0.53592100  0.96407900  0.53592100  1
  B  B8  1  0.71407900  0.28592100  0.71407900  1
  B  B9  1  0.96407900  0.53592100  0.96407900  1
  O  O10  1  0.59734800  0.40265200  0.59734800  1
  O  O11  1  0.15640900  0.52123900  0.88795900  1
  O  O12  1  0.72876100  0.09359100  0.81560700  1
  O  O13  1  0.43439300  0.88795900  0.52123900  1
  O  O14  1  0.09359100  0.72876100  0.36204100  1
  O  O15  1  0.88795900  0.43439300  0.15640900  1
  O  O16  1  0.40265200  0.59734800  0.40265200  1
  O  O17  1  0.84734800  0.65265200  0.84734800  1
  O  O18  1  0.81560700  0.36204100  0.72876100  1
  O  O19  1  0.36204100  0.81560700  0.09359100  1
  O  O20  1  0.65265200  0.84734800  0.65265200  1
  O  O21  1  0.52123900  0.15640900  0.43439300  1
