# generated using pymatgen
data_La(MnSi)2
_symmetry_space_group_name_H-M   'P 1'
_cell_length_a   6.01254875
_cell_length_b   6.01254875
_cell_length_c   6.01254875
_cell_angle_alpha   140.96489920
_cell_angle_beta   140.96489920
_cell_angle_gamma   56.39112523
_symmetry_Int_Tables_number   1
_chemical_formula_structural   La(MnSi)2
_chemical_formula_sum   'La1 Mn2 Si2'
_cell_volume   85.53045936
_cell_formula_units_Z   1
loop_
 _symmetry_equiv_pos_site_id
 _symmetry_equiv_pos_as_xyz
  1  'x, y, z'
loop_
 _atom_site_type_symbol
 _atom_site_label
 _atom_site_symmetry_multiplicity
 _atom_site_fract_x
 _atom_site_fract_y
 _atom_site_fract_z
 _atom_site_occupancy
  La  La0  1  0.00000000  0.00000000  0.00000000  1
  Mn  Mn1  1  0.75000000  0.25000000  0.50000000  1
  Mn  Mn2  1  0.25000000  0.75000000  0.50000000  1
  Si  Si3  1  0.62888800  0.62888800  0.00000000  1
  Si  Si4  1  0.37111200  0.37111200  0.00000000  1
