# generated using pymatgen
data_Ta2Tl4Se11
_symmetry_space_group_name_H-M   'P 1'
_cell_length_a   8.28481000
_cell_length_b   9.40097004
_cell_length_c   14.12693391
_cell_angle_alpha   107.16029367
_cell_angle_beta   89.21686068
_cell_angle_gamma   94.31027556
_symmetry_Int_Tables_number   1
_chemical_formula_structural   Ta2Tl4Se11
_chemical_formula_sum   'Ta4 Tl8 Se22'
_cell_volume   1048.28349252
_cell_formula_units_Z   2
loop_
 _symmetry_equiv_pos_site_id
 _symmetry_equiv_pos_as_xyz
  1  'x, y, z'
loop_
 _atom_site_type_symbol
 _atom_site_label
 _atom_site_symmetry_multiplicity
 _atom_site_fract_x
 _atom_site_fract_y
 _atom_site_fract_z
 _atom_site_occupancy
  Ta  Ta0  1  0.66407800  0.11168000  0.81175400  1
  Ta  Ta1  1  0.33592200  0.88832000  0.18824600  1
  Ta  Ta2  1  0.87510900  0.36485700  0.69604000  1
  Ta  Ta3  1  0.12489100  0.63514300  0.30396000  1
  Tl  Tl4  1  0.95302900  0.76307700  0.01873700  1
  Tl  Tl5  1  0.04697100  0.23692300  0.98126300  1
  Tl  Tl6  1  0.78980200  0.97643900  0.42592900  1
  Tl  Tl7  1  0.21019800  0.02356100  0.57407100  1
  Tl  Tl8  1  0.49427800  0.27101300  0.10990000  1
  Tl  Tl9  1  0.50572200  0.72898700  0.89010000  1
  Tl  Tl10  1  0.76674000  0.41665300  0.41910800  1
  Tl  Tl11  1  0.23326000  0.58334700  0.58089200  1
  Se  Se12  1  0.72741400  0.03820900  0.95885200  1
  Se  Se13  1  0.27258600  0.96179100  0.04114800  1
  Se  Se14  1  0.53835200  0.68888100  0.11816600  1
  Se  Se15  1  0.46164800  0.31111900  0.88183400  1
  Se  Se16  1  0.74105700  0.40203800  0.88776100  1
  Se  Se17  1  0.25894300  0.59796200  0.11223900  1
  Se  Se18  1  0.96608200  0.13250900  0.75042700  1
  Se  Se19  1  0.03391800  0.86749100  0.24957300  1
  Se  Se20  1  0.59512900  0.07294700  0.24757600  1
  Se  Se21  1  0.40487100  0.92705300  0.75242400  1
  Se  Se22  1  0.65476500  0.86489200  0.66842200  1
  Se  Se23  1  0.34523500  0.13510800  0.33157800  1
  Se  Se24  1  0.60417900  0.44110400  0.64745100  1
  Se  Se25  1  0.39582100  0.55889600  0.35254900  1
  Se  Se26  1  0.88948700  0.49865800  0.18474900  1
  Se  Se27  1  0.11051300  0.50134200  0.81525100  1
  Se  Se28  1  0.94686200  0.65188200  0.74978700  1
  Se  Se29  1  0.05313800  0.34811800  0.25021300  1
  Se  Se30  1  0.61282100  0.17866600  0.62976900  1
  Se  Se31  1  0.38717900  0.82133400  0.37023100  1
  Se  Se32  1  0.98416100  0.71168800  0.46442200  1
  Se  Se33  1  0.01583900  0.28831200  0.53557800  1
