# generated using pymatgen
data_P3N5
_symmetry_space_group_name_H-M   'P 1'
_cell_length_a   5.04386412
_cell_length_b   5.04386412
_cell_length_c   9.24051264
_cell_angle_alpha   69.39936590
_cell_angle_beta   69.39936590
_cell_angle_gamma   71.52211869
_symmetry_Int_Tables_number   1
_chemical_formula_structural   P3N5
_chemical_formula_sum   'P6 N10'
_cell_volume   200.91408769
_cell_formula_units_Z   2
loop_
 _symmetry_equiv_pos_site_id
 _symmetry_equiv_pos_as_xyz
  1  'x, y, z'
loop_
 _atom_site_type_symbol
 _atom_site_label
 _atom_site_symmetry_multiplicity
 _atom_site_fract_x
 _atom_site_fract_y
 _atom_site_fract_z
 _atom_site_occupancy
  P  P0  1  0.48197700  0.51802300  0.25000000  1
  P  P1  1  0.66218900  0.06970000  0.55530200  1
  P  P2  1  0.06970000  0.66218900  0.05530200  1
  P  P3  1  0.33781100  0.93030000  0.44469800  1
  P  P4  1  0.93030000  0.33781100  0.94469800  1
  P  P5  1  0.51802300  0.48197700  0.75000000  1
  N  N6  1  0.50075600  0.78912000  0.59974300  1
  N  N7  1  0.22890800  0.50785500  0.19169400  1
  N  N8  1  0.49924400  0.21088000  0.40025700  1
  N  N9  1  0.21088000  0.49924400  0.90025700  1
  N  N10  1  0.49214500  0.77109200  0.30830600  1
  N  N11  1  0.77109200  0.49214500  0.80830600  1
  N  N12  1  0.00000000  0.00000000  0.50000000  1
  N  N13  1  0.78912000  0.50075600  0.09974300  1
  N  N14  1  0.50785500  0.22890800  0.69169400  1
  N  N15  1  0.00000000  0.00000000  0.00000000  1
