# generated using pymatgen
data_Cs4Sb2O5
_symmetry_space_group_name_H-M   'P 1'
_cell_length_a   6.48203386
_cell_length_b   6.48203386
_cell_length_c   8.30319522
_cell_angle_alpha   83.52058803
_cell_angle_beta   83.52058803
_cell_angle_gamma   65.98084732
_symmetry_Int_Tables_number   1
_chemical_formula_structural   Cs4Sb2O5
_chemical_formula_sum   'Cs4 Sb2 O5'
_cell_volume   315.76704240
_cell_formula_units_Z   1
loop_
 _symmetry_equiv_pos_site_id
 _symmetry_equiv_pos_as_xyz
  1  'x, y, z'
loop_
 _atom_site_type_symbol
 _atom_site_label
 _atom_site_symmetry_multiplicity
 _atom_site_fract_x
 _atom_site_fract_y
 _atom_site_fract_z
 _atom_site_occupancy
  Cs  Cs0  1  0.99493800  0.99493800  0.00470900  1
  Cs  Cs1  1  0.00049300  0.00049300  0.50033800  1
  Cs  Cs2  1  0.33683100  0.33683100  0.15333200  1
  Cs  Cs3  1  0.66575400  0.66575400  0.84661300  1
  Sb  Sb4  1  0.35322200  0.35322200  0.67179300  1
  Sb  Sb5  1  0.64808800  0.64808800  0.32995600  1
  O  O6  1  0.62563500  0.19706200  0.78714200  1
  O  O7  1  0.40864200  0.83550800  0.19123800  1
  O  O8  1  0.83550800  0.40864200  0.19123800  1
  O  O9  1  0.19706200  0.62563500  0.78714200  1
  O  O10  1  0.47690700  0.47690700  0.46521900  1
