# generated using pymatgen
data_KV2PO8
_symmetry_space_group_name_H-M   'P 1'
_cell_length_a   4.83794600
_cell_length_b   13.94843400
_cell_length_c   20.56934700
_cell_angle_alpha   90.00000000
_cell_angle_beta   90.00000000
_cell_angle_gamma   90.00000000
_symmetry_Int_Tables_number   1
_chemical_formula_structural   KV2PO8
_chemical_formula_sum   'K8 V16 P8 O64'
_cell_volume   1388.05595311
_cell_formula_units_Z   8
loop_
 _symmetry_equiv_pos_site_id
 _symmetry_equiv_pos_as_xyz
  1  'x, y, z'
loop_
 _atom_site_type_symbol
 _atom_site_label
 _atom_site_symmetry_multiplicity
 _atom_site_fract_x
 _atom_site_fract_y
 _atom_site_fract_z
 _atom_site_occupancy
  K  K0  1  0.31428400  0.47006700  0.74954700  1
  K  K1  1  0.81428400  0.02993300  0.24954700  1
  K  K2  1  0.29151300  0.71363100  0.50527100  1
  K  K3  1  0.18571600  0.97006700  0.74954700  1
  K  K4  1  0.20848700  0.21363100  0.50527100  1
  K  K5  1  0.79151300  0.78636900  0.00527100  1
  K  K6  1  0.68571600  0.52993300  0.24954700  1
  K  K7  1  0.70848700  0.28636900  0.00527100  1
  V  V8  1  0.20482200  0.95779600  0.39894400  1
  V  V9  1  0.16438100  0.37277100  0.13406000  1
  V  V10  1  0.79846300  0.28962200  0.35815600  1
  V  V11  1  0.34351200  0.12224800  0.12288500  1
  V  V12  1  0.70153700  0.78962200  0.35815600  1
  V  V13  1  0.70482200  0.54220400  0.89894400  1
  V  V14  1  0.79517800  0.04220400  0.89894400  1
  V  V15  1  0.66438100  0.12722900  0.63406000  1
  V  V16  1  0.29517800  0.45779600  0.39894400  1
  V  V17  1  0.33561900  0.87277100  0.13406000  1
  V  V18  1  0.20153700  0.71037800  0.85815600  1
  V  V19  1  0.29846300  0.21037800  0.85815600  1
  V  V20  1  0.65648800  0.87775200  0.62288500  1
  V  V21  1  0.15648800  0.62224800  0.12288500  1
  V  V22  1  0.83561900  0.62722900  0.63406000  1
  V  V23  1  0.84351200  0.37775200  0.62288500  1
  P  P24  1  0.18831900  0.73626900  0.25880400  1
  P  P25  1  0.30598100  0.98630700  0.99766800  1
  P  P26  1  0.81168100  0.26373100  0.75880400  1
  P  P27  1  0.68831900  0.76373100  0.75880400  1
  P  P28  1  0.31168100  0.23626900  0.25880400  1
  P  P29  1  0.69401900  0.01369300  0.49766800  1
  P  P30  1  0.80598100  0.51369300  0.49766800  1
  P  P31  1  0.19401900  0.48630700  0.99766800  1
  O  O32  1  0.38356200  0.72869300  0.31778200  1
  O  O33  1  0.11597100  0.26916500  0.78170100  1
  O  O34  1  0.81961100  0.61871400  0.12241400  1
  O  O35  1  0.32616300  0.01989100  0.33844500  1
  O  O36  1  0.67383700  0.98010900  0.83844500  1
  O  O37  1  0.73952500  0.75567400  0.60678000  1
  O  O38  1  0.24057600  0.64759300  0.21486000  1
  O  O39  1  0.23952500  0.74432600  0.10678000  1
  O  O40  1  0.74909500  0.41905300  0.53550200  1
  O  O41  1  0.58505600  0.39105500  0.35175400  1
  O  O42  1  0.75863700  0.16862300  0.72133800  1
  O  O43  1  0.39029700  0.01903800  0.47436300  1
  O  O44  1  0.82719200  0.37357700  0.13430700  1
  O  O45  1  0.75603000  0.60266200  0.54166500  1
  O  O46  1  0.68038900  0.11871400  0.12241400  1
  O  O47  1  0.91492300  0.64408300  0.90699500  1
  O  O48  1  0.17383700  0.51989100  0.33844500  1
  O  O49  1  0.38402900  0.76916500  0.78170100  1
  O  O50  1  0.75090500  0.91905300  0.53550200  1
  O  O51  1  0.23993200  0.99399700  0.15022000  1
  O  O52  1  0.32719200  0.12642300  0.63430700  1
  O  O53  1  0.60918800  0.52109000  0.43910900  1
  O  O54  1  0.26047500  0.24432600  0.10678000  1
  O  O55  1  0.41492300  0.85591700  0.40699500  1
  O  O56  1  0.24136300  0.83137700  0.22133800  1
  O  O57  1  0.25603000  0.89733800  0.04166500  1
  O  O58  1  0.75942400  0.35240700  0.71486000  1
  O  O59  1  0.67280800  0.87357700  0.13430700  1
  O  O60  1  0.17844000  0.27500100  0.91752700  1
  O  O61  1  0.67844000  0.22499900  0.41752700  1
  O  O62  1  0.73993200  0.50600300  0.65022000  1
  O  O63  1  0.17280800  0.62642300  0.63430700  1
  O  O64  1  0.74136300  0.66862300  0.72133800  1
  O  O65  1  0.89081200  0.02109000  0.43910900  1
  O  O66  1  0.32156000  0.77500100  0.91752700  1
  O  O67  1  0.61597100  0.23083500  0.28170100  1
  O  O68  1  0.10970300  0.51903800  0.47436300  1
  O  O69  1  0.58507700  0.14408300  0.90699500  1
  O  O70  1  0.08505600  0.10894500  0.85175400  1
  O  O71  1  0.91494400  0.89105500  0.35175400  1
  O  O72  1  0.89029700  0.48096200  0.97436300  1
  O  O73  1  0.25863700  0.33137700  0.22133800  1
  O  O74  1  0.74057600  0.85240700  0.71486000  1
  O  O75  1  0.39081200  0.47891000  0.93910900  1
  O  O76  1  0.41494400  0.60894500  0.85175400  1
  O  O77  1  0.60970300  0.98096200  0.97436300  1
  O  O78  1  0.26006800  0.49399700  0.15022000  1
  O  O79  1  0.82616300  0.48010900  0.83844500  1
  O  O80  1  0.76047500  0.25567400  0.60678000  1
  O  O81  1  0.24909500  0.08094700  0.03550200  1
  O  O82  1  0.76006800  0.00600300  0.65022000  1
  O  O83  1  0.25090500  0.58094700  0.03550200  1
  O  O84  1  0.08507700  0.35591700  0.40699500  1
  O  O85  1  0.88356200  0.77130700  0.81778200  1
  O  O86  1  0.11643800  0.22869300  0.31778200  1
  O  O87  1  0.74397000  0.10266200  0.54166500  1
  O  O88  1  0.25942400  0.14759300  0.21486000  1
  O  O89  1  0.31961100  0.88128600  0.62241400  1
  O  O90  1  0.61643800  0.27130700  0.81778200  1
  O  O91  1  0.88402900  0.73083500  0.28170100  1
  O  O92  1  0.18038900  0.38128600  0.62241400  1
  O  O93  1  0.24397000  0.39733800  0.04166500  1
  O  O94  1  0.10918800  0.97891000  0.93910900  1
  O  O95  1  0.82156000  0.72499900  0.41752700  1
