# generated using pymatgen
data_BaN3Cl
_symmetry_space_group_name_H-M   'P 1'
_cell_length_a   4.58402600
_cell_length_b   5.65228000
_cell_length_c   7.96433226
_cell_angle_alpha   78.37949007
_cell_angle_beta   90.00000000
_cell_angle_gamma   90.00000000
_symmetry_Int_Tables_number   1
_chemical_formula_structural   BaN3Cl
_chemical_formula_sum   'Ba2 N6 Cl2'
_cell_volume   202.12776434
_cell_formula_units_Z   2
loop_
 _symmetry_equiv_pos_site_id
 _symmetry_equiv_pos_as_xyz
  1  'x, y, z'
loop_
 _atom_site_type_symbol
 _atom_site_label
 _atom_site_symmetry_multiplicity
 _atom_site_fract_x
 _atom_site_fract_y
 _atom_site_fract_z
 _atom_site_occupancy
  Ba  Ba0  1  0.25000000  0.68264500  0.23610700  1
  Ba  Ba1  1  0.75000000  0.31735500  0.76389300  1
  N  N2  1  0.75000000  0.35912700  0.37928600  1
  N  N3  1  0.25000000  0.05183100  0.64583900  1
  N  N4  1  0.75000000  0.15271400  0.36580200  1
  N  N5  1  0.75000000  0.94816900  0.35416100  1
  N  N6  1  0.25000000  0.84728600  0.63419800  1
  N  N7  1  0.25000000  0.64087300  0.62071400  1
  Cl  Cl8  1  0.25000000  0.23746100  0.05169200  1
  Cl  Cl9  1  0.75000000  0.76253900  0.94830800  1
