# generated using pymatgen
data_PrGeBO5
_symmetry_space_group_name_H-M   'P 1'
_cell_length_a   12.19363280
_cell_length_b   12.19363280
_cell_length_c   6.84627200
_cell_angle_alpha   90.00000000
_cell_angle_beta   90.00000000
_cell_angle_gamma   120.00000434
_symmetry_Int_Tables_number   1
_chemical_formula_structural   PrGeBO5
_chemical_formula_sum   'Pr9 Ge9 B9 O45'
_cell_volume   881.55819543
_cell_formula_units_Z   9
loop_
 _symmetry_equiv_pos_site_id
 _symmetry_equiv_pos_as_xyz
  1  'x, y, z'
loop_
 _atom_site_type_symbol
 _atom_site_label
 _atom_site_symmetry_multiplicity
 _atom_site_fract_x
 _atom_site_fract_y
 _atom_site_fract_z
 _atom_site_occupancy
  Pr  Pr0  1  0.52849200  0.05664100  0.65948800  1
  Pr  Pr1  1  0.94335900  0.47185200  0.99282100  1
  Pr  Pr2  1  0.86181100  0.13809900  0.33013200  1
  Pr  Pr3  1  0.27628700  0.13818900  0.99679900  1
  Pr  Pr4  1  0.19415800  0.39048800  0.65921800  1
  Pr  Pr5  1  0.52814800  0.47150800  0.32615400  1
  Pr  Pr6  1  0.19633000  0.80584200  0.32588500  1
  Pr  Pr7  1  0.60951200  0.80367000  0.99255100  1
  Pr  Pr8  1  0.86190100  0.72371300  0.66346500  1
  Ge  Ge9  1  0.19442400  0.38669900  0.15917800  1
  Ge  Ge10  1  0.61330100  0.80772500  0.49251100  1
  Ge  Ge11  1  0.52821200  0.05364400  0.15907800  1
  Ge  Ge12  1  0.52543200  0.47178800  0.82574500  1
  Ge  Ge13  1  0.94635600  0.47456800  0.49241200  1
  Ge  Ge14  1  0.85864000  0.13852500  0.83163000  1
  Ge  Ge15  1  0.27988500  0.14136000  0.49829700  1
  Ge  Ge16  1  0.86147500  0.72011500  0.16496400  1
  Ge  Ge17  1  0.19227500  0.80557600  0.82584400  1
  B  B18  1  0.02821800  0.07223400  0.63396400  1
  B  B19  1  0.69480700  0.28892200  0.36318100  1
  B  B20  1  0.92776600  0.95598400  0.96729700  1
  B  B21  1  0.59411500  0.30519300  0.02984700  1
  B  B22  1  0.26087000  0.62231900  0.95854500  1
  B  B23  1  0.37768100  0.63855100  0.29187800  1
  B  B24  1  0.04401600  0.97178200  0.30063100  1
  B  B25  1  0.36144900  0.73913000  0.62521200  1
  B  B26  1  0.71107800  0.40588500  0.69651400  1
  O  O27  1  0.07881400  0.76931800  0.64533100  1
  O  O28  1  0.74939800  0.63342000  0.34209100  1
  O  O29  1  0.35093100  0.25650600  0.31832600  1
  O  O30  1  0.65048300  0.48739500  0.66730100  1
  O  O31  1  0.17044600  0.15359200  0.66143600  1
  O  O32  1  0.88402200  0.25060200  0.00875700  1
  O  O33  1  0.99319300  0.02998100  0.43179100  1
  O  O34  1  0.65502900  0.15161200  0.32423800  1
  O  O35  1  0.32121800  0.83626200  0.66429800  1
  O  O36  1  0.22590700  0.91978400  0.00289000  1
  O  O37  1  0.32699700  0.69705900  0.42273200  1
  O  O38  1  0.69387700  0.77409300  0.66955700  1
  O  O39  1  0.50366000  0.82164200  0.65282100  1
  O  O40  1  0.51504500  0.67878200  0.33096500  1
  O  O41  1  0.84838800  0.50341700  0.65757100  1
  O  O42  1  0.18127600  0.01078100  0.33993100  1
  O  O43  1  0.49658300  0.34497100  0.99090400  1
  O  O44  1  0.03678800  0.00680700  0.09845700  1
  O  O45  1  0.97001900  0.96321200  0.76512400  1
  O  O46  1  0.51260500  0.16308800  0.00063400  1
  O  O47  1  0.66170300  0.29619700  0.56684200  1
  O  O48  1  0.56439800  0.58747400  0.00287700  1
  O  O49  1  0.82950500  0.81872400  0.00659800  1
  O  O50  1  0.74349400  0.09442500  0.65165900  1
  O  O51  1  0.36658000  0.11597800  0.67542400  1
  O  O52  1  0.30294100  0.62993800  0.75606600  1
  O  O53  1  0.37006200  0.67300300  0.08939900  1
  O  O54  1  0.84640800  0.01685400  0.99477000  1
  O  O55  1  0.55803800  0.97168000  0.97901100  1
  O  O56  1  0.98314600  0.82955400  0.32810300  1
  O  O57  1  0.23068200  0.30949600  0.97866500  1
  O  O58  1  0.98921900  0.17049500  0.67326400  1
  O  O59  1  0.63449400  0.33829700  0.23350900  1
  O  O60  1  0.02307600  0.43560200  0.66954400  1
  O  O61  1  0.16373800  0.48495500  0.99763100  1
  O  O62  1  0.41364300  0.44196200  0.64567800  1
  O  O63  1  0.70380300  0.36550600  0.90017500  1
  O  O64  1  0.02832000  0.58635700  0.31234500  1
  O  O65  1  0.41252600  0.97692400  0.33621000  1
  O  O66  1  0.69050400  0.92118600  0.31199800  1
  O  O67  1  0.08021600  0.30612300  0.33622400  1
  O  O68  1  0.90557500  0.64906900  0.98499200  1
  O  O69  1  0.83691200  0.34951700  0.33396800  1
  O  O70  1  0.31798200  0.49634000  0.31948800  1
  O  O71  1  0.17835800  0.68201800  0.98615500  1
