# generated using pymatgen
data_K9InSe7
_symmetry_space_group_name_H-M   'P 1'
_cell_length_a   8.29699800
_cell_length_b   11.42009300
_cell_length_c   25.32008844
_cell_angle_alpha   77.50345852
_cell_angle_beta   90.00000000
_cell_angle_gamma   90.00000000
_symmetry_Int_Tables_number   1
_chemical_formula_structural   K9InSe7
_chemical_formula_sum   'K36 In4 Se28'
_cell_volume   2342.30350524
_cell_formula_units_Z   4
loop_
 _symmetry_equiv_pos_site_id
 _symmetry_equiv_pos_as_xyz
  1  'x, y, z'
loop_
 _atom_site_type_symbol
 _atom_site_label
 _atom_site_symmetry_multiplicity
 _atom_site_fract_x
 _atom_site_fract_y
 _atom_site_fract_z
 _atom_site_occupancy
  K  K0  1  0.07586800  0.79086400  0.20141200  1
  K  K1  1  0.42413200  0.79086400  0.70141200  1
  K  K2  1  0.45827200  0.66450300  0.43535000  1
  K  K3  1  0.86033600  0.38313700  0.45180900  1
  K  K4  1  0.04172800  0.66450300  0.93535000  1
  K  K5  1  0.41429700  0.14338300  0.45731900  1
  K  K6  1  0.43012200  0.23477900  0.71609600  1
  K  K7  1  0.05710200  0.26424700  0.59072800  1
  K  K8  1  0.57586800  0.20913600  0.29858800  1
  K  K9  1  0.08570300  0.14338300  0.95731900  1
  K  K10  1  0.63966400  0.38313700  0.95180900  1
  K  K11  1  0.05931300  0.92580600  0.57847700  1
  K  K12  1  0.92428100  0.48596600  0.27231900  1
  K  K13  1  0.91429700  0.85661700  0.04268100  1
  K  K14  1  0.55931300  0.07419400  0.92152300  1
  K  K15  1  0.24105100  0.95668300  0.33425900  1
  K  K16  1  0.42428100  0.51403400  0.22768100  1
  K  K17  1  0.54172800  0.33549700  0.56465000  1
  K  K18  1  0.06987800  0.23477900  0.21609600  1
  K  K19  1  0.94289800  0.73575300  0.40927200  1
  K  K20  1  0.92413200  0.20913600  0.79858800  1
  K  K21  1  0.25894900  0.95668300  0.83425900  1
  K  K22  1  0.74105100  0.04331700  0.16574100  1
  K  K23  1  0.13966400  0.61686300  0.54819100  1
  K  K24  1  0.58570300  0.85661700  0.54268100  1
  K  K25  1  0.57571900  0.48596600  0.77231900  1
  K  K26  1  0.95827200  0.33549700  0.06465000  1
  K  K27  1  0.75894900  0.04331700  0.66574100  1
  K  K28  1  0.56987800  0.76522100  0.28390400  1
  K  K29  1  0.36033600  0.61686300  0.04819100  1
  K  K30  1  0.07571900  0.51403400  0.72768100  1
  K  K31  1  0.93012200  0.76522100  0.78390400  1
  K  K32  1  0.44068700  0.92580600  0.07847700  1
  K  K33  1  0.44289800  0.26424700  0.09072800  1
  K  K34  1  0.94068700  0.07419400  0.42152300  1
  K  K35  1  0.55710200  0.73575300  0.90927200  1
  In  In36  1  0.69582600  0.55545400  0.62767200  1
  In  In37  1  0.80417400  0.55545400  0.12767200  1
  In  In38  1  0.30417400  0.44454600  0.37232800  1
  In  In39  1  0.19582600  0.44454600  0.87232800  1
  Se  Se40  1  0.63009100  0.93672200  0.37387800  1
  Se  Se41  1  0.86990900  0.93672200  0.87387800  1
  Se  Se42  1  0.76609600  0.12320800  0.53135700  1
  Se  Se43  1  0.36990900  0.06327800  0.62612200  1
  Se  Se44  1  0.61621800  0.46568600  0.35159400  1
  Se  Se45  1  0.18957400  0.26496400  0.33471500  1
  Se  Se46  1  0.19370400  0.65529800  0.32132700  1
  Se  Se47  1  0.74492100  0.59065500  0.02344100  1
  Se  Se48  1  0.68957400  0.73503600  0.16528500  1
  Se  Se49  1  0.34018600  0.02647900  0.19681000  1
  Se  Se50  1  0.11621800  0.53431400  0.14840600  1
  Se  Se51  1  0.69370400  0.34470200  0.17867300  1
  Se  Se52  1  0.88378200  0.46568600  0.85159400  1
  Se  Se53  1  0.24492100  0.40934500  0.47655900  1
  Se  Se54  1  0.23390400  0.87679200  0.46864300  1
  Se  Se55  1  0.80629600  0.34470200  0.67867300  1
  Se  Se56  1  0.75507900  0.59065500  0.52344100  1
  Se  Se57  1  0.81042600  0.73503600  0.66528500  1
  Se  Se58  1  0.65981400  0.97352100  0.80319000  1
  Se  Se59  1  0.25507900  0.40934500  0.97655900  1
  Se  Se60  1  0.13009100  0.06327800  0.12612200  1
  Se  Se61  1  0.26609600  0.87679200  0.96864300  1
  Se  Se62  1  0.73390400  0.12320800  0.03135700  1
  Se  Se63  1  0.15981400  0.02647900  0.69681000  1
  Se  Se64  1  0.30629600  0.65529800  0.82132700  1
  Se  Se65  1  0.84018600  0.97352100  0.30319000  1
  Se  Se66  1  0.38378200  0.53431400  0.64840600  1
  Se  Se67  1  0.31042600  0.26496400  0.83471500  1
