# generated using pymatgen
data_Dy5CoSb2
_symmetry_space_group_name_H-M   'P 1'
_cell_length_a   7.91248100
_cell_length_b   8.74209700
_cell_length_c   12.23606700
_cell_angle_alpha   90.00000000
_cell_angle_beta   90.00000000
_cell_angle_gamma   90.00000000
_symmetry_Int_Tables_number   1
_chemical_formula_structural   Dy5CoSb2
_chemical_formula_sum   'Dy20 Co4 Sb8'
_cell_volume   846.38926709
_cell_formula_units_Z   4
loop_
 _symmetry_equiv_pos_site_id
 _symmetry_equiv_pos_as_xyz
  1  'x, y, z'
loop_
 _atom_site_type_symbol
 _atom_site_label
 _atom_site_symmetry_multiplicity
 _atom_site_fract_x
 _atom_site_fract_y
 _atom_site_fract_z
 _atom_site_occupancy
  Dy  Dy0  1  0.15616900  0.75000000  0.20259300  1
  Dy  Dy1  1  0.34383100  0.75000000  0.70259300  1
  Dy  Dy2  1  0.84383100  0.25000000  0.79740700  1
  Dy  Dy3  1  0.65616900  0.25000000  0.29740700  1
  Dy  Dy4  1  0.45194200  0.75000000  0.99837900  1
  Dy  Dy5  1  0.04805800  0.75000000  0.49837900  1
  Dy  Dy6  1  0.54805800  0.25000000  0.00162100  1
  Dy  Dy7  1  0.95194200  0.25000000  0.50162100  1
  Dy  Dy8  1  0.61935600  0.75000000  0.30718000  1
  Dy  Dy9  1  0.88064400  0.75000000  0.80718000  1
  Dy  Dy10  1  0.38064400  0.25000000  0.69282000  1
  Dy  Dy11  1  0.11935600  0.25000000  0.19282000  1
  Dy  Dy12  1  0.82108600  0.53649100  0.06519600  1
  Dy  Dy13  1  0.67891400  0.96350900  0.56519600  1
  Dy  Dy14  1  0.17891400  0.03649100  0.93480400  1
  Dy  Dy15  1  0.32108600  0.46350900  0.43480400  1
  Dy  Dy16  1  0.17891400  0.46350900  0.93480400  1
  Dy  Dy17  1  0.32108600  0.03649100  0.43480400  1
  Dy  Dy18  1  0.82108600  0.96350900  0.06519600  1
  Dy  Dy19  1  0.67891400  0.53649100  0.56519600  1
  Co  Co20  1  0.43249100  0.75000000  0.49089100  1
  Co  Co21  1  0.06750900  0.75000000  0.99089100  1
  Co  Co22  1  0.56750900  0.25000000  0.50910900  1
  Co  Co23  1  0.93249100  0.25000000  0.00910900  1
  Sb  Sb24  1  0.92878300  0.50961700  0.32669100  1
  Sb  Sb25  1  0.57121700  0.99038300  0.82669100  1
  Sb  Sb26  1  0.07121700  0.00961700  0.67330900  1
  Sb  Sb27  1  0.42878300  0.49038300  0.17330900  1
  Sb  Sb28  1  0.07121700  0.49038300  0.67330900  1
  Sb  Sb29  1  0.42878300  0.00961700  0.17330900  1
  Sb  Sb30  1  0.92878300  0.99038300  0.32669100  1
  Sb  Sb31  1  0.57121700  0.50961700  0.82669100  1
