# generated using pymatgen
data_NdVO3
_symmetry_space_group_name_H-M   'P 1'
_cell_length_a   5.49157200
_cell_length_b   5.74559400
_cell_length_c   7.84384400
_cell_angle_alpha   90.00000000
_cell_angle_beta   90.00000000
_cell_angle_gamma   90.00000000
_symmetry_Int_Tables_number   1
_chemical_formula_structural   NdVO3
_chemical_formula_sum   'Nd4 V4 O12'
_cell_volume   247.49165738
_cell_formula_units_Z   4
loop_
 _symmetry_equiv_pos_site_id
 _symmetry_equiv_pos_as_xyz
  1  'x, y, z'
loop_
 _atom_site_type_symbol
 _atom_site_label
 _atom_site_symmetry_multiplicity
 _atom_site_fract_x
 _atom_site_fract_y
 _atom_site_fract_z
 _atom_site_occupancy
  Nd  Nd0  1  0.98386600  0.05996100  0.25000000  1
  Nd  Nd1  1  0.48386600  0.44003900  0.75000000  1
  Nd  Nd2  1  0.51613400  0.55996100  0.25000000  1
  Nd  Nd3  1  0.01613400  0.94003900  0.75000000  1
  V  V4  1  0.50000000  0.00000000  0.00000000  1
  V  V5  1  0.00000000  0.50000000  0.00000000  1
  V  V6  1  0.00000000  0.50000000  0.50000000  1
  V  V7  1  0.50000000  0.00000000  0.50000000  1
  O  O8  1  0.09747900  0.47160800  0.25000000  1
  O  O9  1  0.59747900  0.02839200  0.75000000  1
  O  O10  1  0.40252100  0.97160800  0.25000000  1
  O  O11  1  0.90252100  0.52839200  0.75000000  1
  O  O12  1  0.70310200  0.29750200  0.05079300  1
  O  O13  1  0.20310200  0.20249800  0.94920700  1
  O  O14  1  0.79689800  0.79750200  0.44920700  1
  O  O15  1  0.29689800  0.70249800  0.55079300  1
  O  O16  1  0.29689800  0.70249800  0.94920700  1
  O  O17  1  0.79689800  0.79750200  0.05079300  1
  O  O18  1  0.20310200  0.20249800  0.55079300  1
  O  O19  1  0.70310200  0.29750200  0.44920700  1
