# generated using pymatgen
data_CsTaPS6
_symmetry_space_group_name_H-M   'P 1'
_cell_length_a   13.28803500
_cell_length_b   8.94039500
_cell_length_c   17.65152988
_cell_angle_alpha   80.71931900
_cell_angle_beta   90.00000000
_cell_angle_gamma   90.00000000
_symmetry_Int_Tables_number   1
_chemical_formula_structural   CsTaPS6
_chemical_formula_sum   'Cs8 Ta8 P8 S48'
_cell_volume   2069.55721809
_cell_formula_units_Z   8
loop_
 _symmetry_equiv_pos_site_id
 _symmetry_equiv_pos_as_xyz
  1  'x, y, z'
loop_
 _atom_site_type_symbol
 _atom_site_label
 _atom_site_symmetry_multiplicity
 _atom_site_fract_x
 _atom_site_fract_y
 _atom_site_fract_z
 _atom_site_occupancy
  Cs  Cs0  1  0.60905900  0.30958000  0.21906500  1
  Cs  Cs1  1  0.39094100  0.69042000  0.78093500  1
  Cs  Cs2  1  0.89094100  0.30958000  0.71906500  1
  Cs  Cs3  1  0.10905900  0.69042000  0.28093500  1
  Cs  Cs4  1  0.43821300  0.84149400  0.17650600  1
  Cs  Cs5  1  0.56178700  0.15850600  0.82349400  1
  Cs  Cs6  1  0.93821300  0.15850600  0.32349400  1
  Cs  Cs7  1  0.06178700  0.84149400  0.67650600  1
  Ta  Ta8  1  0.68505700  0.83904600  0.63666000  1
  Ta  Ta9  1  0.75857800  0.59180800  0.00758000  1
  Ta  Ta10  1  0.81494300  0.83904600  0.13666000  1
  Ta  Ta11  1  0.18505700  0.16095400  0.86334000  1
  Ta  Ta12  1  0.31494300  0.16095400  0.36334000  1
  Ta  Ta13  1  0.74142200  0.59180800  0.50758000  1
  Ta  Ta14  1  0.25857800  0.40819200  0.49242000  1
  Ta  Ta15  1  0.24142200  0.40819200  0.99242000  1
  P  P16  1  0.75538500  0.22077500  0.50657900  1
  P  P17  1  0.25538500  0.77922500  0.99342100  1
  P  P18  1  0.26302400  0.29683700  0.17971700  1
  P  P19  1  0.23697600  0.29683700  0.67971700  1
  P  P20  1  0.76302400  0.70316300  0.32028300  1
  P  P21  1  0.74461500  0.22077500  0.00657900  1
  P  P22  1  0.24461500  0.77922500  0.49342100  1
  P  P23  1  0.73697600  0.70316300  0.82028300  1
  S  S24  1  0.65885900  0.60533900  0.73934200  1
  S  S25  1  0.70674500  0.89067600  0.24874600  1
  S  S26  1  0.15885900  0.39466100  0.76065800  1
  S  S27  1  0.20022300  0.85921100  0.08380800  1
  S  S28  1  0.15422000  0.64923200  0.94082100  1
  S  S29  1  0.58172600  0.65952300  0.56913400  1
  S  S30  1  0.65422000  0.35076800  0.55917900  1
  S  S31  1  0.84364100  0.66491700  0.59857900  1
  S  S32  1  0.35658200  0.25063100  0.09430700  1
  S  S33  1  0.18552700  0.95344500  0.41260400  1
  S  S34  1  0.05337600  0.02246000  0.84215500  1
  S  S35  1  0.44662400  0.02246000  0.34215500  1
  S  S36  1  0.84114100  0.60533900  0.23934200  1
  S  S37  1  0.13490100  0.61453600  0.51946700  1
  S  S38  1  0.81447300  0.04655500  0.58739600  1
  S  S39  1  0.29325500  0.10932400  0.75125400  1
  S  S40  1  0.34114100  0.39466100  0.26065800  1
  S  S41  1  0.65635900  0.66491700  0.09857900  1
  S  S42  1  0.64194300  0.84525600  0.49659700  1
  S  S43  1  0.68552700  0.04655500  0.08739600  1
  S  S44  1  0.15635900  0.33508300  0.40142100  1
  S  S45  1  0.14341800  0.25063100  0.59430700  1
  S  S46  1  0.63490100  0.38546400  0.98053300  1
  S  S47  1  0.64341800  0.74936900  0.90569300  1
  S  S48  1  0.91827400  0.65952300  0.06913400  1
  S  S49  1  0.36509900  0.61453600  0.01946700  1
  S  S50  1  0.79325500  0.89067600  0.74874600  1
  S  S51  1  0.29977700  0.85921100  0.58380800  1
  S  S52  1  0.79977700  0.14078900  0.91619200  1
  S  S53  1  0.41827400  0.34047700  0.43086600  1
  S  S54  1  0.84686800  0.57141200  0.87641400  1
  S  S55  1  0.14194300  0.15474400  0.00340300  1
  S  S56  1  0.34578000  0.64923200  0.44082100  1
  S  S57  1  0.55337600  0.97754000  0.65784500  1
  S  S58  1  0.15313200  0.42858800  0.12358600  1
  S  S59  1  0.85805700  0.84525600  0.99659700  1
  S  S60  1  0.31447300  0.95344500  0.91260400  1
  S  S61  1  0.08172600  0.34047700  0.93086600  1
  S  S62  1  0.86509900  0.38546400  0.48053300  1
  S  S63  1  0.35805700  0.15474400  0.50340300  1
  S  S64  1  0.34364100  0.33508300  0.90142100  1
  S  S65  1  0.84578000  0.35076800  0.05917900  1
  S  S66  1  0.20674500  0.10932400  0.25125400  1
  S  S67  1  0.34686800  0.42858800  0.62358600  1
  S  S68  1  0.65313200  0.57141200  0.37641400  1
  S  S69  1  0.70022300  0.14078900  0.41619200  1
  S  S70  1  0.94662400  0.97754000  0.15784500  1
  S  S71  1  0.85658200  0.74936900  0.40569300  1
