# generated using pymatgen
data_Ba2FeO4
_symmetry_space_group_name_H-M   'P 1'
_cell_length_a   6.23489985
_cell_length_b   7.75042000
_cell_length_c   10.34116828
_cell_angle_alpha   90.00020874
_cell_angle_beta   94.28428222
_cell_angle_gamma   90.00000003
_symmetry_Int_Tables_number   1
_chemical_formula_structural   Ba2FeO4
_chemical_formula_sum   'Ba8 Fe4 O16'
_cell_volume   498.32085411
_cell_formula_units_Z   4
loop_
 _symmetry_equiv_pos_site_id
 _symmetry_equiv_pos_as_xyz
  1  'x, y, z'
loop_
 _atom_site_type_symbol
 _atom_site_label
 _atom_site_symmetry_multiplicity
 _atom_site_fract_x
 _atom_site_fract_y
 _atom_site_fract_z
 _atom_site_occupancy
  Ba  Ba0  1  0.75627100  0.84526900  0.07507900  1
  Ba  Ba1  1  0.74372900  0.34526800  0.42492200  1
  Ba  Ba2  1  0.24372700  0.15473700  0.92492200  1
  Ba  Ba3  1  0.25627200  0.65473700  0.57507800  1
  Ba  Ba4  1  0.22021100  0.50587400  0.19739700  1
  Ba  Ba5  1  0.27979000  0.00587300  0.30260500  1
  Ba  Ba6  1  0.77978700  0.49412200  0.80260600  1
  Ba  Ba7  1  0.72021300  0.99412300  0.69739200  1
  Fe  Fe8  1  0.25744000  0.72119500  0.91680900  1
  Fe  Fe9  1  0.24256300  0.22119500  0.58319000  1
  Fe  Fe10  1  0.74254300  0.27881200  0.08319300  1
  Fe  Fe11  1  0.75745500  0.77881700  0.41680700  1
  O  O12  1  0.70479100  0.00703700  0.40426100  1
  O  O13  1  0.79520900  0.50703700  0.09573900  1
  O  O14  1  0.29521200  0.99294300  0.59574200  1
  O  O15  1  0.20478700  0.49294200  0.90425800  1
  O  O16  1  0.49696600  0.24437500  0.16297500  1
  O  O17  1  0.00303400  0.74437500  0.33702600  1
  O  O18  1  0.50304800  0.75562500  0.83701800  1
  O  O19  1  0.99695200  0.25562400  0.66298000  1
  O  O20  1  0.00138800  0.18300400  0.13226000  1
  O  O21  1  0.49861200  0.68300400  0.36774200  1
  O  O22  1  0.99859500  0.81700100  0.86773500  1
  O  O23  1  0.50140600  0.31700100  0.63226400  1
  O  O24  1  0.68246100  0.16855600  0.92745900  1
  O  O25  1  0.81753900  0.66855500  0.57254000  1
  O  O26  1  0.31754200  0.83145000  0.07254800  1
  O  O27  1  0.18245700  0.33145100  0.42745300  1
