# generated using pymatgen
data_Ba2Bi3
_symmetry_space_group_name_H-M   'P 1'
_cell_length_a   6.93648192
_cell_length_b   6.93648192
_cell_length_c   6.93648192
_cell_angle_alpha   137.98766255
_cell_angle_beta   111.24643189
_cell_angle_gamma   83.95089802
_symmetry_Int_Tables_number   1
_chemical_formula_structural   Ba2Bi3
_chemical_formula_sum   'Ba2 Bi3'
_cell_volume   200.87950666
_cell_formula_units_Z   1
loop_
 _symmetry_equiv_pos_site_id
 _symmetry_equiv_pos_as_xyz
  1  'x, y, z'
loop_
 _atom_site_type_symbol
 _atom_site_label
 _atom_site_symmetry_multiplicity
 _atom_site_fract_x
 _atom_site_fract_y
 _atom_site_fract_z
 _atom_site_occupancy
  Ba  Ba0  1  0.71976800  0.21976800  0.50000000  1
  Ba  Ba1  1  0.28023200  0.78023200  0.50000000  1
  Bi  Bi2  1  0.29174400  0.50000000  0.79174400  1
  Bi  Bi3  1  0.00000000  0.00000000  0.00000000  1
  Bi  Bi4  1  0.70825600  0.50000000  0.20825600  1
