# generated using pymatgen
data_CrSbF10
_symmetry_space_group_name_H-M   'P 1'
_cell_length_a   10.56347400
_cell_length_b   5.81966500
_cell_length_c   12.46070044
_cell_angle_alpha   79.45408013
_cell_angle_beta   90.00000000
_cell_angle_gamma   90.00000000
_symmetry_Int_Tables_number   1
_chemical_formula_structural   CrSbF10
_chemical_formula_sum   'Cr4 Sb4 F40'
_cell_volume   753.09311514
_cell_formula_units_Z   4
loop_
 _symmetry_equiv_pos_site_id
 _symmetry_equiv_pos_as_xyz
  1  'x, y, z'
loop_
 _atom_site_type_symbol
 _atom_site_label
 _atom_site_symmetry_multiplicity
 _atom_site_fract_x
 _atom_site_fract_y
 _atom_site_fract_z
 _atom_site_occupancy
  Cr  Cr0  1  0.24546000  0.32354500  0.80124200  1
  Cr  Cr1  1  0.25454000  0.32354500  0.30124200  1
  Cr  Cr2  1  0.75454000  0.67645500  0.19875800  1
  Cr  Cr3  1  0.74546000  0.67645500  0.69875800  1
  Sb  Sb4  1  0.00000000  0.00000000  0.50000000  1
  Sb  Sb5  1  0.00000000  0.00000000  0.00000000  1
  Sb  Sb6  1  0.50000000  0.00000000  0.50000000  1
  Sb  Sb7  1  0.50000000  0.00000000  0.00000000  1
  F  F8  1  0.39092100  0.47219800  0.25460600  1
  F  F9  1  0.42265500  0.73395500  0.46105000  1
  F  F10  1  0.84765200  0.80458600  0.05353600  1
  F  F11  1  0.07318000  0.92773800  0.14101800  1
  F  F12  1  0.17048500  0.42113700  0.18294600  1
  F  F13  1  0.92265500  0.26604500  0.03895000  1
  F  F14  1  0.94656400  0.75321900  0.43045000  1
  F  F15  1  0.32951500  0.42113700  0.68294600  1
  F  F16  1  0.44656400  0.24678100  0.06955000  1
  F  F17  1  0.67048500  0.57886300  0.31705400  1
  F  F18  1  0.64688700  0.17068100  0.94818100  1
  F  F19  1  0.55343600  0.75321900  0.93045000  1
  F  F20  1  0.19924000  0.52119100  0.37703800  1
  F  F21  1  0.09296200  0.14265300  0.36351200  1
  F  F22  1  0.79399300  0.94680200  0.22666200  1
  F  F23  1  0.40703800  0.14265300  0.86351200  1
  F  F24  1  0.57734500  0.26604500  0.53895000  1
  F  F25  1  0.90703800  0.85734700  0.63648800  1
  F  F26  1  0.57318000  0.07226200  0.35898200  1
  F  F27  1  0.89092100  0.52780200  0.24539400  1
  F  F28  1  0.35311300  0.82931900  0.05181900  1
  F  F29  1  0.80076000  0.47880900  0.62296200  1
  F  F30  1  0.15234800  0.19541400  0.94646400  1
  F  F31  1  0.69924000  0.47880900  0.12296200  1
  F  F32  1  0.20600700  0.05319800  0.77333800  1
  F  F33  1  0.05343600  0.24678100  0.56955000  1
  F  F34  1  0.42682000  0.92773800  0.64101800  1
  F  F35  1  0.92682000  0.07226200  0.85898200  1
  F  F36  1  0.60907900  0.52780200  0.74539400  1
  F  F37  1  0.07734500  0.73395500  0.96105000  1
  F  F38  1  0.10907900  0.47219800  0.75460600  1
  F  F39  1  0.82951500  0.57886300  0.81705400  1
  F  F40  1  0.14688700  0.82931900  0.55181900  1
  F  F41  1  0.30076000  0.52119100  0.87703800  1
  F  F42  1  0.70600700  0.94680200  0.72666200  1
  F  F43  1  0.85311300  0.17068100  0.44818100  1
  F  F44  1  0.34765200  0.19541400  0.44646400  1
  F  F45  1  0.59296200  0.85734700  0.13648800  1
  F  F46  1  0.65234800  0.80458600  0.55353600  1
  F  F47  1  0.29399300  0.05319800  0.27333800  1
