# generated using pymatgen
data_Ba11Bi10
_symmetry_space_group_name_H-M   'P 1'
_cell_length_a   13.73820971
_cell_length_b   13.73820971
_cell_length_c   13.73820971
_cell_angle_alpha   121.25058051
_cell_angle_beta   121.25058051
_cell_angle_gamma   87.84724404
_symmetry_Int_Tables_number   1
_chemical_formula_structural   Ba11Bi10
_chemical_formula_sum   'Ba22 Bi20'
_cell_volume   1797.44153232
_cell_formula_units_Z   2
loop_
 _symmetry_equiv_pos_site_id
 _symmetry_equiv_pos_as_xyz
  1  'x, y, z'
loop_
 _atom_site_type_symbol
 _atom_site_label
 _atom_site_symmetry_multiplicity
 _atom_site_fract_x
 _atom_site_fract_y
 _atom_site_fract_z
 _atom_site_occupancy
  Ba  Ba0  1  0.19127300  0.44148300  0.25021000  1
  Ba  Ba1  1  0.44148300  0.19127300  0.25021000  1
  Ba  Ba2  1  0.94106300  0.19127300  0.74979000  1
  Ba  Ba3  1  0.80872700  0.05893700  0.25021000  1
  Ba  Ba4  1  0.80872700  0.55851700  0.74979000  1
  Ba  Ba5  1  0.05893700  0.80872700  0.25021000  1
  Ba  Ba6  1  0.55851700  0.80872700  0.74979000  1
  Ba  Ba7  1  0.19127300  0.94106300  0.74979000  1
  Ba  Ba8  1  0.34621600  0.34621600  0.00000000  1
  Ba  Ba9  1  0.65378400  0.65378400  0.00000000  1
  Ba  Ba10  1  0.27227400  0.60443900  0.66783500  1
  Ba  Ba11  1  0.60443900  0.93660400  0.33216500  1
  Ba  Ba12  1  0.60443900  0.27227400  0.66783500  1
  Ba  Ba13  1  0.72772600  0.39556100  0.33216500  1
  Ba  Ba14  1  0.06339600  0.39556100  0.66783500  1
  Ba  Ba15  1  0.39556100  0.06339600  0.66783500  1
  Ba  Ba16  1  0.39556100  0.72772600  0.33216500  1
  Ba  Ba17  1  0.93660400  0.60443900  0.33216500  1
  Ba  Ba18  1  0.16791200  0.16791200  0.33582500  1
  Ba  Ba19  1  0.16791200  0.83208800  0.00000000  1
  Ba  Ba20  1  0.83208800  0.16791200  0.00000000  1
  Ba  Ba21  1  0.83208800  0.83208800  0.66417500  1
  Bi  Bi22  1  0.25000000  0.75000000  0.50000000  1
  Bi  Bi23  1  0.75000000  0.25000000  0.50000000  1
  Bi  Bi24  1  0.11890700  0.11890700  0.00000000  1
  Bi  Bi25  1  0.88109300  0.88109300  0.00000000  1
  Bi  Bi26  1  0.53146000  0.53146000  0.42086100  1
  Bi  Bi27  1  0.53146000  0.11059900  0.00000000  1
  Bi  Bi28  1  0.11059900  0.53146000  0.00000000  1
  Bi  Bi29  1  0.46854000  0.88940100  0.00000000  1
  Bi  Bi30  1  0.88940100  0.46854000  0.00000000  1
  Bi  Bi31  1  0.88940100  0.88940100  0.42086100  1
  Bi  Bi32  1  0.46854000  0.46854000  0.57913900  1
  Bi  Bi33  1  0.11059900  0.11059900  0.57913900  1
  Bi  Bi34  1  0.00000000  0.35727200  0.35727200  1
  Bi  Bi35  1  0.35727200  0.00000000  0.35727200  1
  Bi  Bi36  1  0.64272800  0.00000000  0.64272800  1
  Bi  Bi37  1  0.00000000  0.64272800  0.64272800  1
  Bi  Bi38  1  0.62010300  0.62010300  0.24020500  1
  Bi  Bi39  1  0.62010300  0.37989700  0.00000000  1
  Bi  Bi40  1  0.37989700  0.62010300  0.00000000  1
  Bi  Bi41  1  0.37989700  0.37989700  0.75979500  1
