# generated using pymatgen
data_NiF3
_symmetry_space_group_name_H-M   'P 1'
_cell_length_a   5.24084826
_cell_length_b   5.24084826
_cell_length_c   5.24084760
_cell_angle_alpha   56.19484818
_cell_angle_beta   56.19484818
_cell_angle_gamma   56.19484940
_symmetry_Int_Tables_number   1
_chemical_formula_structural   NiF3
_chemical_formula_sum   'Ni2 F6'
_cell_volume   92.82145764
_cell_formula_units_Z   2
loop_
 _symmetry_equiv_pos_site_id
 _symmetry_equiv_pos_as_xyz
  1  'x, y, z'
loop_
 _atom_site_type_symbol
 _atom_site_label
 _atom_site_symmetry_multiplicity
 _atom_site_fract_x
 _atom_site_fract_y
 _atom_site_fract_z
 _atom_site_occupancy
  Ni  Ni0  1  0.00000000  0.00000000  0.00000000  1
  Ni  Ni1  1  0.50000000  0.50000000  0.50000000  1
  F  F2  1  0.25000000  0.61807100  0.88192900  1
  F  F3  1  0.61807100  0.88192900  0.25000000  1
  F  F4  1  0.88192900  0.25000000  0.61807100  1
  F  F5  1  0.75000000  0.38192900  0.11807100  1
  F  F6  1  0.38192900  0.11807100  0.75000000  1
  F  F7  1  0.11807100  0.75000000  0.38192900  1
