# generated using pymatgen
data_CsScP2(HO4)2
_symmetry_space_group_name_H-M   'P 1'
_cell_length_a   9.32447900
_cell_length_b   5.42667700
_cell_length_c   14.93989576
_cell_angle_alpha   85.59359677
_cell_angle_beta   90.00000000
_cell_angle_gamma   90.00000000
_symmetry_Int_Tables_number   1
_chemical_formula_structural   CsScP2(HO4)2
_chemical_formula_sum   'Cs4 Sc4 P8 H8 O32'
_cell_volume   753.73817993
_cell_formula_units_Z   4
loop_
 _symmetry_equiv_pos_site_id
 _symmetry_equiv_pos_as_xyz
  1  'x, y, z'
loop_
 _atom_site_type_symbol
 _atom_site_label
 _atom_site_symmetry_multiplicity
 _atom_site_fract_x
 _atom_site_fract_y
 _atom_site_fract_z
 _atom_site_occupancy
  Cs  Cs0  1  0.50371500  0.73146700  0.11159200  1
  Cs  Cs1  1  0.00371500  0.26853300  0.38840800  1
  Cs  Cs2  1  0.49628500  0.26853300  0.88840800  1
  Cs  Cs3  1  0.99628500  0.73146700  0.61159200  1
  Sc  Sc4  1  0.96400500  0.74833000  0.15059600  1
  Sc  Sc5  1  0.46400500  0.25167000  0.34940400  1
  Sc  Sc6  1  0.03599500  0.25167000  0.84940400  1
  Sc  Sc7  1  0.53599500  0.74833000  0.65059600  1
  P  P8  1  0.15143000  0.27825000  0.06116000  1
  P  P9  1  0.65143000  0.72175000  0.43884000  1
  P  P10  1  0.84857000  0.72175000  0.93884000  1
  P  P11  1  0.34857000  0.27825000  0.56116000  1
  P  P12  1  0.24547600  0.77320100  0.30690300  1
  P  P13  1  0.74547600  0.22679900  0.19309700  1
  P  P14  1  0.75452400  0.22679900  0.69309700  1
  P  P15  1  0.25452400  0.77320100  0.80690300  1
  H  H16  1  0.80219300  0.83392200  0.32968200  1
  H  H17  1  0.30219300  0.16607800  0.17031800  1
  H  H18  1  0.19780700  0.16607800  0.67031800  1
  H  H19  1  0.69780700  0.83392200  0.82968200  1
  H  H20  1  0.28962000  0.74603900  0.45205500  1
  H  H21  1  0.78962000  0.25396100  0.04794500  1
  H  H22  1  0.71038000  0.25396100  0.54794500  1
  H  H23  1  0.21038000  0.74603900  0.95205500  1
  O  O24  1  0.04502100  0.08855400  0.10282700  1
  O  O25  1  0.54502100  0.91144600  0.39717300  1
  O  O26  1  0.95497900  0.91144600  0.89717300  1
  O  O27  1  0.45497900  0.08855400  0.60282700  1
  O  O28  1  0.17429700  0.25671500  0.96048300  1
  O  O29  1  0.67429700  0.74328500  0.53951700  1
  O  O30  1  0.82570300  0.74328500  0.03951700  1
  O  O31  1  0.32570300  0.25671500  0.46048300  1
  O  O32  1  0.11396800  0.54529200  0.08107600  1
  O  O33  1  0.61396800  0.45470800  0.41892400  1
  O  O34  1  0.88603200  0.45470800  0.91892400  1
  O  O35  1  0.38603200  0.54529200  0.58107600  1
  O  O36  1  0.80774400  0.78303400  0.39571900  1
  O  O37  1  0.30774400  0.21696600  0.10428100  1
  O  O38  1  0.19225600  0.21696600  0.60428100  1
  O  O39  1  0.69225600  0.78303400  0.89571900  1
  O  O40  1  0.09883900  0.73841100  0.26383800  1
  O  O41  1  0.59883900  0.26158900  0.23616200  1
  O  O42  1  0.90116100  0.26158900  0.73616200  1
  O  O43  1  0.40116100  0.73841100  0.76383800  1
  O  O44  1  0.35125700  0.56490500  0.29150700  1
  O  O45  1  0.85125700  0.43509500  0.20849300  1
  O  O46  1  0.64874300  0.43509500  0.70849300  1
  O  O47  1  0.14874300  0.56490500  0.79150700  1
  O  O48  1  0.30830100  0.03179700  0.27913400  1
  O  O49  1  0.80830100  0.96820300  0.22086600  1
  O  O50  1  0.69169900  0.96820300  0.72086600  1
  O  O51  1  0.19169900  0.03179700  0.77913400  1
  O  O52  1  0.20487200  0.76275100  0.41287600  1
  O  O53  1  0.70487200  0.23724900  0.08712400  1
  O  O54  1  0.79512800  0.23724900  0.58712400  1
  O  O55  1  0.29512800  0.76275100  0.91287600  1
