# generated using pymatgen
data_Ba3Zn6Si4TeO20
_symmetry_space_group_name_H-M   'P 1'
_cell_length_a   9.97815520
_cell_length_b   9.97815520
_cell_length_c   5.20855879
_cell_angle_alpha   76.01574306
_cell_angle_beta   76.01574306
_cell_angle_gamma   71.62922122
_symmetry_Int_Tables_number   1
_chemical_formula_structural   Ba3Zn6Si4TeO20
_chemical_formula_sum   'Ba3 Zn6 Si4 Te1 O20'
_cell_volume   469.79305451
_cell_formula_units_Z   1
loop_
 _symmetry_equiv_pos_site_id
 _symmetry_equiv_pos_as_xyz
  1  'x, y, z'
loop_
 _atom_site_type_symbol
 _atom_site_label
 _atom_site_symmetry_multiplicity
 _atom_site_fract_x
 _atom_site_fract_y
 _atom_site_fract_z
 _atom_site_occupancy
  Ba  Ba0  1  0.78701800  0.78701800  0.74749600  1
  Ba  Ba1  1  0.21298200  0.21298200  0.25250400  1
  Ba  Ba2  1  0.50000000  0.50000000  0.00000000  1
  Zn  Zn3  1  0.15613300  0.84386700  0.50000000  1
  Zn  Zn4  1  0.84386700  0.15613300  0.50000000  1
  Zn  Zn5  1  0.36420100  0.92328000  0.82763200  1
  Zn  Zn6  1  0.07672000  0.63579900  0.17236800  1
  Zn  Zn7  1  0.63579900  0.07672000  0.17236800  1
  Zn  Zn8  1  0.92328000  0.36420100  0.82763200  1
  Si  Si9  1  0.51941400  0.78060200  0.34167500  1
  Si  Si10  1  0.21939800  0.48058600  0.65832500  1
  Si  Si11  1  0.48058600  0.21939800  0.65832500  1
  Si  Si12  1  0.78060200  0.51941400  0.34167500  1
  Te  Te13  1  0.00000000  0.00000000  0.00000000  1
  O  O14  1  0.61681900  0.88406200  0.34137400  1
  O  O15  1  0.11593800  0.38318100  0.65862600  1
  O  O16  1  0.38318100  0.11593800  0.65862600  1
  O  O17  1  0.88406200  0.61681900  0.34137400  1
  O  O18  1  0.36554500  0.81505000  0.55067400  1
  O  O19  1  0.18495000  0.63445500  0.44932600  1
  O  O20  1  0.63445500  0.18495000  0.44932600  1
  O  O21  1  0.81505000  0.36554500  0.55067400  1
  O  O22  1  0.50544500  0.77724800  0.03613000  1
  O  O23  1  0.22275200  0.49455500  0.96387000  1
  O  O24  1  0.49455500  0.22275200  0.96387000  1
  O  O25  1  0.77724800  0.50544500  0.03613000  1
  O  O26  1  0.92993000  0.92993000  0.36695500  1
  O  O27  1  0.07007000  0.07007000  0.63304500  1
  O  O28  1  0.18901100  0.95296800  0.10708100  1
  O  O29  1  0.04703200  0.81098900  0.89291900  1
  O  O30  1  0.81098900  0.04703200  0.89291900  1
  O  O31  1  0.95296800  0.18901100  0.10708100  1
  O  O32  1  0.61004500  0.61004500  0.46360700  1
  O  O33  1  0.38995500  0.38995500  0.53639300  1
