# generated using pymatgen
data_CaSi2(NO)2
_symmetry_space_group_name_H-M   'P 1'
_cell_length_a   13.77231200
_cell_length_b   7.38548900
_cell_length_c   10.57546256
_cell_angle_alpha   78.10525239
_cell_angle_beta   90.00000000
_cell_angle_gamma   90.00000000
_symmetry_Int_Tables_number   1
_chemical_formula_structural   CaSi2(NO)2
_chemical_formula_sum   'Ca12 Si24 N24 O24'
_cell_volume   1052.58865824
_cell_formula_units_Z   12
loop_
 _symmetry_equiv_pos_site_id
 _symmetry_equiv_pos_as_xyz
  1  'x, y, z'
loop_
 _atom_site_type_symbol
 _atom_site_label
 _atom_site_symmetry_multiplicity
 _atom_site_fract_x
 _atom_site_fract_y
 _atom_site_fract_z
 _atom_site_occupancy
  Ca  Ca0  1  0.86996400  0.74522400  0.64272400  1
  Ca  Ca1  1  0.36996400  0.25477600  0.35727600  1
  Ca  Ca2  1  0.93648100  0.91812700  0.94836300  1
  Ca  Ca3  1  0.42485200  0.41167000  0.70152700  1
  Ca  Ca4  1  0.87868600  0.41155700  0.95103900  1
  Ca  Ca5  1  0.43648100  0.08187300  0.05163700  1
  Ca  Ca6  1  0.86707100  0.08090400  0.30461700  1
  Ca  Ca7  1  0.92485200  0.58833000  0.29847300  1
  Ca  Ca8  1  0.93305700  0.25672800  0.61541000  1
  Ca  Ca9  1  0.37868600  0.58844300  0.04896100  1
  Ca  Ca10  1  0.43305700  0.74327200  0.38459000  1
  Ca  Ca11  1  0.36707100  0.91909600  0.69538300  1
  Si  Si12  1  0.09704700  0.62351900  0.08011900  1
  Si  Si13  1  0.10004000  0.61810100  0.58302600  1
  Si  Si14  1  0.70609400  0.04845000  0.56055300  1
  Si  Si15  1  0.59489800  0.71090100  0.69948000  1
  Si  Si16  1  0.59769900  0.04768400  0.30796200  1
  Si  Si17  1  0.20403200  0.62020300  0.32969000  1
  Si  Si18  1  0.71069400  0.04656600  0.05558600  1
  Si  Si19  1  0.70403200  0.37979700  0.67031000  1
  Si  Si20  1  0.10393700  0.28754400  0.80306500  1
  Si  Si21  1  0.59287200  0.04736500  0.80826500  1
  Si  Si22  1  0.70457900  0.71251800  0.94438300  1
  Si  Si23  1  0.09769900  0.95231600  0.69203800  1
  Si  Si24  1  0.20609400  0.95155000  0.43944700  1
  Si  Si25  1  0.20457900  0.28748200  0.05561700  1
  Si  Si26  1  0.60393700  0.71245600  0.19693500  1
  Si  Si27  1  0.09287200  0.95263500  0.19173500  1
  Si  Si28  1  0.20805400  0.62198000  0.83341200  1
  Si  Si29  1  0.20457100  0.28859300  0.54805100  1
  Si  Si30  1  0.59704700  0.37648100  0.91988100  1
  Si  Si31  1  0.09489800  0.28909900  0.30052000  1
  Si  Si32  1  0.60004000  0.38189900  0.41697400  1
  Si  Si33  1  0.70457100  0.71140700  0.45194900  1
  Si  Si34  1  0.70805400  0.37802000  0.16658800  1
  Si  Si35  1  0.21069400  0.95343400  0.94441400  1
  N  N36  1  0.67673600  0.14559600  0.69017000  1
  N  N37  1  0.69273200  0.80794800  0.08313900  1
  N  N38  1  0.68236500  0.13977500  0.18994300  1
  N  N39  1  0.12664100  0.52102700  0.74489000  1
  N  N40  1  0.62664100  0.47897300  0.25511000  1
  N  N41  1  0.18236500  0.86022500  0.81005700  1
  N  N42  1  0.12201200  0.86088900  0.05740000  1
  N  N43  1  0.68345200  0.47754800  0.50763400  1
  N  N44  1  0.61661700  0.80744700  0.33750100  1
  N  N45  1  0.62201200  0.13911100  0.94260000  1
  N  N46  1  0.17673600  0.85440400  0.30983000  1
  N  N47  1  0.19273200  0.19205200  0.91686100  1
  N  N48  1  0.18701000  0.19221800  0.40986000  1
  N  N49  1  0.68701000  0.80778200  0.59014000  1
  N  N50  1  0.18345200  0.52245200  0.49236600  1
  N  N51  1  0.68468600  0.47489700  0.00331600  1
  N  N52  1  0.11661700  0.19255300  0.66249900  1
  N  N53  1  0.61109100  0.80821500  0.83608500  1
  N  N54  1  0.18468600  0.52510300  0.99668400  1
  N  N55  1  0.11521300  0.52606000  0.24384800  1
  N  N56  1  0.62654800  0.14626400  0.43740900  1
  N  N57  1  0.12654800  0.85373600  0.56259100  1
  N  N58  1  0.11109100  0.19178500  0.16391500  1
  N  N59  1  0.61521300  0.47394000  0.75615200  1
  O  O60  1  0.48793000  0.42661900  0.45020300  1
  O  O61  1  0.48336200  0.08054200  0.27008200  1
  O  O62  1  0.98811800  0.26541800  0.36829600  1
  O  O63  1  0.49287100  0.75678200  0.14789200  1
  O  O64  1  0.81231600  0.73684700  0.87880100  1
  O  O65  1  0.48811800  0.73458200  0.63170400  1
  O  O66  1  0.48442500  0.39776900  0.95822000  1
  O  O67  1  0.47985700  0.10210900  0.77424700  1
  O  O68  1  0.99287100  0.24321800  0.85210800  1
  O  O69  1  0.32221200  0.89607100  0.98195000  1
  O  O70  1  0.98442500  0.60223100  0.04178000  1
  O  O71  1  0.82221200  0.10392900  0.01805000  1
  O  O72  1  0.98793000  0.57338100  0.54979700  1
  O  O73  1  0.82241700  0.39752500  0.19825500  1
  O  O74  1  0.31231600  0.26315300  0.12119900  1
  O  O75  1  0.98336200  0.91945800  0.72991800  1
  O  O76  1  0.81486700  0.75869100  0.40152500  1
  O  O77  1  0.81450600  0.42458200  0.71064500  1
  O  O78  1  0.31486700  0.24130900  0.59847500  1
  O  O79  1  0.32241700  0.60247500  0.80174500  1
  O  O80  1  0.97985700  0.89789100  0.22575300  1
  O  O81  1  0.31450600  0.57541800  0.28935500  1
  O  O82  1  0.32158700  0.92126100  0.47377900  1
  O  O83  1  0.82158700  0.07873900  0.52622100  1
