# generated using pymatgen
data_BaAu
_symmetry_space_group_name_H-M   'P 1'
_cell_length_a   5.03557900
_cell_length_b   6.52075500
_cell_length_c   8.47825900
_cell_angle_alpha   90.00000000
_cell_angle_beta   90.00000000
_cell_angle_gamma   90.00000000
_symmetry_Int_Tables_number   1
_chemical_formula_structural   BaAu
_chemical_formula_sum   'Ba4 Au4'
_cell_volume   278.39022138
_cell_formula_units_Z   4
loop_
 _symmetry_equiv_pos_site_id
 _symmetry_equiv_pos_as_xyz
  1  'x, y, z'
loop_
 _atom_site_type_symbol
 _atom_site_label
 _atom_site_symmetry_multiplicity
 _atom_site_fract_x
 _atom_site_fract_y
 _atom_site_fract_z
 _atom_site_occupancy
  Ba  Ba0  1  0.25000000  0.86237800  0.68339900  1
  Ba  Ba1  1  0.25000000  0.63762200  0.18339900  1
  Ba  Ba2  1  0.75000000  0.13762200  0.31660100  1
  Ba  Ba3  1  0.75000000  0.36237800  0.81660100  1
  Au  Au4  1  0.25000000  0.36570400  0.53765500  1
  Au  Au5  1  0.75000000  0.86570400  0.96234500  1
  Au  Au6  1  0.25000000  0.13429600  0.03765500  1
  Au  Au7  1  0.75000000  0.63429600  0.46234500  1
