# generated using pymatgen
data_K2YHf(PO4)3
_symmetry_space_group_name_H-M   'P 1'
_cell_length_a   10.47077800
_cell_length_b   10.47652601
_cell_length_c   20.97800181
_cell_angle_alpha   90.07002584
_cell_angle_beta   90.00656861
_cell_angle_gamma   90.00194148
_symmetry_Int_Tables_number   1
_chemical_formula_structural   K2YHf(PO4)3
_chemical_formula_sum   'K16 Y8 Hf8 P24 O96'
_cell_volume   2301.23005902
_cell_formula_units_Z   8
loop_
 _symmetry_equiv_pos_site_id
 _symmetry_equiv_pos_as_xyz
  1  'x, y, z'
loop_
 _atom_site_type_symbol
 _atom_site_label
 _atom_site_symmetry_multiplicity
 _atom_site_fract_x
 _atom_site_fract_y
 _atom_site_fract_z
 _atom_site_occupancy
  K  K0  1  0.07966100  0.56499900  0.71275300  1
  K  K1  1  0.07206000  0.57395600  0.21452300  1
  K  K2  1  0.19453400  0.19725800  0.85179100  1
  K  K3  1  0.19922100  0.20199000  0.35095000  1
  K  K4  1  0.28967800  0.80703500  0.09841800  1
  K  K5  1  0.31075000  0.79947700  0.59689000  1
  K  K6  1  0.42788600  0.41978500  0.96528700  1
  K  K7  1  0.42952100  0.43066200  0.47252800  1
  K  K8  1  0.56737300  0.93854900  0.78403600  1
  K  K9  1  0.56667000  0.91848400  0.28428700  1
  K  K10  1  0.69195300  0.30012700  0.65270200  1
  K  K11  1  0.70572900  0.30057000  0.14650900  1
  K  K12  1  0.79553300  0.69462300  0.39932000  1
  K  K13  1  0.80490000  0.70524800  0.90630300  1
  K  K14  1  0.93074400  0.07045100  0.53985000  1
  K  K15  1  0.93955700  0.06674700  0.03473700  1
  Y  Y16  1  0.08009300  0.41298100  0.54286000  1
  Y  Y17  1  0.08483900  0.41897800  0.04183100  1
  Y  Y18  1  0.14673700  0.84849000  0.92344400  1
  Y  Y19  1  0.35002800  0.14989600  0.67498100  1
  Y  Y20  1  0.41730200  0.58063700  0.29235800  1
  Y  Y21  1  0.58166300  0.08185600  0.95816700  1
  Y  Y22  1  0.65000900  0.65171700  0.57409100  1
  Y  Y23  1  0.91416400  0.91760500  0.21011800  1
  Hf  Hf24  1  0.14581700  0.85941900  0.42695800  1
  Hf  Hf25  1  0.35683000  0.14445800  0.17972100  1
  Hf  Hf26  1  0.41390600  0.58667700  0.79320500  1
  Hf  Hf27  1  0.58833100  0.08416100  0.45871500  1
  Hf  Hf28  1  0.64576300  0.64194000  0.07187200  1
  Hf  Hf29  1  0.85687900  0.35413100  0.32275300  1
  Hf  Hf30  1  0.85202400  0.35776900  0.82190300  1
  Hf  Hf31  1  0.91690400  0.91129700  0.70602200  1
  P  P32  1  0.02859200  0.22845100  0.69040300  1
  P  P33  1  0.04421700  0.23895500  0.19111200  1
  P  P34  1  0.12536600  0.52950300  0.87734500  1
  P  P35  1  0.11803500  0.54539200  0.38387800  1
  P  P36  1  0.23120000  0.87147800  0.76467500  1
  P  P37  1  0.23672400  0.87704400  0.26957500  1
  P  P38  1  0.27344900  0.12408700  0.51410200  1
  P  P39  1  0.26278900  0.12068500  0.02402600  1
  P  P40  1  0.38214100  0.45673400  0.13190500  1
  P  P41  1  0.37393600  0.46981100  0.63554600  1
  P  P42  1  0.46161100  0.75668700  0.93891300  1
  P  P43  1  0.46250500  0.77463600  0.43642700  1
  P  P44  1  0.53410900  0.27701000  0.81434800  1
  P  P45  1  0.54409800  0.25767500  0.31417400  1
  P  P46  1  0.63144600  0.97148300  0.61670600  1
  P  P47  1  0.61783300  0.95475500  0.11769500  1
  P  P48  1  0.72991300  0.62653000  0.73495700  1
  P  P49  1  0.74038100  0.61625100  0.22867500  1
  P  P50  1  0.76850900  0.37488200  0.98079700  1
  P  P51  1  0.76192000  0.37138000  0.47784800  1
  P  P52  1  0.87323100  0.03931800  0.37112900  1
  P  P53  1  0.87181700  0.03972000  0.86085000  1
  P  P54  1  0.96735600  0.74202000  0.56079100  1
  P  P55  1  0.95692800  0.73726400  0.06282800  1
  O  O56  1  0.99279400  0.08467200  0.68360500  1
  O  O57  1  0.98923400  0.10685400  0.17540900  1
  O  O58  1  0.02566100  0.43787600  0.84560700  1
  O  O59  1  0.00304300  0.47014200  0.35468600  1
  O  O60  1  0.01127200  0.29146600  0.62486700  1
  O  O61  1  0.02421100  0.33211500  0.13576100  1
  O  O62  1  0.06139600  0.80704800  0.51273600  1
  O  O63  1  0.02297800  0.78798300  0.00261500  1
  O  O64  1  0.07305000  0.66673200  0.87593800  1
  O  O65  1  0.07757100  0.68939100  0.38775900  1
  O  O66  1  0.09072100  0.84447400  0.74286800  1
  O  O67  1  0.10334700  0.84590300  0.24414500  1
  O  O68  1  0.15600900  0.48360600  0.94497900  1
  O  O69  1  0.14954900  0.49478800  0.45046300  1
  O  O70  1  0.16599700  0.23833300  0.71614600  1
  O  O71  1  0.18858600  0.23197400  0.21007200  1
  O  O72  1  0.20616100  0.00331000  0.98999500  1
  O  O73  1  0.20793500  0.02726400  0.46805800  1
  O  O74  1  0.20460700  0.25253000  0.50648400  1
  O  O75  1  0.17430100  0.23468900  0.01069800  1
  O  O76  1  0.23325100  0.92802800  0.83246600  1
  O  O77  1  0.22862100  0.91582400  0.34140600  1
  O  O78  1  0.23813600  0.48253500  0.60776800  1
  O  O79  1  0.27101800  0.47271500  0.08516900  1
  O  O80  1  0.24756800  0.51850900  0.83529400  1
  O  O81  1  0.23178500  0.52838000  0.33845700  1
  O  O82  1  0.26854400  0.07182500  0.58247300  1
  O  O83  1  0.26429100  0.09095800  0.09723400  1
  O  O84  1  0.30591000  0.74230800  0.76388700  1
  O  O85  1  0.32796000  0.76469800  0.25907100  1
  O  O86  1  0.29884000  0.96014400  0.71722700  1
  O  O87  1  0.29445200  0.99339600  0.23338000  1
  O  O88  1  0.32478600  0.75524800  0.96554800  1
  O  O89  1  0.31754700  0.77810100  0.45409500  1
  O  O90  1  0.36781100  0.50937100  0.70733900  1
  O  O91  1  0.34835800  0.51106100  0.19757400  1
  O  O92  1  0.39858400  0.14917000  0.00056200  1
  O  O93  1  0.41488900  0.14264000  0.49291200  1
  O  O94  1  0.42326500  0.33148200  0.63001900  1
  O  O95  1  0.42271900  0.31350000  0.13798000  1
  O  O96  1  0.45546200  0.20989900  0.76258300  1
  O  O97  1  0.46720200  0.19667500  0.25835200  1
  O  O98  1  0.46752400  0.67282100  0.87758400  1
  O  O99  1  0.48516200  0.70192500  0.37398600  1
  O  O100  1  0.49706900  0.53006900  0.10210700  1
  O  O101  1  0.46336700  0.56110000  0.59958900  1
  O  O102  1  0.50766800  0.89168800  0.92251800  1
  O  O103  1  0.51193900  0.91377200  0.42836100  1
  O  O104  1  0.49217000  0.41833700  0.82309500  1
  O  O105  1  0.48679400  0.38791100  0.33180100  1
  O  O106  1  0.54295800  0.06552300  0.65131100  1
  O  O107  1  0.50261700  0.03070400  0.14612000  1
  O  O108  1  0.51249600  0.20648300  0.87742100  1
  O  O109  1  0.53416800  0.16414600  0.37129600  1
  O  O110  1  0.55351300  0.69304200  0.98804300  1
  O  O111  1  0.53569000  0.70802600  0.48986200  1
  O  O112  1  0.57817700  0.83489000  0.61861700  1
  O  O113  1  0.57516100  0.81170800  0.11149300  1
  O  O114  1  0.59315500  0.65572900  0.76021100  1
  O  O115  1  0.60699000  0.64559800  0.25469000  1
  O  O116  1  0.65543900  0.00895800  0.05239900  1
  O  O117  1  0.65177700  0.01569800  0.54621800  1
  O  O118  1  0.67797700  0.27888500  0.79425400  1
  O  O119  1  0.68625700  0.26755900  0.29285000  1
  O  O120  1  0.70246100  0.48042100  0.51670200  1
  O  O121  1  0.71291800  0.48868300  0.01975500  1
  O  O122  1  0.67725400  0.26205200  0.98945600  1
  O  O123  1  0.67014300  0.25498000  0.48396300  1
  O  O124  1  0.72638300  0.56950000  0.66747600  1
  O  O125  1  0.73351800  0.58118600  0.15647400  1
  O  O126  1  0.74416600  0.01813300  0.89514900  1
  O  O127  1  0.75989900  0.02738900  0.41827700  1
  O  O128  1  0.76377400  0.97663000  0.65118200  1
  O  O129  1  0.72734800  0.96851900  0.16581000  1
  O  O130  1  0.77745400  0.41752000  0.90938700  1
  O  O131  1  0.76663400  0.41170900  0.40612200  1
  O  O132  1  0.80898300  0.75259500  0.73545700  1
  O  O133  1  0.83218900  0.72812900  0.23985900  1
  O  O134  1  0.79813400  0.53202500  0.78116500  1
  O  O135  1  0.79763500  0.49867500  0.26440400  1
  O  O136  1  0.83030700  0.74864900  0.53435800  1
  O  O137  1  0.81097500  0.73206600  0.04690200  1
  O  O138  1  0.83634100  0.98408900  0.30615600  1
  O  O139  1  0.85791200  0.98883600  0.79129800  1
  O  O140  1  0.90117500  0.33952300  0.00592400  1
  O  O141  1  0.89513200  0.33498700  0.50215300  1
  O  O142  1  0.91554300  0.18143300  0.36627400  1
  O  O143  1  0.90702300  0.18455400  0.85917400  1
  O  O144  1  0.93346900  0.29668800  0.73687200  1
  O  O145  1  0.97318800  0.29426300  0.25047600  1
  O  O146  1  0.97890700  0.82129400  0.62360900  1
  O  O147  1  0.98059900  0.83159000  0.11781200  1
  O  O148  1  0.97901400  0.96921700  0.89591400  1
  O  O149  1  0.98394200  0.96046100  0.40109100  1
  O  O150  1  0.00690800  0.60413000  0.57496500  1
  O  O151  1  0.00802100  0.60416000  0.08028300  1
