# generated using pymatgen
data_K3Na3Nb8(PO7)5
_symmetry_space_group_name_H-M   'P 1'
_cell_length_a   11.54572202
_cell_length_b   11.54572202
_cell_length_c   11.54572212
_cell_angle_alpha   46.64656500
_cell_angle_beta   46.64656500
_cell_angle_gamma   46.64656398
_symmetry_Int_Tables_number   1
_chemical_formula_structural   K3Na3Nb8(PO7)5
_chemical_formula_sum   'K3 Na3 Nb8 P5 O35'
_cell_volume   743.28191483
_cell_formula_units_Z   1
loop_
 _symmetry_equiv_pos_site_id
 _symmetry_equiv_pos_as_xyz
  1  'x, y, z'
loop_
 _atom_site_type_symbol
 _atom_site_label
 _atom_site_symmetry_multiplicity
 _atom_site_fract_x
 _atom_site_fract_y
 _atom_site_fract_z
 _atom_site_occupancy
  K  K0  1  0.00000000  0.41161800  0.58838200  1
  K  K1  1  0.41161800  0.58838200  0.00000000  1
  K  K2  1  0.58838200  0.00000000  0.41161800  1
  Na  Na3  1  0.71458400  0.28541600  0.50000000  1
  Na  Na4  1  0.28541600  0.50000000  0.71458400  1
  Na  Na5  1  0.50000000  0.71458400  0.28541600  1
  Nb  Nb6  1  0.82229100  0.29827800  0.06974800  1
  Nb  Nb7  1  0.76588600  0.76588600  0.76588600  1
  Nb  Nb8  1  0.23411400  0.23411400  0.23411400  1
  Nb  Nb9  1  0.29827800  0.06974800  0.82229100  1
  Nb  Nb10  1  0.70172200  0.17770900  0.93025200  1
  Nb  Nb11  1  0.17770900  0.93025200  0.70172200  1
  Nb  Nb12  1  0.93025200  0.70172200  0.17770900  1
  Nb  Nb13  1  0.06974800  0.82229100  0.29827800  1
  P  P14  1  0.50000000  0.05704100  0.94295900  1
  P  P15  1  0.05704100  0.94295900  0.50000000  1
  P  P16  1  0.40745700  0.40745700  0.40745700  1
  P  P17  1  0.94295900  0.50000000  0.05704100  1
  P  P18  1  0.59254300  0.59254300  0.59254300  1
  O  O19  1  0.26422300  0.56545300  0.33441900  1
  O  O20  1  0.76174700  0.23825300  0.00000000  1
  O  O21  1  0.56545300  0.33441900  0.26422300  1
  O  O22  1  0.10082500  0.75141500  0.94332900  1
  O  O23  1  0.45645500  0.45645500  0.45645500  1
  O  O24  1  0.33441900  0.26422300  0.56545300  1
  O  O25  1  0.61216000  0.86803000  0.95529500  1
  O  O26  1  0.94332900  0.10082500  0.75141500  1
  O  O27  1  0.23825300  0.00000000  0.76174700  1
  O  O28  1  0.13197000  0.38784000  0.04470500  1
  O  O29  1  0.54354500  0.54354500  0.54354500  1
  O  O30  1  0.95529500  0.61216000  0.86803000  1
  O  O31  1  0.61458700  0.15362600  0.83725900  1
  O  O32  1  0.75141500  0.94332900  0.10082500  1
  O  O33  1  0.05667100  0.24858500  0.89917500  1
  O  O34  1  0.43454700  0.73577700  0.66558100  1
  O  O35  1  0.38541300  0.16274100  0.84637400  1
  O  O36  1  0.91679500  0.72878900  0.55660700  1
  O  O37  1  0.24858500  0.89917500  0.05667100  1
  O  O38  1  0.16274100  0.84637400  0.38541300  1
  O  O39  1  0.08320500  0.44339300  0.27121100  1
  O  O40  1  0.44339300  0.27121100  0.08320500  1
  O  O41  1  0.15362600  0.83725900  0.61458700  1
  O  O42  1  0.00000000  0.76174700  0.23825300  1
  O  O43  1  0.89917500  0.05667100  0.24858500  1
  O  O44  1  0.86803000  0.95529500  0.61216000  1
  O  O45  1  0.73577700  0.66558100  0.43454700  1
  O  O46  1  0.72878900  0.55660700  0.91679500  1
  O  O47  1  0.66558100  0.43454700  0.73577700  1
  O  O48  1  0.04470500  0.13197000  0.38784000  1
  O  O49  1  0.27121100  0.08320500  0.44339300  1
  O  O50  1  0.83725900  0.61458700  0.15362600  1
  O  O51  1  0.38784000  0.04470500  0.13197000  1
  O  O52  1  0.84637400  0.38541300  0.16274100  1
  O  O53  1  0.55660700  0.91679500  0.72878900  1
