# generated using pymatgen
data_BaPuO3
_symmetry_space_group_name_H-M   'P 1'
_cell_length_a   6.20219600
_cell_length_b   6.23904300
_cell_length_c   8.76187300
_cell_angle_alpha   90.00000000
_cell_angle_beta   90.00000000
_cell_angle_gamma   90.00000000
_symmetry_Int_Tables_number   1
_chemical_formula_structural   BaPuO3
_chemical_formula_sum   'Ba4 Pu4 O12'
_cell_volume   339.04740081
_cell_formula_units_Z   4
loop_
 _symmetry_equiv_pos_site_id
 _symmetry_equiv_pos_as_xyz
  1  'x, y, z'
loop_
 _atom_site_type_symbol
 _atom_site_label
 _atom_site_symmetry_multiplicity
 _atom_site_fract_x
 _atom_site_fract_y
 _atom_site_fract_z
 _atom_site_occupancy
  Ba  Ba0  1  0.98505100  0.00460400  0.25000000  1
  Ba  Ba1  1  0.48505100  0.49539600  0.25000000  1
  Ba  Ba2  1  0.51494900  0.50460400  0.75000000  1
  Ba  Ba3  1  0.01494900  0.99539600  0.75000000  1
  Pu  Pu4  1  0.50000000  0.00000000  0.00000000  1
  Pu  Pu5  1  0.00000000  0.50000000  0.50000000  1
  Pu  Pu6  1  0.00000000  0.50000000  0.00000000  1
  Pu  Pu7  1  0.50000000  0.00000000  0.50000000  1
  O  O8  1  0.51072800  0.93160800  0.25000000  1
  O  O9  1  0.01072800  0.56839200  0.25000000  1
  O  O10  1  0.98927200  0.43160800  0.75000000  1
  O  O11  1  0.48927200  0.06839200  0.75000000  1
  O  O12  1  0.72837900  0.27129800  0.03641900  1
  O  O13  1  0.22837900  0.22870200  0.46358100  1
  O  O14  1  0.77162100  0.77129800  0.96358100  1
  O  O15  1  0.27162100  0.72870200  0.53641900  1
  O  O16  1  0.27162100  0.72870200  0.96358100  1
  O  O17  1  0.77162100  0.77129800  0.53641900  1
  O  O18  1  0.22837900  0.22870200  0.03641900  1
  O  O19  1  0.72837900  0.27129800  0.46358100  1
