# generated using pymatgen
data_SbP(Cl3O)2
_symmetry_space_group_name_H-M   'P 1'
_cell_length_a   12.05493000
_cell_length_b   8.91593600
_cell_length_c   11.37702813
_cell_angle_alpha   71.21254857
_cell_angle_beta   90.00000000
_cell_angle_gamma   90.00000000
_symmetry_Int_Tables_number   1
_chemical_formula_structural   SbP(Cl3O)2
_chemical_formula_sum   'Sb4 P4 Cl24 O8'
_cell_volume   1157.66242029
_cell_formula_units_Z   4
loop_
 _symmetry_equiv_pos_site_id
 _symmetry_equiv_pos_as_xyz
  1  'x, y, z'
loop_
 _atom_site_type_symbol
 _atom_site_label
 _atom_site_symmetry_multiplicity
 _atom_site_fract_x
 _atom_site_fract_y
 _atom_site_fract_z
 _atom_site_occupancy
  Sb  Sb0  1  0.53859800  0.19074300  0.27048000  1
  Sb  Sb1  1  0.96140200  0.19074300  0.77048000  1
  Sb  Sb2  1  0.03859800  0.80925700  0.22952000  1
  Sb  Sb3  1  0.46140200  0.80925700  0.72952000  1
  P  P4  1  0.59414100  0.80992800  0.45845800  1
  P  P5  1  0.09414100  0.19007200  0.04154200  1
  P  P6  1  0.40585900  0.19007200  0.54154200  1
  P  P7  1  0.90585900  0.80992800  0.95845800  1
  Cl  Cl8  1  0.70612900  0.31170100  0.29483900  1
  Cl  Cl9  1  0.62590100  0.95818100  0.71489100  1
  Cl  Cl10  1  0.73727500  0.71773200  0.53506300  1
  Cl  Cl11  1  0.29387100  0.68829900  0.70516100  1
  Cl  Cl12  1  0.59755700  0.13976700  0.08952700  1
  Cl  Cl13  1  0.55025200  0.56523400  0.83017200  1
  Cl  Cl14  1  0.94974800  0.56523400  0.33017200  1
  Cl  Cl15  1  0.05025200  0.43476600  0.66982800  1
  Cl  Cl16  1  0.23727500  0.28226800  0.96493700  1
  Cl  Cl17  1  0.26272500  0.28226800  0.46493700  1
  Cl  Cl18  1  0.87409900  0.95818100  0.21489100  1
  Cl  Cl19  1  0.44778000  0.31518000  0.65159600  1
  Cl  Cl20  1  0.37409900  0.04181900  0.28510900  1
  Cl  Cl21  1  0.05222000  0.31518000  0.15159600  1
  Cl  Cl22  1  0.12590100  0.04181900  0.78510900  1
  Cl  Cl23  1  0.90244300  0.13976700  0.58952700  1
  Cl  Cl24  1  0.76272500  0.71773200  0.03506300  1
  Cl  Cl25  1  0.94778000  0.68482000  0.84840400  1
  Cl  Cl26  1  0.55222000  0.68482000  0.34840400  1
  Cl  Cl27  1  0.40244300  0.86023300  0.91047300  1
  Cl  Cl28  1  0.79387100  0.31170100  0.79483900  1
  Cl  Cl29  1  0.20612900  0.68829900  0.20516100  1
  Cl  Cl30  1  0.44974800  0.43476600  0.16982800  1
  Cl  Cl31  1  0.09755700  0.86023300  0.41047300  1
  O  O32  1  0.49759100  0.21744600  0.44486300  1
  O  O33  1  0.61898000  0.98132700  0.38173600  1
  O  O34  1  0.99759100  0.78255400  0.05513700  1
  O  O35  1  0.50240900  0.78255400  0.55513700  1
  O  O36  1  0.88102000  0.98132700  0.88173600  1
  O  O37  1  0.11898000  0.01867300  0.11826400  1
  O  O38  1  0.00240900  0.21744600  0.94486300  1
  O  O39  1  0.38102000  0.01867300  0.61826400  1
