# generated using pymatgen
data_NaW6NCl18
_symmetry_space_group_name_H-M   'P 1'
_cell_length_a   9.20240121
_cell_length_b   9.20240121
_cell_length_c   18.31123300
_cell_angle_alpha   90.00000000
_cell_angle_beta   90.00000000
_cell_angle_gamma   119.99999435
_symmetry_Int_Tables_number   1
_chemical_formula_structural   NaW6NCl18
_chemical_formula_sum   'Na2 W12 N2 Cl36'
_cell_volume   1342.92133457
_cell_formula_units_Z   2
loop_
 _symmetry_equiv_pos_site_id
 _symmetry_equiv_pos_as_xyz
  1  'x, y, z'
loop_
 _atom_site_type_symbol
 _atom_site_label
 _atom_site_symmetry_multiplicity
 _atom_site_fract_x
 _atom_site_fract_y
 _atom_site_fract_z
 _atom_site_occupancy
  Na  Na0  1  0.00000000  0.00000000  0.50000000  1
  Na  Na1  1  0.00000000  0.00000000  0.00000000  1
  W  W2  1  0.18244900  0.48722400  0.83465300  1
  W  W3  1  0.69522500  0.18244900  0.33465300  1
  W  W4  1  0.30477500  0.81755100  0.66534700  1
  W  W5  1  0.51277600  0.69522500  0.83465300  1
  W  W6  1  0.81755100  0.51277600  0.33465300  1
  W  W7  1  0.48722400  0.30477500  0.16534700  1
  W  W8  1  0.51277600  0.69522500  0.66534700  1
  W  W9  1  0.81755100  0.51277600  0.16534700  1
  W  W10  1  0.48722400  0.30477500  0.33465300  1
  W  W11  1  0.18244900  0.48722400  0.66534700  1
  W  W12  1  0.30477500  0.81755100  0.83465300  1
  W  W13  1  0.69522500  0.18244900  0.16534700  1
  N  N14  1  0.33333300  0.66666700  0.75000000  1
  N  N15  1  0.66666700  0.33333300  0.25000000  1
  Cl  Cl16  1  0.76315700  0.73421900  0.60273500  1
  Cl  Cl17  1  0.51983100  0.95096300  0.25000000  1
  Cl  Cl18  1  0.95096300  0.43113200  0.75000000  1
  Cl  Cl19  1  0.02893800  0.76315700  0.39726500  1
  Cl  Cl20  1  0.97106200  0.23684300  0.89726500  1
  Cl  Cl21  1  0.76315700  0.73421900  0.89726500  1
  Cl  Cl22  1  0.43113200  0.48016900  0.25000000  1
  Cl  Cl23  1  0.36774000  0.48216800  0.92580800  1
  Cl  Cl24  1  0.48216800  0.11442800  0.42580800  1
  Cl  Cl25  1  0.88557200  0.36774000  0.42580800  1
  Cl  Cl26  1  0.56886800  0.51983100  0.75000000  1
  Cl  Cl27  1  0.19496400  0.28600800  0.75000000  1
  Cl  Cl28  1  0.26578100  0.02893800  0.89726500  1
  Cl  Cl29  1  0.02893800  0.76315700  0.10273500  1
  Cl  Cl30  1  0.23684300  0.26578100  0.10273500  1
  Cl  Cl31  1  0.63226000  0.51783200  0.42580800  1
  Cl  Cl32  1  0.11442800  0.63226000  0.92580800  1
  Cl  Cl33  1  0.73421900  0.97106200  0.10273500  1
  Cl  Cl34  1  0.73421900  0.97106200  0.39726500  1
  Cl  Cl35  1  0.80503600  0.71399200  0.25000000  1
  Cl  Cl36  1  0.97106200  0.23684300  0.60273500  1
  Cl  Cl37  1  0.51783200  0.88557200  0.57419200  1
  Cl  Cl38  1  0.23684300  0.26578100  0.39726500  1
  Cl  Cl39  1  0.48016900  0.04903700  0.75000000  1
  Cl  Cl40  1  0.26578100  0.02893800  0.60273500  1
  Cl  Cl41  1  0.11442800  0.63226000  0.57419200  1
  Cl  Cl42  1  0.48216800  0.11442800  0.07419200  1
  Cl  Cl43  1  0.90895600  0.19496400  0.25000000  1
  Cl  Cl44  1  0.63226000  0.51783200  0.07419200  1
  Cl  Cl45  1  0.36774000  0.48216800  0.57419200  1
  Cl  Cl46  1  0.09104400  0.80503600  0.75000000  1
  Cl  Cl47  1  0.04903700  0.56886800  0.25000000  1
  Cl  Cl48  1  0.28600800  0.09104400  0.25000000  1
  Cl  Cl49  1  0.88557200  0.36774000  0.07419200  1
  Cl  Cl50  1  0.51783200  0.88557200  0.92580800  1
  Cl  Cl51  1  0.71399200  0.90895600  0.75000000  1
