# generated using pymatgen
data_Ba3GaP3
_symmetry_space_group_name_H-M   'P 1'
_cell_length_a   10.38603269
_cell_length_b   10.38603269
_cell_length_c   13.14156500
_cell_angle_alpha   90.00000000
_cell_angle_beta   90.00000000
_cell_angle_gamma   141.97618855
_symmetry_Int_Tables_number   1
_chemical_formula_structural   Ba3GaP3
_chemical_formula_sum   'Ba12 Ga4 P12'
_cell_volume   873.21130903
_cell_formula_units_Z   4
loop_
 _symmetry_equiv_pos_site_id
 _symmetry_equiv_pos_as_xyz
  1  'x, y, z'
loop_
 _atom_site_type_symbol
 _atom_site_label
 _atom_site_symmetry_multiplicity
 _atom_site_fract_x
 _atom_site_fract_y
 _atom_site_fract_z
 _atom_site_occupancy
  Ba  Ba0  1  0.82762600  0.82762600  0.34916800  1
  Ba  Ba1  1  0.32762600  0.32762600  0.15083200  1
  Ba  Ba2  1  0.67237400  0.67237400  0.84916800  1
  Ba  Ba3  1  0.17237400  0.17237400  0.65083200  1
  Ba  Ba4  1  0.48570300  0.13463600  0.87036300  1
  Ba  Ba5  1  0.63463600  0.98570300  0.62963700  1
  Ba  Ba6  1  0.01429700  0.36536400  0.37036300  1
  Ba  Ba7  1  0.86536400  0.51429700  0.12963700  1
  Ba  Ba8  1  0.51429700  0.86536400  0.12963700  1
  Ba  Ba9  1  0.36536400  0.01429700  0.37036300  1
  Ba  Ba10  1  0.98570300  0.63463600  0.62963700  1
  Ba  Ba11  1  0.13463600  0.48570300  0.87036300  1
  Ga  Ga12  1  0.08361500  0.91638500  0.00000000  1
  Ga  Ga13  1  0.41638500  0.58361500  0.50000000  1
  Ga  Ga14  1  0.91638500  0.08361500  0.00000000  1
  Ga  Ga15  1  0.58361500  0.41638500  0.50000000  1
  P  P16  1  0.30118600  0.30118600  0.40490200  1
  P  P17  1  0.80118600  0.80118600  0.09509800  1
  P  P18  1  0.19881400  0.19881400  0.90490200  1
  P  P19  1  0.69881400  0.69881400  0.59509800  1
  P  P20  1  0.84726600  0.53392100  0.38317200  1
  P  P21  1  0.03392100  0.34726600  0.11682800  1
  P  P22  1  0.65273400  0.96607900  0.88317200  1
  P  P23  1  0.46607900  0.15273400  0.61682800  1
  P  P24  1  0.15273400  0.46607900  0.61682800  1
  P  P25  1  0.96607900  0.65273400  0.88317200  1
  P  P26  1  0.34726600  0.03392100  0.11682800  1
  P  P27  1  0.53392100  0.84726600  0.38317200  1
