# generated using pymatgen
data_Np2S3
_symmetry_space_group_name_H-M   'P 1'
_cell_length_a   3.87566800
_cell_length_b   10.34505300
_cell_length_c   10.52615100
_cell_angle_alpha   90.00000000
_cell_angle_beta   90.00000000
_cell_angle_gamma   90.00000000
_symmetry_Int_Tables_number   1
_chemical_formula_structural   Np2S3
_chemical_formula_sum   'Np8 S12'
_cell_volume   422.03540209
_cell_formula_units_Z   4
loop_
 _symmetry_equiv_pos_site_id
 _symmetry_equiv_pos_as_xyz
  1  'x, y, z'
loop_
 _atom_site_type_symbol
 _atom_site_label
 _atom_site_symmetry_multiplicity
 _atom_site_fract_x
 _atom_site_fract_y
 _atom_site_fract_z
 _atom_site_occupancy
  Np  Np0  1  0.25000000  0.31660900  0.99249000  1
  Np  Np1  1  0.75000000  0.68339100  0.00751000  1
  Np  Np2  1  0.75000000  0.81660900  0.50751000  1
  Np  Np3  1  0.25000000  0.18339100  0.49249000  1
  Np  Np4  1  0.25000000  0.50790600  0.31341000  1
  Np  Np5  1  0.75000000  0.49209400  0.68659000  1
  Np  Np6  1  0.75000000  0.00790600  0.18659000  1
  Np  Np7  1  0.25000000  0.99209400  0.81341000  1
  S  S8  1  0.25000000  0.86907500  0.05102700  1
  S  S9  1  0.75000000  0.13092500  0.94897300  1
  S  S10  1  0.75000000  0.36907500  0.44897300  1
  S  S11  1  0.25000000  0.63092500  0.55102700  1
  S  S12  1  0.25000000  0.55502100  0.87517000  1
  S  S13  1  0.75000000  0.44497900  0.12483000  1
  S  S14  1  0.75000000  0.05502100  0.62483000  1
  S  S15  1  0.25000000  0.94497900  0.37517000  1
  S  S16  1  0.25000000  0.20296400  0.22845700  1
  S  S17  1  0.75000000  0.79703600  0.77154300  1
  S  S18  1  0.75000000  0.70296400  0.27154300  1
  S  S19  1  0.25000000  0.29703600  0.72845700  1
