# generated using pymatgen
data_CeSiOs
_symmetry_space_group_name_H-M   'P 1'
_cell_length_a   4.20820700
_cell_length_b   4.20820700
_cell_length_c   6.80749000
_cell_angle_alpha   90.00000000
_cell_angle_beta   90.00000000
_cell_angle_gamma   90.00000000
_symmetry_Int_Tables_number   1
_chemical_formula_structural   CeSiOs
_chemical_formula_sum   'Ce2 Si2 Os2'
_cell_volume   120.55388231
_cell_formula_units_Z   2
loop_
 _symmetry_equiv_pos_site_id
 _symmetry_equiv_pos_as_xyz
  1  'x, y, z'
loop_
 _atom_site_type_symbol
 _atom_site_label
 _atom_site_symmetry_multiplicity
 _atom_site_fract_x
 _atom_site_fract_y
 _atom_site_fract_z
 _atom_site_occupancy
  Ce  Ce0  1  0.50000000  0.00000000  0.68058900  1
  Ce  Ce1  1  0.00000000  0.50000000  0.31941100  1
  Si  Si2  1  0.50000000  0.00000000  0.18872400  1
  Si  Si3  1  0.00000000  0.50000000  0.81127600  1
  Os  Os4  1  0.00000000  0.00000000  0.00000000  1
  Os  Os5  1  0.50000000  0.50000000  0.00000000  1
