# generated using pymatgen
data_NdNiC2
_symmetry_space_group_name_H-M   'P 1'
_cell_length_a   3.80619694
_cell_length_b   3.80619694
_cell_length_c   3.84029300
_cell_angle_alpha   90.00000000
_cell_angle_beta   90.00000000
_cell_angle_gamma   106.62549444
_symmetry_Int_Tables_number   1
_chemical_formula_structural   NdNiC2
_chemical_formula_sum   'Nd1 Ni1 C2'
_cell_volume   53.30904900
_cell_formula_units_Z   1
loop_
 _symmetry_equiv_pos_site_id
 _symmetry_equiv_pos_as_xyz
  1  'x, y, z'
loop_
 _atom_site_type_symbol
 _atom_site_label
 _atom_site_symmetry_multiplicity
 _atom_site_fract_x
 _atom_site_fract_y
 _atom_site_fract_z
 _atom_site_occupancy
  Nd  Nd0  1  0.99646200  0.00353800  0.00000000  1
  Ni  Ni1  1  0.38350900  0.61649100  0.50000000  1
  C  C2  1  0.54488800  0.15485900  0.50000000  1
  C  C3  1  0.84514100  0.45511200  0.50000000  1
