# generated using pymatgen
data_Sr2Li3TaN4
_symmetry_space_group_name_H-M   'P 1'
_cell_length_a   7.04132900
_cell_length_b   8.74304700
_cell_length_c   9.03594400
_cell_angle_alpha   90.00000000
_cell_angle_beta   90.00000000
_cell_angle_gamma   90.00000000
_symmetry_Int_Tables_number   1
_chemical_formula_structural   Sr2Li3TaN4
_chemical_formula_sum   'Sr8 Li12 Ta4 N16'
_cell_volume   556.27684213
_cell_formula_units_Z   4
loop_
 _symmetry_equiv_pos_site_id
 _symmetry_equiv_pos_as_xyz
  1  'x, y, z'
loop_
 _atom_site_type_symbol
 _atom_site_label
 _atom_site_symmetry_multiplicity
 _atom_site_fract_x
 _atom_site_fract_y
 _atom_site_fract_z
 _atom_site_occupancy
  Sr  Sr0  1  0.00000000  0.24229100  0.75411300  1
  Sr  Sr1  1  0.00000000  0.75770900  0.24588700  1
  Sr  Sr2  1  0.50000000  0.74229100  0.74588700  1
  Sr  Sr3  1  0.50000000  0.25770900  0.25411300  1
  Sr  Sr4  1  0.26019900  0.00000000  0.00000000  1
  Sr  Sr5  1  0.23980100  0.50000000  0.50000000  1
  Sr  Sr6  1  0.73980100  0.00000000  0.00000000  1
  Sr  Sr7  1  0.76019900  0.50000000  0.50000000  1
  Li  Li8  1  0.23755900  0.01896700  0.36520000  1
  Li  Li9  1  0.23755900  0.98103300  0.63480000  1
  Li  Li10  1  0.26244100  0.51896700  0.13480000  1
  Li  Li11  1  0.26244100  0.48103300  0.86520000  1
  Li  Li12  1  0.76244100  0.98103300  0.63480000  1
  Li  Li13  1  0.76244100  0.01896700  0.36520000  1
  Li  Li14  1  0.73755900  0.48103300  0.86520000  1
  Li  Li15  1  0.73755900  0.51896700  0.13480000  1
  Li  Li16  1  0.00000000  0.20588000  0.42254100  1
  Li  Li17  1  0.00000000  0.79412000  0.57745900  1
  Li  Li18  1  0.50000000  0.70588000  0.07745900  1
  Li  Li19  1  0.50000000  0.29412000  0.92254100  1
  Ta  Ta20  1  0.00000000  0.28568300  0.13749300  1
  Ta  Ta21  1  0.00000000  0.71431700  0.86250700  1
  Ta  Ta22  1  0.50000000  0.78568300  0.36250700  1
  Ta  Ta23  1  0.50000000  0.21431700  0.63749300  1
  N  N24  1  0.23401900  0.30207700  0.01915200  1
  N  N25  1  0.23401900  0.69792300  0.98084800  1
  N  N26  1  0.26598100  0.80207700  0.48084800  1
  N  N27  1  0.26598100  0.19792300  0.51915200  1
  N  N28  1  0.76598100  0.69792300  0.98084800  1
  N  N29  1  0.76598100  0.30207700  0.01915200  1
  N  N30  1  0.73401900  0.19792300  0.51915200  1
  N  N31  1  0.73401900  0.80207700  0.48084800  1
  N  N32  1  0.00000000  0.07409500  0.22085800  1
  N  N33  1  0.00000000  0.92590500  0.77914200  1
  N  N34  1  0.50000000  0.57409500  0.27914200  1
  N  N35  1  0.50000000  0.42590500  0.72085800  1
  N  N36  1  0.00000000  0.45259900  0.28380300  1
  N  N37  1  0.00000000  0.54740100  0.71619700  1
  N  N38  1  0.50000000  0.95259900  0.21619700  1
  N  N39  1  0.50000000  0.04740100  0.78380300  1
