# generated using pymatgen
data_CrCuO2
_symmetry_space_group_name_H-M   'P 1'
_cell_length_a   3.05812444
_cell_length_b   3.05812444
_cell_length_c   11.56003070
_cell_angle_alpha   97.60086600
_cell_angle_beta   97.60086600
_cell_angle_gamma   60.00003380
_symmetry_Int_Tables_number   1
_chemical_formula_structural   CrCuO2
_chemical_formula_sum   'Cr2 Cu2 O4'
_cell_volume   92.52828756
_cell_formula_units_Z   2
loop_
 _symmetry_equiv_pos_site_id
 _symmetry_equiv_pos_as_xyz
  1  'x, y, z'
loop_
 _atom_site_type_symbol
 _atom_site_label
 _atom_site_symmetry_multiplicity
 _atom_site_fract_x
 _atom_site_fract_y
 _atom_site_fract_z
 _atom_site_occupancy
  Cr  Cr0  1  0.25000000  0.25000000  0.75000000  1
  Cr  Cr1  1  0.75000000  0.75000000  0.25000000  1
  Cu  Cu2  1  0.50000000  0.50000000  0.50000000  1
  Cu  Cu3  1  0.00000000  0.00000000  0.00000000  1
  O  O4  1  0.44595600  0.44595600  0.33786700  1
  O  O5  1  0.94595600  0.94595600  0.83786700  1
  O  O6  1  0.05404400  0.05404400  0.16213300  1
  O  O7  1  0.55404400  0.55404400  0.66213300  1
