# generated using pymatgen
data_Sr5As3ClO12
_symmetry_space_group_name_H-M   'P 1'
_cell_length_a   10.45512178
_cell_length_b   10.45512178
_cell_length_c   7.30065500
_cell_angle_alpha   90.00000000
_cell_angle_beta   90.00000000
_cell_angle_gamma   119.99999862
_symmetry_Int_Tables_number   1
_chemical_formula_structural   Sr5As3ClO12
_chemical_formula_sum   'Sr10 As6 Cl2 O24'
_cell_volume   691.11553526
_cell_formula_units_Z   2
loop_
 _symmetry_equiv_pos_site_id
 _symmetry_equiv_pos_as_xyz
  1  'x, y, z'
loop_
 _atom_site_type_symbol
 _atom_site_label
 _atom_site_symmetry_multiplicity
 _atom_site_fract_x
 _atom_site_fract_y
 _atom_site_fract_z
 _atom_site_occupancy
  Sr  Sr0  1  0.33333300  0.66666700  0.00241600  1
  Sr  Sr1  1  0.24690800  0.25657700  0.75000000  1
  Sr  Sr2  1  0.33333300  0.66666700  0.49758400  1
  Sr  Sr3  1  0.74342300  0.99033000  0.75000000  1
  Sr  Sr4  1  0.00967000  0.75309200  0.75000000  1
  Sr  Sr5  1  0.66666700  0.33333300  0.99758400  1
  Sr  Sr6  1  0.66666700  0.33333300  0.50241600  1
  Sr  Sr7  1  0.99033000  0.24690800  0.25000000  1
  Sr  Sr8  1  0.75309200  0.74342300  0.25000000  1
  Sr  Sr9  1  0.25657700  0.00967000  0.25000000  1
  As  As10  1  0.03089000  0.40801600  0.75000000  1
  As  As11  1  0.96911000  0.59198400  0.25000000  1
  As  As12  1  0.59198400  0.62287300  0.75000000  1
  As  As13  1  0.62287300  0.03089000  0.25000000  1
  As  As14  1  0.40801600  0.37712700  0.25000000  1
  As  As15  1  0.37712700  0.96911000  0.75000000  1
  Cl  Cl16  1  0.00000000  0.00000000  0.00000000  1
  Cl  Cl17  1  0.00000000  0.00000000  0.50000000  1
  O  O18  1  0.15642100  0.66122600  0.25000000  1
  O  O19  1  0.47000000  0.87054900  0.75000000  1
  O  O20  1  0.09132400  0.35330800  0.93786800  1
  O  O21  1  0.59945100  0.47000000  0.25000000  1
  O  O22  1  0.50480500  0.84357900  0.25000000  1
  O  O23  1  0.73801600  0.09132400  0.06213200  1
  O  O24  1  0.12945100  0.59945100  0.75000000  1
  O  O25  1  0.35330800  0.26198400  0.06213200  1
  O  O26  1  0.84357900  0.33877400  0.75000000  1
  O  O27  1  0.40054900  0.53000000  0.75000000  1
  O  O28  1  0.26198400  0.90867600  0.93786800  1
  O  O29  1  0.73801600  0.09132400  0.43786800  1
  O  O30  1  0.90867600  0.64669200  0.43786800  1
  O  O31  1  0.26198400  0.90867600  0.56213200  1
  O  O32  1  0.35330800  0.26198400  0.43786800  1
  O  O33  1  0.53000000  0.12945100  0.25000000  1
  O  O34  1  0.64669200  0.73801600  0.56213200  1
  O  O35  1  0.33877400  0.49519500  0.25000000  1
  O  O36  1  0.64669200  0.73801600  0.93786800  1
  O  O37  1  0.49519500  0.15642100  0.75000000  1
  O  O38  1  0.09132400  0.35330800  0.56213200  1
  O  O39  1  0.66122600  0.50480500  0.75000000  1
  O  O40  1  0.90867600  0.64669200  0.06213200  1
  O  O41  1  0.87054900  0.40054900  0.25000000  1
