# generated using pymatgen
data_K2CdPb
_symmetry_space_group_name_H-M   'P 1'
_cell_length_a   7.08519618
_cell_length_b   7.08519618
_cell_length_c   6.65877400
_cell_angle_alpha   90.00000000
_cell_angle_beta   90.00000000
_cell_angle_gamma   103.96515239
_symmetry_Int_Tables_number   1
_chemical_formula_structural   K2CdPb
_chemical_formula_sum   'K4 Cd2 Pb2'
_cell_volume   324.39034921
_cell_formula_units_Z   2
loop_
 _symmetry_equiv_pos_site_id
 _symmetry_equiv_pos_as_xyz
  1  'x, y, z'
loop_
 _atom_site_type_symbol
 _atom_site_label
 _atom_site_symmetry_multiplicity
 _atom_site_fract_x
 _atom_site_fract_y
 _atom_site_fract_z
 _atom_site_occupancy
  K  K0  1  0.97890400  0.32121900  0.75000000  1
  K  K1  1  0.67878100  0.02109600  0.25000000  1
  K  K2  1  0.32277900  0.96186500  0.75000000  1
  K  K3  1  0.03813500  0.67722100  0.25000000  1
  Cd  Cd4  1  0.50808700  0.49191300  0.00000000  1
  Cd  Cd5  1  0.50808700  0.49191300  0.50000000  1
  Pb  Pb6  1  0.77688200  0.77065300  0.75000000  1
  Pb  Pb7  1  0.22934700  0.22311800  0.25000000  1
