# generated using pymatgen
data_RbGd2CuSe4
_symmetry_space_group_name_H-M   'P 1'
_cell_length_a   7.52378643
_cell_length_b   7.52378643
_cell_length_c   14.51504000
_cell_angle_alpha   90.00000000
_cell_angle_beta   90.00000000
_cell_angle_gamma   147.72993019
_symmetry_Int_Tables_number   1
_chemical_formula_structural   RbGd2CuSe4
_chemical_formula_sum   'Rb2 Gd4 Cu2 Se8'
_cell_volume   438.69208968
_cell_formula_units_Z   2
loop_
 _symmetry_equiv_pos_site_id
 _symmetry_equiv_pos_as_xyz
  1  'x, y, z'
loop_
 _atom_site_type_symbol
 _atom_site_label
 _atom_site_symmetry_multiplicity
 _atom_site_fract_x
 _atom_site_fract_y
 _atom_site_fract_z
 _atom_site_occupancy
  Rb  Rb0  1  0.89051100  0.10948900  0.75000000  1
  Rb  Rb1  1  0.10948900  0.89051100  0.25000000  1
  Gd  Gd2  1  0.36588200  0.63411800  0.06280000  1
  Gd  Gd3  1  0.63411800  0.36588200  0.56280000  1
  Gd  Gd4  1  0.63411800  0.36588200  0.93720000  1
  Gd  Gd5  1  0.36588200  0.63411800  0.43720000  1
  Cu  Cu6  1  0.16290400  0.83709600  0.75000000  1
  Cu  Cu7  1  0.83709600  0.16290400  0.25000000  1
  Se  Se8  1  0.42837900  0.57162100  0.25000000  1
  Se  Se9  1  0.73824300  0.26175700  0.11049300  1
  Se  Se10  1  0.26175700  0.73824300  0.61049300  1
  Se  Se11  1  0.00000000  0.00000000  0.00000000  1
  Se  Se12  1  0.26175700  0.73824300  0.88950700  1
  Se  Se13  1  0.73824300  0.26175700  0.38950700  1
  Se  Se14  1  0.00000000  0.00000000  0.50000000  1
  Se  Se15  1  0.57162100  0.42837900  0.75000000  1
