# generated using pymatgen
data_CsPd2F5
_symmetry_space_group_name_H-M   'P 1'
_cell_length_a   7.56533164
_cell_length_b   7.56533164
_cell_length_c   7.56533164
_cell_angle_alpha   127.45212638
_cell_angle_beta   116.66938834
_cell_angle_gamma   86.73581529
_symmetry_Int_Tables_number   1
_chemical_formula_structural   CsPd2F5
_chemical_formula_sum   'Cs2 Pd4 F10'
_cell_volume   292.58417365
_cell_formula_units_Z   2
loop_
 _symmetry_equiv_pos_site_id
 _symmetry_equiv_pos_as_xyz
  1  'x, y, z'
loop_
 _atom_site_type_symbol
 _atom_site_label
 _atom_site_symmetry_multiplicity
 _atom_site_fract_x
 _atom_site_fract_y
 _atom_site_fract_z
 _atom_site_occupancy
  Cs  Cs0  1  0.36160500  0.61160500  0.75000000  1
  Cs  Cs1  1  0.63839500  0.38839500  0.25000000  1
  Pd  Pd2  1  0.00000000  0.00000000  0.50000000  1
  Pd  Pd3  1  0.00000000  0.50000000  0.00000000  1
  Pd  Pd4  1  0.00000000  0.00000000  0.00000000  1
  Pd  Pd5  1  0.50000000  0.00000000  0.50000000  1
  F  F6  1  0.95104900  0.63063700  0.82316900  1
  F  F7  1  0.04895100  0.87212000  0.67958700  1
  F  F8  1  0.69253200  0.36936300  0.82041300  1
  F  F9  1  0.30746800  0.12788000  0.67683100  1
  F  F10  1  0.04895100  0.36936300  0.17683100  1
  F  F11  1  0.95104900  0.12788000  0.32041300  1
  F  F12  1  0.33716900  0.08716900  0.25000000  1
  F  F13  1  0.66283100  0.91283100  0.75000000  1
  F  F14  1  0.69253200  0.87212000  0.32316900  1
  F  F15  1  0.30746800  0.63063700  0.17958700  1
