# generated using pymatgen
data_LiEu2Si3
_symmetry_space_group_name_H-M   'P 1'
_cell_length_a   4.48662932
_cell_length_b   7.83001919
_cell_length_c   7.98182841
_cell_angle_alpha   104.24029033
_cell_angle_beta   106.34773952
_cell_angle_gamma   89.97712024
_symmetry_Int_Tables_number   1
_chemical_formula_structural   LiEu2Si3
_chemical_formula_sum   'Li2 Eu4 Si6'
_cell_volume   260.08525136
_cell_formula_units_Z   2
loop_
 _symmetry_equiv_pos_site_id
 _symmetry_equiv_pos_as_xyz
  1  'x, y, z'
loop_
 _atom_site_type_symbol
 _atom_site_label
 _atom_site_symmetry_multiplicity
 _atom_site_fract_x
 _atom_site_fract_y
 _atom_site_fract_z
 _atom_site_occupancy
  Li  Li0  1  0.21335200  0.26524700  0.42672300  1
  Li  Li1  1  0.78664800  0.73475300  0.57327700  1
  Eu  Eu2  1  0.62209900  0.93502000  0.24428400  1
  Eu  Eu3  1  0.38667100  0.56919800  0.77339600  1
  Eu  Eu4  1  0.37790100  0.06498000  0.75571600  1
  Eu  Eu5  1  0.61332900  0.43080200  0.22660400  1
  Si  Si6  1  0.79562300  0.28473200  0.59160900  1
  Si  Si7  1  0.95496300  0.85349900  0.91112200  1
  Si  Si8  1  0.04503700  0.14650100  0.08887800  1
  Si  Si9  1  0.95395000  0.35064100  0.90800200  1
  Si  Si10  1  0.20437700  0.71526800  0.40839100  1
  Si  Si11  1  0.04605000  0.64935900  0.09199800  1
