# generated using pymatgen
data_ZnB3Ir4
_symmetry_space_group_name_H-M   'P 1'
_cell_length_a   2.81461800
_cell_length_b   2.84518400
_cell_length_c   23.50385400
_cell_angle_alpha   90.00000000
_cell_angle_beta   90.00000000
_cell_angle_gamma   90.00000000
_symmetry_Int_Tables_number   1
_chemical_formula_structural   ZnB3Ir4
_chemical_formula_sum   'Zn2 B6 Ir8'
_cell_volume   188.22135658
_cell_formula_units_Z   2
loop_
 _symmetry_equiv_pos_site_id
 _symmetry_equiv_pos_as_xyz
  1  'x, y, z'
loop_
 _atom_site_type_symbol
 _atom_site_label
 _atom_site_symmetry_multiplicity
 _atom_site_fract_x
 _atom_site_fract_y
 _atom_site_fract_z
 _atom_site_occupancy
  Zn  Zn0  1  0.50000000  0.00000000  0.50000000  1
  Zn  Zn1  1  0.00000000  0.00000000  0.00000000  1
  B  B2  1  0.50000000  0.00000000  0.37576900  1
  B  B3  1  0.00000000  0.00000000  0.12133600  1
  B  B4  1  0.00000000  0.00000000  0.87866400  1
  B  B5  1  0.00000000  0.50000000  0.23875400  1
  B  B6  1  0.00000000  0.50000000  0.76124600  1
  B  B7  1  0.50000000  0.00000000  0.62423100  1
  Ir  Ir8  1  0.50000000  0.50000000  0.91648100  1
  Ir  Ir9  1  0.50000000  0.00000000  0.19562200  1
  Ir  Ir10  1  0.00000000  0.00000000  0.69394600  1
  Ir  Ir11  1  0.50000000  0.00000000  0.80437800  1
  Ir  Ir12  1  0.50000000  0.50000000  0.08351900  1
  Ir  Ir13  1  0.00000000  0.00000000  0.30605400  1
  Ir  Ir14  1  0.00000000  0.50000000  0.41624400  1
  Ir  Ir15  1  0.00000000  0.50000000  0.58375600  1
