# generated using pymatgen
data_Br3N(O2F5)2
_symmetry_space_group_name_H-M   'P 1'
_cell_length_a   8.51180900
_cell_length_b   9.10060000
_cell_length_c   15.52359600
_cell_angle_alpha   90.00000000
_cell_angle_beta   90.00000000
_cell_angle_gamma   90.00000000
_symmetry_Int_Tables_number   1
_chemical_formula_structural   Br3N(O2F5)2
_chemical_formula_sum   'Br12 N4 O16 F40'
_cell_volume   1202.49762605
_cell_formula_units_Z   4
loop_
 _symmetry_equiv_pos_site_id
 _symmetry_equiv_pos_as_xyz
  1  'x, y, z'
loop_
 _atom_site_type_symbol
 _atom_site_label
 _atom_site_symmetry_multiplicity
 _atom_site_fract_x
 _atom_site_fract_y
 _atom_site_fract_z
 _atom_site_occupancy
  Br  Br0  1  0.60199700  0.27895900  0.43671700  1
  Br  Br1  1  0.39800300  0.77895900  0.06328300  1
  Br  Br2  1  0.98009400  0.50000000  0.50000000  1
  Br  Br3  1  0.60199700  0.72104100  0.56328300  1
  Br  Br4  1  0.81498700  0.77288900  0.30075900  1
  Br  Br5  1  0.18501300  0.27288900  0.19924100  1
  Br  Br6  1  0.18501300  0.72711100  0.80075900  1
  Br  Br7  1  0.81498700  0.22711100  0.69924100  1
  Br  Br8  1  0.00371100  0.50000000  0.00000000  1
  Br  Br9  1  0.99628900  0.00000000  0.50000000  1
  Br  Br10  1  0.39800300  0.22104100  0.93671700  1
  Br  Br11  1  0.01990600  0.00000000  0.00000000  1
  N  N12  1  0.68525400  0.28042800  0.17101300  1
  N  N13  1  0.31474600  0.78042800  0.32898700  1
  N  N14  1  0.68525400  0.71957200  0.82898700  1
  N  N15  1  0.31474600  0.21957200  0.67101300  1
  O  O16  1  0.46834100  0.37467100  0.39136300  1
  O  O17  1  0.71945100  0.83961200  0.83747600  1
  O  O18  1  0.28054900  0.33961200  0.66252400  1
  O  O19  1  0.64958800  0.59989100  0.81966000  1
  O  O20  1  0.26991000  0.57628400  0.77589800  1
  O  O21  1  0.71945100  0.16038800  0.16252400  1
  O  O22  1  0.64958800  0.40010900  0.18034000  1
  O  O23  1  0.26991000  0.42371600  0.22410200  1
  O  O24  1  0.53165900  0.87467100  0.10863700  1
  O  O25  1  0.53165900  0.12532900  0.89136300  1
  O  O26  1  0.73009000  0.07628400  0.72410200  1
  O  O27  1  0.35041200  0.90010900  0.31966000  1
  O  O28  1  0.46834100  0.62532900  0.60863700  1
  O  O29  1  0.28054900  0.66038800  0.33747600  1
  O  O30  1  0.35041200  0.09989100  0.68034000  1
  O  O31  1  0.73009000  0.92371600  0.27589800  1
  F  F32  1  0.62714300  0.34014000  0.70400800  1
  F  F33  1  0.27014400  0.00000000  0.00000000  1
  F  F34  1  0.01870000  0.05165400  0.11993200  1
  F  F35  1  0.86216700  0.68734000  0.19831300  1
  F  F36  1  0.84632600  0.36488200  0.02884100  1
  F  F37  1  0.83344500  0.85114500  0.46337100  1
  F  F38  1  0.01994200  0.14893900  0.70291700  1
  F  F39  1  0.84632600  0.63511800  0.97115900  1
  F  F40  1  0.45657000  0.59183000  0.08888800  1
  F  F41  1  0.26446500  0.23157100  0.83851200  1
  F  F42  1  0.80516800  0.00000000  0.00000000  1
  F  F43  1  0.37285700  0.84014000  0.79599200  1
  F  F44  1  0.98130000  0.55165400  0.38006800  1
  F  F45  1  0.83344500  0.14885500  0.53662900  1
  F  F46  1  0.49522000  0.25287400  0.54250700  1
  F  F47  1  0.54343000  0.09183000  0.41111200  1
  F  F48  1  0.86216700  0.31266000  0.80168700  1
  F  F49  1  0.50478000  0.24712600  0.04250700  1
  F  F50  1  0.45657000  0.40817000  0.91111200  1
  F  F51  1  0.15367400  0.86488200  0.47115900  1
  F  F52  1  0.98005800  0.35106100  0.20291700  1
  F  F53  1  0.72985600  0.50000000  0.50000000  1
  F  F54  1  0.62714300  0.65986000  0.29599200  1
  F  F55  1  0.01994200  0.85106100  0.29708300  1
  F  F56  1  0.50478000  0.75287400  0.95749300  1
  F  F57  1  0.16655500  0.35114500  0.03662900  1
  F  F58  1  0.01870000  0.94834600  0.88006800  1
  F  F59  1  0.49522000  0.74712600  0.45749300  1
  F  F60  1  0.54343000  0.90817000  0.58888800  1
  F  F61  1  0.37285700  0.15986000  0.20400800  1
  F  F62  1  0.16655500  0.64885500  0.96337100  1
  F  F63  1  0.15367400  0.13511800  0.52884100  1
  F  F64  1  0.13783300  0.18734000  0.30168700  1
  F  F65  1  0.26446500  0.76842900  0.16148800  1
  F  F66  1  0.98005800  0.64893900  0.79708300  1
  F  F67  1  0.19483200  0.50000000  0.50000000  1
  F  F68  1  0.98130000  0.44834600  0.61993200  1
  F  F69  1  0.73553500  0.26842900  0.33851200  1
  F  F70  1  0.13783300  0.81266000  0.69831300  1
  F  F71  1  0.73553500  0.73157100  0.66148800  1
