# generated using pymatgen
data_Ba3Tb2(PS4)4
_symmetry_space_group_name_H-M   'P 1'
_cell_length_a   10.43538400
_cell_length_b   12.78381200
_cell_length_c   19.46190100
_cell_angle_alpha   90.00000000
_cell_angle_beta   90.00000000
_cell_angle_gamma   90.00000000
_symmetry_Int_Tables_number   1
_chemical_formula_structural   Ba3Tb2(PS4)4
_chemical_formula_sum   'Ba12 Tb8 P16 S64'
_cell_volume   2596.29519197
_cell_formula_units_Z   4
loop_
 _symmetry_equiv_pos_site_id
 _symmetry_equiv_pos_as_xyz
  1  'x, y, z'
loop_
 _atom_site_type_symbol
 _atom_site_label
 _atom_site_symmetry_multiplicity
 _atom_site_fract_x
 _atom_site_fract_y
 _atom_site_fract_z
 _atom_site_occupancy
  Ba  Ba0  1  0.28956000  0.10726100  0.27278300  1
  Ba  Ba1  1  0.11656600  0.25000000  0.00000000  1
  Ba  Ba2  1  0.21044000  0.60726100  0.22721700  1
  Ba  Ba3  1  0.61656600  0.25000000  0.50000000  1
  Ba  Ba4  1  0.71044000  0.60726100  0.27278300  1
  Ba  Ba5  1  0.21044000  0.89273900  0.77278300  1
  Ba  Ba6  1  0.78956000  0.39273900  0.77278300  1
  Ba  Ba7  1  0.78956000  0.10726100  0.22721700  1
  Ba  Ba8  1  0.88343400  0.75000000  0.00000000  1
  Ba  Ba9  1  0.71044000  0.89273900  0.72721700  1
  Ba  Ba10  1  0.28956000  0.39273900  0.72721700  1
  Ba  Ba11  1  0.38343400  0.75000000  0.50000000  1
  Tb  Tb12  1  0.37159000  0.61259200  0.92654500  1
  Tb  Tb13  1  0.62841000  0.38740800  0.07345500  1
  Tb  Tb14  1  0.12841000  0.38740800  0.42654500  1
  Tb  Tb15  1  0.12841000  0.11259200  0.57345500  1
  Tb  Tb16  1  0.87159000  0.61259200  0.57345500  1
  Tb  Tb17  1  0.62841000  0.11259200  0.92654500  1
  Tb  Tb18  1  0.37159000  0.88740800  0.07345500  1
  Tb  Tb19  1  0.87159000  0.88740800  0.42654500  1
  P  P20  1  0.99605500  0.13991400  0.39772800  1
  P  P21  1  0.49605500  0.36008600  0.89772800  1
  P  P22  1  0.99605500  0.36008600  0.60227200  1
  P  P23  1  0.50394500  0.86008600  0.89772800  1
  P  P24  1  0.43709300  0.04858900  0.63102100  1
  P  P25  1  0.00394500  0.86008600  0.60227200  1
  P  P26  1  0.00394500  0.63991400  0.39772800  1
  P  P27  1  0.06290700  0.54858900  0.86897900  1
  P  P28  1  0.93709300  0.04858900  0.86897900  1
  P  P29  1  0.43709300  0.45141100  0.36897900  1
  P  P30  1  0.50394500  0.63991400  0.10227200  1
  P  P31  1  0.56290700  0.95141100  0.36897900  1
  P  P32  1  0.06290700  0.95141100  0.13102100  1
  P  P33  1  0.49605500  0.13991400  0.10227200  1
  P  P34  1  0.93709300  0.45141100  0.13102100  1
  P  P35  1  0.56290700  0.54858900  0.63102100  1
  S  S36  1  0.56400100  0.73031300  0.84882100  1
  S  S37  1  0.00480800  0.01482200  0.33289400  1
  S  S38  1  0.38568600  0.60587500  0.64969700  1
  S  S39  1  0.56400100  0.76968700  0.15117900  1
  S  S40  1  0.70828300  0.88676000  0.30869400  1
  S  S41  1  0.61431400  0.39412500  0.35030300  1
  S  S42  1  0.88845600  0.09915200  0.48293100  1
  S  S43  1  0.93599900  0.23031300  0.65117900  1
  S  S44  1  0.17968900  0.33110700  0.56816500  1
  S  S45  1  0.50480800  0.01482200  0.16710600  1
  S  S46  1  0.88046700  0.41433400  0.03264200  1
  S  S47  1  0.38046700  0.41433400  0.46735800  1
  S  S48  1  0.20828300  0.88676000  0.19130600  1
  S  S49  1  0.88568600  0.89412500  0.14969700  1
  S  S50  1  0.56918400  0.38833700  0.64701100  1
  S  S51  1  0.06918400  0.11166300  0.14701100  1
  S  S52  1  0.93081600  0.88833700  0.85298900  1
  S  S53  1  0.43081600  0.88833700  0.64701100  1
  S  S54  1  0.61431400  0.10587500  0.64969700  1
  S  S55  1  0.99519200  0.51482200  0.33289400  1
  S  S56  1  0.61953300  0.91433400  0.46735800  1
  S  S57  1  0.88046700  0.08566600  0.96735800  1
  S  S58  1  0.67968900  0.16889300  0.06816500  1
  S  S59  1  0.43081600  0.61166300  0.35298900  1
  S  S60  1  0.29171700  0.38676000  0.30869400  1
  S  S61  1  0.79171700  0.38676000  0.19130600  1
  S  S62  1  0.88845600  0.40084800  0.51706900  1
  S  S63  1  0.67968900  0.33110700  0.93183500  1
  S  S64  1  0.17968900  0.16889300  0.43183500  1
  S  S65  1  0.70828300  0.61324000  0.69130600  1
  S  S66  1  0.49519200  0.51482200  0.16710600  1
  S  S67  1  0.99519200  0.98517800  0.66710600  1
  S  S68  1  0.11154400  0.59915200  0.48293100  1
  S  S69  1  0.61154400  0.59915200  0.01706900  1
  S  S70  1  0.06400100  0.76968700  0.34882100  1
  S  S71  1  0.50480800  0.48517800  0.83289400  1
  S  S72  1  0.11953300  0.58566600  0.96735800  1
  S  S73  1  0.11953300  0.91433400  0.03264200  1
  S  S74  1  0.11154400  0.90084800  0.51706900  1
  S  S75  1  0.11431400  0.39412500  0.14969700  1
  S  S76  1  0.43599900  0.23031300  0.84882100  1
  S  S77  1  0.88568600  0.60587500  0.85030300  1
  S  S78  1  0.20828300  0.61324000  0.80869400  1
  S  S79  1  0.82031100  0.66889300  0.43183500  1
  S  S80  1  0.93599900  0.26968700  0.34882100  1
  S  S81  1  0.38845600  0.40084800  0.98293100  1
  S  S82  1  0.00480800  0.48517800  0.66710600  1
  S  S83  1  0.38046700  0.08566600  0.53264200  1
  S  S84  1  0.49519200  0.98517800  0.83289400  1
  S  S85  1  0.93081600  0.61166300  0.14701100  1
  S  S86  1  0.32031100  0.66889300  0.06816500  1
  S  S87  1  0.38845600  0.09915200  0.01706900  1
  S  S88  1  0.61953300  0.58566600  0.53264200  1
  S  S89  1  0.61154400  0.90084800  0.98293100  1
  S  S90  1  0.29171700  0.11324000  0.69130600  1
  S  S91  1  0.56918400  0.11166300  0.35298900  1
  S  S92  1  0.43599900  0.26968700  0.15117900  1
  S  S93  1  0.06400100  0.73031300  0.65117900  1
  S  S94  1  0.11431400  0.10587500  0.85030300  1
  S  S95  1  0.06918400  0.38833700  0.85298900  1
  S  S96  1  0.38568600  0.89412500  0.35030300  1
  S  S97  1  0.79171700  0.11324000  0.80869400  1
  S  S98  1  0.32031100  0.83110700  0.93183500  1
  S  S99  1  0.82031100  0.83110700  0.56816500  1
