# generated using pymatgen
data_Li2NiO3
_symmetry_space_group_name_H-M   'P 1'
_cell_length_a   4.89576233
_cell_length_b   4.89576233
_cell_length_c   5.00384499
_cell_angle_alpha   80.55550228
_cell_angle_beta   80.55550228
_cell_angle_gamma   119.95294445
_symmetry_Int_Tables_number   1
_chemical_formula_structural   Li2NiO3
_chemical_formula_sum   'Li4 Ni2 O6'
_cell_volume   98.16854551
_cell_formula_units_Z   2
loop_
 _symmetry_equiv_pos_site_id
 _symmetry_equiv_pos_as_xyz
  1  'x, y, z'
loop_
 _atom_site_type_symbol
 _atom_site_label
 _atom_site_symmetry_multiplicity
 _atom_site_fract_x
 _atom_site_fract_y
 _atom_site_fract_z
 _atom_site_occupancy
  Li  Li0  1  0.33773700  0.66226300  0.50000000  1
  Li  Li1  1  0.00000000  0.00000000  0.50000000  1
  Li  Li2  1  0.66226300  0.33773700  0.50000000  1
  Li  Li3  1  0.50000000  0.50000000  0.00000000  1
  Ni  Ni4  1  0.16685500  0.83314500  0.00000000  1
  Ni  Ni5  1  0.83314500  0.16685500  0.00000000  1
  O  O6  1  0.06795300  0.42670900  0.22099900  1
  O  O7  1  0.93204700  0.57329100  0.77900100  1
  O  O8  1  0.21650600  0.21650600  0.77561100  1
  O  O9  1  0.42670900  0.06795300  0.22099900  1
  O  O10  1  0.57329100  0.93204700  0.77900100  1
  O  O11  1  0.78349400  0.78349400  0.22438900  1
