# generated using pymatgen
data_Ba3Dy2(PS4)4
_symmetry_space_group_name_H-M   'P 1'
_cell_length_a   10.42252000
_cell_length_b   12.76390200
_cell_length_c   19.44652400
_cell_angle_alpha   90.00000000
_cell_angle_beta   90.00000000
_cell_angle_gamma   90.00000000
_symmetry_Int_Tables_number   1
_chemical_formula_structural   Ba3Dy2(PS4)4
_chemical_formula_sum   'Ba12 Dy8 P16 S64'
_cell_volume   2587.01044502
_cell_formula_units_Z   4
loop_
 _symmetry_equiv_pos_site_id
 _symmetry_equiv_pos_as_xyz
  1  'x, y, z'
loop_
 _atom_site_type_symbol
 _atom_site_label
 _atom_site_symmetry_multiplicity
 _atom_site_fract_x
 _atom_site_fract_y
 _atom_site_fract_z
 _atom_site_occupancy
  Ba  Ba0  1  0.21045800  0.60824200  0.22723300  1
  Ba  Ba1  1  0.11691500  0.25000000  0.00000000  1
  Ba  Ba2  1  0.61691500  0.25000000  0.50000000  1
  Ba  Ba3  1  0.21045800  0.89175800  0.77276700  1
  Ba  Ba4  1  0.28954200  0.10824200  0.27276700  1
  Ba  Ba5  1  0.28954200  0.39175800  0.72723300  1
  Ba  Ba6  1  0.71045800  0.60824200  0.27276700  1
  Ba  Ba7  1  0.71045800  0.89175800  0.72723300  1
  Ba  Ba8  1  0.38308500  0.75000000  0.50000000  1
  Ba  Ba9  1  0.88308500  0.75000000  0.00000000  1
  Ba  Ba10  1  0.78954200  0.10824200  0.22723300  1
  Ba  Ba11  1  0.78954200  0.39175800  0.77276700  1
  Dy  Dy12  1  0.62858100  0.38739200  0.07346200  1
  Dy  Dy13  1  0.87141900  0.88739200  0.42653800  1
  Dy  Dy14  1  0.12858100  0.38739200  0.42653800  1
  Dy  Dy15  1  0.37141900  0.61260800  0.92653800  1
  Dy  Dy16  1  0.62858100  0.11260800  0.92653800  1
  Dy  Dy17  1  0.12858100  0.11260800  0.57346200  1
  Dy  Dy18  1  0.37141900  0.88739200  0.07346200  1
  Dy  Dy19  1  0.87141900  0.61260800  0.57346200  1
  P  P20  1  0.99581600  0.13983200  0.39788800  1
  P  P21  1  0.43699700  0.04849800  0.63100000  1
  P  P22  1  0.06300300  0.95150200  0.13100000  1
  P  P23  1  0.49581600  0.13983200  0.10211200  1
  P  P24  1  0.93699700  0.45150200  0.13100000  1
  P  P25  1  0.00418400  0.86016800  0.60211200  1
  P  P26  1  0.49581600  0.36016800  0.89788800  1
  P  P27  1  0.06300300  0.54849800  0.86900000  1
  P  P28  1  0.50418400  0.63983200  0.10211200  1
  P  P29  1  0.56300300  0.95150200  0.36900000  1
  P  P30  1  0.43699700  0.45150200  0.36900000  1
  P  P31  1  0.99581600  0.36016800  0.60211200  1
  P  P32  1  0.00418400  0.63983200  0.39788800  1
  P  P33  1  0.93699700  0.04849800  0.86900000  1
  P  P34  1  0.50418400  0.86016800  0.89788800  1
  P  P35  1  0.56300300  0.54849800  0.63100000  1
  S  S36  1  0.99553300  0.51443900  0.33312600  1
  S  S37  1  0.67951500  0.16945300  0.06801300  1
  S  S38  1  0.38849900  0.09870400  0.01677100  1
  S  S39  1  0.11449000  0.10569900  0.85029500  1
  S  S40  1  0.38551000  0.89430100  0.35029500  1
  S  S41  1  0.11150100  0.59870400  0.48322900  1
  S  S42  1  0.61449000  0.10569900  0.64970500  1
  S  S43  1  0.56932700  0.38799600  0.64704800  1
  S  S44  1  0.61150100  0.59870400  0.01677100  1
  S  S45  1  0.82048500  0.66945300  0.43198700  1
  S  S46  1  0.29124000  0.38666000  0.30883900  1
  S  S47  1  0.00446700  0.48556100  0.66687400  1
  S  S48  1  0.93067300  0.61200400  0.14704800  1
  S  S49  1  0.12014300  0.91449000  0.03259900  1
  S  S50  1  0.70876000  0.61334000  0.69116100  1
  S  S51  1  0.79124000  0.38666000  0.19116100  1
  S  S52  1  0.87985700  0.08551000  0.96740100  1
  S  S53  1  0.56421000  0.76986200  0.15103500  1
  S  S54  1  0.79124000  0.11334000  0.80883900  1
  S  S55  1  0.93579000  0.23013800  0.65103500  1
  S  S56  1  0.38849900  0.40129600  0.98322900  1
  S  S57  1  0.29124000  0.11334000  0.69116100  1
  S  S58  1  0.88551000  0.60569900  0.85029500  1
  S  S59  1  0.88849900  0.40129600  0.51677100  1
  S  S60  1  0.99553300  0.98556100  0.66687400  1
  S  S61  1  0.49553300  0.51443900  0.16687400  1
  S  S62  1  0.88551000  0.89430100  0.14970500  1
  S  S63  1  0.17951500  0.16945300  0.43198700  1
  S  S64  1  0.43579000  0.26986200  0.15103500  1
  S  S65  1  0.37985700  0.08551000  0.53259900  1
  S  S66  1  0.00446700  0.01443900  0.33312600  1
  S  S67  1  0.43579000  0.23013800  0.84896500  1
  S  S68  1  0.61449000  0.39430100  0.35029500  1
  S  S69  1  0.87985700  0.41449000  0.03259900  1
  S  S70  1  0.20876000  0.88666000  0.19116100  1
  S  S71  1  0.62014300  0.91449000  0.46740100  1
  S  S72  1  0.62014300  0.58551000  0.53259900  1
  S  S73  1  0.50446700  0.01443900  0.16687400  1
  S  S74  1  0.11449000  0.39430100  0.14970500  1
  S  S75  1  0.88849900  0.09870400  0.48322900  1
  S  S76  1  0.37985700  0.41449000  0.46740100  1
  S  S77  1  0.06932700  0.38799600  0.85295200  1
  S  S78  1  0.06932700  0.11200400  0.14704800  1
  S  S79  1  0.56421000  0.73013800  0.84896500  1
  S  S80  1  0.93067300  0.88799600  0.85295200  1
  S  S81  1  0.49553300  0.98556100  0.83312600  1
  S  S82  1  0.50446700  0.48556100  0.83312600  1
  S  S83  1  0.43067300  0.88799600  0.64704800  1
  S  S84  1  0.61150100  0.90129600  0.98322900  1
  S  S85  1  0.32048500  0.66945300  0.06801300  1
  S  S86  1  0.06421000  0.76986200  0.34896500  1
  S  S87  1  0.38551000  0.60569900  0.64970500  1
  S  S88  1  0.43067300  0.61200400  0.35295200  1
  S  S89  1  0.82048500  0.83054700  0.56801300  1
  S  S90  1  0.32048500  0.83054700  0.93198700  1
  S  S91  1  0.17951500  0.33054700  0.56801300  1
  S  S92  1  0.12014300  0.58551000  0.96740100  1
  S  S93  1  0.06421000  0.73013800  0.65103500  1
  S  S94  1  0.93579000  0.26986200  0.34896500  1
  S  S95  1  0.67951500  0.33054700  0.93198700  1
  S  S96  1  0.20876000  0.61334000  0.80883900  1
  S  S97  1  0.70876000  0.88666000  0.30883900  1
  S  S98  1  0.56932700  0.11200400  0.35295200  1
  S  S99  1  0.11150100  0.90129600  0.51677100  1
