# generated using pymatgen
data_NaNb2PS10
_symmetry_space_group_name_H-M   'P 1'
_cell_length_a   13.70606389
_cell_length_b   13.70606389
_cell_length_c   13.03100209
_cell_angle_alpha   89.60647478
_cell_angle_beta   89.60647478
_cell_angle_gamma   35.09419911
_symmetry_Int_Tables_number   1
_chemical_formula_structural   NaNb2PS10
_chemical_formula_sum   'Na4 Nb8 P4 S40'
_cell_volume   1407.34732497
_cell_formula_units_Z   4
loop_
 _symmetry_equiv_pos_site_id
 _symmetry_equiv_pos_as_xyz
  1  'x, y, z'
loop_
 _atom_site_type_symbol
 _atom_site_label
 _atom_site_symmetry_multiplicity
 _atom_site_fract_x
 _atom_site_fract_y
 _atom_site_fract_z
 _atom_site_occupancy
  Na  Na0  1  0.94619300  0.93818300  0.11962100  1
  Na  Na1  1  0.06181700  0.05380700  0.38037900  1
  Na  Na2  1  0.93818300  0.94619300  0.61962100  1
  Na  Na3  1  0.05380700  0.06181700  0.88037900  1
  Nb  Nb4  1  0.57552800  0.70379000  0.27701600  1
  Nb  Nb5  1  0.58160400  0.69806700  0.98612400  1
  Nb  Nb6  1  0.42447200  0.29621000  0.72298400  1
  Nb  Nb7  1  0.69806700  0.58160400  0.48612400  1
  Nb  Nb8  1  0.70379000  0.57552800  0.77701600  1
  Nb  Nb9  1  0.41839600  0.30193300  0.01387600  1
  Nb  Nb10  1  0.30193300  0.41839600  0.51387600  1
  Nb  Nb11  1  0.29621000  0.42447200  0.22298400  1
  P  P12  1  0.97968900  0.22533600  0.62884000  1
  P  P13  1  0.22533600  0.97968900  0.12884000  1
  P  P14  1  0.77466400  0.02031100  0.87116000  1
  P  P15  1  0.02031100  0.77466400  0.37116000  1
  S  S16  1  0.01844900  0.27389300  0.49663000  1
  S  S17  1  0.34666800  0.24055100  0.86944000  1
  S  S18  1  0.42920300  0.71488700  0.13194400  1
  S  S19  1  0.24055100  0.34666800  0.36944000  1
  S  S20  1  0.40275500  0.18073700  0.14350600  1
  S  S21  1  0.98155100  0.72610700  0.50337000  1
  S  S22  1  0.72610700  0.98155100  0.00337000  1
  S  S23  1  0.71488700  0.42920300  0.63194400  1
  S  S24  1  0.82943700  0.58612900  0.90538800  1
  S  S25  1  0.67772200  0.46210800  0.35122600  1
  S  S26  1  0.65333200  0.75944900  0.13056000  1
  S  S27  1  0.45327400  0.68810700  0.41600400  1
  S  S28  1  0.31189300  0.54672600  0.08399600  1
  S  S29  1  0.11478000  0.99060900  0.62732000  1
  S  S30  1  0.02373300  0.26781100  0.76051500  1
  S  S31  1  0.81926300  0.59724500  0.35649400  1
  S  S32  1  0.79801500  0.51676100  0.13294400  1
  S  S33  1  0.59724500  0.81926300  0.85649400  1
  S  S34  1  0.97626700  0.73218900  0.23948500  1
  S  S35  1  0.73218900  0.97626700  0.73948500  1
  S  S36  1  0.57079700  0.28511300  0.86805600  1
  S  S37  1  0.20198500  0.48323900  0.86705600  1
  S  S38  1  0.41387100  0.17056300  0.59461200  1
  S  S39  1  0.54672600  0.31189300  0.58399600  1
  S  S40  1  0.75944900  0.65333200  0.63056000  1
  S  S41  1  0.26781100  0.02373300  0.26051500  1
  S  S42  1  0.28511300  0.57079700  0.36805600  1
  S  S43  1  0.17056300  0.41387100  0.09461200  1
  S  S44  1  0.18073700  0.40275500  0.64350600  1
  S  S45  1  0.00939100  0.88522000  0.87268000  1
  S  S46  1  0.32227800  0.53789200  0.64877400  1
  S  S47  1  0.99060900  0.11478000  0.12732000  1
  S  S48  1  0.46210800  0.67772200  0.85122600  1
  S  S49  1  0.48323900  0.20198500  0.36705600  1
  S  S50  1  0.58612900  0.82943700  0.40538800  1
  S  S51  1  0.51676100  0.79801500  0.63294400  1
  S  S52  1  0.53789200  0.32227800  0.14877400  1
  S  S53  1  0.88522000  0.00939100  0.37268000  1
  S  S54  1  0.27389300  0.01844900  0.99663000  1
  S  S55  1  0.68810700  0.45327400  0.91600400  1
