# generated using pymatgen
data_MgSeO4
_symmetry_space_group_name_H-M   'P 1'
_cell_length_a   5.00941900
_cell_length_b   6.88632400
_cell_length_c   9.13043900
_cell_angle_alpha   90.00000000
_cell_angle_beta   90.00000000
_cell_angle_gamma   90.00000000
_symmetry_Int_Tables_number   1
_chemical_formula_structural   MgSeO4
_chemical_formula_sum   'Mg4 Se4 O16'
_cell_volume   314.96802722
_cell_formula_units_Z   4
loop_
 _symmetry_equiv_pos_site_id
 _symmetry_equiv_pos_as_xyz
  1  'x, y, z'
loop_
 _atom_site_type_symbol
 _atom_site_label
 _atom_site_symmetry_multiplicity
 _atom_site_fract_x
 _atom_site_fract_y
 _atom_site_fract_z
 _atom_site_occupancy
  Mg  Mg0  1  0.00000000  0.50000000  0.00000000  1
  Mg  Mg1  1  0.50000000  0.00000000  0.50000000  1
  Mg  Mg2  1  0.00000000  0.00000000  0.00000000  1
  Mg  Mg3  1  0.50000000  0.50000000  0.50000000  1
  Se  Se4  1  0.47257300  0.25000000  0.81921400  1
  Se  Se5  1  0.02742700  0.25000000  0.31921400  1
  Se  Se6  1  0.52742700  0.75000000  0.18078600  1
  Se  Se7  1  0.97257300  0.75000000  0.68078600  1
  O  O8  1  0.70962700  0.25000000  0.37849700  1
  O  O9  1  0.82431900  0.95179700  0.62534600  1
  O  O10  1  0.55488000  0.75000000  0.36622100  1
  O  O11  1  0.32431900  0.04820300  0.87465400  1
  O  O12  1  0.67568100  0.54820300  0.12534600  1
  O  O13  1  0.94512000  0.75000000  0.86622100  1
  O  O14  1  0.44512000  0.25000000  0.63377900  1
  O  O15  1  0.67568100  0.95179700  0.12534600  1
  O  O16  1  0.29037300  0.75000000  0.62150300  1
  O  O17  1  0.82431900  0.54820300  0.62534600  1
  O  O18  1  0.79037300  0.25000000  0.87849700  1
  O  O19  1  0.05488000  0.25000000  0.13377900  1
  O  O20  1  0.32431900  0.45179700  0.87465400  1
  O  O21  1  0.20962700  0.75000000  0.12150300  1
  O  O22  1  0.17568100  0.04820300  0.37465400  1
  O  O23  1  0.17568100  0.45179700  0.37465400  1
