# generated using pymatgen
data_LuOs2
_symmetry_space_group_name_H-M   'P 1'
_cell_length_a   5.27152339
_cell_length_b   5.27152339
_cell_length_c   8.78940400
_cell_angle_alpha   90.00000000
_cell_angle_beta   90.00000000
_cell_angle_gamma   119.99999238
_symmetry_Int_Tables_number   1
_chemical_formula_structural   LuOs2
_chemical_formula_sum   'Lu4 Os8'
_cell_volume   211.52532367
_cell_formula_units_Z   4
loop_
 _symmetry_equiv_pos_site_id
 _symmetry_equiv_pos_as_xyz
  1  'x, y, z'
loop_
 _atom_site_type_symbol
 _atom_site_label
 _atom_site_symmetry_multiplicity
 _atom_site_fract_x
 _atom_site_fract_y
 _atom_site_fract_z
 _atom_site_occupancy
  Lu  Lu0  1  0.33333300  0.66666700  0.43417800  1
  Lu  Lu1  1  0.66666700  0.33333300  0.56582200  1
  Lu  Lu2  1  0.66666700  0.33333300  0.93417800  1
  Lu  Lu3  1  0.33333300  0.66666700  0.06582200  1
  Os  Os4  1  0.17246200  0.34492500  0.75000000  1
  Os  Os5  1  0.17246200  0.82753800  0.75000000  1
  Os  Os6  1  0.34492500  0.17246200  0.25000000  1
  Os  Os7  1  0.82753800  0.65507500  0.25000000  1
  Os  Os8  1  0.65507500  0.82753800  0.75000000  1
  Os  Os9  1  0.00000000  0.00000000  0.00000000  1
  Os  Os10  1  0.82753800  0.17246200  0.25000000  1
  Os  Os11  1  0.00000000  0.00000000  0.50000000  1
