# generated using pymatgen
data_Pr10S19
_symmetry_space_group_name_H-M   'P 1'
_cell_length_a   9.03400100
_cell_length_b   9.03400100
_cell_length_c   16.33694000
_cell_angle_alpha   90.00000000
_cell_angle_beta   90.00000000
_cell_angle_gamma   90.00000000
_symmetry_Int_Tables_number   1
_chemical_formula_structural   Pr10S19
_chemical_formula_sum   'Pr20 S38'
_cell_volume   1333.30952796
_cell_formula_units_Z   2
loop_
 _symmetry_equiv_pos_site_id
 _symmetry_equiv_pos_as_xyz
  1  'x, y, z'
loop_
 _atom_site_type_symbol
 _atom_site_label
 _atom_site_symmetry_multiplicity
 _atom_site_fract_x
 _atom_site_fract_y
 _atom_site_fract_z
 _atom_site_occupancy
  Pr  Pr0  1  0.50000000  0.00000000  0.63575100  1
  Pr  Pr1  1  0.10419300  0.19443900  0.64751600  1
  Pr  Pr2  1  0.60419300  0.69443900  0.85248400  1
  Pr  Pr3  1  0.09830700  0.20921100  0.12755000  1
  Pr  Pr4  1  0.59830700  0.70921100  0.37245000  1
  Pr  Pr5  1  0.19443900  0.89580700  0.35248400  1
  Pr  Pr6  1  0.50000000  0.00000000  0.13575100  1
  Pr  Pr7  1  0.00000000  0.50000000  0.86424900  1
  Pr  Pr8  1  0.80556100  0.10419300  0.35248400  1
  Pr  Pr9  1  0.29078900  0.59830700  0.62755000  1
  Pr  Pr10  1  0.39580700  0.30556100  0.85248400  1
  Pr  Pr11  1  0.40169300  0.29078900  0.37245000  1
  Pr  Pr12  1  0.90169300  0.79078900  0.12755000  1
  Pr  Pr13  1  0.89580700  0.80556100  0.64751600  1
  Pr  Pr14  1  0.69443900  0.39580700  0.14751600  1
  Pr  Pr15  1  0.20921100  0.90169300  0.87245000  1
  Pr  Pr16  1  0.70921100  0.40169300  0.62755000  1
  Pr  Pr17  1  0.00000000  0.50000000  0.36424900  1
  Pr  Pr18  1  0.30556100  0.60419300  0.14751600  1
  Pr  Pr19  1  0.79078900  0.09830700  0.87245000  1
  S  S20  1  0.00000000  0.50000000  0.68403700  1
  S  S21  1  0.71975500  0.94650000  0.50099200  1
  S  S22  1  0.63960600  0.17142900  0.49995700  1
  S  S23  1  0.59821500  0.70077300  0.67594500  1
  S  S24  1  0.55350000  0.21975500  0.00099200  1
  S  S25  1  0.70077300  0.40178500  0.32405500  1
  S  S26  1  0.05350000  0.71975500  0.49900800  1
  S  S27  1  0.90178500  0.79922700  0.82405500  1
  S  S28  1  0.67142900  0.86039400  0.99995700  1
  S  S29  1  0.78024500  0.55350000  0.99900800  1
  S  S30  1  0.13960600  0.67142900  0.00004300  1
  S  S31  1  0.00000000  0.00000000  0.00000000  1
  S  S32  1  0.89817400  0.80302300  0.31200600  1
  S  S33  1  0.20077300  0.90178500  0.17594500  1
  S  S34  1  0.30302300  0.60182600  0.81200600  1
  S  S35  1  0.21975500  0.44650000  0.99900800  1
  S  S36  1  0.10182600  0.19697700  0.31200600  1
  S  S37  1  0.29922700  0.59821500  0.32405500  1
  S  S38  1  0.28024500  0.05350000  0.50099200  1
  S  S39  1  0.86039400  0.32857100  0.00004300  1
  S  S40  1  0.94650000  0.28024500  0.49900800  1
  S  S41  1  0.09821500  0.20077300  0.82405500  1
  S  S42  1  0.32857100  0.13960600  0.99995700  1
  S  S43  1  0.50000000  0.00000000  0.31596300  1
  S  S44  1  0.17142900  0.36039400  0.50004300  1
  S  S45  1  0.00000000  0.50000000  0.18403700  1
  S  S46  1  0.82857100  0.63960600  0.50004300  1
  S  S47  1  0.39817400  0.30302300  0.18799400  1
  S  S48  1  0.36039400  0.82857100  0.49995700  1
  S  S49  1  0.60182600  0.69697700  0.18799400  1
  S  S50  1  0.44650000  0.78024500  0.00099200  1
  S  S51  1  0.79922700  0.09821500  0.17594500  1
  S  S52  1  0.19697700  0.89817400  0.68799400  1
  S  S53  1  0.69697700  0.39817400  0.81200600  1
  S  S54  1  0.40178500  0.29922700  0.67594500  1
  S  S55  1  0.50000000  0.00000000  0.81596300  1
  S  S56  1  0.50000000  0.50000000  0.50000000  1
  S  S57  1  0.80302300  0.10182600  0.68799400  1
