# generated using pymatgen
data_Eu2SiO4
_symmetry_space_group_name_H-M   'P 1'
_cell_length_a   7.12201200
_cell_length_b   5.72109000
_cell_length_c   11.03799107
_cell_angle_alpha   62.38445064
_cell_angle_beta   90.00000000
_cell_angle_gamma   90.00000000
_symmetry_Int_Tables_number   1
_chemical_formula_structural   Eu2SiO4
_chemical_formula_sum   'Eu8 Si4 O16'
_cell_volume   398.51381558
_cell_formula_units_Z   4
loop_
 _symmetry_equiv_pos_site_id
 _symmetry_equiv_pos_as_xyz
  1  'x, y, z'
loop_
 _atom_site_type_symbol
 _atom_site_label
 _atom_site_symmetry_multiplicity
 _atom_site_fract_x
 _atom_site_fract_y
 _atom_site_fract_z
 _atom_site_occupancy
  Eu  Eu0  1  0.65942000  0.81108000  0.42459800  1
  Eu  Eu1  1  0.34058000  0.18892000  0.57540200  1
  Eu  Eu2  1  0.50112700  0.47358700  0.80194100  1
  Eu  Eu3  1  0.15942000  0.18892000  0.07540200  1
  Eu  Eu4  1  0.99887300  0.47358700  0.30194100  1
  Eu  Eu5  1  0.00112700  0.52641300  0.69805900  1
  Eu  Eu6  1  0.49887300  0.52641300  0.19805900  1
  Eu  Eu7  1  0.84058000  0.81108000  0.92459800  1
  Si  Si8  1  0.77944900  0.16016100  0.58157200  1
  Si  Si9  1  0.27944900  0.83983900  0.91842800  1
  Si  Si10  1  0.72055100  0.16016100  0.08157200  1
  Si  Si11  1  0.22055100  0.83983900  0.41842800  1
  O  O12  1  0.23621600  0.15444700  0.81684700  1
  O  O13  1  0.17581300  0.64759200  0.86281600  1
  O  O14  1  0.82418700  0.35240800  0.13718400  1
  O  O15  1  0.76378400  0.84555300  0.18315300  1
  O  O16  1  0.68275300  0.24513100  0.42924400  1
  O  O17  1  0.18275300  0.75486900  0.07075600  1
  O  O18  1  0.73621600  0.84555300  0.68315300  1
  O  O19  1  0.31724700  0.75486900  0.57075600  1
  O  O20  1  0.00551800  0.21415500  0.56744100  1
  O  O21  1  0.49448200  0.21415500  0.06744100  1
  O  O22  1  0.67581300  0.35240800  0.63718400  1
  O  O23  1  0.32418700  0.64759200  0.36281600  1
  O  O24  1  0.50551800  0.78584500  0.93255900  1
  O  O25  1  0.99448200  0.78584500  0.43255900  1
  O  O26  1  0.81724700  0.24513100  0.92924400  1
  O  O27  1  0.26378400  0.15444700  0.31684700  1
