# generated using pymatgen
data_Sr2VClO4
_symmetry_space_group_name_H-M   'P 1'
_cell_length_a   6.65209100
_cell_length_b   7.58982900
_cell_length_c   11.64674100
_cell_angle_alpha   90.00000000
_cell_angle_beta   90.00000000
_cell_angle_gamma   90.00000000
_symmetry_Int_Tables_number   1
_chemical_formula_structural   Sr2VClO4
_chemical_formula_sum   'Sr8 V4 Cl4 O16'
_cell_volume   588.02337542
_cell_formula_units_Z   4
loop_
 _symmetry_equiv_pos_site_id
 _symmetry_equiv_pos_as_xyz
  1  'x, y, z'
loop_
 _atom_site_type_symbol
 _atom_site_label
 _atom_site_symmetry_multiplicity
 _atom_site_fract_x
 _atom_site_fract_y
 _atom_site_fract_z
 _atom_site_occupancy
  Sr  Sr0  1  0.86230200  0.53336600  0.75000000  1
  Sr  Sr1  1  0.37566400  0.75000000  0.50000000  1
  Sr  Sr2  1  0.13769800  0.46663400  0.25000000  1
  Sr  Sr3  1  0.37566400  0.75000000  0.00000000  1
  Sr  Sr4  1  0.13769800  0.03336600  0.75000000  1
  Sr  Sr5  1  0.86230200  0.96663400  0.25000000  1
  Sr  Sr6  1  0.62433600  0.25000000  0.50000000  1
  Sr  Sr7  1  0.62433600  0.25000000  0.00000000  1
  V  V8  1  0.12793700  0.25000000  0.00000000  1
  V  V9  1  0.12793700  0.25000000  0.50000000  1
  V  V10  1  0.87206300  0.75000000  0.50000000  1
  V  V11  1  0.87206300  0.75000000  0.00000000  1
  Cl  Cl12  1  0.49289000  0.19176200  0.25000000  1
  Cl  Cl13  1  0.50711000  0.69176200  0.25000000  1
  Cl  Cl14  1  0.50711000  0.80823800  0.75000000  1
  Cl  Cl15  1  0.49289000  0.30823800  0.75000000  1
  O  O16  1  0.28523300  0.07268000  0.97040100  1
  O  O17  1  0.28523300  0.42732000  0.02959900  1
  O  O18  1  0.02827800  0.77414500  0.61974000  1
  O  O19  1  0.97172200  0.22585500  0.11974000  1
  O  O20  1  0.71476700  0.92732000  0.02959900  1
  O  O21  1  0.02827800  0.72585500  0.11974000  1
  O  O22  1  0.71476700  0.57268000  0.52959900  1
  O  O23  1  0.97172200  0.27414500  0.88026000  1
  O  O24  1  0.97172200  0.27414500  0.61974000  1
  O  O25  1  0.71476700  0.57268000  0.97040100  1
  O  O26  1  0.02827800  0.77414500  0.88026000  1
  O  O27  1  0.02827800  0.72585500  0.38026000  1
  O  O28  1  0.97172200  0.22585500  0.38026000  1
  O  O29  1  0.28523300  0.07268000  0.52959900  1
  O  O30  1  0.71476700  0.92732000  0.47040100  1
  O  O31  1  0.28523300  0.42732000  0.47040100  1
