# generated using pymatgen
data_Ba17Ho16Zn8Pt4O57
_symmetry_space_group_name_H-M   'P 1'
_cell_length_a   16.57439271
_cell_length_b   16.57439271
_cell_length_c   16.57439271
_cell_angle_alpha   91.72740531
_cell_angle_beta   91.72740531
_cell_angle_gamma   160.00313173
_symmetry_Int_Tables_number   1
_chemical_formula_structural   Ba17Ho16Zn8Pt4O57
_chemical_formula_sum   'Ba17 Ho16 Zn8 Pt4 O57'
_cell_volume   1533.39091071
_cell_formula_units_Z   1
loop_
 _symmetry_equiv_pos_site_id
 _symmetry_equiv_pos_as_xyz
  1  'x, y, z'
loop_
 _atom_site_type_symbol
 _atom_site_label
 _atom_site_symmetry_multiplicity
 _atom_site_fract_x
 _atom_site_fract_y
 _atom_site_fract_z
 _atom_site_occupancy
  Ba  Ba0  1  0.72360400  0.88810600  0.61171000  1
  Ba  Ba1  1  0.55822200  0.93228600  0.49050800  1
  Ba  Ba2  1  0.64946600  0.34212800  0.99159400  1
  Ba  Ba3  1  0.18908300  0.26775700  0.45684000  1
  Ba  Ba4  1  0.26775700  0.81091700  0.07867300  1
  Ba  Ba5  1  0.06771400  0.55822200  0.62593600  1
  Ba  Ba6  1  0.11189400  0.72360400  0.83549700  1
  Ba  Ba7  1  0.65787200  0.64946600  0.30733800  1
  Ba  Ba8  1  0.88810600  0.27639600  0.16450300  1
  Ba  Ba9  1  0.34212800  0.35053400  0.69266200  1
  Ba  Ba10  1  0.73224300  0.18908300  0.92132700  1
  Ba  Ba11  1  0.44177800  0.06771400  0.50949200  1
  Ba  Ba12  1  0.81091700  0.73224300  0.54316000  1
  Ba  Ba13  1  0.35053400  0.65787200  0.00840600  1
  Ba  Ba14  1  0.93228600  0.44177800  0.37406400  1
  Ba  Ba15  1  0.00000000  0.00000000  0.00000000  1
  Ba  Ba16  1  0.27639600  0.11189400  0.38829000  1
  Ho  Ho17  1  0.50624500  0.25072100  0.75696600  1
  Ho  Ho18  1  0.05222800  0.17184700  0.22407500  1
  Ho  Ho19  1  0.95039300  0.67409500  0.62448800  1
  Ho  Ho20  1  0.94777200  0.82815300  0.77592500  1
  Ho  Ho21  1  0.48854600  0.59954000  0.08808600  1
  Ho  Ho22  1  0.67409500  0.04960700  0.72370200  1
  Ho  Ho23  1  0.40046000  0.48854600  0.88900600  1
  Ho  Ho24  1  0.25072100  0.49375500  0.74447600  1
  Ho  Ho25  1  0.04960700  0.32590500  0.37551200  1
  Ho  Ho26  1  0.17184700  0.94777200  0.11961900  1
  Ho  Ho27  1  0.59954000  0.51145400  0.11099400  1
  Ho  Ho28  1  0.51145400  0.40046000  0.91191400  1
  Ho  Ho29  1  0.49375500  0.74927900  0.24303400  1
  Ho  Ho30  1  0.74927900  0.50624500  0.25552400  1
  Ho  Ho31  1  0.32590500  0.95039300  0.27629800  1
  Ho  Ho32  1  0.82815300  0.05222800  0.88038100  1
  Zn  Zn33  1  0.37941800  0.21224900  0.59166700  1
  Zn  Zn34  1  0.78775100  0.37941800  0.16717000  1
  Zn  Zn35  1  0.07561000  0.86667700  0.94228700  1
  Zn  Zn36  1  0.86667700  0.92439000  0.79106600  1
  Zn  Zn37  1  0.62058200  0.78775100  0.40833300  1
  Zn  Zn38  1  0.13332300  0.07561000  0.20893400  1
  Zn  Zn39  1  0.92439000  0.13332300  0.05771300  1
  Zn  Zn40  1  0.21224900  0.62058200  0.83283000  1
  Pt  Pt41  1  0.41726100  0.85567700  0.27293800  1
  Pt  Pt42  1  0.58273900  0.14432300  0.72706200  1
  Pt  Pt43  1  0.14432300  0.41726100  0.56158300  1
  Pt  Pt44  1  0.85567700  0.58273900  0.43841700  1
  O  O45  1  0.76058900  0.29899300  0.05958200  1
  O  O46  1  0.60762000  0.23137800  0.83899800  1
  O  O47  1  0.76355300  0.40922300  0.68938500  1
  O  O48  1  0.28016200  0.92583200  0.68938500  1
  O  O49  1  0.07382100  0.22204400  0.79705700  1
  O  O50  1  0.05478900  0.43521200  0.49000100  1
  O  O51  1  0.23137800  0.39238000  0.62375800  1
  O  O52  1  0.88808300  0.36691000  0.76735500  1
  O  O53  1  0.39238000  0.76862200  0.16100200  1
  O  O54  1  0.00061000  0.31935600  0.82394800  1
  O  O55  1  0.15927400  0.15753400  0.31680800  1
  O  O56  1  0.76862200  0.60762000  0.37624200  1
  O  O57  1  0.71983800  0.07416800  0.31061500  1
  O  O58  1  0.16134000  0.31621900  0.97547000  1
  O  O59  1  0.92617900  0.77795600  0.20294300  1
  O  O60  1  0.81413000  0.83866000  0.15487900  1
  O  O61  1  0.29899300  0.23941100  0.53840400  1
  O  O62  1  0.22204400  0.42498700  0.14822300  1
  O  O63  1  0.68378100  0.65925100  0.84512100  1
  O  O64  1  0.70100700  0.76058900  0.46159600  1
  O  O65  1  0.84072600  0.84246600  0.68319200  1
  O  O66  1  0.83866000  0.68378100  0.02453000  1
  O  O67  1  0.56478800  0.05478900  0.61957800  1
  O  O68  1  0.15753400  0.84072600  0.99826000  1
  O  O69  1  0.59077700  0.28016200  0.35433000  1
  O  O70  1  0.23644700  0.59077700  0.31061500  1
  O  O71  1  0.49540700  0.17666100  0.17605200  1
  O  O72  1  0.07416800  0.76355300  0.35433000  1
  O  O73  1  0.65925100  0.81413000  0.97547000  1
  O  O74  1  0.31935600  0.49540700  0.31874600  1
  O  O75  1  0.59955500  0.12072900  0.23264500  1
  O  O76  1  0.99939000  0.68064400  0.17605200  1
  O  O77  1  0.31621900  0.34074900  0.15487900  1
  O  O78  1  0.57501300  0.72323600  0.79705700  1
  O  O79  1  0.68064400  0.50459300  0.68125400  1
  O  O80  1  0.43521200  0.94521100  0.38042200  1
  O  O81  1  0.50459300  0.82333900  0.82394800  1
  O  O82  1  0.82333900  0.99939000  0.31874600  1
  O  O83  1  0.77795600  0.57501300  0.85177700  1
  O  O84  1  0.87927100  0.11191700  0.47882600  1
  O  O85  1  0.50000000  0.50000000  0.00000000  1
  O  O86  1  0.40044500  0.87927100  0.76735500  1
  O  O87  1  0.12072900  0.88808300  0.52117400  1
  O  O88  1  0.34074900  0.18587000  0.02453000  1
  O  O89  1  0.11191700  0.63309000  0.23264500  1
  O  O90  1  0.23941100  0.70100700  0.94041800  1
  O  O91  1  0.42498700  0.27676400  0.20294300  1
  O  O92  1  0.63309000  0.40044500  0.52117400  1
  O  O93  1  0.18587000  0.16134000  0.84512100  1
  O  O94  1  0.36691000  0.59955500  0.47882600  1
  O  O95  1  0.17666100  0.00061000  0.68125400  1
  O  O96  1  0.84246600  0.15927400  0.00174000  1
  O  O97  1  0.40922300  0.71983800  0.64567000  1
  O  O98  1  0.72323600  0.92617900  0.14822300  1
  O  O99  1  0.94521100  0.56478800  0.50999900  1
  O  O100  1  0.92583200  0.23644700  0.64567000  1
  O  O101  1  0.27676400  0.07382100  0.85177700  1
