# generated using pymatgen
data_Ba7Ca2Mn3V2O20
_symmetry_space_group_name_H-M   'P 1'
_cell_length_a   17.70297470
_cell_length_b   17.70297491
_cell_length_c   17.70297502
_cell_angle_alpha   19.23036361
_cell_angle_beta   19.23036214
_cell_angle_gamma   19.23036466
_symmetry_Int_Tables_number   1
_chemical_formula_structural   Ba7Ca2Mn3V2O20
_chemical_formula_sum   'Ba7 Ca2 Mn3 V2 O20'
_cell_volume   526.12227227
_cell_formula_units_Z   1
loop_
 _symmetry_equiv_pos_site_id
 _symmetry_equiv_pos_as_xyz
  1  'x, y, z'
loop_
 _atom_site_type_symbol
 _atom_site_label
 _atom_site_symmetry_multiplicity
 _atom_site_fract_x
 _atom_site_fract_y
 _atom_site_fract_z
 _atom_site_occupancy
  Ba  Ba0  1  0.61166900  0.61166900  0.61166900  1
  Ba  Ba1  1  0.38833100  0.38833100  0.38833100  1
  Ba  Ba2  1  0.85410300  0.85410300  0.85410300  1
  Ba  Ba3  1  0.00000000  0.00000000  0.00000000  1
  Ba  Ba4  1  0.14589700  0.14589700  0.14589700  1
  Ba  Ba5  1  0.77389600  0.77389600  0.77389600  1
  Ba  Ba6  1  0.22610400  0.22610400  0.22610400  1
  Ca  Ca7  1  0.07465000  0.07465000  0.07465000  1
  Ca  Ca8  1  0.92535000  0.92535000  0.92535000  1
  Mn  Mn9  1  0.45055600  0.45055600  0.45055600  1
  Mn  Mn10  1  0.54944400  0.54944400  0.54944400  1
  Mn  Mn11  1  0.50000000  0.50000000  0.50000000  1
  V  V12  1  0.69705200  0.69705200  0.69705200  1
  V  V13  1  0.30294800  0.30294800  0.30294800  1
  O  O14  1  0.18500300  0.62255300  0.62255300  1
  O  O15  1  0.26333100  0.72190500  0.72190500  1
  O  O16  1  0.66435800  0.66435800  0.66435800  1
  O  O17  1  0.27809500  0.27809500  0.73666900  1
  O  O18  1  0.38954100  0.86827400  0.86827400  1
  O  O19  1  0.61045900  0.13172600  0.13172600  1
  O  O20  1  0.62255300  0.62255300  0.18500300  1
  O  O21  1  0.13172600  0.61045900  0.13172600  1
  O  O22  1  0.33564200  0.33564200  0.33564200  1
  O  O23  1  0.86827400  0.86827400  0.38954100  1
  O  O24  1  0.27809500  0.73666900  0.27809500  1
  O  O25  1  0.72190500  0.26333100  0.72190500  1
  O  O26  1  0.73666900  0.27809500  0.27809500  1
  O  O27  1  0.13172600  0.13172600  0.61045900  1
  O  O28  1  0.37744700  0.81499700  0.37744700  1
  O  O29  1  0.81499700  0.37744700  0.37744700  1
  O  O30  1  0.37744700  0.37744700  0.81499700  1
  O  O31  1  0.72190500  0.72190500  0.26333100  1
  O  O32  1  0.86827400  0.38954100  0.86827400  1
  O  O33  1  0.62255300  0.18500300  0.62255300  1
