# generated using pymatgen
data_NaCa9Ti9Nb(SiO5)10
_symmetry_space_group_name_H-M   'P 1'
_cell_length_a   5.51076100
_cell_length_b   7.52867624
_cell_length_c   24.46712669
_cell_angle_alpha   98.10317273
_cell_angle_beta   88.03742568
_cell_angle_gamma   107.47956836
_symmetry_Int_Tables_number   1
_chemical_formula_structural   NaCa9Ti9Nb(SiO5)10
_chemical_formula_sum   'Na1 Ca9 Ti9 Nb1 Si10 O50'
_cell_volume   958.53433432
_cell_formula_units_Z   1
loop_
 _symmetry_equiv_pos_site_id
 _symmetry_equiv_pos_as_xyz
  1  'x, y, z'
loop_
 _atom_site_type_symbol
 _atom_site_label
 _atom_site_symmetry_multiplicity
 _atom_site_fract_x
 _atom_site_fract_y
 _atom_site_fract_z
 _atom_site_occupancy
  Na  Na0  1  0.21832800  0.39481200  0.81478400  1
  Ca  Ca1  1  0.81173600  0.98396400  0.61415200  1
  Ca  Ca2  1  0.40962600  0.58115700  0.41524600  1
  Ca  Ca3  1  0.38942300  0.21632800  0.98487100  1
  Ca  Ca4  1  0.00990100  0.18120700  0.21571500  1
  Ca  Ca5  1  0.98021300  0.80429600  0.78728000  1
  Ca  Ca6  1  0.60949700  0.78139000  0.01624800  1
  Ca  Ca7  1  0.59100000  0.41937900  0.58326700  1
  Ca  Ca8  1  0.19076400  0.01875100  0.38372200  1
  Ca  Ca9  1  0.79101300  0.61868500  0.18429300  1
  Ti  Ti10  1  0.29592200  0.79261400  0.90045600  1
  Ti  Ti11  1  0.90885100  0.40861400  0.69704800  1
  Ti  Ti12  1  0.50157300  0.00312900  0.49769500  1
  Ti  Ti13  1  0.20688600  0.70630100  0.59774400  1
  Ti  Ti14  1  0.10054900  0.60205800  0.29875800  1
  Ti  Ti15  1  0.80513800  0.30375200  0.39883200  1
  Ti  Ti16  1  0.69924900  0.20069400  0.09982900  1
  Ti  Ti17  1  0.40373300  0.90244300  0.19969300  1
  Ti  Ti18  1  0.00122400  0.49851000  0.00060400  1
  Nb  Nb19  1  0.60566900  0.10845500  0.80076100  1
  Si  Si20  1  0.89414900  0.07276000  0.91634400  1
  Si  Si21  1  0.49829300  0.67757000  0.71226900  1
  Si  Si22  1  0.70207400  0.52703900  0.88834000  1
  Si  Si23  1  0.09784300  0.27809200  0.51320500  1
  Si  Si24  1  0.30455600  0.12227500  0.68453500  1
  Si  Si25  1  0.69697000  0.87727700  0.31392700  1
  Si  Si26  1  0.90287300  0.72262000  0.48515500  1
  Si  Si27  1  0.29631100  0.47662700  0.11472900  1
  Si  Si28  1  0.50216200  0.32181300  0.28609600  1
  Si  Si29  1  0.10141000  0.92096300  0.08676900  1
  O  O30  1  0.52399900  0.64929200  0.87066400  1
  O  O31  1  0.24356100  0.67341000  0.96479400  1
  O  O32  1  0.12336600  0.24596100  0.66838400  1
  O  O33  1  0.03675000  0.28954400  0.94528300  1
  O  O34  1  0.87869700  0.06286500  0.84833500  1
  O  O35  1  0.98695300  0.61117700  0.86255400  1
  O  O36  1  0.85013900  0.28141500  0.76342100  1
  O  O37  1  0.72099800  0.84420900  0.46762400  1
  O  O38  1  0.65091100  0.89021400  0.74332300  1
  O  O39  1  0.60532700  0.99225800  0.94139100  1
  O  O40  1  0.49348000  0.68076800  0.64480400  1
  O  O41  1  0.70963700  0.52396000  0.95570200  1
  O  O42  1  0.59294200  0.20528900  0.65965600  1
  O  O43  1  0.56285200  0.30870800  0.85975800  1
  O  O44  1  0.44804600  0.87649800  0.56238800  1
  O  O45  1  0.31994100  0.44340600  0.26873400  1
  O  O46  1  0.34439100  0.91974700  0.83749700  1
  O  O47  1  0.24456300  0.49343700  0.54227700  1
  O  O48  1  0.20669500  0.60331500  0.73589800  1
  O  O49  1  0.08905400  0.27622600  0.44555900  1
  O  O50  1  0.31340900  0.11446500  0.75180800  1
  O  O51  1  0.19071600  0.80611400  0.45976400  1
  O  O52  1  0.15676100  0.90861100  0.65403800  1
  O  O53  1  0.04561000  0.47683500  0.36371200  1
  O  O54  1  0.91953900  0.04332400  0.06963400  1
  O  O55  1  0.07888900  0.95454500  0.93410900  1
  O  O56  1  0.95474300  0.52155300  0.63452900  1
  O  O57  1  0.84277700  0.09279400  0.34312200  1
  O  O58  1  0.80923500  0.19467100  0.53834700  1
  O  O59  1  0.68852200  0.87572600  0.24628900  1
  O  O60  1  0.91301200  0.72459600  0.55275900  1
  O  O61  1  0.79003900  0.40535900  0.26074100  1
  O  O62  1  0.75613700  0.50660900  0.45632800  1
  O  O63  1  0.64478500  0.07647000  0.16456800  1
  O  O64  1  0.67607600  0.55259900  0.72938100  1
  O  O65  1  0.55288200  0.12277000  0.43587300  1
  O  O66  1  0.44222300  0.69235500  0.14384200  1
  O  O67  1  0.40872000  0.79375200  0.33915900  1
  O  O68  1  0.28704700  0.47469500  0.04709900  1
  O  O69  1  0.51171100  0.32381700  0.35373600  1
  O  O70  1  0.38967900  0.00497000  0.06164200  1
  O  O71  1  0.35528700  0.10589600  0.25717100  1
  O  O72  1  0.27856300  0.15565200  0.53098600  1
  O  O73  1  0.15272700  0.72195100  0.23671500  1
  O  O74  1  0.00815700  0.39325100  0.14004500  1
  O  O75  1  0.11097400  0.92287100  0.15446400  1
  O  O76  1  0.95527000  0.70554600  0.05770900  1
  O  O77  1  0.87862600  0.75555100  0.33160200  1
  O  O78  1  0.75083400  0.32230300  0.03783900  1
  O  O79  1  0.47782100  0.35508200  0.13257900  1
