# generated using pymatgen
data_La9(SbO)5
_symmetry_space_group_name_H-M   'P 1'
_cell_length_a   10.47311800
_cell_length_b   10.47311800
_cell_length_c   9.39782100
_cell_angle_alpha   90.00000000
_cell_angle_beta   90.00000000
_cell_angle_gamma   90.00000000
_symmetry_Int_Tables_number   1
_chemical_formula_structural   La9(SbO)5
_chemical_formula_sum   'La18 Sb10 O10'
_cell_volume   1030.81127980
_cell_formula_units_Z   2
loop_
 _symmetry_equiv_pos_site_id
 _symmetry_equiv_pos_as_xyz
  1  'x, y, z'
loop_
 _atom_site_type_symbol
 _atom_site_label
 _atom_site_symmetry_multiplicity
 _atom_site_fract_x
 _atom_site_fract_y
 _atom_site_fract_z
 _atom_site_occupancy
  La  La0  1  0.00000000  0.50000000  0.32937300  1
  La  La1  1  0.50000000  0.00000000  0.67062700  1
  La  La2  1  0.79634300  0.10356600  0.34360300  1
  La  La3  1  0.60356600  0.70365700  0.34360300  1
  La  La4  1  0.39643400  0.29634300  0.34360300  1
  La  La5  1  0.20365700  0.89643400  0.34360300  1
  La  La6  1  0.70365700  0.39643400  0.65639700  1
  La  La7  1  0.89643400  0.79634300  0.65639700  1
  La  La8  1  0.10356600  0.20365700  0.65639700  1
  La  La9  1  0.29634300  0.60356600  0.65639700  1
  La  La10  1  0.08067200  0.72789400  0.99792900  1
  La  La11  1  0.22789400  0.41932800  0.99792900  1
  La  La12  1  0.77210600  0.58067200  0.99792900  1
  La  La13  1  0.91932800  0.27210600  0.99792900  1
  La  La14  1  0.41932800  0.77210600  0.00207100  1
  La  La15  1  0.27210600  0.08067200  0.00207100  1
  La  La16  1  0.72789400  0.91932800  0.00207100  1
  La  La17  1  0.58067200  0.22789400  0.00207100  1
  Sb  Sb18  1  0.00000000  0.50000000  0.69000500  1
  Sb  Sb19  1  0.50000000  0.00000000  0.30999500  1
  Sb  Sb20  1  0.69737600  0.40256600  0.29834400  1
  Sb  Sb21  1  0.90256600  0.80262400  0.29834400  1
  Sb  Sb22  1  0.09743400  0.19737600  0.29834400  1
  Sb  Sb23  1  0.30262400  0.59743400  0.29834400  1
  Sb  Sb24  1  0.80262400  0.09743400  0.70165600  1
  Sb  Sb25  1  0.59743400  0.69737600  0.70165600  1
  Sb  Sb26  1  0.40256600  0.30262400  0.70165600  1
  Sb  Sb27  1  0.19737600  0.90256600  0.70165600  1
  O  O28  1  0.00000000  0.50000000  0.07240900  1
  O  O29  1  0.50000000  0.00000000  0.92759100  1
  O  O30  1  0.87916500  0.77605800  0.90919500  1
  O  O31  1  0.27605800  0.62083500  0.90919500  1
  O  O32  1  0.72394200  0.37916500  0.90919500  1
  O  O33  1  0.12083500  0.22394200  0.90919500  1
  O  O34  1  0.62083500  0.72394200  0.09080500  1
  O  O35  1  0.22394200  0.87916500  0.09080500  1
  O  O36  1  0.77605800  0.12083500  0.09080500  1
  O  O37  1  0.37916500  0.27605800  0.09080500  1
