# generated using pymatgen
data_Pr3SbO7
_symmetry_space_group_name_H-M   'P 1'
_cell_length_a   6.73327252
_cell_length_b   6.73327252
_cell_length_c   7.77662500
_cell_angle_alpha   90.00000000
_cell_angle_beta   90.00000000
_cell_angle_gamma   110.54244644
_symmetry_Int_Tables_number   1
_chemical_formula_structural   Pr3SbO7
_chemical_formula_sum   'Pr6 Sb2 O14'
_cell_volume   330.14957189
_cell_formula_units_Z   2
loop_
 _symmetry_equiv_pos_site_id
 _symmetry_equiv_pos_as_xyz
  1  'x, y, z'
loop_
 _atom_site_type_symbol
 _atom_site_label
 _atom_site_symmetry_multiplicity
 _atom_site_fract_x
 _atom_site_fract_y
 _atom_site_fract_z
 _atom_site_occupancy
  Pr  Pr0  1  0.48141000  0.93526700  0.75000000  1
  Pr  Pr1  1  0.51859000  0.06473300  0.25000000  1
  Pr  Pr2  1  0.93526700  0.48141000  0.75000000  1
  Pr  Pr3  1  0.06473300  0.51859000  0.25000000  1
  Pr  Pr4  1  0.00000000  0.00000000  0.50000000  1
  Pr  Pr5  1  0.00000000  0.00000000  0.00000000  1
  Sb  Sb6  1  0.50000000  0.50000000  0.50000000  1
  Sb  Sb7  1  0.50000000  0.50000000  0.00000000  1
  O  O8  1  0.57939700  0.57939700  0.75000000  1
  O  O9  1  0.42060300  0.42060300  0.25000000  1
  O  O10  1  0.84835400  0.11206500  0.75000000  1
  O  O11  1  0.15164600  0.88793500  0.25000000  1
  O  O12  1  0.11206500  0.84835400  0.75000000  1
  O  O13  1  0.88793500  0.15164600  0.25000000  1
  O  O14  1  0.44004900  0.18840900  0.96691700  1
  O  O15  1  0.55995100  0.81159100  0.46691700  1
  O  O16  1  0.18840900  0.44004900  0.96691700  1
  O  O17  1  0.81159100  0.55995100  0.46691700  1
  O  O18  1  0.44004900  0.18840900  0.53308300  1
  O  O19  1  0.55995100  0.81159100  0.03308300  1
  O  O20  1  0.81159100  0.55995100  0.03308300  1
  O  O21  1  0.18840900  0.44004900  0.53308300  1
