# generated using pymatgen
data_K5Tl3O
_symmetry_space_group_name_H-M   'P 1'
_cell_length_a   17.32315086
_cell_length_b   17.32315086
_cell_length_c   8.97190400
_cell_angle_alpha   90.00000000
_cell_angle_beta   90.00000000
_cell_angle_gamma   151.64847001
_symmetry_Int_Tables_number   1
_chemical_formula_structural   K5Tl3O
_chemical_formula_sum   'K20 Tl12 O4'
_cell_volume   1278.56311647
_cell_formula_units_Z   4
loop_
 _symmetry_equiv_pos_site_id
 _symmetry_equiv_pos_as_xyz
  1  'x, y, z'
loop_
 _atom_site_type_symbol
 _atom_site_label
 _atom_site_symmetry_multiplicity
 _atom_site_fract_x
 _atom_site_fract_y
 _atom_site_fract_z
 _atom_site_occupancy
  K  K0  1  0.50917000  0.04457500  0.75000000  1
  K  K1  1  0.68015400  0.31984600  0.46743000  1
  K  K2  1  0.44985300  0.55014700  0.53239800  1
  K  K3  1  0.04457500  0.50917000  0.25000000  1
  K  K4  1  0.37861500  0.12469400  0.75000000  1
  K  K5  1  0.21001600  0.19639400  0.75000000  1
  K  K6  1  0.44985300  0.55014700  0.96760200  1
  K  K7  1  0.78998400  0.80360600  0.25000000  1
  K  K8  1  0.55014700  0.44985300  0.46760200  1
  K  K9  1  0.31984600  0.68015400  0.53257000  1
  K  K10  1  0.49083000  0.95542500  0.25000000  1
  K  K11  1  0.95542500  0.49083000  0.75000000  1
  K  K12  1  0.31984600  0.68015400  0.96743000  1
  K  K13  1  0.87530600  0.62138500  0.75000000  1
  K  K14  1  0.55014700  0.44985300  0.03239800  1
  K  K15  1  0.12469400  0.37861500  0.25000000  1
  K  K16  1  0.62138500  0.87530600  0.25000000  1
  K  K17  1  0.68015400  0.31984600  0.03257000  1
  K  K18  1  0.80360600  0.78998400  0.75000000  1
  K  K19  1  0.19639400  0.21001600  0.25000000  1
  Tl  Tl20  1  0.81534700  0.18465300  0.94502100  1
  Tl  Tl21  1  0.07595400  0.92404600  0.03710300  1
  Tl  Tl22  1  0.08645100  0.33821100  0.75000000  1
  Tl  Tl23  1  0.91354900  0.66178900  0.25000000  1
  Tl  Tl24  1  0.66178900  0.91354900  0.75000000  1
  Tl  Tl25  1  0.92404600  0.07595400  0.96289700  1
  Tl  Tl26  1  0.07595400  0.92404600  0.46289700  1
  Tl  Tl27  1  0.18465300  0.81534700  0.44502100  1
  Tl  Tl28  1  0.33821100  0.08645100  0.25000000  1
  Tl  Tl29  1  0.18465300  0.81534700  0.05497900  1
  Tl  Tl30  1  0.81534700  0.18465300  0.55497900  1
  Tl  Tl31  1  0.92404600  0.07595400  0.53710300  1
  O  O32  1  0.51216100  0.48783900  0.75000000  1
  O  O33  1  0.48783900  0.51216100  0.25000000  1
  O  O34  1  0.67539700  0.32460300  0.75000000  1
  O  O35  1  0.32460300  0.67539700  0.25000000  1
