# generated using pymatgen
data_YNi3
_symmetry_space_group_name_H-M   'P 1'
_cell_length_a   8.61652996
_cell_length_b   8.61652996
_cell_length_c   8.61653007
_cell_angle_alpha   33.51035190
_cell_angle_beta   33.51035190
_cell_angle_gamma   33.51034998
_symmetry_Int_Tables_number   1
_chemical_formula_structural   YNi3
_chemical_formula_sum   'Y3 Ni9'
_cell_volume   173.66914261
_cell_formula_units_Z   3
loop_
 _symmetry_equiv_pos_site_id
 _symmetry_equiv_pos_as_xyz
  1  'x, y, z'
loop_
 _atom_site_type_symbol
 _atom_site_label
 _atom_site_symmetry_multiplicity
 _atom_site_fract_x
 _atom_site_fract_y
 _atom_site_fract_z
 _atom_site_occupancy
  Y  Y0  1  0.86132900  0.86132900  0.86132900  1
  Y  Y1  1  0.13867100  0.13867100  0.13867100  1
  Y  Y2  1  0.00000000  0.00000000  0.00000000  1
  Ni  Ni3  1  0.41788200  0.41788200  0.91905500  1
  Ni  Ni4  1  0.91905500  0.41788200  0.41788200  1
  Ni  Ni5  1  0.50000000  0.50000000  0.50000000  1
  Ni  Ni6  1  0.58211800  0.08094500  0.58211800  1
  Ni  Ni7  1  0.58211800  0.58211800  0.08094500  1
  Ni  Ni8  1  0.33324300  0.33324300  0.33324300  1
  Ni  Ni9  1  0.41788200  0.91905500  0.41788200  1
  Ni  Ni10  1  0.66675700  0.66675700  0.66675700  1
  Ni  Ni11  1  0.08094500  0.58211800  0.58211800  1
