# generated using pymatgen
data_K2Na3InO4
_symmetry_space_group_name_H-M   'P 1'
_cell_length_a   7.63954200
_cell_length_b   9.38156300
_cell_length_c   9.65842300
_cell_angle_alpha   90.00000000
_cell_angle_beta   90.00000000
_cell_angle_gamma   90.00000000
_symmetry_Int_Tables_number   1
_chemical_formula_structural   K2Na3InO4
_chemical_formula_sum   'K8 Na12 In4 O16'
_cell_volume   692.22733357
_cell_formula_units_Z   4
loop_
 _symmetry_equiv_pos_site_id
 _symmetry_equiv_pos_as_xyz
  1  'x, y, z'
loop_
 _atom_site_type_symbol
 _atom_site_label
 _atom_site_symmetry_multiplicity
 _atom_site_fract_x
 _atom_site_fract_y
 _atom_site_fract_z
 _atom_site_occupancy
  K  K0  1  0.00000000  0.23114900  0.26438400  1
  K  K1  1  0.00000000  0.76885100  0.73561600  1
  K  K2  1  0.50000000  0.73114900  0.23561600  1
  K  K3  1  0.50000000  0.26885100  0.76438400  1
  K  K4  1  0.74595000  0.00000000  0.50000000  1
  K  K5  1  0.75405000  0.50000000  0.00000000  1
  K  K6  1  0.25405000  0.00000000  0.50000000  1
  K  K7  1  0.24595000  0.50000000  0.00000000  1
  Na  Na8  1  0.75203900  0.48176800  0.34976300  1
  Na  Na9  1  0.75203900  0.51823200  0.65023700  1
  Na  Na10  1  0.74796100  0.98176800  0.15023700  1
  Na  Na11  1  0.74796100  0.01823200  0.84976300  1
  Na  Na12  1  0.24796100  0.51823200  0.65023700  1
  Na  Na13  1  0.24796100  0.48176800  0.34976300  1
  Na  Na14  1  0.25203900  0.01823200  0.84976300  1
  Na  Na15  1  0.25203900  0.98176800  0.15023700  1
  Na  Na16  1  0.00000000  0.23747500  0.92632500  1
  Na  Na17  1  0.00000000  0.76252500  0.07367500  1
  Na  Na18  1  0.50000000  0.73747500  0.57367500  1
  Na  Na19  1  0.50000000  0.26252500  0.42632500  1
  In  In20  1  0.50000000  0.77226200  0.87082200  1
  In  In21  1  0.50000000  0.22773800  0.12917800  1
  In  In22  1  0.00000000  0.27226200  0.62917800  1
  In  In23  1  0.00000000  0.72773800  0.37082200  1
  O  O24  1  0.50000000  0.56895700  0.77638200  1
  O  O25  1  0.50000000  0.43104300  0.22361800  1
  O  O26  1  0.00000000  0.06895700  0.72361800  1
  O  O27  1  0.00000000  0.93104300  0.27638200  1
  O  O28  1  0.76734600  0.30051600  0.51771800  1
  O  O29  1  0.76734600  0.69948400  0.48228200  1
  O  O30  1  0.73265400  0.80051600  0.98228200  1
  O  O31  1  0.73265400  0.19948400  0.01771800  1
  O  O32  1  0.23265400  0.69948400  0.48228200  1
  O  O33  1  0.23265400  0.30051600  0.51771800  1
  O  O34  1  0.26734600  0.19948400  0.01771800  1
  O  O35  1  0.26734600  0.80051600  0.98228200  1
  O  O36  1  0.00000000  0.44126400  0.77865000  1
  O  O37  1  0.00000000  0.55873600  0.22135000  1
  O  O38  1  0.50000000  0.94126400  0.72135000  1
  O  O39  1  0.50000000  0.05873600  0.27865000  1
