# generated using pymatgen
data_Fe2Cu3(SeO3)6
_symmetry_space_group_name_H-M   'P 1'
_cell_length_a   7.73596415
_cell_length_b   8.38731300
_cell_length_c   12.64243376
_cell_angle_alpha   90.00000000
_cell_angle_beta   96.00092709
_cell_angle_gamma   90.00000000
_symmetry_Int_Tables_number   1
_chemical_formula_structural   Fe2Cu3(SeO3)6
_chemical_formula_sum   'Fe4 Cu6 Se12 O36'
_cell_volume   815.79604611
_cell_formula_units_Z   2
loop_
 _symmetry_equiv_pos_site_id
 _symmetry_equiv_pos_as_xyz
  1  'x, y, z'
loop_
 _atom_site_type_symbol
 _atom_site_label
 _atom_site_symmetry_multiplicity
 _atom_site_fract_x
 _atom_site_fract_y
 _atom_site_fract_z
 _atom_site_occupancy
  Fe  Fe0  1  0.86514900  0.99482400  0.17580800  1
  Fe  Fe1  1  0.36514900  0.50517600  0.17580800  1
  Fe  Fe2  1  0.63485100  0.49482400  0.82419200  1
  Fe  Fe3  1  0.13485100  0.00517600  0.82419200  1
  Cu  Cu4  1  0.63329400  0.37295300  0.38144800  1
  Cu  Cu5  1  0.86670600  0.87295300  0.61855200  1
  Cu  Cu6  1  0.13329400  0.12704700  0.38144800  1
  Cu  Cu7  1  0.50000000  0.00000000  0.50000000  1
  Cu  Cu8  1  0.36670600  0.62704700  0.61855200  1
  Cu  Cu9  1  0.00000000  0.50000000  0.50000000  1
  Se  Se10  1  0.19109000  0.19091500  0.60646300  1
  Se  Se11  1  0.69109000  0.30908500  0.60646300  1
  Se  Se12  1  0.13556000  0.80141300  0.04380400  1
  Se  Se13  1  0.36444000  0.30141300  0.95619600  1
  Se  Se14  1  0.44439600  0.10018600  0.21698700  1
  Se  Se15  1  0.86444000  0.19858700  0.95619600  1
  Se  Se16  1  0.30891000  0.69091500  0.39353700  1
  Se  Se17  1  0.80891000  0.80908500  0.39353700  1
  Se  Se18  1  0.63556000  0.69858700  0.04380400  1
  Se  Se19  1  0.94439600  0.39981400  0.21698700  1
  Se  Se20  1  0.05560400  0.60018600  0.78301300  1
  Se  Se21  1  0.55560400  0.89981400  0.78301300  1
  O  O22  1  0.45042200  0.76880900  0.50256000  1
  O  O23  1  0.54957800  0.23119100  0.49744000  1
  O  O24  1  0.96045200  0.90303600  0.32653100  1
  O  O25  1  0.30653900  0.73001700  0.13002100  1
  O  O26  1  0.25025300  0.04153500  0.51579100  1
  O  O27  1  0.15748100  0.53246600  0.67672600  1
  O  O28  1  0.58937100  0.52783200  0.11292500  1
  O  O29  1  0.41062900  0.47216800  0.88707500  1
  O  O30  1  0.04957800  0.26880900  0.49744000  1
  O  O31  1  0.08937100  0.97216800  0.11292500  1
  O  O32  1  0.19346100  0.23001700  0.86998000  1
  O  O33  1  0.48747600  0.30267500  0.25409100  1
  O  O34  1  0.01252400  0.80267500  0.74590900  1
  O  O35  1  0.85571400  0.51547800  0.74741600  1
  O  O36  1  0.25180000  0.88409000  0.94557300  1
  O  O37  1  0.75025300  0.45846500  0.51579100  1
  O  O38  1  0.80653900  0.76998300  0.13002100  1
  O  O39  1  0.24820000  0.38409000  0.05442700  1
  O  O40  1  0.65748100  0.96753400  0.67672600  1
  O  O41  1  0.24974700  0.54153500  0.48420900  1
  O  O42  1  0.74820000  0.11591000  0.05442700  1
  O  O43  1  0.95042200  0.73119100  0.50256000  1
  O  O44  1  0.14428600  0.48452200  0.25258400  1
  O  O45  1  0.84251900  0.46753400  0.32327400  1
  O  O46  1  0.34251900  0.03246600  0.32327400  1
  O  O47  1  0.69346100  0.26998300  0.86998000  1
  O  O48  1  0.74974700  0.95846500  0.48420900  1
  O  O49  1  0.03954800  0.09696400  0.67346900  1
  O  O50  1  0.75180000  0.61591000  0.94557300  1
  O  O51  1  0.51252400  0.69732500  0.74590900  1
  O  O52  1  0.98747600  0.19732500  0.25409100  1
  O  O53  1  0.46045200  0.59696400  0.32653100  1
  O  O54  1  0.91062900  0.02783200  0.88707500  1
  O  O55  1  0.64428600  0.01547800  0.25258400  1
  O  O56  1  0.53954800  0.40303600  0.67346900  1
  O  O57  1  0.35571400  0.98452200  0.74741600  1
