# generated using pymatgen
data_V2Hg2O7
_symmetry_space_group_name_H-M   'P 1'
_cell_length_a   3.69435200
_cell_length_b   7.30931800
_cell_length_c   21.88872300
_cell_angle_alpha   90.00000000
_cell_angle_beta   90.00000000
_cell_angle_gamma   90.00000000
_symmetry_Int_Tables_number   1
_chemical_formula_structural   V2Hg2O7
_chemical_formula_sum   'V8 Hg8 O28'
_cell_volume   591.06542421
_cell_formula_units_Z   4
loop_
 _symmetry_equiv_pos_site_id
 _symmetry_equiv_pos_as_xyz
  1  'x, y, z'
loop_
 _atom_site_type_symbol
 _atom_site_label
 _atom_site_symmetry_multiplicity
 _atom_site_fract_x
 _atom_site_fract_y
 _atom_site_fract_z
 _atom_site_occupancy
  V  V0  1  0.75000000  0.02299900  0.88085700  1
  V  V1  1  0.75000000  0.52299900  0.61914300  1
  V  V2  1  0.25000000  0.97700100  0.11914300  1
  V  V3  1  0.25000000  0.47700100  0.38085700  1
  V  V4  1  0.25000000  0.19654700  0.98043200  1
  V  V5  1  0.25000000  0.69654700  0.51956800  1
  V  V6  1  0.75000000  0.80345300  0.01956800  1
  V  V7  1  0.75000000  0.30345300  0.48043200  1
  Hg  Hg8  1  0.25000000  0.27203400  0.75357600  1
  Hg  Hg9  1  0.25000000  0.77203400  0.74642400  1
  Hg  Hg10  1  0.75000000  0.72796600  0.24642400  1
  Hg  Hg11  1  0.75000000  0.22796600  0.25357600  1
  Hg  Hg12  1  0.25000000  0.46568900  0.12851200  1
  Hg  Hg13  1  0.25000000  0.96568900  0.37148800  1
  Hg  Hg14  1  0.75000000  0.53431100  0.87148800  1
  Hg  Hg15  1  0.75000000  0.03431100  0.62851200  1
  O  O16  1  0.25000000  0.52937300  0.80035600  1
  O  O17  1  0.25000000  0.02937300  0.69964400  1
  O  O18  1  0.75000000  0.47062700  0.19964400  1
  O  O19  1  0.75000000  0.97062700  0.30035600  1
  O  O20  1  0.75000000  0.86419400  0.82418500  1
  O  O21  1  0.75000000  0.36419400  0.67581500  1
  O  O22  1  0.25000000  0.13580600  0.17581500  1
  O  O23  1  0.25000000  0.63580600  0.32418500  1
  O  O24  1  0.75000000  0.22550900  0.84003000  1
  O  O25  1  0.75000000  0.72550900  0.65997000  1
  O  O26  1  0.25000000  0.77449100  0.15997000  1
  O  O27  1  0.25000000  0.27449100  0.34003000  1
  O  O28  1  0.75000000  0.12109800  0.97174700  1
  O  O29  1  0.75000000  0.62109800  0.52825300  1
  O  O30  1  0.25000000  0.87890200  0.02825300  1
  O  O31  1  0.25000000  0.37890200  0.47174700  1
  O  O32  1  0.25000000  0.02984700  0.90405700  1
  O  O33  1  0.25000000  0.52984700  0.59594300  1
  O  O34  1  0.75000000  0.97015300  0.09594300  1
  O  O35  1  0.75000000  0.47015300  0.40405700  1
  O  O36  1  0.25000000  0.39965800  0.94665200  1
  O  O37  1  0.25000000  0.89965800  0.55334800  1
  O  O38  1  0.75000000  0.60034200  0.05334800  1
  O  O39  1  0.75000000  0.10034200  0.44665200  1
  O  O40  1  0.25000000  0.23680800  0.05913100  1
  O  O41  1  0.25000000  0.73680800  0.44086900  1
  O  O42  1  0.75000000  0.76319200  0.94086900  1
  O  O43  1  0.75000000  0.26319200  0.55913100  1
