# generated using pymatgen
data_Ce2WC2
_symmetry_space_group_name_H-M   'P 1'
_cell_length_a   5.67729800
_cell_length_b   5.67729800
_cell_length_c   10.41354600
_cell_angle_alpha   90.00000000
_cell_angle_beta   90.00000000
_cell_angle_gamma   90.00000000
_symmetry_Int_Tables_number   1
_chemical_formula_structural   Ce2WC2
_chemical_formula_sum   'Ce8 W4 C8'
_cell_volume   335.64642162
_cell_formula_units_Z   4
loop_
 _symmetry_equiv_pos_site_id
 _symmetry_equiv_pos_as_xyz
  1  'x, y, z'
loop_
 _atom_site_type_symbol
 _atom_site_label
 _atom_site_symmetry_multiplicity
 _atom_site_fract_x
 _atom_site_fract_y
 _atom_site_fract_z
 _atom_site_occupancy
  Ce  Ce0  1  0.18421100  0.18421100  0.34450500  1
  Ce  Ce1  1  0.31578900  0.68421100  0.84450500  1
  Ce  Ce2  1  0.68421100  0.31578900  0.84450500  1
  Ce  Ce3  1  0.68421100  0.31578900  0.15549500  1
  Ce  Ce4  1  0.31578900  0.68421100  0.15549500  1
  Ce  Ce5  1  0.18421100  0.18421100  0.65549500  1
  Ce  Ce6  1  0.81578900  0.81578900  0.34450500  1
  Ce  Ce7  1  0.81578900  0.81578900  0.65549500  1
  W  W8  1  0.32053500  0.67946500  0.50000000  1
  W  W9  1  0.82053500  0.82053500  0.00000000  1
  W  W10  1  0.17946500  0.17946500  0.00000000  1
  W  W11  1  0.67946500  0.32053500  0.50000000  1
  C  C12  1  0.00000000  0.00000000  0.14527200  1
  C  C13  1  0.50000000  0.50000000  0.64527200  1
  C  C14  1  0.50000000  0.00000000  0.50000000  1
  C  C15  1  0.50000000  0.50000000  0.35472800  1
  C  C16  1  0.00000000  0.00000000  0.85472800  1
  C  C17  1  0.50000000  0.00000000  0.00000000  1
  C  C18  1  0.00000000  0.50000000  0.00000000  1
  C  C19  1  0.00000000  0.50000000  0.50000000  1
