# generated using pymatgen
data_Cs3Fe2F9
_symmetry_space_group_name_H-M   'P 1'
_cell_length_a   6.45737097
_cell_length_b   6.45737097
_cell_length_c   15.17187100
_cell_angle_alpha   90.00000000
_cell_angle_beta   90.00000000
_cell_angle_gamma   119.99998941
_symmetry_Int_Tables_number   1
_chemical_formula_structural   Cs3Fe2F9
_chemical_formula_sum   'Cs6 Fe4 F18'
_cell_volume   547.87475928
_cell_formula_units_Z   2
loop_
 _symmetry_equiv_pos_site_id
 _symmetry_equiv_pos_as_xyz
  1  'x, y, z'
loop_
 _atom_site_type_symbol
 _atom_site_label
 _atom_site_symmetry_multiplicity
 _atom_site_fract_x
 _atom_site_fract_y
 _atom_site_fract_z
 _atom_site_occupancy
  Cs  Cs0  1  0.33333300  0.66666700  0.75000000  1
  Cs  Cs1  1  0.66666700  0.33333300  0.25000000  1
  Cs  Cs2  1  0.33333300  0.66666700  0.43286800  1
  Cs  Cs3  1  0.66666700  0.33333300  0.93286800  1
  Cs  Cs4  1  0.66666700  0.33333300  0.56713200  1
  Cs  Cs5  1  0.33333300  0.66666700  0.06713200  1
  Fe  Fe6  1  0.00000000  0.00000000  0.15300000  1
  Fe  Fe7  1  0.00000000  0.00000000  0.65300000  1
  Fe  Fe8  1  0.00000000  0.00000000  0.84700000  1
  Fe  Fe9  1  0.00000000  0.00000000  0.34700000  1
  F  F10  1  0.13177500  0.26355000  0.25000000  1
  F  F11  1  0.86822500  0.13177500  0.75000000  1
  F  F12  1  0.26355000  0.13177500  0.75000000  1
  F  F13  1  0.73645000  0.86822500  0.25000000  1
  F  F14  1  0.13177500  0.86822500  0.25000000  1
  F  F15  1  0.86822500  0.73645000  0.75000000  1
  F  F16  1  0.14967300  0.29934700  0.59498600  1
  F  F17  1  0.85032700  0.14967300  0.09498600  1
  F  F18  1  0.29934700  0.14967300  0.09498600  1
  F  F19  1  0.70065300  0.85032700  0.59498600  1
  F  F20  1  0.14967300  0.85032700  0.59498600  1
  F  F21  1  0.85032700  0.70065300  0.40501400  1
  F  F22  1  0.85032700  0.14967300  0.40501400  1
  F  F23  1  0.85032700  0.70065300  0.09498600  1
  F  F24  1  0.29934700  0.14967300  0.40501400  1
  F  F25  1  0.70065300  0.85032700  0.90501400  1
  F  F26  1  0.14967300  0.29934700  0.90501400  1
  F  F27  1  0.14967300  0.85032700  0.90501400  1
