# generated using pymatgen
data_CsK2CoO2
_symmetry_space_group_name_H-M   'P 1'
_cell_length_a   6.24355691
_cell_length_b   9.79880479
_cell_length_c   9.80118609
_cell_angle_alpha   75.09425550
_cell_angle_beta   99.86126536
_cell_angle_gamma   86.46548168
_symmetry_Int_Tables_number   1
_chemical_formula_structural   CsK2CoO2
_chemical_formula_sum   'Cs4 K8 Co4 O8'
_cell_volume   567.36254557
_cell_formula_units_Z   4
loop_
 _symmetry_equiv_pos_site_id
 _symmetry_equiv_pos_as_xyz
  1  'x, y, z'
loop_
 _atom_site_type_symbol
 _atom_site_label
 _atom_site_symmetry_multiplicity
 _atom_site_fract_x
 _atom_site_fract_y
 _atom_site_fract_z
 _atom_site_occupancy
  Cs  Cs0  1  0.75000000  0.50000000  0.25000000  1
  Cs  Cs1  1  0.50000000  0.00000000  0.50000000  1
  Cs  Cs2  1  0.25000000  0.50000000  0.75000000  1
  Cs  Cs3  1  0.00000000  0.00000000  0.00000000  1
  K  K4  1  0.31250000  0.37500000  0.43749800  1
  K  K5  1  0.06250000  0.87500000  0.68749800  1
  K  K6  1  0.81250000  0.37500000  0.93749800  1
  K  K7  1  0.56250000  0.87500000  0.18749800  1
  K  K8  1  0.18750000  0.62500000  0.06250200  1
  K  K9  1  0.93750000  0.12500000  0.31250200  1
  K  K10  1  0.68750000  0.62500000  0.56250200  1
  K  K11  1  0.43750000  0.12500000  0.81250200  1
  Co  Co12  1  0.12500000  0.75000000  0.37500000  1
  Co  Co13  1  0.87500000  0.25000000  0.62500000  1
  Co  Co14  1  0.37500000  0.25000000  0.12500000  1
  Co  Co15  1  0.62500000  0.75000100  0.87500000  1
  O  O16  1  0.34762600  0.66096200  0.33047600  1
  O  O17  1  0.09762600  0.16096200  0.58047600  1
  O  O18  1  0.84762600  0.66096200  0.83047600  1
  O  O19  1  0.59762600  0.16096200  0.08047600  1
  O  O20  1  0.15237400  0.33903800  0.16952400  1
  O  O21  1  0.90237400  0.83903800  0.41952400  1
  O  O22  1  0.65237400  0.33903800  0.66952400  1
  O  O23  1  0.40237400  0.83903800  0.91952400  1
