# generated using pymatgen
data_BaH6F8
_symmetry_space_group_name_H-M   'P 1'
_cell_length_a   7.89772793
_cell_length_b   7.89772793
_cell_length_c   12.76827600
_cell_angle_alpha   90.00000000
_cell_angle_beta   90.00000000
_cell_angle_gamma   119.99999942
_symmetry_Int_Tables_number   1
_chemical_formula_structural   BaH6F8
_chemical_formula_sum   'Ba4 H24 F32'
_cell_volume   689.71112838
_cell_formula_units_Z   4
loop_
 _symmetry_equiv_pos_site_id
 _symmetry_equiv_pos_as_xyz
  1  'x, y, z'
loop_
 _atom_site_type_symbol
 _atom_site_label
 _atom_site_symmetry_multiplicity
 _atom_site_fract_x
 _atom_site_fract_y
 _atom_site_fract_z
 _atom_site_occupancy
  Ba  Ba0  1  0.66666700  0.33333300  0.56306000  1
  Ba  Ba1  1  0.33333300  0.66666700  0.06306000  1
  Ba  Ba2  1  0.33333300  0.66666700  0.43694000  1
  Ba  Ba3  1  0.66666700  0.33333300  0.93694000  1
  H  H4  1  0.61019900  0.72279500  0.66502300  1
  H  H5  1  0.11259500  0.38980100  0.83497700  1
  H  H6  1  0.82929900  0.00000000  0.00000000  1
  H  H7  1  0.88740500  0.27720500  0.16502300  1
  H  H8  1  0.02854700  0.70916200  0.25000000  1
  H  H9  1  0.29083800  0.31938400  0.25000000  1
  H  H10  1  0.72279500  0.61019900  0.16502300  1
  H  H11  1  0.27720500  0.88740500  0.83497700  1
  H  H12  1  0.38980100  0.11259500  0.33497700  1
  H  H13  1  0.27720500  0.88740500  0.66502300  1
  H  H14  1  0.68061600  0.97145300  0.25000000  1
  H  H15  1  0.17070100  0.17070100  0.00000000  1
  H  H16  1  0.00000000  0.82929900  0.00000000  1
  H  H17  1  0.61019900  0.72279500  0.83497700  1
  H  H18  1  0.97145300  0.68061600  0.75000000  1
  H  H19  1  0.31938400  0.29083800  0.75000000  1
  H  H20  1  0.88740500  0.27720500  0.33497700  1
  H  H21  1  0.82929900  0.00000000  0.50000000  1
  H  H22  1  0.17070100  0.17070100  0.50000000  1
  H  H23  1  0.38980100  0.11259500  0.16502300  1
  H  H24  1  0.70916200  0.02854700  0.75000000  1
  H  H25  1  0.11259500  0.38980100  0.66502300  1
  H  H26  1  0.72279500  0.61019900  0.33497700  1
  H  H27  1  0.00000000  0.82929900  0.50000000  1
  F  F28  1  0.67081300  0.84099600  0.75000000  1
  F  F29  1  0.44021800  0.06800600  0.10379600  1
  F  F30  1  0.73648700  0.16873100  0.75000000  1
  F  F31  1  0.44021800  0.06800600  0.39620400  1
  F  F32  1  0.62778800  0.55978200  0.39620400  1
  F  F33  1  0.15900400  0.82981700  0.75000000  1
  F  F34  1  0.93199400  0.37221200  0.10379600  1
  F  F35  1  0.93199400  0.37221200  0.39620400  1
  F  F36  1  0.83126900  0.56775600  0.75000000  1
  F  F37  1  0.06800600  0.44021800  0.60379600  1
  F  F38  1  0.17018300  0.32918700  0.75000000  1
  F  F39  1  0.16873100  0.73648700  0.25000000  1
  F  F40  1  0.55978200  0.62778800  0.89620400  1
  F  F41  1  0.00000000  0.70089400  0.50000000  1
  F  F42  1  0.26351300  0.43224400  0.25000000  1
  F  F43  1  0.29910600  0.29910600  0.50000000  1
  F  F44  1  0.37221200  0.93199400  0.60379600  1
  F  F45  1  0.32918700  0.17018300  0.25000000  1
  F  F46  1  0.29910600  0.29910600  0.00000000  1
  F  F47  1  0.55978200  0.62778800  0.60379600  1
  F  F48  1  0.00000000  0.00000000  0.50000000  1
  F  F49  1  0.70089400  0.00000000  0.00000000  1
  F  F50  1  0.06800600  0.44021800  0.89620400  1
  F  F51  1  0.00000000  0.70089400  0.00000000  1
  F  F52  1  0.82981700  0.15900400  0.25000000  1
  F  F53  1  0.37221200  0.93199400  0.89620400  1
  F  F54  1  0.62778800  0.55978200  0.10379600  1
  F  F55  1  0.84099600  0.67081300  0.25000000  1
  F  F56  1  0.56775600  0.83126900  0.25000000  1
  F  F57  1  0.43224400  0.26351300  0.75000000  1
  F  F58  1  0.70089400  0.00000000  0.50000000  1
  F  F59  1  0.00000000  0.00000000  0.00000000  1
