# generated using pymatgen
data_KU2F9
_symmetry_space_group_name_H-M   'P 1'
_cell_length_a   7.05161000
_cell_length_b   8.79427400
_cell_length_c   11.62430500
_cell_angle_alpha   90.00000000
_cell_angle_beta   90.00000000
_cell_angle_gamma   90.00000000
_symmetry_Int_Tables_number   1
_chemical_formula_structural   KU2F9
_chemical_formula_sum   'K4 U8 F36'
_cell_volume   720.86721476
_cell_formula_units_Z   4
loop_
 _symmetry_equiv_pos_site_id
 _symmetry_equiv_pos_as_xyz
  1  'x, y, z'
loop_
 _atom_site_type_symbol
 _atom_site_label
 _atom_site_symmetry_multiplicity
 _atom_site_fract_x
 _atom_site_fract_y
 _atom_site_fract_z
 _atom_site_occupancy
  K  K0  1  0.86197000  0.53029200  0.25000000  1
  K  K1  1  0.63803000  0.03029200  0.25000000  1
  K  K2  1  0.13803000  0.46970800  0.75000000  1
  K  K3  1  0.36197000  0.96970800  0.75000000  1
  U  U4  1  0.34923200  0.67605600  0.05080700  1
  U  U5  1  0.15076800  0.17605600  0.44919200  1
  U  U6  1  0.65076800  0.32394400  0.55080800  1
  U  U7  1  0.84923200  0.82394400  0.94919200  1
  U  U8  1  0.65076800  0.32394400  0.94919200  1
  U  U9  1  0.84923200  0.82394400  0.55080800  1
  U  U10  1  0.34923200  0.67605600  0.44919200  1
  U  U11  1  0.15076800  0.17605600  0.05080700  1
  F  F12  1  0.33827100  0.66779800  0.25000000  1
  F  F13  1  0.16172900  0.16779800  0.25000000  1
  F  F14  1  0.66172900  0.33220200  0.75000000  1
  F  F15  1  0.83827100  0.83220200  0.75000000  1
  F  F16  1  0.57598900  0.49407300  0.09800400  1
  F  F17  1  0.92401100  0.99407300  0.40199600  1
  F  F18  1  0.42401100  0.50592700  0.59800400  1
  F  F19  1  0.07598900  0.00592700  0.90199600  1
  F  F20  1  0.42401100  0.50592700  0.90199600  1
  F  F21  1  0.07598900  0.00592700  0.59800400  1
  F  F22  1  0.57598900  0.49407300  0.40199600  1
  F  F23  1  0.92401100  0.99407300  0.09800400  1
  F  F24  1  0.02659100  0.70164000  0.09351500  1
  F  F25  1  0.47340900  0.20164000  0.40648500  1
  F  F26  1  0.97340900  0.29836000  0.59351500  1
  F  F27  1  0.52659100  0.79836000  0.90648500  1
  F  F28  1  0.97340900  0.29836000  0.90648500  1
  F  F29  1  0.52659100  0.79836000  0.59351500  1
  F  F30  1  0.02659100  0.70164000  0.40648500  1
  F  F31  1  0.47340900  0.20164000  0.09351500  1
  F  F32  1  0.64837100  0.78245600  0.10734100  1
  F  F33  1  0.85162900  0.28245600  0.39265900  1
  F  F34  1  0.35162900  0.21754400  0.60734100  1
  F  F35  1  0.14837100  0.71754400  0.89265900  1
  F  F36  1  0.35162900  0.21754400  0.89265900  1
  F  F37  1  0.14837100  0.71754400  0.60734100  1
  F  F38  1  0.64837100  0.78245600  0.39265900  1
  F  F39  1  0.85162900  0.28245600  0.10734100  1
  F  F40  1  0.29772800  0.92788100  0.08364800  1
  F  F41  1  0.20227200  0.42788100  0.41635200  1
  F  F42  1  0.70227200  0.07211900  0.58364800  1
  F  F43  1  0.79772800  0.57211900  0.91635200  1
  F  F44  1  0.70227200  0.07211900  0.91635200  1
  F  F45  1  0.79772800  0.57211900  0.58364800  1
  F  F46  1  0.29772800  0.92788100  0.41635200  1
  F  F47  1  0.20227200  0.42788100  0.08364800  1
