# generated using pymatgen
data_Ba(AlGe)2
_symmetry_space_group_name_H-M   'P 1'
_cell_length_a   4.32474900
_cell_length_b   10.29351800
_cell_length_c   11.08905200
_cell_angle_alpha   90.00000000
_cell_angle_beta   90.00000000
_cell_angle_gamma   90.00000000
_symmetry_Int_Tables_number   1
_chemical_formula_structural   Ba(AlGe)2
_chemical_formula_sum   'Ba4 Al8 Ge8'
_cell_volume   493.65001579
_cell_formula_units_Z   4
loop_
 _symmetry_equiv_pos_site_id
 _symmetry_equiv_pos_as_xyz
  1  'x, y, z'
loop_
 _atom_site_type_symbol
 _atom_site_label
 _atom_site_symmetry_multiplicity
 _atom_site_fract_x
 _atom_site_fract_y
 _atom_site_fract_z
 _atom_site_occupancy
  Ba  Ba0  1  0.75000000  0.25182900  0.67490100  1
  Ba  Ba1  1  0.75000000  0.75182900  0.82509900  1
  Ba  Ba2  1  0.25000000  0.74817100  0.32509900  1
  Ba  Ba3  1  0.25000000  0.24817100  0.17490100  1
  Al  Al4  1  0.25000000  0.04290900  0.88159400  1
  Al  Al5  1  0.75000000  0.89886100  0.54699900  1
  Al  Al6  1  0.75000000  0.45709100  0.38159400  1
  Al  Al7  1  0.75000000  0.39886100  0.95300100  1
  Al  Al8  1  0.25000000  0.60113900  0.04699900  1
  Al  Al9  1  0.25000000  0.54290900  0.61840600  1
  Al  Al10  1  0.75000000  0.95709100  0.11840600  1
  Al  Al11  1  0.25000000  0.10113900  0.45300100  1
  Ge  Ge12  1  0.25000000  0.35437100  0.45974600  1
  Ge  Ge13  1  0.75000000  0.64562900  0.54025400  1
  Ge  Ge14  1  0.25000000  0.47564500  0.84321300  1
  Ge  Ge15  1  0.75000000  0.52435500  0.15678700  1
  Ge  Ge16  1  0.75000000  0.02435500  0.34321300  1
  Ge  Ge17  1  0.25000000  0.85437100  0.04025400  1
  Ge  Ge18  1  0.25000000  0.97564500  0.65678700  1
  Ge  Ge19  1  0.75000000  0.14562900  0.95974600  1
