# generated using pymatgen
data_K3In3(PO4)4
_symmetry_space_group_name_H-M   'P 1'
_cell_length_a   9.98510400
_cell_length_b   9.84603800
_cell_length_c   18.79062809
_cell_angle_alpha   58.76547924
_cell_angle_beta   90.00000000
_cell_angle_gamma   90.00000000
_symmetry_Int_Tables_number   1
_chemical_formula_structural   K3In3(PO4)4
_chemical_formula_sum   'K12 In12 P16 O64'
_cell_volume   1579.60289419
_cell_formula_units_Z   4
loop_
 _symmetry_equiv_pos_site_id
 _symmetry_equiv_pos_as_xyz
  1  'x, y, z'
loop_
 _atom_site_type_symbol
 _atom_site_label
 _atom_site_symmetry_multiplicity
 _atom_site_fract_x
 _atom_site_fract_y
 _atom_site_fract_z
 _atom_site_occupancy
  K  K0  1  0.27120300  0.76114800  0.21398900  1
  K  K1  1  0.22879700  0.76114800  0.71398900  1
  K  K2  1  0.11004700  0.95895500  0.36774100  1
  K  K3  1  0.61004700  0.04104500  0.13225900  1
  K  K4  1  0.52631600  0.43091700  0.89828500  1
  K  K5  1  0.97368400  0.43091700  0.39828500  1
  K  K6  1  0.47368400  0.56908300  0.10171500  1
  K  K7  1  0.72879700  0.23885200  0.78601100  1
  K  K8  1  0.88995300  0.04104500  0.63225900  1
  K  K9  1  0.02631600  0.56908300  0.60171500  1
  K  K10  1  0.38995300  0.95895500  0.86774100  1
  K  K11  1  0.77120300  0.23885200  0.28601100  1
  In  In12  1  0.42495200  0.76536800  0.49059000  1
  In  In13  1  0.72857500  0.81106200  0.36495200  1
  In  In14  1  0.07504800  0.76536800  0.99059000  1
  In  In15  1  0.92495200  0.23463200  0.00941000  1
  In  In16  1  0.86043900  0.65014200  0.16113100  1
  In  In17  1  0.27142500  0.18893800  0.63504800  1
  In  In18  1  0.13956100  0.34985800  0.83886900  1
  In  In19  1  0.63956100  0.65014200  0.66113100  1
  In  In20  1  0.77142500  0.81106200  0.86495200  1
  In  In21  1  0.57504800  0.23463200  0.50941000  1
  In  In22  1  0.22857500  0.18893800  0.13504800  1
  In  In23  1  0.36043900  0.34985800  0.33886900  1
  P  P24  1  0.73259900  0.93819100  0.50484200  1
  P  P25  1  0.89737400  0.56772200  0.79525800  1
  P  P26  1  0.96851100  0.92222700  0.21200800  1
  P  P27  1  0.46851100  0.07777300  0.28799200  1
  P  P28  1  0.10262600  0.43227800  0.20474200  1
  P  P29  1  0.23259900  0.06180900  0.99515800  1
  P  P30  1  0.22244600  0.47270900  0.97431800  1
  P  P31  1  0.53148900  0.92222700  0.71200800  1
  P  P32  1  0.60262600  0.56772200  0.29525800  1
  P  P33  1  0.76740100  0.93819100  0.00484200  1
  P  P34  1  0.72244600  0.52729100  0.52568200  1
  P  P35  1  0.03148900  0.07777300  0.78799200  1
  P  P36  1  0.77755400  0.52729100  0.02568200  1
  P  P37  1  0.39737400  0.43227800  0.70474200  1
  P  P38  1  0.26740100  0.06180900  0.49515800  1
  P  P39  1  0.27755400  0.47270900  0.47431800  1
  O  O40  1  0.21136800  0.64288500  0.95777500  1
  O  O41  1  0.10101100  0.36029100  0.02675700  1
  O  O42  1  0.90205600  0.90263900  0.29166500  1
  O  O43  1  0.39218500  0.95158300  0.36531800  1
  O  O44  1  0.19019200  0.16662700  0.41228300  1
  O  O45  1  0.11500700  0.97545000  0.21297700  1
  O  O46  1  0.23598000  0.47542000  0.23067800  1
  O  O47  1  0.12237400  0.28001000  0.20150700  1
  O  O48  1  0.84483800  0.60844600  0.46628800  1
  O  O49  1  0.15516200  0.39155400  0.53371200  1
  O  O50  1  0.05931800  0.58294900  0.11923300  1
  O  O51  1  0.69019200  0.83337300  0.08771700  1
  O  O52  1  0.08731300  0.13837400  0.97143100  1
  O  O53  1  0.91268700  0.86162600  0.02856900  1
  O  O54  1  0.52678800  0.75983400  0.71676600  1
  O  O55  1  0.61500700  0.02455000  0.28702300  1
  O  O56  1  0.71136800  0.35711500  0.54222500  1
  O  O57  1  0.70764300  0.93315800  0.93020500  1
  O  O58  1  0.10781500  0.95158300  0.86531800  1
  O  O59  1  0.26402000  0.47542000  0.73067800  1
  O  O60  1  0.60781500  0.04841700  0.63468200  1
  O  O61  1  0.47321200  0.24016600  0.28323400  1
  O  O62  1  0.29235700  0.06684200  0.06979500  1
  O  O63  1  0.26957700  0.88391100  0.52050400  1
  O  O64  1  0.79235700  0.93315800  0.43020500  1
  O  O65  1  0.87762600  0.71999000  0.79849300  1
  O  O66  1  0.73598000  0.52458000  0.26932200  1
  O  O67  1  0.65516200  0.60844600  0.96628800  1
  O  O68  1  0.89218500  0.04841700  0.13468200  1
  O  O69  1  0.89898900  0.63970900  0.97324300  1
  O  O70  1  0.98291000  0.41508800  0.26063300  1
  O  O71  1  0.30980800  0.16662700  0.91228300  1
  O  O72  1  0.37762600  0.28001000  0.70150700  1
  O  O73  1  0.60101100  0.63970900  0.47324300  1
  O  O74  1  0.26140500  0.48220900  0.38982700  1
  O  O75  1  0.59794400  0.90263900  0.79166500  1
  O  O76  1  0.23859500  0.48220900  0.88982700  1
  O  O77  1  0.23042300  0.88391100  0.02050400  1
  O  O78  1  0.48291000  0.58491200  0.23936700  1
  O  O79  1  0.40205600  0.09736100  0.20833500  1
  O  O80  1  0.38499300  0.97545000  0.71297700  1
  O  O81  1  0.20764300  0.06684200  0.56979500  1
  O  O82  1  0.44068200  0.58294900  0.61923300  1
  O  O83  1  0.02678800  0.24016600  0.78323400  1
  O  O84  1  0.76402000  0.52458000  0.76932200  1
  O  O85  1  0.39898900  0.36029100  0.52675700  1
  O  O86  1  0.94068200  0.41705100  0.88076700  1
  O  O87  1  0.09794400  0.09736100  0.70833500  1
  O  O88  1  0.28863200  0.64288500  0.45777500  1
  O  O89  1  0.76140500  0.51779100  0.11017300  1
  O  O90  1  0.88499300  0.02455000  0.78702300  1
  O  O91  1  0.62237400  0.71999000  0.29849300  1
  O  O92  1  0.76957700  0.11608900  0.97949600  1
  O  O93  1  0.41268700  0.13837400  0.47143100  1
  O  O94  1  0.78863200  0.35711500  0.04222500  1
  O  O95  1  0.51709000  0.41508800  0.76063300  1
  O  O96  1  0.73859500  0.51779100  0.61017300  1
  O  O97  1  0.73042300  0.11608900  0.47949600  1
  O  O98  1  0.97321200  0.75983400  0.21676600  1
  O  O99  1  0.55931800  0.41705100  0.38076700  1
  O  O100  1  0.58731300  0.86162600  0.52856900  1
  O  O101  1  0.01709000  0.58491200  0.73936700  1
  O  O102  1  0.34483800  0.39155400  0.03371200  1
  O  O103  1  0.80980800  0.83337300  0.58771700  1
