# generated using pymatgen
data_Cs3Nd(PS4)2
_symmetry_space_group_name_H-M   'P 1'
_cell_length_a   7.04320400
_cell_length_b   15.69994400
_cell_length_c   20.38939760
_cell_angle_alpha   50.06205824
_cell_angle_beta   90.00000000
_cell_angle_gamma   90.00000000
_symmetry_Int_Tables_number   1
_chemical_formula_structural   Cs3Nd(PS4)2
_chemical_formula_sum   'Cs12 Nd4 P8 S32'
_cell_volume   1728.70546612
_cell_formula_units_Z   4
loop_
 _symmetry_equiv_pos_site_id
 _symmetry_equiv_pos_as_xyz
  1  'x, y, z'
loop_
 _atom_site_type_symbol
 _atom_site_label
 _atom_site_symmetry_multiplicity
 _atom_site_fract_x
 _atom_site_fract_y
 _atom_site_fract_z
 _atom_site_occupancy
  Cs  Cs0  1  0.24245600  0.34539100  0.87822200  1
  Cs  Cs1  1  0.24760800  0.43402800  0.61315800  1
  Cs  Cs2  1  0.25535100  0.91645800  0.97435900  1
  Cs  Cs3  1  0.74464900  0.08354200  0.02564100  1
  Cs  Cs4  1  0.75535100  0.08354200  0.52564100  1
  Cs  Cs5  1  0.74245600  0.65460900  0.62177800  1
  Cs  Cs6  1  0.25754400  0.34539100  0.37822200  1
  Cs  Cs7  1  0.24464900  0.91645800  0.47435900  1
  Cs  Cs8  1  0.25239200  0.43402800  0.11315800  1
  Cs  Cs9  1  0.74760800  0.56597200  0.88684200  1
  Cs  Cs10  1  0.75239200  0.56597200  0.38684200  1
  Cs  Cs11  1  0.75754400  0.65460900  0.12177800  1
  Nd  Nd12  1  0.76880700  0.14757400  0.72966500  1
  Nd  Nd13  1  0.26880700  0.85242600  0.77033500  1
  Nd  Nd14  1  0.23119300  0.85242600  0.27033500  1
  Nd  Nd15  1  0.73119300  0.14757400  0.22966500  1
  P  P16  1  0.74560600  0.30609500  0.77691800  1
  P  P17  1  0.77410100  0.84683300  0.37018600  1
  P  P18  1  0.75439400  0.30609500  0.27691800  1
  P  P19  1  0.22589900  0.15316700  0.62981400  1
  P  P20  1  0.27410100  0.15316700  0.12981400  1
  P  P21  1  0.24560600  0.69390500  0.72308200  1
  P  P22  1  0.25439400  0.69390500  0.22308200  1
  P  P23  1  0.72589900  0.84683300  0.87018600  1
  S  S24  1  0.73953800  0.38488700  0.82548500  1
  S  S25  1  0.74933700  0.94188400  0.40645900  1
  S  S26  1  0.96723200  0.75390700  0.90330800  1
  S  S27  1  0.03276800  0.24609300  0.09669200  1
  S  S28  1  0.98567400  0.20737800  0.81678000  1
  S  S29  1  0.51422300  0.20343900  0.81449200  1
  S  S30  1  0.49550500  0.74192700  0.92721300  1
  S  S31  1  0.83632800  0.95606800  0.24092000  1
  S  S32  1  0.24997900  0.59583300  0.35438300  1
  S  S33  1  0.75002100  0.40416700  0.64561700  1
  S  S34  1  0.99550500  0.25807300  0.57278700  1
  S  S35  1  0.74997900  0.40416700  0.14561700  1
  S  S36  1  0.25066300  0.05811600  0.59354100  1
  S  S37  1  0.75066300  0.94188400  0.90645900  1
  S  S38  1  0.00449500  0.74192700  0.42721300  1
  S  S39  1  0.01422300  0.79656100  0.68550800  1
  S  S40  1  0.76046200  0.38488700  0.32548500  1
  S  S41  1  0.46723200  0.24609300  0.59669200  1
  S  S42  1  0.24933700  0.05811600  0.09354100  1
  S  S43  1  0.51432600  0.20737800  0.31678000  1
  S  S44  1  0.25002100  0.59583300  0.85438300  1
  S  S45  1  0.98577700  0.20343900  0.31449200  1
  S  S46  1  0.53276800  0.75390700  0.40330800  1
  S  S47  1  0.23953800  0.61511300  0.67451500  1
  S  S48  1  0.48567400  0.79262200  0.68322000  1
  S  S49  1  0.66367200  0.95606800  0.74092000  1
  S  S50  1  0.16367200  0.04393200  0.75908000  1
  S  S51  1  0.01432600  0.79262200  0.18322000  1
  S  S52  1  0.26046200  0.61511300  0.17451500  1
  S  S53  1  0.33632800  0.04393200  0.25908000  1
  S  S54  1  0.50449500  0.25807300  0.07278700  1
  S  S55  1  0.48577700  0.79656100  0.18550800  1
