# generated using pymatgen
data_La9Sb16Br3
_symmetry_space_group_name_H-M   'P 1'
_cell_length_a   21.48567307
_cell_length_b   21.48567307
_cell_length_c   4.35348300
_cell_angle_alpha   90.00000000
_cell_angle_beta   90.00000000
_cell_angle_gamma   120.00000328
_symmetry_Int_Tables_number   1
_chemical_formula_structural   La9Sb16Br3
_chemical_formula_sum   'La18 Sb32 Br6'
_cell_volume   1740.46540927
_cell_formula_units_Z   2
loop_
 _symmetry_equiv_pos_site_id
 _symmetry_equiv_pos_as_xyz
  1  'x, y, z'
loop_
 _atom_site_type_symbol
 _atom_site_label
 _atom_site_symmetry_multiplicity
 _atom_site_fract_x
 _atom_site_fract_y
 _atom_site_fract_z
 _atom_site_occupancy
  La  La0  1  0.23288200  0.54190800  0.75000000  1
  La  La1  1  0.09455200  0.84895600  0.25000000  1
  La  La2  1  0.99273900  0.39417000  0.75000000  1
  La  La3  1  0.76711800  0.45809200  0.25000000  1
  La  La4  1  0.40143000  0.00726100  0.75000000  1
  La  La5  1  0.24559600  0.09455200  0.75000000  1
  La  La6  1  0.30902600  0.76711800  0.75000000  1
  La  La7  1  0.54190800  0.30902600  0.25000000  1
  La  La8  1  0.59857000  0.99273900  0.25000000  1
  La  La9  1  0.60583000  0.59857000  0.75000000  1
  La  La10  1  0.00726100  0.60583000  0.25000000  1
  La  La11  1  0.84895600  0.75440400  0.75000000  1
  La  La12  1  0.15104400  0.24559600  0.25000000  1
  La  La13  1  0.75440400  0.90544800  0.25000000  1
  La  La14  1  0.69097400  0.23288200  0.25000000  1
  La  La15  1  0.45809200  0.69097400  0.75000000  1
  La  La16  1  0.39417000  0.40143000  0.25000000  1
  La  La17  1  0.90544800  0.15104400  0.75000000  1
  Sb  Sb18  1  0.48444900  0.58807600  0.25000000  1
  Sb  Sb19  1  0.72439100  0.01002600  0.75000000  1
  Sb  Sb20  1  0.77383300  0.13111600  0.25000000  1
  Sb  Sb21  1  0.22616700  0.86888400  0.75000000  1
  Sb  Sb22  1  0.25025100  0.42833500  0.25000000  1
  Sb  Sb23  1  0.27560900  0.98997400  0.25000000  1
  Sb  Sb24  1  0.71436500  0.72439100  0.25000000  1
  Sb  Sb25  1  0.64271700  0.77383300  0.75000000  1
  Sb  Sb26  1  0.13717900  0.62849400  0.75000000  1
  Sb  Sb27  1  0.58807600  0.10362700  0.75000000  1
  Sb  Sb28  1  0.82191600  0.25025100  0.75000000  1
  Sb  Sb29  1  0.37150600  0.50868500  0.75000000  1
  Sb  Sb30  1  0.28563500  0.27560900  0.75000000  1
  Sb  Sb31  1  0.74974900  0.57166500  0.75000000  1
  Sb  Sb32  1  0.10362700  0.51555100  0.25000000  1
  Sb  Sb33  1  0.01002600  0.28563500  0.25000000  1
  Sb  Sb34  1  0.49131500  0.86282100  0.75000000  1
  Sb  Sb35  1  0.13111600  0.35728300  0.75000000  1
  Sb  Sb36  1  0.57166500  0.82191600  0.25000000  1
  Sb  Sb37  1  0.35728300  0.22616700  0.25000000  1
  Sb  Sb38  1  0.41192400  0.89637300  0.25000000  1
  Sb  Sb39  1  0.42833500  0.17808400  0.75000000  1
  Sb  Sb40  1  0.51555100  0.41192400  0.75000000  1
  Sb  Sb41  1  0.62849400  0.49131500  0.25000000  1
  Sb  Sb42  1  0.86282100  0.37150600  0.25000000  1
  Sb  Sb43  1  0.98997400  0.71436500  0.75000000  1
  Sb  Sb44  1  0.17808400  0.74974900  0.25000000  1
  Sb  Sb45  1  0.89637300  0.48444900  0.75000000  1
  Sb  Sb46  1  0.66666700  0.33333300  0.75000000  1
  Sb  Sb47  1  0.50868500  0.13717900  0.25000000  1
  Sb  Sb48  1  0.33333300  0.66666700  0.25000000  1
  Sb  Sb49  1  0.86888400  0.64271700  0.25000000  1
  Br  Br50  1  0.05056700  0.14935100  0.75000000  1
  Br  Br51  1  0.09878400  0.94943300  0.75000000  1
  Br  Br52  1  0.94943300  0.85064900  0.25000000  1
  Br  Br53  1  0.85064900  0.90121600  0.75000000  1
  Br  Br54  1  0.90121600  0.05056700  0.25000000  1
  Br  Br55  1  0.14935100  0.09878400  0.25000000  1
