# generated using pymatgen
data_Sr2CoSe2(ClO3)2
_symmetry_space_group_name_H-M   'P 1'
_cell_length_a   6.51151500
_cell_length_b   12.55251625
_cell_length_c   10.84900395
_cell_angle_alpha   92.89149344
_cell_angle_beta   90.00000000
_cell_angle_gamma   90.00000000
_symmetry_Int_Tables_number   1
_chemical_formula_structural   Sr2CoSe2(ClO3)2
_chemical_formula_sum   'Sr8 Co4 Se8 Cl8 O24'
_cell_volume   885.62411521
_cell_formula_units_Z   4
loop_
 _symmetry_equiv_pos_site_id
 _symmetry_equiv_pos_as_xyz
  1  'x, y, z'
loop_
 _atom_site_type_symbol
 _atom_site_label
 _atom_site_symmetry_multiplicity
 _atom_site_fract_x
 _atom_site_fract_y
 _atom_site_fract_z
 _atom_site_occupancy
  Sr  Sr0  1  0.29922900  0.23424300  0.00640700  1
  Sr  Sr1  1  0.29922900  0.23424300  0.50640700  1
  Sr  Sr2  1  0.70077100  0.76575700  0.49359300  1
  Sr  Sr3  1  0.70077100  0.76575700  0.99359300  1
  Sr  Sr4  1  0.79922900  0.26575700  0.24359300  1
  Sr  Sr5  1  0.79922900  0.26575700  0.74359300  1
  Sr  Sr6  1  0.20077100  0.73424300  0.25640700  1
  Sr  Sr7  1  0.20077100  0.73424300  0.75640700  1
  Co  Co8  1  0.00000000  0.50000000  0.50000000  1
  Co  Co9  1  0.50000000  0.00000000  0.75000000  1
  Co  Co10  1  0.00000000  0.50000000  0.00000000  1
  Co  Co11  1  0.50000000  0.00000000  0.25000000  1
  Se  Se12  1  0.76251100  0.07504100  0.49741200  1
  Se  Se13  1  0.76251100  0.07504100  0.99741200  1
  Se  Se14  1  0.73748900  0.57504100  0.24741200  1
  Se  Se15  1  0.73748900  0.57504100  0.74741200  1
  Se  Se16  1  0.26251100  0.42495900  0.25258800  1
  Se  Se17  1  0.26251100  0.42495900  0.75258800  1
  Se  Se18  1  0.23748900  0.92495900  0.00258800  1
  Se  Se19  1  0.23748900  0.92495900  0.50258800  1
  Cl  Cl20  1  0.82642100  0.89434400  0.22708900  1
  Cl  Cl21  1  0.82642100  0.89434400  0.72708900  1
  Cl  Cl22  1  0.67357900  0.39434400  0.47708900  1
  Cl  Cl23  1  0.67357900  0.39434400  0.97708900  1
  Cl  Cl24  1  0.17357900  0.10565600  0.27291100  1
  Cl  Cl25  1  0.17357900  0.10565600  0.77291100  1
  Cl  Cl26  1  0.32642100  0.60565600  0.02291100  1
  Cl  Cl27  1  0.32642100  0.60565600  0.52291100  1
  O  O28  1  0.37624000  0.87946900  0.12760600  1
  O  O29  1  0.37624000  0.87946900  0.62760600  1
  O  O30  1  0.62376000  0.12053100  0.37239400  1
  O  O31  1  0.62376000  0.12053100  0.87239400  1
  O  O32  1  0.87624000  0.62053100  0.12239400  1
  O  O33  1  0.87624000  0.62053100  0.62239400  1
  O  O34  1  0.12376000  0.37946900  0.37760600  1
  O  O35  1  0.12376000  0.37946900  0.87760600  1
  O  O36  1  0.42777500  0.32204400  0.22044400  1
  O  O37  1  0.42777500  0.32204400  0.72044400  1
  O  O38  1  0.57222500  0.67795600  0.27955600  1
  O  O39  1  0.57222500  0.67795600  0.77955600  1
  O  O40  1  0.07222500  0.82204400  0.47044400  1
  O  O41  1  0.07222500  0.82204400  0.97044400  1
  O  O42  1  0.92777500  0.17795600  0.02955600  1
  O  O43  1  0.92777500  0.17795600  0.52955600  1
  O  O44  1  0.92277400  0.60552900  0.36145500  1
  O  O45  1  0.92277400  0.60552900  0.86145500  1
  O  O46  1  0.42277400  0.89447100  0.38854500  1
  O  O47  1  0.42277400  0.89447100  0.88854500  1
  O  O48  1  0.07722600  0.39447100  0.13854500  1
  O  O49  1  0.07722600  0.39447100  0.63854500  1
  O  O50  1  0.57722600  0.10552900  0.11145500  1
  O  O51  1  0.57722600  0.10552900  0.61145500  1
