# generated using pymatgen
data_Ba2CuClO2
_symmetry_space_group_name_H-M   'P 1'
_cell_length_a   9.92846561
_cell_length_b   9.92846561
_cell_length_c   9.92846631
_cell_angle_alpha   25.19211891
_cell_angle_beta   25.19211891
_cell_angle_gamma   25.19211567
_symmetry_Int_Tables_number   1
_chemical_formula_structural   Ba2CuClO2
_chemical_formula_sum   'Ba2 Cu1 Cl1 O2'
_cell_volume   156.03718556
_cell_formula_units_Z   1
loop_
 _symmetry_equiv_pos_site_id
 _symmetry_equiv_pos_as_xyz
  1  'x, y, z'
loop_
 _atom_site_type_symbol
 _atom_site_label
 _atom_site_symmetry_multiplicity
 _atom_site_fract_x
 _atom_site_fract_y
 _atom_site_fract_z
 _atom_site_occupancy
  Ba  Ba0  1  0.74513400  0.74513400  0.74513400  1
  Ba  Ba1  1  0.25486600  0.25486600  0.25486600  1
  Cu  Cu2  1  0.50000000  0.50000000  0.50000000  1
  Cl  Cl3  1  0.00000000  0.00000000  0.00000000  1
  O  O4  1  0.56301600  0.56301600  0.56301600  1
  O  O5  1  0.43698400  0.43698400  0.43698400  1
