# generated using pymatgen
data_Na2EuC(OF)3
_symmetry_space_group_name_H-M   'P 1'
_cell_length_a   6.71717200
_cell_length_b   11.00147200
_cell_length_c   14.38695200
_cell_angle_alpha   90.00000000
_cell_angle_beta   90.00000000
_cell_angle_gamma   90.00000000
_symmetry_Int_Tables_number   1
_chemical_formula_structural   Na2EuC(OF)3
_chemical_formula_sum   'Na16 Eu8 C8 O24 F24'
_cell_volume   1063.17819607
_cell_formula_units_Z   8
loop_
 _symmetry_equiv_pos_site_id
 _symmetry_equiv_pos_as_xyz
  1  'x, y, z'
loop_
 _atom_site_type_symbol
 _atom_site_label
 _atom_site_symmetry_multiplicity
 _atom_site_fract_x
 _atom_site_fract_y
 _atom_site_fract_z
 _atom_site_occupancy
  Na  Na0  1  0.94500500  0.00840300  0.39554900  1
  Na  Na1  1  0.74556500  0.28015000  0.24327500  1
  Na  Na2  1  0.44500500  0.49159700  0.60445100  1
  Na  Na3  1  0.24556500  0.28015000  0.25672500  1
  Na  Na4  1  0.25443500  0.78015000  0.25672500  1
  Na  Na5  1  0.74556500  0.21985000  0.74327500  1
  Na  Na6  1  0.24556500  0.21985000  0.75672500  1
  Na  Na7  1  0.05499500  0.50840300  0.10445100  1
  Na  Na8  1  0.55499500  0.50840300  0.39554900  1
  Na  Na9  1  0.44500500  0.00840300  0.10445100  1
  Na  Na10  1  0.55499500  0.99159700  0.89554900  1
  Na  Na11  1  0.75443500  0.78015000  0.24327500  1
  Na  Na12  1  0.05499500  0.99159700  0.60445100  1
  Na  Na13  1  0.94500500  0.49159700  0.89554900  1
  Na  Na14  1  0.75443500  0.71985000  0.74327500  1
  Na  Na15  1  0.25443500  0.71985000  0.75672500  1
  Eu  Eu16  1  0.00297100  0.68648400  0.48733900  1
  Eu  Eu17  1  0.00297100  0.81351600  0.98733900  1
  Eu  Eu18  1  0.50297100  0.81351600  0.51266100  1
  Eu  Eu19  1  0.99702900  0.31351600  0.51266100  1
  Eu  Eu20  1  0.49702900  0.31351600  0.98733900  1
  Eu  Eu21  1  0.50297100  0.68648400  0.01266100  1
  Eu  Eu22  1  0.49702900  0.18648400  0.48733900  1
  Eu  Eu23  1  0.99702900  0.18648400  0.01266100  1
  C  C24  1  0.50026200  0.98430200  0.67848800  1
  C  C25  1  0.00026200  0.98430200  0.82151200  1
  C  C26  1  0.49973800  0.48430200  0.82151200  1
  C  C27  1  0.50026200  0.51569800  0.17848800  1
  C  C28  1  0.99973800  0.48430200  0.67848800  1
  C  C29  1  0.49973800  0.01569800  0.32151200  1
  C  C30  1  0.99973800  0.01569800  0.17848800  1
  C  C31  1  0.00026200  0.51569800  0.32151200  1
  O  O32  1  0.94510300  0.12706900  0.19009700  1
  O  O33  1  0.05489700  0.62706900  0.30990300  1
  O  O34  1  0.55489700  0.87293100  0.69009700  1
  O  O35  1  0.44510300  0.12706900  0.30990300  1
  O  O36  1  0.05489700  0.87293100  0.80990300  1
  O  O37  1  0.93209600  0.01267700  0.90412500  1
  O  O38  1  0.49315700  0.93670700  0.25653000  1
  O  O39  1  0.43209600  0.01267700  0.59587500  1
  O  O40  1  0.94510300  0.37293100  0.69009700  1
  O  O41  1  0.06790400  0.51267700  0.59587500  1
  O  O42  1  0.56790400  0.51267700  0.90412500  1
  O  O43  1  0.93209600  0.48732300  0.40412500  1
  O  O44  1  0.44510300  0.37293100  0.80990300  1
  O  O45  1  0.56790400  0.98732300  0.40412500  1
  O  O46  1  0.55489700  0.62706900  0.19009700  1
  O  O47  1  0.00684300  0.06329300  0.75653000  1
  O  O48  1  0.99315700  0.93670700  0.24347000  1
  O  O49  1  0.43209600  0.48732300  0.09587500  1
  O  O50  1  0.49315700  0.56329300  0.75653000  1
  O  O51  1  0.50684300  0.06329300  0.74347000  1
  O  O52  1  0.99315700  0.56329300  0.74347000  1
  O  O53  1  0.50684300  0.43670700  0.24347000  1
  O  O54  1  0.00684300  0.43670700  0.25653000  1
  O  O55  1  0.06790400  0.98732300  0.09587500  1
  F  F56  1  0.80288200  0.28343800  0.89462000  1
  F  F57  1  0.19711800  0.71656200  0.10538000  1
  F  F58  1  0.30288200  0.21656200  0.10538000  1
  F  F59  1  0.69711800  0.78343800  0.89462000  1
  F  F60  1  0.20813900  0.83669200  0.41545700  1
  F  F61  1  0.65157900  0.12042000  0.01832100  1
  F  F62  1  0.69711800  0.71656200  0.39462000  1
  F  F63  1  0.65157900  0.37958000  0.51832100  1
  F  F64  1  0.79186100  0.16330800  0.58454300  1
  F  F65  1  0.34842100  0.87958000  0.98167900  1
  F  F66  1  0.29186100  0.33669200  0.41545700  1
  F  F67  1  0.15157900  0.12042000  0.48167900  1
  F  F68  1  0.80288200  0.21656200  0.39462000  1
  F  F69  1  0.15157900  0.37958000  0.98167900  1
  F  F70  1  0.84842100  0.62042000  0.01832100  1
  F  F71  1  0.70813900  0.83669200  0.08454300  1
  F  F72  1  0.70813900  0.66330800  0.58454300  1
  F  F73  1  0.34842100  0.62042000  0.48167900  1
  F  F74  1  0.79186100  0.33669200  0.08454300  1
  F  F75  1  0.29186100  0.16330800  0.91545700  1
  F  F76  1  0.20813900  0.66330800  0.91545700  1
  F  F77  1  0.19711800  0.78343800  0.60538000  1
  F  F78  1  0.84842100  0.87958000  0.51832100  1
  F  F79  1  0.30288200  0.28343800  0.60538000  1
