# generated using pymatgen
data_Hg2TeBr3
_symmetry_space_group_name_H-M   'P 1'
_cell_length_a   10.28220400
_cell_length_b   7.85781700
_cell_length_c   12.32063768
_cell_angle_alpha   56.50403537
_cell_angle_beta   90.00000000
_cell_angle_gamma   90.00000000
_symmetry_Int_Tables_number   1
_chemical_formula_structural   Hg2TeBr3
_chemical_formula_sum   'Hg8 Te4 Br12'
_cell_volume   830.13389460
_cell_formula_units_Z   4
loop_
 _symmetry_equiv_pos_site_id
 _symmetry_equiv_pos_as_xyz
  1  'x, y, z'
loop_
 _atom_site_type_symbol
 _atom_site_label
 _atom_site_symmetry_multiplicity
 _atom_site_fract_x
 _atom_site_fract_y
 _atom_site_fract_z
 _atom_site_occupancy
  Hg  Hg0  1  0.54866000  0.47673100  0.84093100  1
  Hg  Hg1  1  0.81076600  0.00175700  0.99838200  1
  Hg  Hg2  1  0.68923400  0.00175700  0.49838200  1
  Hg  Hg3  1  0.04866000  0.52326900  0.65906900  1
  Hg  Hg4  1  0.18923400  0.99824300  0.00161800  1
  Hg  Hg5  1  0.31076600  0.99824300  0.50161800  1
  Hg  Hg6  1  0.45134000  0.52326900  0.15906900  1
  Hg  Hg7  1  0.95134000  0.47673100  0.34093100  1
  Te  Te8  1  0.92973700  0.09633700  0.38094100  1
  Te  Te9  1  0.57026300  0.09633700  0.88094100  1
  Te  Te10  1  0.07026300  0.90366300  0.61905900  1
  Te  Te11  1  0.42973700  0.90366300  0.11905900  1
  Br  Br12  1  0.50133300  0.25692400  0.48789800  1
  Br  Br13  1  0.84555100  0.34065500  0.63635700  1
  Br  Br14  1  0.76140100  0.75593900  0.26856600  1
  Br  Br15  1  0.99866700  0.25692400  0.98789800  1
  Br  Br16  1  0.34555100  0.65934500  0.86364300  1
  Br  Br17  1  0.73859900  0.75593900  0.76856600  1
  Br  Br18  1  0.65444900  0.34065500  0.13635700  1
  Br  Br19  1  0.15444900  0.65934500  0.36364300  1
  Br  Br20  1  0.23859900  0.24406100  0.73143400  1
  Br  Br21  1  0.00133300  0.74307600  0.01210200  1
  Br  Br22  1  0.49866700  0.74307600  0.51210200  1
  Br  Br23  1  0.26140100  0.24406100  0.23143400  1
