# generated using pymatgen
data_Nd3(CuGe)4
_symmetry_space_group_name_H-M   'P 1'
_cell_length_a   8.21180725
_cell_length_b   8.21180725
_cell_length_c   8.21180725
_cell_angle_alpha   149.44714067
_cell_angle_beta   131.50390354
_cell_angle_gamma   58.41037777
_symmetry_Int_Tables_number   1
_chemical_formula_structural   Nd3(CuGe)4
_chemical_formula_sum   'Nd3 Cu4 Ge4'
_cell_volume   209.21024993
_cell_formula_units_Z   1
loop_
 _symmetry_equiv_pos_site_id
 _symmetry_equiv_pos_as_xyz
  1  'x, y, z'
loop_
 _atom_site_type_symbol
 _atom_site_label
 _atom_site_symmetry_multiplicity
 _atom_site_fract_x
 _atom_site_fract_y
 _atom_site_fract_z
 _atom_site_occupancy
  Nd  Nd0  1  0.36771400  0.86771400  0.50000000  1
  Nd  Nd1  1  0.00000000  0.00000000  0.00000000  1
  Nd  Nd2  1  0.63228600  0.13228600  0.50000000  1
  Cu  Cu3  1  0.35238200  0.66642300  0.68595900  1
  Cu  Cu4  1  0.64761800  0.33357700  0.31404100  1
  Cu  Cu5  1  0.01953600  0.33357700  0.68595900  1
  Cu  Cu6  1  0.98046400  0.66642300  0.31404100  1
  Ge  Ge7  1  0.31118100  0.50000000  0.81118100  1
  Ge  Ge8  1  0.21619100  0.21619100  0.00000000  1
  Ge  Ge9  1  0.78380900  0.78380900  0.00000000  1
  Ge  Ge10  1  0.68881900  0.50000000  0.18881900  1
