# generated using pymatgen
data_K3Ta2S11
_symmetry_space_group_name_H-M   'P 1'
_cell_length_a   8.97106200
_cell_length_b   7.79314300
_cell_length_c   25.12129010
_cell_angle_alpha   80.04951645
_cell_angle_beta   90.00000000
_cell_angle_gamma   90.00000000
_symmetry_Int_Tables_number   1
_chemical_formula_structural   K3Ta2S11
_chemical_formula_sum   'K12 Ta8 S44'
_cell_volume   1729.87974899
_cell_formula_units_Z   4
loop_
 _symmetry_equiv_pos_site_id
 _symmetry_equiv_pos_as_xyz
  1  'x, y, z'
loop_
 _atom_site_type_symbol
 _atom_site_label
 _atom_site_symmetry_multiplicity
 _atom_site_fract_x
 _atom_site_fract_y
 _atom_site_fract_z
 _atom_site_occupancy
  K  K0  1  0.23611900  0.30291200  0.48937800  1
  K  K1  1  0.73611900  0.69708800  0.01062200  1
  K  K2  1  0.75297700  0.23296300  0.67030100  1
  K  K3  1  0.76388100  0.69708800  0.51062200  1
  K  K4  1  0.26388100  0.30291200  0.98937800  1
  K  K5  1  0.28763200  0.26271300  0.18503800  1
  K  K6  1  0.21236800  0.26271300  0.68503800  1
  K  K7  1  0.25297700  0.76703700  0.82969900  1
  K  K8  1  0.74702300  0.23296300  0.17030100  1
  K  K9  1  0.78763200  0.73728700  0.31496200  1
  K  K10  1  0.71236800  0.73728700  0.81496200  1
  K  K11  1  0.24702300  0.76703700  0.32969900  1
  Ta  Ta12  1  0.67348000  0.27230400  0.92201100  1
  Ta  Ta13  1  0.32652000  0.72769600  0.07798900  1
  Ta  Ta14  1  0.53990700  0.17596500  0.33142200  1
  Ta  Ta15  1  0.17348000  0.72769600  0.57798900  1
  Ta  Ta16  1  0.96009300  0.17596500  0.83142200  1
  Ta  Ta17  1  0.46009300  0.82403500  0.66857800  1
  Ta  Ta18  1  0.82652000  0.27230400  0.42201100  1
  Ta  Ta19  1  0.03990700  0.82403500  0.16857800  1
  S  S20  1  0.48295300  0.49735900  0.08589500  1
  S  S21  1  0.62393700  0.32509400  0.48311100  1
  S  S22  1  0.02596000  0.99562800  0.23231100  1
  S  S23  1  0.31947800  0.75045800  0.17694800  1
  S  S24  1  0.46895300  0.53102500  0.72403300  1
  S  S25  1  0.01704700  0.49735900  0.58589500  1
  S  S26  1  0.05116500  0.93549900  0.62704100  1
  S  S27  1  0.37606300  0.67490600  0.51688900  1
  S  S28  1  0.94883500  0.06450100  0.37295900  1
  S  S29  1  0.55116500  0.06450100  0.87295900  1
  S  S30  1  0.36465200  0.01997400  0.58956200  1
  S  S31  1  0.87606300  0.32509400  0.98311100  1
  S  S32  1  0.68052200  0.24954200  0.82305200  1
  S  S33  1  0.41167500  0.57162500  0.59850600  1
  S  S34  1  0.52596000  0.00437200  0.26768900  1
  S  S35  1  0.97404000  0.00437200  0.76768900  1
  S  S36  1  0.03104700  0.53102500  0.22403300  1
  S  S37  1  0.47404000  0.99562800  0.73231100  1
  S  S38  1  0.90517600  0.97709500  0.09027900  1
  S  S39  1  0.17483800  0.37207100  0.80726200  1
  S  S40  1  0.91295400  0.08484600  0.50742500  1
  S  S41  1  0.08832500  0.57162500  0.09850600  1
  S  S42  1  0.58704600  0.08484600  0.00742500  1
  S  S43  1  0.44883500  0.93549900  0.12704100  1
  S  S44  1  0.08704600  0.91515400  0.49257500  1
  S  S45  1  0.63534800  0.98002600  0.41043800  1
  S  S46  1  0.53104700  0.46897500  0.27596700  1
  S  S47  1  0.12393700  0.67490600  0.01688900  1
  S  S48  1  0.81947800  0.24954200  0.32305200  1
  S  S49  1  0.82516200  0.62792900  0.19273800  1
  S  S50  1  0.18052200  0.75045800  0.67694800  1
  S  S51  1  0.59482400  0.97709500  0.59027900  1
  S  S52  1  0.91167500  0.42837500  0.90149400  1
  S  S53  1  0.32516200  0.37207100  0.30726200  1
  S  S54  1  0.98295300  0.50264100  0.41410500  1
  S  S55  1  0.13534800  0.01997400  0.08956200  1
  S  S56  1  0.67483800  0.62792900  0.69273800  1
  S  S57  1  0.96895300  0.46897500  0.77596700  1
  S  S58  1  0.86465200  0.98002600  0.91043800  1
  S  S59  1  0.41295400  0.91515400  0.99257500  1
  S  S60  1  0.51704700  0.50264100  0.91410500  1
  S  S61  1  0.09482400  0.02290500  0.90972100  1
  S  S62  1  0.58832500  0.42837500  0.40149400  1
  S  S63  1  0.40517600  0.02290500  0.40972000  1
