# generated using pymatgen
data_Eu(GeIr)2
_symmetry_space_group_name_H-M   'P 1'
_cell_length_a   6.07765636
_cell_length_b   6.07765636
_cell_length_c   6.07765636
_cell_angle_alpha   139.55067042
_cell_angle_beta   139.55067042
_cell_angle_gamma   58.53618113
_symmetry_Int_Tables_number   1
_chemical_formula_structural   Eu(GeIr)2
_chemical_formula_sum   'Eu1 Ge2 Ir2'
_cell_volume   93.61797756
_cell_formula_units_Z   1
loop_
 _symmetry_equiv_pos_site_id
 _symmetry_equiv_pos_as_xyz
  1  'x, y, z'
loop_
 _atom_site_type_symbol
 _atom_site_label
 _atom_site_symmetry_multiplicity
 _atom_site_fract_x
 _atom_site_fract_y
 _atom_site_fract_z
 _atom_site_occupancy
  Eu  Eu0  1  0.00000000  0.00000000  0.00000000  1
  Ge  Ge1  1  0.37442500  0.37442500  0.00000000  1
  Ge  Ge2  1  0.62557500  0.62557500  0.00000000  1
  Ir  Ir3  1  0.75000000  0.25000000  0.50000000  1
  Ir  Ir4  1  0.25000000  0.75000000  0.50000000  1
