# generated using pymatgen
data_RbReCl4
_symmetry_space_group_name_H-M   'P 1'
_cell_length_a   9.34086560
_cell_length_b   9.34086560
_cell_length_c   12.49848300
_cell_angle_alpha   90.00000000
_cell_angle_beta   90.00000000
_cell_angle_gamma   108.84977279
_symmetry_Int_Tables_number   1
_chemical_formula_structural   RbReCl4
_chemical_formula_sum   'Rb6 Re6 Cl24'
_cell_volume   1032.02931483
_cell_formula_units_Z   6
loop_
 _symmetry_equiv_pos_site_id
 _symmetry_equiv_pos_as_xyz
  1  'x, y, z'
loop_
 _atom_site_type_symbol
 _atom_site_label
 _atom_site_symmetry_multiplicity
 _atom_site_fract_x
 _atom_site_fract_y
 _atom_site_fract_z
 _atom_site_occupancy
  Rb  Rb0  1  0.24628000  0.24628000  0.00000000  1
  Rb  Rb1  1  0.25221800  0.74778200  0.75000000  1
  Rb  Rb2  1  0.24628000  0.24628000  0.50000000  1
  Rb  Rb3  1  0.75372000  0.75372000  0.50000000  1
  Rb  Rb4  1  0.75372000  0.75372000  0.00000000  1
  Rb  Rb5  1  0.74778200  0.25221800  0.25000000  1
  Re  Re6  1  0.78848600  0.21151400  0.65115700  1
  Re  Re7  1  0.78848600  0.21151400  0.84884300  1
  Re  Re8  1  0.21151400  0.78848600  0.34884300  1
  Re  Re9  1  0.64749300  0.35250700  0.75000000  1
  Re  Re10  1  0.21151400  0.78848600  0.15115700  1
  Re  Re11  1  0.35250700  0.64749300  0.25000000  1
  Cl  Cl12  1  0.87286100  0.12713900  0.46830200  1
  Cl  Cl13  1  0.47558700  0.52441300  0.75000000  1
  Cl  Cl14  1  0.01394600  0.40640100  0.87707700  1
  Cl  Cl15  1  0.35134200  0.64865800  0.44500500  1
  Cl  Cl16  1  0.40640100  0.01394600  0.37707700  1
  Cl  Cl17  1  0.98605400  0.59359900  0.12292300  1
  Cl  Cl18  1  0.35134200  0.64865800  0.05499500  1
  Cl  Cl19  1  0.40640100  0.01394600  0.12292300  1
  Cl  Cl20  1  0.59359900  0.98605400  0.62292300  1
  Cl  Cl21  1  0.12713900  0.87286100  0.53169800  1
  Cl  Cl22  1  0.40717700  0.16994900  0.75000000  1
  Cl  Cl23  1  0.52441300  0.47558700  0.25000000  1
  Cl  Cl24  1  0.98605400  0.59359900  0.37707700  1
  Cl  Cl25  1  0.87286100  0.12713900  0.03169800  1
  Cl  Cl26  1  0.07394500  0.92605500  0.25000000  1
  Cl  Cl27  1  0.59359900  0.98605400  0.87707700  1
  Cl  Cl28  1  0.83005100  0.59282300  0.75000000  1
  Cl  Cl29  1  0.12713900  0.87286100  0.96830200  1
  Cl  Cl30  1  0.01394600  0.40640100  0.62292300  1
  Cl  Cl31  1  0.16994900  0.40717700  0.25000000  1
  Cl  Cl32  1  0.92605500  0.07394500  0.75000000  1
  Cl  Cl33  1  0.59282300  0.83005100  0.25000000  1
  Cl  Cl34  1  0.64865800  0.35134200  0.55499500  1
  Cl  Cl35  1  0.64865800  0.35134200  0.94500500  1
