# generated using pymatgen
data_HfI4
_symmetry_space_group_name_H-M   'P 1'
_cell_length_a   8.86481356
_cell_length_b   8.86481356
_cell_length_c   13.29377255
_cell_angle_alpha   72.51883968
_cell_angle_beta   72.51883968
_cell_angle_gamma   89.61552413
_symmetry_Int_Tables_number   1
_chemical_formula_structural   HfI4
_chemical_formula_sum   'Hf4 I16'
_cell_volume   946.40791772
_cell_formula_units_Z   4
loop_
 _symmetry_equiv_pos_site_id
 _symmetry_equiv_pos_as_xyz
  1  'x, y, z'
loop_
 _atom_site_type_symbol
 _atom_site_label
 _atom_site_symmetry_multiplicity
 _atom_site_fract_x
 _atom_site_fract_y
 _atom_site_fract_z
 _atom_site_occupancy
  Hf  Hf0  1  0.06057800  0.79186600  0.12366000  1
  Hf  Hf1  1  0.79186600  0.06057800  0.62366000  1
  Hf  Hf2  1  0.93942200  0.20813400  0.87634000  1
  Hf  Hf3  1  0.20813400  0.93942200  0.37634000  1
  I  I4  1  0.05048100  0.83180300  0.61207500  1
  I  I5  1  0.04669900  0.27182100  0.63949300  1
  I  I6  1  0.72817900  0.95330100  0.86050700  1
  I  I7  1  0.58465300  0.82767000  0.63602700  1
  I  I8  1  0.17233000  0.41534700  0.86397300  1
  I  I9  1  0.95330100  0.72817900  0.36050700  1
  I  I10  1  0.69940900  0.39874300  0.88975800  1
  I  I11  1  0.16819700  0.94951900  0.88792500  1
  I  I12  1  0.41534700  0.17233000  0.36397300  1
  I  I13  1  0.82767000  0.58465300  0.13602700  1
  I  I14  1  0.39874300  0.69940900  0.38975800  1
  I  I15  1  0.60125700  0.30059100  0.61024200  1
  I  I16  1  0.94951900  0.16819700  0.38792500  1
  I  I17  1  0.30059100  0.60125700  0.11024200  1
  I  I18  1  0.83180300  0.05048100  0.11207500  1
  I  I19  1  0.27182100  0.04669900  0.13949300  1
