# generated using pymatgen
data_Ba2Nb2TeO10
_symmetry_space_group_name_H-M   'P 1'
_cell_length_a   7.37873000
_cell_length_b   10.06887900
_cell_length_c   12.70173700
_cell_angle_alpha   90.00000000
_cell_angle_beta   90.00000000
_cell_angle_gamma   90.00000000
_symmetry_Int_Tables_number   1
_chemical_formula_structural   Ba2Nb2TeO10
_chemical_formula_sum   'Ba8 Nb8 Te4 O40'
_cell_volume   943.68240356
_cell_formula_units_Z   4
loop_
 _symmetry_equiv_pos_site_id
 _symmetry_equiv_pos_as_xyz
  1  'x, y, z'
loop_
 _atom_site_type_symbol
 _atom_site_label
 _atom_site_symmetry_multiplicity
 _atom_site_fract_x
 _atom_site_fract_y
 _atom_site_fract_z
 _atom_site_occupancy
  Ba  Ba0  1  0.48485000  0.61135000  0.14080700  1
  Ba  Ba1  1  0.01515000  0.61135000  0.64080700  1
  Ba  Ba2  1  0.51515000  0.88865000  0.64080700  1
  Ba  Ba3  1  0.01515000  0.11135000  0.85919300  1
  Ba  Ba4  1  0.48485000  0.11135000  0.35919300  1
  Ba  Ba5  1  0.98485000  0.38865000  0.35919300  1
  Ba  Ba6  1  0.98485000  0.88865000  0.14080700  1
  Ba  Ba7  1  0.51515000  0.38865000  0.85919300  1
  Nb  Nb8  1  0.21126200  0.74355600  0.89513600  1
  Nb  Nb9  1  0.21126200  0.24355600  0.60486400  1
  Nb  Nb10  1  0.78873800  0.25644400  0.10486400  1
  Nb  Nb11  1  0.28873800  0.24355600  0.10486400  1
  Nb  Nb12  1  0.28873800  0.74355600  0.39513600  1
  Nb  Nb13  1  0.71126200  0.75644400  0.89513600  1
  Nb  Nb14  1  0.78873800  0.75644400  0.39513600  1
  Nb  Nb15  1  0.71126200  0.25644400  0.60486400  1
  Te  Te16  1  0.00000000  0.00000000  0.50000000  1
  Te  Te17  1  0.50000000  0.00000000  0.00000000  1
  Te  Te18  1  0.50000000  0.50000000  0.50000000  1
  Te  Te19  1  0.00000000  0.50000000  0.00000000  1
  O  O20  1  0.27867300  0.29568500  0.24224000  1
  O  O21  1  0.44477100  0.16583900  0.58348700  1
  O  O22  1  0.73315300  0.59506300  0.48616900  1
  O  O23  1  0.77867300  0.70431500  0.25776000  1
  O  O24  1  0.23315300  0.40493700  0.01383100  1
  O  O25  1  0.22132700  0.29568500  0.74224000  1
  O  O26  1  0.37920000  0.15388800  0.94458800  1
  O  O27  1  0.05522900  0.16583900  0.08348700  1
  O  O28  1  0.12080000  0.65388800  0.05541200  1
  O  O29  1  0.27867300  0.79568500  0.25776000  1
  O  O30  1  0.87920000  0.34611200  0.94458800  1
  O  O31  1  0.12080000  0.15388800  0.44458800  1
  O  O32  1  0.73315300  0.09506300  0.01383100  1
  O  O33  1  0.26684700  0.90493700  0.98616900  1
  O  O34  1  0.77867300  0.20431500  0.24224000  1
  O  O35  1  0.42199100  0.56958600  0.36184800  1
  O  O36  1  0.37920000  0.65388800  0.55541200  1
  O  O37  1  0.07800900  0.56958600  0.86184800  1
  O  O38  1  0.42199100  0.06958600  0.13815200  1
  O  O39  1  0.62080000  0.34611200  0.44458800  1
  O  O40  1  0.07800900  0.06958600  0.63815200  1
  O  O41  1  0.72132700  0.20431500  0.74224000  1
  O  O42  1  0.62080000  0.84611200  0.05541200  1
  O  O43  1  0.44477100  0.66583900  0.91651300  1
  O  O44  1  0.72132700  0.70431500  0.75776000  1
  O  O45  1  0.92199100  0.43041400  0.13815200  1
  O  O46  1  0.76684700  0.59506300  0.98616900  1
  O  O47  1  0.23315300  0.90493700  0.48616900  1
  O  O48  1  0.76684700  0.09506300  0.51383100  1
  O  O49  1  0.57800900  0.43041400  0.63815200  1
  O  O50  1  0.55522900  0.33416100  0.08348700  1
  O  O51  1  0.55522900  0.83416100  0.41651300  1
  O  O52  1  0.92199100  0.93041400  0.36184800  1
  O  O53  1  0.94477100  0.83416100  0.91651300  1
  O  O54  1  0.05522900  0.66583900  0.41651300  1
  O  O55  1  0.94477100  0.33416100  0.58348700  1
  O  O56  1  0.87920000  0.84611200  0.55541200  1
  O  O57  1  0.22132700  0.79568500  0.75776000  1
  O  O58  1  0.57800900  0.93041400  0.86184800  1
  O  O59  1  0.26684700  0.40493700  0.51383100  1
