# generated using pymatgen
data_Cs4IrO4
_symmetry_space_group_name_H-M   'P 1'
_cell_length_a   6.29244356
_cell_length_b   6.29244356
_cell_length_c   6.78438284
_cell_angle_alpha   74.16677122
_cell_angle_beta   74.16677122
_cell_angle_gamma   65.60181247
_symmetry_Int_Tables_number   1
_chemical_formula_structural   Cs4IrO4
_chemical_formula_sum   'Cs4 Ir1 O4'
_cell_volume   231.39127447
_cell_formula_units_Z   1
loop_
 _symmetry_equiv_pos_site_id
 _symmetry_equiv_pos_as_xyz
  1  'x, y, z'
loop_
 _atom_site_type_symbol
 _atom_site_label
 _atom_site_symmetry_multiplicity
 _atom_site_fract_x
 _atom_site_fract_y
 _atom_site_fract_z
 _atom_site_occupancy
  Cs  Cs0  1  0.19055500  0.19055500  0.40902500  1
  Cs  Cs1  1  0.38500200  0.38500200  0.84208400  1
  Cs  Cs2  1  0.61499800  0.61499800  0.15791600  1
  Cs  Cs3  1  0.80944500  0.80944500  0.59097500  1
  Ir  Ir4  1  0.00000000  0.00000000  0.00000000  1
  O  O5  1  0.69254600  0.09544500  0.18277100  1
  O  O6  1  0.30745400  0.90455500  0.81722900  1
  O  O7  1  0.09544500  0.69254600  0.18277100  1
  O  O8  1  0.90455500  0.30745400  0.81722900  1
