# generated using pymatgen
data_NaMo2P3O13
_symmetry_space_group_name_H-M   'P 1'
_cell_length_a   22.69559200
_cell_length_b   6.47717000
_cell_length_c   8.79148959
_cell_angle_alpha   53.84104531
_cell_angle_beta   90.00000000
_cell_angle_gamma   90.00000000
_symmetry_Int_Tables_number   1
_chemical_formula_structural   NaMo2P3O13
_chemical_formula_sum   'Na4 Mo8 P12 O52'
_cell_volume   1043.44361511
_cell_formula_units_Z   4
loop_
 _symmetry_equiv_pos_site_id
 _symmetry_equiv_pos_as_xyz
  1  'x, y, z'
loop_
 _atom_site_type_symbol
 _atom_site_label
 _atom_site_symmetry_multiplicity
 _atom_site_fract_x
 _atom_site_fract_y
 _atom_site_fract_z
 _atom_site_occupancy
  Na  Na0  1  0.63263100  0.96551600  0.20381100  1
  Na  Na1  1  0.13263100  0.03448400  0.29618900  1
  Na  Na2  1  0.86736900  0.96551600  0.70381100  1
  Na  Na3  1  0.36736900  0.03448400  0.79618900  1
  Mo  Mo4  1  0.20766600  0.74583100  0.04054900  1
  Mo  Mo5  1  0.43647600  0.44893200  0.27699400  1
  Mo  Mo6  1  0.56352400  0.55106800  0.72300600  1
  Mo  Mo7  1  0.29233400  0.74583100  0.54054900  1
  Mo  Mo8  1  0.70766600  0.25416900  0.45945100  1
  Mo  Mo9  1  0.79233400  0.25416900  0.95945100  1
  Mo  Mo10  1  0.93647600  0.55106800  0.22300600  1
  Mo  Mo11  1  0.06352400  0.44893200  0.77699400  1
  P  P12  1  0.08288000  0.52897500  0.35015000  1
  P  P13  1  0.58288000  0.47102500  0.14985000  1
  P  P14  1  0.09868400  0.02058400  0.70222400  1
  P  P15  1  0.90131600  0.97941600  0.29777600  1
  P  P16  1  0.59868400  0.97941600  0.79777600  1
  P  P17  1  0.41712000  0.52897500  0.85015000  1
  P  P18  1  0.20321600  0.35915100  0.91386700  1
  P  P19  1  0.40131600  0.02058400  0.20222400  1
  P  P20  1  0.70321600  0.64084900  0.58613300  1
  P  P21  1  0.29678400  0.35915100  0.41386700  1
  P  P22  1  0.91712000  0.47102500  0.64985000  1
  P  P23  1  0.79678400  0.64084900  0.08613300  1
  O  O24  1  0.06623700  0.81459500  0.70155400  1
  O  O25  1  0.57839300  0.36705500  0.03284600  1
  O  O26  1  0.65339000  0.54826800  0.73329300  1
  O  O27  1  0.52360300  0.51396900  0.20999800  1
  O  O28  1  0.93932800  0.72076100  0.98283500  1
  O  O29  1  0.02360300  0.48603100  0.29000200  1
  O  O30  1  0.26116600  0.48967800  0.81142300  1
  O  O31  1  0.23883400  0.48967800  0.31142300  1
  O  O32  1  0.70668200  0.93560600  0.45692200  1
  O  O33  1  0.34085700  0.94219300  0.29442800  1
  O  O34  1  0.29331800  0.06439400  0.54307800  1
  O  O35  1  0.20668200  0.06439400  0.04307800  1
  O  O36  1  0.34661000  0.45173200  0.26670700  1
  O  O37  1  0.93376300  0.18540500  0.29844600  1
  O  O38  1  0.97639700  0.51396900  0.70999800  1
  O  O39  1  0.37536800  0.68119300  0.68437100  1
  O  O40  1  0.72371200  0.18123500  0.05818300  1
  O  O41  1  0.87536800  0.31880700  0.81562900  1
  O  O42  1  0.56623700  0.18540500  0.79844600  1
  O  O43  1  0.68892700  0.57602500  0.44437500  1
  O  O44  1  0.31107300  0.42397500  0.55562500  1
  O  O45  1  0.18892700  0.42397500  0.05562500  1
  O  O46  1  0.43932800  0.27923900  0.51716500  1
  O  O47  1  0.61212700  0.75781700  0.01831200  1
  O  O48  1  0.73883400  0.51032200  0.18857700  1
  O  O49  1  0.77628800  0.18123500  0.55818300  1
  O  O50  1  0.06067200  0.27923900  0.01716500  1
  O  O51  1  0.12463200  0.68119300  0.18437100  1
  O  O52  1  0.15339000  0.45173200  0.76670700  1
  O  O53  1  0.05770900  0.13293800  0.77446600  1
  O  O54  1  0.43376300  0.81459500  0.20155400  1
  O  O55  1  0.56067200  0.72076100  0.48283500  1
  O  O56  1  0.88787300  0.75781700  0.51831200  1
  O  O57  1  0.92160700  0.36705500  0.53284600  1
  O  O58  1  0.07839300  0.63294500  0.46715400  1
  O  O59  1  0.38787300  0.24218300  0.98168800  1
  O  O60  1  0.81107300  0.57602500  0.94437500  1
  O  O61  1  0.15914300  0.94219300  0.79442800  1
  O  O62  1  0.76116600  0.51032200  0.68857700  1
  O  O63  1  0.84085700  0.05780700  0.20557200  1
  O  O64  1  0.47639700  0.48603100  0.79000200  1
  O  O65  1  0.84661000  0.54826800  0.23329300  1
  O  O66  1  0.27628800  0.81876500  0.94181700  1
  O  O67  1  0.11212700  0.24218300  0.48168800  1
  O  O68  1  0.79331800  0.93560600  0.95692200  1
  O  O69  1  0.62463200  0.31880700  0.31562900  1
  O  O70  1  0.55770900  0.86706200  0.72553400  1
  O  O71  1  0.94229100  0.86706200  0.22553400  1
  O  O72  1  0.44229100  0.13293800  0.27446600  1
  O  O73  1  0.65914300  0.05780700  0.70557200  1
  O  O74  1  0.22371200  0.81876500  0.44181700  1
  O  O75  1  0.42160700  0.63294500  0.96715400  1
