# generated using pymatgen
data_Ho4CdRh
_symmetry_space_group_name_H-M   'P 1'
_cell_length_a   9.57531900
_cell_length_b   9.57531900
_cell_length_c   9.57531900
_cell_angle_alpha   60.00000000
_cell_angle_beta   60.00000000
_cell_angle_gamma   60.00000000
_symmetry_Int_Tables_number   1
_chemical_formula_structural   Ho4CdRh
_chemical_formula_sum   'Ho16 Cd4 Rh4'
_cell_volume   620.79006326
_cell_formula_units_Z   4
loop_
 _symmetry_equiv_pos_site_id
 _symmetry_equiv_pos_as_xyz
  1  'x, y, z'
loop_
 _atom_site_type_symbol
 _atom_site_label
 _atom_site_symmetry_multiplicity
 _atom_site_fract_x
 _atom_site_fract_y
 _atom_site_fract_z
 _atom_site_occupancy
  Ho  Ho0  1  0.93615900  0.93615900  0.56384100  1
  Ho  Ho1  1  0.56384100  0.56384100  0.93615900  1
  Ho  Ho2  1  0.68937700  0.68937700  0.31062300  1
  Ho  Ho3  1  0.15027000  0.54918900  0.15027000  1
  Ho  Ho4  1  0.68937700  0.31062300  0.68937700  1
  Ho  Ho5  1  0.15027000  0.15027000  0.15027000  1
  Ho  Ho6  1  0.54918900  0.15027000  0.15027000  1
  Ho  Ho7  1  0.68937700  0.31062300  0.31062300  1
  Ho  Ho8  1  0.15027000  0.15027000  0.54918900  1
  Ho  Ho9  1  0.31062300  0.68937700  0.31062300  1
  Ho  Ho10  1  0.31062300  0.68937700  0.68937700  1
  Ho  Ho11  1  0.93615900  0.56384100  0.56384100  1
  Ho  Ho12  1  0.93615900  0.56384100  0.93615900  1
  Ho  Ho13  1  0.56384100  0.93615900  0.56384100  1
  Ho  Ho14  1  0.56384100  0.93615900  0.93615900  1
  Ho  Ho15  1  0.31062300  0.31062300  0.68937700  1
  Cd  Cd16  1  0.91906100  0.91906100  0.24281700  1
  Cd  Cd17  1  0.24281700  0.91906100  0.91906100  1
  Cd  Cd18  1  0.91906100  0.91906100  0.91906100  1
  Cd  Cd19  1  0.91906100  0.24281700  0.91906100  1
  Rh  Rh20  1  0.35746200  0.35746200  0.92761300  1
  Rh  Rh21  1  0.35746200  0.92761300  0.35746200  1
  Rh  Rh22  1  0.92761300  0.35746200  0.35746200  1
  Rh  Rh23  1  0.35746200  0.35746200  0.35746200  1
