# generated using pymatgen
data_Pr3Si2S8Cl
_symmetry_space_group_name_H-M   'P 1'
_cell_length_a   8.80605580
_cell_length_b   8.80605580
_cell_length_c   11.05109666
_cell_angle_alpha   83.11777061
_cell_angle_beta   83.11777061
_cell_angle_gamma   52.13035657
_symmetry_Int_Tables_number   1
_chemical_formula_structural   Pr3Si2S8Cl
_chemical_formula_sum   'Pr6 Si4 S16 Cl2'
_cell_volume   670.45825167
_cell_formula_units_Z   2
loop_
 _symmetry_equiv_pos_site_id
 _symmetry_equiv_pos_as_xyz
  1  'x, y, z'
loop_
 _atom_site_type_symbol
 _atom_site_label
 _atom_site_symmetry_multiplicity
 _atom_site_fract_x
 _atom_site_fract_y
 _atom_site_fract_z
 _atom_site_occupancy
  Pr  Pr0  1  0.92695600  0.68187200  0.18550400  1
  Pr  Pr1  1  0.62197000  0.37803000  0.25000000  1
  Pr  Pr2  1  0.68187200  0.92695600  0.68550400  1
  Pr  Pr3  1  0.31812800  0.07304400  0.31449600  1
  Pr  Pr4  1  0.37803000  0.62197000  0.75000000  1
  Pr  Pr5  1  0.07304400  0.31812800  0.81449600  1
  Si  Si6  1  0.62745100  0.69212400  0.97076700  1
  Si  Si7  1  0.30787600  0.37254900  0.52923300  1
  Si  Si8  1  0.37254900  0.30787600  0.02923300  1
  Si  Si9  1  0.69212400  0.62745100  0.47076700  1
  S  S10  1  0.59157800  0.27665300  0.54896500  1
  S  S11  1  0.10378900  0.60371400  0.64208100  1
  S  S12  1  0.14339200  0.28894700  0.08541900  1
  S  S13  1  0.55785900  0.73697500  0.16055800  1
  S  S14  1  0.39628600  0.89621100  0.85791900  1
  S  S15  1  0.85660800  0.71105300  0.91458100  1
  S  S16  1  0.72334800  0.40842200  0.95103500  1
  S  S17  1  0.44214100  0.26302500  0.83944200  1
  S  S18  1  0.28894700  0.14339200  0.58541900  1
  S  S19  1  0.26302500  0.44214100  0.33944200  1
  S  S20  1  0.60371400  0.10378900  0.14208100  1
  S  S21  1  0.71105300  0.85660800  0.41458100  1
  S  S22  1  0.89621100  0.39628600  0.35791900  1
  S  S23  1  0.73697500  0.55785900  0.66055800  1
  S  S24  1  0.27665300  0.59157800  0.04896500  1
  S  S25  1  0.40842200  0.72334800  0.45103500  1
  Cl  Cl26  1  0.99324700  0.00675300  0.25000000  1
  Cl  Cl27  1  0.00675300  0.99324700  0.75000000  1
