# generated using pymatgen
data_RbSb2F7
_symmetry_space_group_name_H-M   'P 1'
_cell_length_a   6.60756400
_cell_length_b   9.07269600
_cell_length_c   13.03760245
_cell_angle_alpha   77.91699090
_cell_angle_beta   90.00000000
_cell_angle_gamma   90.00000000
_symmetry_Int_Tables_number   1
_chemical_formula_structural   RbSb2F7
_chemical_formula_sum   'Rb4 Sb8 F28'
_cell_volume   764.26795229
_cell_formula_units_Z   4
loop_
 _symmetry_equiv_pos_site_id
 _symmetry_equiv_pos_as_xyz
  1  'x, y, z'
loop_
 _atom_site_type_symbol
 _atom_site_label
 _atom_site_symmetry_multiplicity
 _atom_site_fract_x
 _atom_site_fract_y
 _atom_site_fract_z
 _atom_site_occupancy
  Rb  Rb0  1  0.23608000  0.07557500  0.11153500  1
  Rb  Rb1  1  0.26392000  0.57557500  0.11153500  1
  Rb  Rb2  1  0.73608000  0.42442500  0.88846500  1
  Rb  Rb3  1  0.76392000  0.92442500  0.88846500  1
  Sb  Sb4  1  0.76119200  0.28221900  0.21424700  1
  Sb  Sb5  1  0.26119200  0.21778100  0.78575300  1
  Sb  Sb6  1  0.23880800  0.71778100  0.78575300  1
  Sb  Sb7  1  0.73880800  0.78221900  0.21424700  1
  Sb  Sb8  1  0.70363700  0.83542200  0.58477000  1
  Sb  Sb9  1  0.79636300  0.33542200  0.58477000  1
  Sb  Sb10  1  0.29636300  0.16457800  0.41523000  1
  Sb  Sb11  1  0.20363700  0.66457800  0.41523000  1
  F  F12  1  0.42648300  0.83531000  0.50386400  1
  F  F13  1  0.38266500  0.37119000  0.35220700  1
  F  F14  1  0.79886900  0.08425200  0.17343300  1
  F  F15  1  0.88266500  0.12881000  0.64779300  1
  F  F16  1  0.04100300  0.18001400  0.89589300  1
  F  F17  1  0.44678800  0.13789600  0.90447100  1
  F  F18  1  0.45899700  0.68001400  0.89589300  1
  F  F19  1  0.07965800  0.21251600  0.28762800  1
  F  F20  1  0.55321200  0.86210400  0.09552900  1
  F  F21  1  0.05321200  0.63789600  0.90447100  1
  F  F22  1  0.61733500  0.62881000  0.64779300  1
  F  F23  1  0.42034200  0.71251600  0.28762800  1
  F  F24  1  0.95899700  0.81998600  0.10410700  1
  F  F25  1  0.07351700  0.33531000  0.50386400  1
  F  F26  1  0.53018300  0.89739300  0.69590100  1
  F  F27  1  0.94678800  0.36210400  0.09552900  1
  F  F28  1  0.54100300  0.31998600  0.10410700  1
  F  F29  1  0.29886900  0.41574800  0.82656700  1
  F  F30  1  0.03018300  0.60260700  0.30409900  1
  F  F31  1  0.20113100  0.91574800  0.82656700  1
  F  F32  1  0.46981700  0.10260700  0.30409900  1
  F  F33  1  0.96981700  0.39739300  0.69590100  1
  F  F34  1  0.11733500  0.87119000  0.35220700  1
  F  F35  1  0.57965800  0.28748400  0.71237200  1
  F  F36  1  0.57351700  0.16469000  0.49613600  1
  F  F37  1  0.70113100  0.58425200  0.17343300  1
  F  F38  1  0.92648300  0.66469000  0.49613600  1
  F  F39  1  0.92034200  0.78748400  0.71237200  1
