# generated using pymatgen
data_NdOF
_symmetry_space_group_name_H-M   'P 1'
_cell_length_a   7.02443595
_cell_length_b   7.02443595
_cell_length_c   7.02443637
_cell_angle_alpha   32.97729907
_cell_angle_beta   32.97729907
_cell_angle_gamma   32.97729392
_symmetry_Int_Tables_number   1
_chemical_formula_structural   NdOF
_chemical_formula_sum   'Nd2 O2 F2'
_cell_volume   91.38053485
_cell_formula_units_Z   2
loop_
 _symmetry_equiv_pos_site_id
 _symmetry_equiv_pos_as_xyz
  1  'x, y, z'
loop_
 _atom_site_type_symbol
 _atom_site_label
 _atom_site_symmetry_multiplicity
 _atom_site_fract_x
 _atom_site_fract_y
 _atom_site_fract_z
 _atom_site_occupancy
  Nd  Nd0  1  0.25846100  0.25846100  0.25846100  1
  Nd  Nd1  1  0.74153900  0.74153900  0.74153900  1
  O  O2  1  0.37802600  0.37802600  0.37802600  1
  O  O3  1  0.62197400  0.62197400  0.62197400  1
  F  F4  1  0.13004400  0.13004400  0.13004400  1
  F  F5  1  0.86995600  0.86995600  0.86995600  1
