# generated using pymatgen
data_CsNb3SBr7
_symmetry_space_group_name_H-M   'P 1'
_cell_length_a   19.57216200
_cell_length_b   7.16060400
_cell_length_c   10.37701021
_cell_angle_alpha   82.31114324
_cell_angle_beta   90.00000000
_cell_angle_gamma   90.00000000
_symmetry_Int_Tables_number   1
_chemical_formula_structural   CsNb3SBr7
_chemical_formula_sum   'Cs4 Nb12 S4 Br28'
_cell_volume   1441.24696687
_cell_formula_units_Z   4
loop_
 _symmetry_equiv_pos_site_id
 _symmetry_equiv_pos_as_xyz
  1  'x, y, z'
loop_
 _atom_site_type_symbol
 _atom_site_label
 _atom_site_symmetry_multiplicity
 _atom_site_fract_x
 _atom_site_fract_y
 _atom_site_fract_z
 _atom_site_occupancy
  Cs  Cs0  1  0.40520200  0.76872200  0.88460000  1
  Cs  Cs1  1  0.09479800  0.26872200  0.88460000  1
  Cs  Cs2  1  0.90520200  0.73127800  0.11540000  1
  Cs  Cs3  1  0.59479800  0.23127800  0.11540000  1
  Nb  Nb4  1  0.82768500  0.13471600  0.57874700  1
  Nb  Nb5  1  0.67228000  0.03741600  0.57922700  1
  Nb  Nb6  1  0.17228000  0.46258400  0.42077300  1
  Nb  Nb7  1  0.67231500  0.63471600  0.57874700  1
  Nb  Nb8  1  0.33012600  0.21310300  0.17458900  1
  Nb  Nb9  1  0.66987400  0.78689700  0.82541100  1
  Nb  Nb10  1  0.32768500  0.36528400  0.42125300  1
  Nb  Nb11  1  0.16987400  0.71310300  0.17458900  1
  Nb  Nb12  1  0.17231500  0.86528400  0.42125300  1
  Nb  Nb13  1  0.83012600  0.28689700  0.82541100  1
  Nb  Nb14  1  0.82772000  0.53741600  0.57922700  1
  Nb  Nb15  1  0.32772000  0.96258400  0.42077300  1
  S  S16  1  0.76231500  0.81748500  0.67326000  1
  S  S17  1  0.26231500  0.68251500  0.32674000  1
  S  S18  1  0.73768500  0.31748500  0.67326000  1
  S  S19  1  0.23768500  0.18251500  0.32674000  1
  Br  Br20  1  0.75008300  0.01093100  0.95642500  1
  Br  Br21  1  0.41396400  0.13764700  0.55523300  1
  Br  Br22  1  0.74991700  0.51093100  0.95642500  1
  Br  Br23  1  0.07943200  0.94937700  0.24077500  1
  Br  Br24  1  0.59857100  0.74087000  0.05725900  1
  Br  Br25  1  0.42013900  0.94979100  0.23899300  1
  Br  Br26  1  0.90142900  0.24087000  0.05725900  1
  Br  Br27  1  0.75017000  0.12530800  0.36914400  1
  Br  Br28  1  0.25008300  0.48906900  0.04357500  1
  Br  Br29  1  0.40142900  0.25913000  0.94274100  1
  Br  Br30  1  0.08603600  0.63764700  0.55523300  1
  Br  Br31  1  0.57943200  0.55062300  0.75922500  1
  Br  Br32  1  0.24991700  0.98906900  0.04357500  1
  Br  Br33  1  0.92056800  0.05062300  0.75922500  1
  Br  Br34  1  0.58603600  0.86235300  0.44476700  1
  Br  Br35  1  0.91396400  0.36235300  0.44476700  1
  Br  Br36  1  0.09857100  0.75913000  0.94274100  1
  Br  Br37  1  0.24983000  0.87469200  0.63085600  1
  Br  Br38  1  0.92013900  0.55020900  0.76100700  1
  Br  Br39  1  0.10100400  0.14254900  0.53351200  1
  Br  Br40  1  0.57986100  0.05020900  0.76100700  1
  Br  Br41  1  0.74983000  0.62530800  0.36914400  1
  Br  Br42  1  0.42056800  0.44937700  0.24077500  1
  Br  Br43  1  0.89899600  0.85745100  0.46648800  1
  Br  Br44  1  0.60100400  0.35745100  0.46648800  1
  Br  Br45  1  0.25017000  0.37469200  0.63085600  1
  Br  Br46  1  0.39899600  0.64254900  0.53351200  1
  Br  Br47  1  0.07986100  0.44979100  0.23899300  1
