# generated using pymatgen
data_Dy4InRh
_symmetry_space_group_name_H-M   'P 1'
_cell_length_a   9.65730945
_cell_length_b   9.65730945
_cell_length_c   9.65730945
_cell_angle_alpha   60.00000000
_cell_angle_beta   60.00000000
_cell_angle_gamma   60.00000000
_symmetry_Int_Tables_number   1
_chemical_formula_structural   Dy4InRh
_chemical_formula_sum   'Dy16 In4 Rh4'
_cell_volume   636.87389149
_cell_formula_units_Z   4
loop_
 _symmetry_equiv_pos_site_id
 _symmetry_equiv_pos_as_xyz
  1  'x, y, z'
loop_
 _atom_site_type_symbol
 _atom_site_label
 _atom_site_symmetry_multiplicity
 _atom_site_fract_x
 _atom_site_fract_y
 _atom_site_fract_z
 _atom_site_occupancy
  Dy  Dy0  1  0.68909100  0.31090900  0.31090900  1
  Dy  Dy1  1  0.68909100  0.68909100  0.31090900  1
  Dy  Dy2  1  0.31090900  0.68909100  0.31090900  1
  Dy  Dy3  1  0.93793300  0.93793300  0.56206700  1
  Dy  Dy4  1  0.15018900  0.15018900  0.54943200  1
  Dy  Dy5  1  0.56206700  0.93793300  0.56206700  1
  Dy  Dy6  1  0.15018900  0.15018900  0.15018900  1
  Dy  Dy7  1  0.31090900  0.31090900  0.68909100  1
  Dy  Dy8  1  0.93793300  0.56206700  0.56206700  1
  Dy  Dy9  1  0.56206700  0.56206700  0.93793300  1
  Dy  Dy10  1  0.56206700  0.93793300  0.93793300  1
  Dy  Dy11  1  0.93793300  0.56206700  0.93793300  1
  Dy  Dy12  1  0.15018900  0.54943200  0.15018900  1
  Dy  Dy13  1  0.31090900  0.68909100  0.68909100  1
  Dy  Dy14  1  0.68909100  0.31090900  0.68909100  1
  Dy  Dy15  1  0.54943200  0.15018900  0.15018900  1
  In  In16  1  0.91726700  0.91726700  0.24819900  1
  In  In17  1  0.24819900  0.91726700  0.91726700  1
  In  In18  1  0.91726700  0.24819900  0.91726700  1
  In  In19  1  0.91726700  0.91726700  0.91726700  1
  Rh  Rh20  1  0.35749700  0.35749700  0.35749700  1
  Rh  Rh21  1  0.92751000  0.35749700  0.35749700  1
  Rh  Rh22  1  0.35749700  0.35749700  0.92751000  1
  Rh  Rh23  1  0.35749700  0.92751000  0.35749700  1
