# generated using pymatgen
data_La3NbO7
_symmetry_space_group_name_H-M   'P 1'
_cell_length_a   7.79004800
_cell_length_b   7.83106200
_cell_length_c   11.18163000
_cell_angle_alpha   90.00000000
_cell_angle_beta   90.00000000
_cell_angle_gamma   90.00000000
_symmetry_Int_Tables_number   1
_chemical_formula_structural   La3NbO7
_chemical_formula_sum   'La12 Nb4 O28'
_cell_volume   682.12805747
_cell_formula_units_Z   4
loop_
 _symmetry_equiv_pos_site_id
 _symmetry_equiv_pos_as_xyz
  1  'x, y, z'
loop_
 _atom_site_type_symbol
 _atom_site_label
 _atom_site_symmetry_multiplicity
 _atom_site_fract_x
 _atom_site_fract_y
 _atom_site_fract_z
 _atom_site_occupancy
  La  La0  1  0.04358100  0.75099700  0.47746800  1
  La  La1  1  0.28576400  0.49158600  0.75000000  1
  La  La2  1  0.71423600  0.50841400  0.25000000  1
  La  La3  1  0.45641900  0.25099700  0.02253200  1
  La  La4  1  0.78576400  0.00841400  0.25000000  1
  La  La5  1  0.54358100  0.74900300  0.52253200  1
  La  La6  1  0.54358100  0.74900300  0.97746800  1
  La  La7  1  0.04358100  0.75099700  0.02253200  1
  La  La8  1  0.95641900  0.24900300  0.97746800  1
  La  La9  1  0.95641900  0.24900300  0.52253200  1
  La  La10  1  0.45641900  0.25099700  0.47746800  1
  La  La11  1  0.21423600  0.99158600  0.75000000  1
  Nb  Nb12  1  0.74742100  0.99290500  0.75000000  1
  Nb  Nb13  1  0.25257900  0.00709500  0.25000000  1
  Nb  Nb14  1  0.75257900  0.49290500  0.75000000  1
  Nb  Nb15  1  0.24742100  0.50709500  0.25000000  1
  O  O16  1  0.22794200  0.24645700  0.61800300  1
  O  O17  1  0.54944500  0.46839700  0.62824300  1
  O  O18  1  0.59045700  0.03820600  0.61663600  1
  O  O19  1  0.40954300  0.96179400  0.38336400  1
  O  O20  1  0.04944500  0.03160300  0.37175700  1
  O  O21  1  0.90954300  0.53820600  0.88336400  1
  O  O22  1  0.31840800  0.24694200  0.25000000  1
  O  O23  1  0.77205800  0.75354300  0.38199700  1
  O  O24  1  0.95055500  0.96839700  0.62824300  1
  O  O25  1  0.27205800  0.74645700  0.88199700  1
  O  O26  1  0.72794200  0.25354300  0.11800300  1
  O  O27  1  0.22794200  0.24645700  0.88199700  1
  O  O28  1  0.81840700  0.25305800  0.75000000  1
  O  O29  1  0.09045700  0.46179400  0.11663600  1
  O  O30  1  0.72794200  0.25354300  0.38199700  1
  O  O31  1  0.04944500  0.03160300  0.12824300  1
  O  O32  1  0.95055500  0.96839700  0.87175700  1
  O  O33  1  0.68159300  0.75305800  0.75000000  1
  O  O34  1  0.27205800  0.74645700  0.61800300  1
  O  O35  1  0.18159200  0.74694200  0.25000000  1
  O  O36  1  0.45055500  0.53160300  0.37175700  1
  O  O37  1  0.90954300  0.53820600  0.61663600  1
  O  O38  1  0.09045700  0.46179400  0.38336400  1
  O  O39  1  0.59045700  0.03820600  0.88336400  1
  O  O40  1  0.45055500  0.53160300  0.12824300  1
  O  O41  1  0.40954300  0.96179400  0.11663600  1
  O  O42  1  0.54944500  0.46839700  0.87175700  1
  O  O43  1  0.77205800  0.75354300  0.11800300  1
