# generated using pymatgen
data_HoGe2Pt
_symmetry_space_group_name_H-M   'P 1'
_cell_length_a   9.60130403
_cell_length_b   9.60130403
_cell_length_c   9.60130403
_cell_angle_alpha   153.98063974
_cell_angle_beta   125.65243722
_cell_angle_gamma   61.21575140
_symmetry_Int_Tables_number   1
_chemical_formula_structural   HoGe2Pt
_chemical_formula_sum   'Ho4 Ge8 Pt4'
_cell_volume   313.26828177
_cell_formula_units_Z   4
loop_
 _symmetry_equiv_pos_site_id
 _symmetry_equiv_pos_as_xyz
  1  'x, y, z'
loop_
 _atom_site_type_symbol
 _atom_site_label
 _atom_site_symmetry_multiplicity
 _atom_site_fract_x
 _atom_site_fract_y
 _atom_site_fract_z
 _atom_site_occupancy
  Ho  Ho0  1  0.73585800  0.00000000  0.73585800  1
  Ho  Ho1  1  0.70048600  0.20048600  0.50000000  1
  Ho  Ho2  1  0.29951400  0.79951400  0.50000000  1
  Ho  Ho3  1  0.26414200  0.00000000  0.26414200  1
  Ge  Ge4  1  0.64828900  0.79856800  0.84972000  1
  Ge  Ge5  1  0.92694700  0.42694700  0.50000000  1
  Ge  Ge6  1  0.05115200  0.20143200  0.84972000  1
  Ge  Ge7  1  0.35171100  0.20143200  0.15028000  1
  Ge  Ge8  1  0.94884800  0.79856800  0.15028000  1
  Ge  Ge9  1  0.42611300  0.42611300  0.00000000  1
  Ge  Ge10  1  0.07305300  0.57305300  0.50000000  1
  Ge  Ge11  1  0.57388700  0.57388700  0.00000000  1
  Pt  Pt12  1  0.39642600  0.64729000  0.74913600  1
  Pt  Pt13  1  0.60357400  0.35271000  0.25086400  1
  Pt  Pt14  1  0.89815500  0.64729000  0.25086400  1
  Pt  Pt15  1  0.10184500  0.35271000  0.74913600  1
