# generated using pymatgen
data_KDy(SeO4)2
_symmetry_space_group_name_H-M   'P 1'
_cell_length_a   5.72349500
_cell_length_b   9.10603400
_cell_length_c   27.83296000
_cell_angle_alpha   90.00000000
_cell_angle_beta   90.00000000
_cell_angle_gamma   90.00000000
_symmetry_Int_Tables_number   1
_chemical_formula_structural   KDy(SeO4)2
_chemical_formula_sum   'K8 Dy8 Se16 O64'
_cell_volume   1450.60767440
_cell_formula_units_Z   8
loop_
 _symmetry_equiv_pos_site_id
 _symmetry_equiv_pos_as_xyz
  1  'x, y, z'
loop_
 _atom_site_type_symbol
 _atom_site_label
 _atom_site_symmetry_multiplicity
 _atom_site_fract_x
 _atom_site_fract_y
 _atom_site_fract_z
 _atom_site_occupancy
  K  K0  1  0.28413100  0.78291700  0.33299600  1
  K  K1  1  0.74547100  0.44938800  0.91810600  1
  K  K2  1  0.78413100  0.28291700  0.16700400  1
  K  K3  1  0.75452900  0.44938800  0.41810600  1
  K  K4  1  0.25452900  0.94938800  0.08189400  1
  K  K5  1  0.21586900  0.78291700  0.83299600  1
  K  K6  1  0.71586900  0.28291700  0.66700400  1
  K  K7  1  0.24547100  0.94938800  0.58189400  1
  Dy  Dy8  1  0.27683300  0.41806600  0.05267700  1
  Dy  Dy9  1  0.72316700  0.91806600  0.94732300  1
  Dy  Dy10  1  0.77683300  0.91806600  0.44732300  1
  Dy  Dy11  1  0.32490100  0.32248800  0.30084700  1
  Dy  Dy12  1  0.82490100  0.82248800  0.19915300  1
  Dy  Dy13  1  0.17509900  0.32248800  0.80084700  1
  Dy  Dy14  1  0.67509900  0.82248800  0.69915300  1
  Dy  Dy15  1  0.22316700  0.41806600  0.55267700  1
  Se  Se16  1  0.81031000  0.05554100  0.31707400  1
  Se  Se17  1  0.21018100  0.02108800  0.70762500  1
  Se  Se18  1  0.23655200  0.71740100  0.45619600  1
  Se  Se19  1  0.71018100  0.52108800  0.79237500  1
  Se  Se20  1  0.68969000  0.05554100  0.81707400  1
  Se  Se21  1  0.73655200  0.21740100  0.04380400  1
  Se  Se22  1  0.78981900  0.52108800  0.29237500  1
  Se  Se23  1  0.73239600  0.68834200  0.56665400  1
  Se  Se24  1  0.23239600  0.18834200  0.93334600  1
  Se  Se25  1  0.26344800  0.71740100  0.95619600  1
  Se  Se26  1  0.76344800  0.21740100  0.54380400  1
  Se  Se27  1  0.28981900  0.02108800  0.20762500  1
  Se  Se28  1  0.31031000  0.55554100  0.18292600  1
  Se  Se29  1  0.76760400  0.68834200  0.06665400  1
  Se  Se30  1  0.18969000  0.55554100  0.68292600  1
  Se  Se31  1  0.26760400  0.18834200  0.43334600  1
  O  O32  1  0.79853900  0.91903100  0.35711500  1
  O  O33  1  0.70146100  0.91903100  0.85711500  1
  O  O34  1  0.00481300  0.62274000  0.57190800  1
  O  O35  1  0.25682100  0.49247400  0.73767800  1
  O  O36  1  0.19899300  0.32347600  0.89331900  1
  O  O37  1  0.29853900  0.41903100  0.14288500  1
  O  O38  1  0.95875100  0.55344600  0.07645100  1
  O  O39  1  0.18750800  0.25155300  0.98897700  1
  O  O40  1  0.33359300  0.86148500  0.99062000  1
  O  O41  1  0.51869200  0.24220400  0.57604800  1
  O  O42  1  0.16640700  0.86148500  0.49062000  1
  O  O43  1  0.74317900  0.99247400  0.26232200  1
  O  O44  1  0.68750800  0.75155300  0.51102300  1
  O  O45  1  0.97795800  0.97831200  0.67348700  1
  O  O46  1  0.99518700  0.12274000  0.42809200  1
  O  O47  1  0.94585100  0.52579000  0.82892600  1
  O  O48  1  0.30100700  0.32347600  0.39331900  1
  O  O49  1  0.33199900  0.18849600  0.23014800  1
  O  O50  1  0.04124900  0.05344600  0.92354900  1
  O  O51  1  0.47795800  0.47831200  0.82651300  1
  O  O52  1  0.02204200  0.47831200  0.32651300  1
  O  O53  1  0.50915800  0.21622500  0.08253500  1
  O  O54  1  0.24317900  0.49247400  0.23767800  1
  O  O55  1  0.11614900  0.68444000  0.16817500  1
  O  O56  1  0.54124900  0.55344600  0.57645100  1
  O  O57  1  0.77562200  0.38582900  0.75457200  1
  O  O58  1  0.27562200  0.88582900  0.74542800  1
  O  O59  1  0.01869200  0.74220400  0.92395200  1
  O  O60  1  0.66800100  0.68849600  0.76985200  1
  O  O61  1  0.45875100  0.05344600  0.42354900  1
  O  O62  1  0.07856000  0.12795000  0.31727600  1
  O  O63  1  0.75682100  0.99247400  0.76232200  1
  O  O64  1  0.16800100  0.18849600  0.73014800  1
  O  O65  1  0.50481300  0.12274000  0.92809200  1
  O  O66  1  0.83359300  0.36148500  0.50938000  1
  O  O67  1  0.92144000  0.62795000  0.68272400  1
  O  O68  1  0.98130800  0.24220400  0.07604800  1
  O  O69  1  0.31249200  0.25155300  0.48897700  1
  O  O70  1  0.66640700  0.36148500  0.00938000  1
  O  O71  1  0.69899300  0.82347600  0.60668100  1
  O  O72  1  0.99084200  0.21622500  0.58253500  1
  O  O73  1  0.48130800  0.74220400  0.42395200  1
  O  O74  1  0.83199900  0.68849600  0.26985200  1
  O  O75  1  0.00915800  0.71622500  0.41746500  1
  O  O76  1  0.20146100  0.41903100  0.64288500  1
  O  O77  1  0.75449800  0.05421600  0.01728900  1
  O  O78  1  0.44585100  0.02579000  0.67107400  1
  O  O79  1  0.22437800  0.88582900  0.24542800  1
  O  O80  1  0.38385100  0.68444000  0.66817500  1
  O  O81  1  0.57856000  0.62795000  0.18272400  1
  O  O82  1  0.88385100  0.18444000  0.83182500  1
  O  O83  1  0.61614900  0.18444000  0.33182500  1
  O  O84  1  0.81249200  0.75155300  0.01102300  1
  O  O85  1  0.05414900  0.02579000  0.17107400  1
  O  O86  1  0.55414900  0.52579000  0.32892600  1
  O  O87  1  0.49518700  0.62274000  0.07190800  1
  O  O88  1  0.72437800  0.38582900  0.25457200  1
  O  O89  1  0.25449800  0.55421600  0.48271100  1
  O  O90  1  0.24550200  0.55421600  0.98271100  1
  O  O91  1  0.80100700  0.82347600  0.10668100  1
  O  O92  1  0.52204200  0.97831200  0.17348700  1
  O  O93  1  0.74550200  0.05421600  0.51728900  1
  O  O94  1  0.49084200  0.71622500  0.91746500  1
  O  O95  1  0.42144000  0.12795000  0.81727600  1
