# generated using pymatgen
data_KCa9Mn(PO4)7
_symmetry_space_group_name_H-M   'P 1'
_cell_length_a   13.87156115
_cell_length_b   13.87156115
_cell_length_c   13.87156167
_cell_angle_alpha   44.69547843
_cell_angle_beta   44.69547843
_cell_angle_gamma   44.69547889
_symmetry_Int_Tables_number   1
_chemical_formula_structural   KCa9Mn(PO4)7
_chemical_formula_sum   'K2 Ca18 Mn2 P14 O56'
_cell_volume   1201.02713695
_cell_formula_units_Z   2
loop_
 _symmetry_equiv_pos_site_id
 _symmetry_equiv_pos_as_xyz
  1  'x, y, z'
loop_
 _atom_site_type_symbol
 _atom_site_label
 _atom_site_symmetry_multiplicity
 _atom_site_fract_x
 _atom_site_fract_y
 _atom_site_fract_z
 _atom_site_occupancy
  K  K0  1  0.68395400  0.68395400  0.68395400  1
  K  K1  1  0.18395400  0.18395400  0.18395400  1
  Ca  Ca2  1  0.57421500  0.56506800  0.16047500  1
  Ca  Ca3  1  0.97300600  0.56371400  0.94389500  1
  Ca  Ca4  1  0.90969900  0.34615100  0.94545500  1
  Ca  Ca5  1  0.66047500  0.06506800  0.07421500  1
  Ca  Ca6  1  0.34615100  0.94545500  0.90969900  1
  Ca  Ca7  1  0.56506800  0.16047500  0.57421500  1
  Ca  Ca8  1  0.94389500  0.97300600  0.56371400  1
  Ca  Ca9  1  0.56371400  0.94389500  0.97300600  1
  Ca  Ca10  1  0.06371400  0.47300600  0.44389500  1
  Ca  Ca11  1  0.16047500  0.57421500  0.56506800  1
  Ca  Ca12  1  0.40969900  0.44545500  0.84615100  1
  Ca  Ca13  1  0.06506800  0.07421500  0.66047500  1
  Ca  Ca14  1  0.47300600  0.44389500  0.06371400  1
  Ca  Ca15  1  0.84615100  0.40969900  0.44545500  1
  Ca  Ca16  1  0.44545500  0.84615100  0.40969900  1
  Ca  Ca17  1  0.44389500  0.06371400  0.47300600  1
  Ca  Ca18  1  0.07421500  0.66047500  0.06506800  1
  Ca  Ca19  1  0.94545500  0.90969900  0.34615100  1
  Mn  Mn20  1  0.50138900  0.50138900  0.50138900  1
  Mn  Mn21  1  0.00138900  0.00138900  0.00138900  1
  P  P22  1  0.31510500  0.82054900  0.27289300  1
  P  P23  1  0.68237400  0.18739100  0.72884100  1
  P  P24  1  0.32054900  0.81510500  0.77289300  1
  P  P25  1  0.82054900  0.27289300  0.31510500  1
  P  P26  1  0.22884100  0.68739100  0.18237400  1
  P  P27  1  0.27289300  0.31510500  0.82054900  1
  P  P28  1  0.72884100  0.68237400  0.18739100  1
  P  P29  1  0.81510500  0.77289300  0.32054900  1
  P  P30  1  0.76845200  0.76845200  0.76845200  1
  P  P31  1  0.18237400  0.22884100  0.68739100  1
  P  P32  1  0.18739100  0.72884100  0.68237400  1
  P  P33  1  0.77289300  0.32054900  0.81510500  1
  P  P34  1  0.26845200  0.26845200  0.26845200  1
  P  P35  1  0.68739100  0.18237400  0.22884100  1
  O  O36  1  0.61639700  0.36333800  0.64385900  1
  O  O37  1  0.12878800  0.67620400  0.85152300  1
  O  O38  1  0.64385900  0.61639700  0.36333800  1
  O  O39  1  0.39553000  0.86934700  0.76191100  1
  O  O40  1  0.37439300  0.64519000  0.37069800  1
  O  O41  1  0.38875400  0.64111700  0.84152300  1
  O  O42  1  0.37069800  0.37439300  0.64519000  1
  O  O43  1  0.36333800  0.64385900  0.61639700  1
  O  O44  1  0.86934700  0.76191100  0.39553000  1
  O  O45  1  0.26191100  0.36934700  0.89553000  1
  O  O46  1  0.26226500  0.39141900  0.11139400  1
  O  O47  1  0.16931400  0.19109700  0.61634000  1
  O  O48  1  0.14439900  0.90118000  0.58877100  1
  O  O49  1  0.08877100  0.40118000  0.64439900  1
  O  O50  1  0.61634000  0.16931400  0.19109700  1
  O  O51  1  0.34152300  0.14111700  0.88875400  1
  O  O52  1  0.89141900  0.76226500  0.61139400  1
  O  O53  1  0.87439300  0.87069800  0.14519000  1
  O  O54  1  0.17620400  0.62878800  0.35152300  1
  O  O55  1  0.83797400  0.10963500  0.39429000  1
  O  O56  1  0.89553000  0.26191100  0.36934700  1
  O  O57  1  0.11634000  0.69109700  0.66931400  1
  O  O58  1  0.64111700  0.84152300  0.38875400  1
  O  O59  1  0.64439900  0.08877100  0.40118000  1
  O  O60  1  0.76226500  0.61139400  0.89141900  1
  O  O61  1  0.81002300  0.81002300  0.81002300  1
  O  O62  1  0.76191100  0.39553000  0.86934700  1
  O  O63  1  0.33797400  0.89429000  0.60963500  1
  O  O64  1  0.66931400  0.11634000  0.69109700  1
  O  O65  1  0.14111700  0.88875400  0.34152300  1
  O  O66  1  0.10963500  0.39429000  0.83797400  1
  O  O67  1  0.39429000  0.83797400  0.10963500  1
  O  O68  1  0.39141900  0.11139400  0.26226500  1
  O  O69  1  0.58877100  0.14439900  0.90118000  1
  O  O70  1  0.19109700  0.61634000  0.16931400  1
  O  O71  1  0.11139400  0.26226500  0.39141900  1
  O  O72  1  0.11639700  0.14385900  0.86333800  1
  O  O73  1  0.60963500  0.33797400  0.89429000  1
  O  O74  1  0.69109700  0.66931400  0.11634000  1
  O  O75  1  0.62878800  0.35152300  0.17620400  1
  O  O76  1  0.84152300  0.38875400  0.64111700  1
  O  O77  1  0.85152300  0.12878800  0.67620400  1
  O  O78  1  0.14385900  0.86333800  0.11639700  1
  O  O79  1  0.87069800  0.14519000  0.87439300  1
  O  O80  1  0.14519000  0.87439300  0.87069800  1
  O  O81  1  0.61139400  0.89141900  0.76226500  1
  O  O82  1  0.64519000  0.37069800  0.37439300  1
  O  O83  1  0.67620400  0.85152300  0.12878800  1
  O  O84  1  0.35152300  0.17620400  0.62878800  1
  O  O85  1  0.89429000  0.60963500  0.33797400  1
  O  O86  1  0.88875400  0.34152300  0.14111700  1
  O  O87  1  0.36934700  0.89553000  0.26191100  1
  O  O88  1  0.90118000  0.58877100  0.14439900  1
  O  O89  1  0.31002300  0.31002300  0.31002300  1
  O  O90  1  0.86333800  0.11639700  0.14385900  1
  O  O91  1  0.40118000  0.64439900  0.08877100  1
