# generated using pymatgen
data_Rb2TeBr6
_symmetry_space_group_name_H-M   'P 1'
_cell_length_a   7.88400728
_cell_length_b   7.88400728
_cell_length_c   7.88400728
_cell_angle_alpha   120.46146692
_cell_angle_beta   120.46146692
_cell_angle_gamma   89.20255710
_symmetry_Int_Tables_number   1
_chemical_formula_structural   Rb2TeBr6
_chemical_formula_sum   'Rb2 Te1 Br6'
_cell_volume   344.06508289
_cell_formula_units_Z   1
loop_
 _symmetry_equiv_pos_site_id
 _symmetry_equiv_pos_as_xyz
  1  'x, y, z'
loop_
 _atom_site_type_symbol
 _atom_site_label
 _atom_site_symmetry_multiplicity
 _atom_site_fract_x
 _atom_site_fract_y
 _atom_site_fract_z
 _atom_site_occupancy
  Rb  Rb0  1  0.75000000  0.25000000  0.50000000  1
  Rb  Rb1  1  0.25000000  0.75000000  0.50000000  1
  Te  Te2  1  0.00000000  0.00000000  0.00000000  1
  Br  Br3  1  0.26722400  0.77469500  0.04191900  1
  Br  Br4  1  0.24370700  0.24370700  0.00000000  1
  Br  Br5  1  0.77469500  0.73277600  0.50747100  1
  Br  Br6  1  0.22530500  0.26722400  0.49252900  1
  Br  Br7  1  0.75629300  0.75629300  0.00000000  1
  Br  Br8  1  0.73277600  0.22530500  0.95808100  1
