# generated using pymatgen
data_Np2Si4Tc3
_symmetry_space_group_name_H-M   'P 1'
_cell_length_a   8.05095200
_cell_length_b   5.66225500
_cell_length_c   6.76394491
_cell_angle_alpha   75.82972947
_cell_angle_beta   90.00000000
_cell_angle_gamma   90.00000000
_symmetry_Int_Tables_number   1
_chemical_formula_structural   Np2Si4Tc3
_chemical_formula_sum   'Np4 Si8 Tc6'
_cell_volume   298.96270460
_cell_formula_units_Z   2
loop_
 _symmetry_equiv_pos_site_id
 _symmetry_equiv_pos_as_xyz
  1  'x, y, z'
loop_
 _atom_site_type_symbol
 _atom_site_label
 _atom_site_symmetry_multiplicity
 _atom_site_fract_x
 _atom_site_fract_y
 _atom_site_fract_z
 _atom_site_occupancy
  Np  Np0  1  0.94361800  0.57339800  0.25459700  1
  Np  Np1  1  0.44361800  0.92660200  0.74540300  1
  Np  Np2  1  0.05638200  0.42660200  0.74540300  1
  Np  Np3  1  0.55638200  0.07339800  0.25459700  1
  Si  Si4  1  0.59619800  0.61601200  0.12736900  1
  Si  Si5  1  0.09619800  0.88398800  0.87263100  1
  Si  Si6  1  0.40380200  0.38398800  0.87263100  1
  Si  Si7  1  0.90380200  0.11601200  0.12736900  1
  Si  Si8  1  0.75126000  0.72440000  0.57861100  1
  Si  Si9  1  0.25126000  0.77560000  0.42138900  1
  Si  Si10  1  0.24874000  0.27560000  0.42138900  1
  Si  Si11  1  0.74874000  0.22440000  0.57861100  1
  Tc  Tc12  1  0.29295000  0.61600000  0.11160300  1
  Tc  Tc13  1  0.79295000  0.88400000  0.88839700  1
  Tc  Tc14  1  0.70705000  0.38400000  0.88839700  1
  Tc  Tc15  1  0.20705000  0.11600000  0.11160300  1
  Tc  Tc16  1  0.50000000  0.50000000  0.50000000  1
  Tc  Tc17  1  0.00000000  0.00000000  0.50000000  1
