# generated using pymatgen
data_Pr6Si4S17
_symmetry_space_group_name_H-M   'P 1'
_cell_length_a   9.04108700
_cell_length_b   10.07546527
_cell_length_c   14.38075880
_cell_angle_alpha   81.99255545
_cell_angle_beta   86.88386164
_cell_angle_gamma   89.31584970
_symmetry_Int_Tables_number   1
_chemical_formula_structural   Pr6Si4S17
_chemical_formula_sum   'Pr12 Si8 S34'
_cell_volume   1295.28561056
_cell_formula_units_Z   2
loop_
 _symmetry_equiv_pos_site_id
 _symmetry_equiv_pos_as_xyz
  1  'x, y, z'
loop_
 _atom_site_type_symbol
 _atom_site_label
 _atom_site_symmetry_multiplicity
 _atom_site_fract_x
 _atom_site_fract_y
 _atom_site_fract_z
 _atom_site_occupancy
  Pr  Pr0  1  0.66821500  0.58883100  0.65776000  1
  Pr  Pr1  1  0.10656000  0.38502900  0.81654300  1
  Pr  Pr2  1  0.55182400  0.26147200  0.99877400  1
  Pr  Pr3  1  0.63002700  0.93401800  0.32462600  1
  Pr  Pr4  1  0.89344000  0.61497100  0.18345700  1
  Pr  Pr5  1  0.98129200  0.23082500  0.54048900  1
  Pr  Pr6  1  0.08362600  0.08010300  0.16567800  1
  Pr  Pr7  1  0.91637400  0.91989700  0.83432200  1
  Pr  Pr8  1  0.36997300  0.06598200  0.67537400  1
  Pr  Pr9  1  0.44817600  0.73852800  0.00122600  1
  Pr  Pr10  1  0.33178500  0.41116900  0.34224000  1
  Pr  Pr11  1  0.01870800  0.76917500  0.45951100  1
  Si  Si12  1  0.76932900  0.56243200  0.90117600  1
  Si  Si13  1  0.75100500  0.50060600  0.41622000  1
  Si  Si14  1  0.72527800  0.94137900  0.60563900  1
  Si  Si15  1  0.25092600  0.06008200  0.92278200  1
  Si  Si16  1  0.74907400  0.93991800  0.07721800  1
  Si  Si17  1  0.27472200  0.05862100  0.39436100  1
  Si  Si18  1  0.24899500  0.49939400  0.58378000  1
  Si  Si19  1  0.23067100  0.43756800  0.09882400  1
  S  S20  1  0.74205200  0.11411700  0.14868200  1
  S  S21  1  0.34041100  0.00143500  0.05644300  1
  S  S22  1  0.99049900  0.62777300  0.88550200  1
  S  S23  1  0.70327800  0.69215700  0.45934100  1
  S  S24  1  0.30014500  0.91163500  0.30344500  1
  S  S25  1  0.69985500  0.08836500  0.69655500  1
  S  S26  1  0.24712400  0.61290400  0.16699200  1
  S  S27  1  0.01530200  0.49202000  0.62323800  1
  S  S28  1  0.30604100  0.63282700  0.46129600  1
  S  S29  1  0.81530600  0.01858100  0.46776300  1
  S  S30  1  0.64479300  0.47081600  0.29384100  1
  S  S31  1  0.10745100  0.20130300  0.34556400  1
  S  S32  1  0.04138200  0.14749400  0.95178400  1
  S  S33  1  0.25794800  0.88588300  0.85131800  1
  S  S34  1  0.93077700  0.85668400  0.27787400  1
  S  S35  1  0.38305700  0.21245700  0.83912500  1
  S  S36  1  0.95861800  0.85250600  0.04821600  1
  S  S37  1  0.63343000  0.71758600  0.83365600  1
  S  S38  1  0.65958900  0.99856500  0.94355700  1
  S  S39  1  0.75287600  0.38709600  0.83300800  1
  S  S40  1  0.89254900  0.79869700  0.65443600  1
  S  S41  1  0.29672200  0.30784300  0.54065900  1
  S  S42  1  0.35520700  0.52918400  0.70615900  1
  S  S43  1  0.18469400  0.98141900  0.53223700  1
  S  S44  1  0.69395900  0.36717300  0.53870400  1
  S  S45  1  0.61694300  0.78754300  0.16087500  1
  S  S46  1  0.98469800  0.50798000  0.37676200  1
  S  S47  1  0.06922300  0.14331600  0.72212600  1
  S  S48  1  0.51765000  0.84641800  0.60352800  1
  S  S49  1  0.36657000  0.28241400  0.16634400  1
  S  S50  1  0.67865900  0.51862600  0.04302200  1
  S  S51  1  0.32134100  0.48137400  0.95697800  1
  S  S52  1  0.00950100  0.37222700  0.11449800  1
  S  S53  1  0.48235000  0.15358200  0.39647200  1
