# generated using pymatgen
data_AlAs3(SeCl)4
_symmetry_space_group_name_H-M   'P 1'
_cell_length_a   12.51978918
_cell_length_b   12.51978918
_cell_length_c   14.48857961
_cell_angle_alpha   59.31209653
_cell_angle_beta   59.31209653
_cell_angle_gamma   63.65856827
_symmetry_Int_Tables_number   1
_chemical_formula_structural   AlAs3(SeCl)4
_chemical_formula_sum   'Al4 As12 Se16 Cl16'
_cell_volume   1627.10789696
_cell_formula_units_Z   4
loop_
 _symmetry_equiv_pos_site_id
 _symmetry_equiv_pos_as_xyz
  1  'x, y, z'
loop_
 _atom_site_type_symbol
 _atom_site_label
 _atom_site_symmetry_multiplicity
 _atom_site_fract_x
 _atom_site_fract_y
 _atom_site_fract_z
 _atom_site_occupancy
  Al  Al0  1  0.23152600  0.31174200  0.41994800  1
  Al  Al1  1  0.31174200  0.23152600  0.91994800  1
  Al  Al2  1  0.76847400  0.68825800  0.58005200  1
  Al  Al3  1  0.68825800  0.76847400  0.08005200  1
  As  As4  1  0.70106900  0.07153200  0.61413600  1
  As  As5  1  0.92846800  0.29893100  0.88586400  1
  As  As6  1  0.37659100  0.79583200  0.55110600  1
  As  As7  1  0.29893100  0.92846800  0.38586400  1
  As  As8  1  0.79583200  0.37659100  0.05110600  1
  As  As9  1  0.20416800  0.62340900  0.94889400  1
  As  As10  1  0.16018800  0.64089400  0.57644300  1
  As  As11  1  0.64089400  0.16018800  0.07644300  1
  As  As12  1  0.62340900  0.20416800  0.44889400  1
  As  As13  1  0.83981200  0.35910600  0.42355700  1
  As  As14  1  0.07153200  0.70106900  0.11413600  1
  As  As15  1  0.35910600  0.83981200  0.92355700  1
  Se  Se16  1  0.14762800  0.93788400  0.58581300  1
  Se  Se17  1  0.20080100  0.98166700  0.83304900  1
  Se  Se18  1  0.01833300  0.79919900  0.66695100  1
  Se  Se19  1  0.22184700  0.79266300  0.38099700  1
  Se  Se20  1  0.79919900  0.01833300  0.16695100  1
  Se  Se21  1  0.59510100  0.33955800  0.12231100  1
  Se  Se22  1  0.98166700  0.20080100  0.33304900  1
  Se  Se23  1  0.20733700  0.77815300  0.11900300  1
  Se  Se24  1  0.79266300  0.22184700  0.88099700  1
  Se  Se25  1  0.85237200  0.06211600  0.41418700  1
  Se  Se26  1  0.66044200  0.40489900  0.37768900  1
  Se  Se27  1  0.77815300  0.20733700  0.61900300  1
  Se  Se28  1  0.06211600  0.85237200  0.91418700  1
  Se  Se29  1  0.93788400  0.14762800  0.08581300  1
  Se  Se30  1  0.40489900  0.66044200  0.87768900  1
  Se  Se31  1  0.33955800  0.59510100  0.62231100  1
  Cl  Cl32  1  0.94486400  0.70138400  0.43222900  1
  Cl  Cl33  1  0.32310700  0.43648800  0.39978000  1
  Cl  Cl34  1  0.80344500  0.62544500  0.73453500  1
  Cl  Cl35  1  0.37455500  0.19655500  0.76546500  1
  Cl  Cl36  1  0.87939100  0.63803200  0.05549100  1
  Cl  Cl37  1  0.56351200  0.67689300  0.10022000  1
  Cl  Cl38  1  0.63803200  0.87939100  0.55549100  1
  Cl  Cl39  1  0.29861600  0.05513600  0.06777100  1
  Cl  Cl40  1  0.12060900  0.36196800  0.94450900  1
  Cl  Cl41  1  0.05513600  0.29861600  0.56777100  1
  Cl  Cl42  1  0.70138400  0.94486400  0.93222900  1
  Cl  Cl43  1  0.62544500  0.80344500  0.23453500  1
  Cl  Cl44  1  0.43648800  0.32310700  0.89978000  1
  Cl  Cl45  1  0.67689300  0.56351200  0.60022000  1
  Cl  Cl46  1  0.36196800  0.12060900  0.44450900  1
  Cl  Cl47  1  0.19655500  0.37455500  0.26546500  1
