# generated using pymatgen
data_RbEr3F10
_symmetry_space_group_name_H-M   'P 1'
_cell_length_a   8.21214595
_cell_length_b   8.21214595
_cell_length_c   13.41046400
_cell_angle_alpha   90.00000000
_cell_angle_beta   90.00000000
_cell_angle_gamma   119.99999961
_symmetry_Int_Tables_number   1
_chemical_formula_structural   RbEr3F10
_chemical_formula_sum   'Rb4 Er12 F40'
_cell_volume   783.22719177
_cell_formula_units_Z   4
loop_
 _symmetry_equiv_pos_site_id
 _symmetry_equiv_pos_as_xyz
  1  'x, y, z'
loop_
 _atom_site_type_symbol
 _atom_site_label
 _atom_site_symmetry_multiplicity
 _atom_site_fract_x
 _atom_site_fract_y
 _atom_site_fract_z
 _atom_site_occupancy
  Rb  Rb0  1  0.66666700  0.33333300  0.25860200  1
  Rb  Rb1  1  0.00000000  0.00000000  0.49959200  1
  Rb  Rb2  1  0.33333300  0.66666700  0.75860200  1
  Rb  Rb3  1  0.00000000  0.00000000  0.99959200  1
  Er  Er4  1  0.50557000  0.01113900  0.51276100  1
  Er  Er5  1  0.49443000  0.98886100  0.01276100  1
  Er  Er6  1  0.49443000  0.50557000  0.01276100  1
  Er  Er7  1  0.17433900  0.82566100  0.25264700  1
  Er  Er8  1  0.01113900  0.50557000  0.01276100  1
  Er  Er9  1  0.82566100  0.17433900  0.75264700  1
  Er  Er10  1  0.34867900  0.17433900  0.75264700  1
  Er  Er11  1  0.17433900  0.34867900  0.25264700  1
  Er  Er12  1  0.98886100  0.49443000  0.51276100  1
  Er  Er13  1  0.50557000  0.49443000  0.51276100  1
  Er  Er14  1  0.65132100  0.82566100  0.25264700  1
  Er  Er15  1  0.82566100  0.65132100  0.75264700  1
  F  F16  1  0.77706400  0.22293600  0.04928400  1
  F  F17  1  0.10978900  0.21957800  0.72259000  1
  F  F18  1  0.34108200  0.33496100  0.88265100  1
  F  F19  1  0.66503900  0.65891800  0.88265100  1
  F  F20  1  0.95943000  0.47971500  0.68695800  1
  F  F21  1  0.22293600  0.77706400  0.54928400  1
  F  F22  1  0.33333300  0.66666700  0.29916900  1
  F  F23  1  0.00612100  0.66503900  0.38265100  1
  F  F24  1  0.33333300  0.66666700  0.96909100  1
  F  F25  1  0.65891800  0.99387900  0.38265100  1
  F  F26  1  0.00612100  0.34108200  0.38265100  1
  F  F27  1  0.52028500  0.04057000  0.68695800  1
  F  F28  1  0.77706400  0.55412700  0.04928400  1
  F  F29  1  0.99387900  0.33496100  0.88265100  1
  F  F30  1  0.81577700  0.18422300  0.57698600  1
  F  F31  1  0.22293600  0.44587300  0.54928400  1
  F  F32  1  0.78042200  0.89021100  0.72259000  1
  F  F33  1  0.66503900  0.00612100  0.88265100  1
  F  F34  1  0.55412700  0.77706400  0.54928400  1
  F  F35  1  0.10978900  0.89021100  0.72259000  1
  F  F36  1  0.18422300  0.81577700  0.07698600  1
  F  F37  1  0.89021100  0.78042200  0.22259000  1
  F  F38  1  0.52028500  0.47971500  0.68695800  1
  F  F39  1  0.21957800  0.10978900  0.22259000  1
  F  F40  1  0.18422300  0.36844600  0.07698600  1
  F  F41  1  0.33496100  0.34108200  0.38265100  1
  F  F42  1  0.44587300  0.22293600  0.04928400  1
  F  F43  1  0.65891800  0.66503900  0.38265100  1
  F  F44  1  0.47971500  0.52028500  0.18695800  1
  F  F45  1  0.04057000  0.52028500  0.18695800  1
  F  F46  1  0.33496100  0.99387900  0.38265100  1
  F  F47  1  0.81577700  0.63155400  0.57698600  1
  F  F48  1  0.66666700  0.33333300  0.46909100  1
  F  F49  1  0.34108200  0.00612100  0.88265100  1
  F  F50  1  0.99387900  0.65891800  0.88265100  1
  F  F51  1  0.36844600  0.18422300  0.57698600  1
  F  F52  1  0.66666700  0.33333300  0.79916900  1
  F  F53  1  0.89021100  0.10978900  0.22259000  1
  F  F54  1  0.63155400  0.81577700  0.07698600  1
  F  F55  1  0.47971500  0.95943000  0.18695800  1
