# generated using pymatgen
data_Ba3Lu4O9
_symmetry_space_group_name_H-M   'P 1'
_cell_length_a   9.05077645
_cell_length_b   9.05077645
_cell_length_c   9.05077666
_cell_angle_alpha   38.90131137
_cell_angle_beta   38.90131137
_cell_angle_gamma   38.90131786
_symmetry_Int_Tables_number   1
_chemical_formula_structural   Ba3Lu4O9
_chemical_formula_sum   'Ba3 Lu4 O9'
_cell_volume   262.89483479
_cell_formula_units_Z   1
loop_
 _symmetry_equiv_pos_site_id
 _symmetry_equiv_pos_as_xyz
  1  'x, y, z'
loop_
 _atom_site_type_symbol
 _atom_site_label
 _atom_site_symmetry_multiplicity
 _atom_site_fract_x
 _atom_site_fract_y
 _atom_site_fract_z
 _atom_site_occupancy
  Ba  Ba0  1  0.99732200  0.99732200  0.99732200  1
  Ba  Ba1  1  0.16133700  0.16133700  0.16133700  1
  Ba  Ba2  1  0.58148100  0.58148100  0.58148100  1
  Lu  Lu3  1  0.42215700  0.42215700  0.42215700  1
  Lu  Lu4  1  0.86069500  0.86069500  0.86069500  1
  Lu  Lu5  1  0.73651900  0.73651900  0.73651900  1
  Lu  Lu6  1  0.29784500  0.29784500  0.29784500  1
  O  O7  1  0.08433100  0.07434800  0.57890100  1
  O  O8  1  0.07434800  0.57890100  0.08433100  1
  O  O9  1  0.57890100  0.08433100  0.07434800  1
  O  O10  1  0.61859400  0.12279300  0.66420300  1
  O  O11  1  0.12279300  0.66420300  0.61859400  1
  O  O12  1  0.66420300  0.61859400  0.12279300  1
  O  O13  1  0.48261900  0.03401900  0.55153700  1
  O  O14  1  0.03401900  0.55153700  0.48261900  1
  O  O15  1  0.55153700  0.48261900  0.03401900  1
