# generated using pymatgen
data_Cs2U(Cl2O)2
_symmetry_space_group_name_H-M   'P 1'
_cell_length_a   7.27876119
_cell_length_b   7.27876119
_cell_length_c   5.95762553
_cell_angle_alpha   81.55540415
_cell_angle_beta   81.55540415
_cell_angle_gamma   65.22418538
_symmetry_Int_Tables_number   1
_chemical_formula_structural   Cs2U(Cl2O)2
_chemical_formula_sum   'Cs2 U1 Cl4 O2'
_cell_volume   282.19530847
_cell_formula_units_Z   1
loop_
 _symmetry_equiv_pos_site_id
 _symmetry_equiv_pos_as_xyz
  1  'x, y, z'
loop_
 _atom_site_type_symbol
 _atom_site_label
 _atom_site_symmetry_multiplicity
 _atom_site_fract_x
 _atom_site_fract_y
 _atom_site_fract_z
 _atom_site_occupancy
  Cs  Cs0  1  0.66619600  0.66619600  0.67795600  1
  Cs  Cs1  1  0.33380400  0.33380400  0.32204400  1
  U  U2  1  0.00000000  0.00000000  0.00000000  1
  Cl  Cl3  1  0.14833700  0.65302900  0.79885600  1
  Cl  Cl4  1  0.34697100  0.85166300  0.20114400  1
  Cl  Cl5  1  0.85166300  0.34697100  0.20114400  1
  Cl  Cl6  1  0.65302900  0.14833700  0.79885600  1
  O  O7  1  0.11634000  0.11634000  0.76609500  1
  O  O8  1  0.88366000  0.88366000  0.23390500  1
