# generated using pymatgen
data_KLa(PSe3)2
_symmetry_space_group_name_H-M   'P 1'
_cell_length_a   7.94587100
_cell_length_b   12.01401100
_cell_length_c   12.64140334
_cell_angle_alpha   70.60571735
_cell_angle_beta   90.00000000
_cell_angle_gamma   90.00000000
_symmetry_Int_Tables_number   1
_chemical_formula_structural   KLa(PSe3)2
_chemical_formula_sum   'K4 La4 P8 Se24'
_cell_volume   1138.29363434
_cell_formula_units_Z   4
loop_
 _symmetry_equiv_pos_site_id
 _symmetry_equiv_pos_as_xyz
  1  'x, y, z'
loop_
 _atom_site_type_symbol
 _atom_site_label
 _atom_site_symmetry_multiplicity
 _atom_site_fract_x
 _atom_site_fract_y
 _atom_site_fract_z
 _atom_site_occupancy
  K  K0  1  0.58797400  0.87378700  0.87162700  1
  K  K1  1  0.08797400  0.62621300  0.12837300  1
  K  K2  1  0.41202600  0.12621300  0.12837300  1
  K  K3  1  0.91202600  0.37378700  0.87162700  1
  La  La4  1  0.60329200  0.40356400  0.35110000  1
  La  La5  1  0.39670800  0.59643600  0.64890000  1
  La  La6  1  0.89670800  0.90356400  0.35110000  1
  La  La7  1  0.10329200  0.09643600  0.64890000  1
  P  P8  1  0.40317700  0.74675800  0.32469400  1
  P  P9  1  0.88370100  0.23237600  0.21103900  1
  P  P10  1  0.59682300  0.25324200  0.67530600  1
  P  P11  1  0.09682300  0.24675800  0.32469400  1
  P  P12  1  0.11629900  0.76762400  0.78896100  1
  P  P13  1  0.38370100  0.26762400  0.78896100  1
  P  P14  1  0.90317700  0.75324200  0.67530600  1
  P  P15  1  0.61629900  0.73237600  0.21103900  1
  Se  Se16  1  0.71178000  0.63926800  0.78433300  1
  Se  Se17  1  0.97285700  0.31765700  0.44761600  1
  Se  Se18  1  0.28752900  0.08641600  0.86989000  1
  Se  Se19  1  0.81074100  0.63393400  0.32946600  1
  Se  Se20  1  0.21178000  0.86073200  0.21566700  1
  Se  Se21  1  0.78752900  0.41358400  0.13011000  1
  Se  Se22  1  0.68958200  0.43492000  0.58834000  1
  Se  Se23  1  0.48060800  0.37227200  0.88803200  1
  Se  Se24  1  0.18958200  0.06508000  0.41166000  1
  Se  Se25  1  0.81041800  0.93492000  0.58834000  1
  Se  Se26  1  0.52714300  0.81765700  0.44761600  1
  Se  Se27  1  0.31041800  0.56508000  0.41166000  1
  Se  Se28  1  0.02714300  0.68234300  0.55238400  1
  Se  Se29  1  0.47285700  0.18234300  0.55238400  1
  Se  Se30  1  0.51939200  0.62772800  0.11196800  1
  Se  Se31  1  0.68925900  0.13393400  0.32946600  1
  Se  Se32  1  0.21247100  0.58641600  0.86989000  1
  Se  Se33  1  0.28822000  0.36073200  0.21566700  1
  Se  Se34  1  0.31074100  0.86606600  0.67053400  1
  Se  Se35  1  0.71247100  0.91358400  0.13011000  1
  Se  Se36  1  0.01939200  0.87227200  0.88803200  1
  Se  Se37  1  0.18925900  0.36606600  0.67053400  1
  Se  Se38  1  0.78822000  0.13926800  0.78433300  1
  Se  Se39  1  0.98060800  0.12772800  0.11196800  1
