# generated using pymatgen
data_KNa2Y(Si2O5)3
_symmetry_space_group_name_H-M   'P 1'
_cell_length_a   10.24037440
_cell_length_b   10.24037440
_cell_length_c   10.24037440
_cell_angle_alpha   130.01227541
_cell_angle_beta   116.67647103
_cell_angle_gamma   84.72685876
_symmetry_Int_Tables_number   1
_chemical_formula_structural   KNa2Y(Si2O5)3
_chemical_formula_sum   'K2 Na4 Y2 Si12 O30'
_cell_volume   703.90305061
_cell_formula_units_Z   2
loop_
 _symmetry_equiv_pos_site_id
 _symmetry_equiv_pos_as_xyz
  1  'x, y, z'
loop_
 _atom_site_type_symbol
 _atom_site_label
 _atom_site_symmetry_multiplicity
 _atom_site_fract_x
 _atom_site_fract_y
 _atom_site_fract_z
 _atom_site_occupancy
  K  K0  1  0.43001300  0.25000000  0.18001300  1
  K  K1  1  0.56998700  0.75000000  0.81998700  1
  Na  Na2  1  0.75656300  0.75656300  0.50000000  1
  Na  Na3  1  0.24343700  0.24343700  0.50000000  1
  Na  Na4  1  0.75656300  0.25656300  0.00000000  1
  Na  Na5  1  0.24343700  0.74343700  0.00000000  1
  Y  Y6  1  0.50000000  0.50000000  0.00000000  1
  Y  Y7  1  0.00000000  0.00000000  0.00000000  1
  Si  Si8  1  0.38396700  0.02612900  0.70191500  1
  Si  Si9  1  0.06591500  0.35001200  0.71590300  1
  Si  Si10  1  0.17578600  0.81794800  0.70191500  1
  Si  Si11  1  0.13410900  0.85001200  0.28409700  1
  Si  Si12  1  0.86589100  0.14998800  0.71590300  1
  Si  Si13  1  0.61603300  0.31794800  0.64216200  1
  Si  Si14  1  0.61603300  0.97387100  0.29808500  1
  Si  Si15  1  0.93408500  0.64998800  0.28409700  1
  Si  Si16  1  0.82421400  0.52612900  0.64216200  1
  Si  Si17  1  0.82421400  0.18205200  0.29808500  1
  Si  Si18  1  0.38396700  0.68205200  0.35783800  1
  Si  Si19  1  0.17578600  0.47387100  0.35783800  1
  O  O20  1  0.83035900  0.72250300  0.72565600  1
  O  O21  1  0.23836000  0.01355100  0.52974900  1
  O  O22  1  0.16964100  0.27749700  0.27434400  1
  O  O23  1  0.75588300  0.57255400  0.18332900  1
  O  O24  1  0.23836000  0.70861100  0.22480900  1
  O  O25  1  0.50315300  0.39529700  0.72565600  1
  O  O26  1  0.31925900  0.95586800  0.77512800  1
  O  O27  1  0.50315300  0.77749700  0.10785600  1
  O  O28  1  0.88922500  0.07255400  0.81667100  1
  O  O29  1  0.01619800  0.48644900  0.22480900  1
  O  O30  1  0.68074100  0.04413200  0.22487200  1
  O  O31  1  0.24411700  0.42744600  0.81667100  1
  O  O32  1  0.83035900  0.10470300  0.10785600  1
  O  O33  1  0.76164000  0.29138900  0.77519100  1
  O  O34  1  0.49684700  0.60470300  0.27434400  1
  O  O35  1  0.53014600  0.12118200  0.40896400  1
  O  O36  1  0.76164000  0.98644900  0.47025100  1
  O  O37  1  0.21221800  0.62118200  0.59103600  1
  O  O38  1  0.49684700  0.22250300  0.89214400  1
  O  O39  1  0.68074100  0.45586800  0.63660900  1
  O  O40  1  0.02499000  0.25000000  0.77499000  1
  O  O41  1  0.16964100  0.89529700  0.89214400  1
  O  O42  1  0.31925900  0.54413200  0.36339100  1
  O  O43  1  0.97501000  0.75000000  0.22501000  1
  O  O44  1  0.98380200  0.20861100  0.47025100  1
  O  O45  1  0.01619800  0.79138900  0.52974900  1
  O  O46  1  0.98380200  0.51355100  0.77519100  1
  O  O47  1  0.78778200  0.37881800  0.40896400  1
  O  O48  1  0.11077500  0.92744600  0.18332900  1
  O  O49  1  0.46985400  0.87881800  0.59103600  1
