# generated using pymatgen
data_Sr2SnSe5
_symmetry_space_group_name_H-M   'P 1'
_cell_length_a   8.74402400
_cell_length_b   12.25456100
_cell_length_c   16.78449900
_cell_angle_alpha   90.00000000
_cell_angle_beta   90.00000000
_cell_angle_gamma   90.00000000
_symmetry_Int_Tables_number   1
_chemical_formula_structural   Sr2SnSe5
_chemical_formula_sum   'Sr16 Sn8 Se40'
_cell_volume   1798.52915142
_cell_formula_units_Z   8
loop_
 _symmetry_equiv_pos_site_id
 _symmetry_equiv_pos_as_xyz
  1  'x, y, z'
loop_
 _atom_site_type_symbol
 _atom_site_label
 _atom_site_symmetry_multiplicity
 _atom_site_fract_x
 _atom_site_fract_y
 _atom_site_fract_z
 _atom_site_occupancy
  Sr  Sr0  1  0.24176100  0.25452900  0.43020300  1
  Sr  Sr1  1  0.25592200  0.61505400  0.82142700  1
  Sr  Sr2  1  0.75881400  0.38252000  0.17936000  1
  Sr  Sr3  1  0.74407800  0.11505400  0.67857300  1
  Sr  Sr4  1  0.24118600  0.11748000  0.67936000  1
  Sr  Sr5  1  0.75881400  0.61748000  0.82064000  1
  Sr  Sr6  1  0.74407800  0.88494600  0.32142700  1
  Sr  Sr7  1  0.73957600  0.74674100  0.57041900  1
  Sr  Sr8  1  0.75823900  0.75452900  0.06979700  1
  Sr  Sr9  1  0.24176100  0.74547100  0.56979700  1
  Sr  Sr10  1  0.75823900  0.24547100  0.93020300  1
  Sr  Sr11  1  0.26042400  0.75325900  0.07041900  1
  Sr  Sr12  1  0.73957600  0.25325900  0.42958100  1
  Sr  Sr13  1  0.25592200  0.38494600  0.17857300  1
  Sr  Sr14  1  0.26042400  0.24674100  0.92958100  1
  Sr  Sr15  1  0.24118600  0.88252000  0.32064000  1
  Sn  Sn16  1  0.01576600  0.09190700  0.17416300  1
  Sn  Sn17  1  0.98423400  0.40809300  0.67416300  1
  Sn  Sn18  1  0.49577300  0.05325200  0.10417100  1
  Sn  Sn19  1  0.50422700  0.55325200  0.39582900  1
  Sn  Sn20  1  0.98423400  0.59190700  0.32583700  1
  Sn  Sn21  1  0.49577300  0.94674800  0.89582900  1
  Sn  Sn22  1  0.50422700  0.44674800  0.60417100  1
  Sn  Sn23  1  0.01576600  0.90809300  0.82583700  1
  Se  Se24  1  0.28269800  0.87128800  0.76247100  1
  Se  Se25  1  0.98598300  0.93765500  0.60844300  1
  Se  Se26  1  0.01401700  0.56234500  0.10844300  1
  Se  Se27  1  0.51441800  0.74067700  0.92724500  1
  Se  Se28  1  0.49442100  0.36938000  0.31844600  1
  Se  Se29  1  0.01287400  0.24685900  0.07040400  1
  Se  Se30  1  0.98712600  0.25314100  0.57040400  1
  Se  Se31  1  0.28269800  0.12871200  0.23752900  1
  Se  Se32  1  0.23088600  0.63252000  0.24886700  1
  Se  Se33  1  0.48558200  0.75932300  0.42724500  1
  Se  Se34  1  0.65248900  0.00000000  0.50000000  1
  Se  Se35  1  0.48684700  0.05807000  0.39022500  1
  Se  Se36  1  0.15711700  0.00000000  0.50000000  1
  Se  Se37  1  0.98598300  0.06234500  0.39155700  1
  Se  Se38  1  0.99445400  0.61930900  0.67496900  1
  Se  Se39  1  0.84288300  0.50000000  0.00000000  1
  Se  Se40  1  0.27789700  0.50000000  0.50000000  1
  Se  Se41  1  0.00554600  0.11930900  0.82503100  1
  Se  Se42  1  0.51315300  0.44193000  0.89022500  1
  Se  Se43  1  0.99445400  0.38069100  0.32503100  1
  Se  Se44  1  0.49442100  0.63062000  0.68155400  1
  Se  Se45  1  0.72378700  0.50000000  0.50000000  1
  Se  Se46  1  0.51315300  0.55807000  0.10977500  1
  Se  Se47  1  0.50557900  0.86938000  0.18155400  1
  Se  Se48  1  0.50557900  0.13062000  0.81844600  1
  Se  Se49  1  0.48558200  0.24067700  0.57275500  1
  Se  Se50  1  0.48684700  0.94193000  0.60977500  1
  Se  Se51  1  0.01401700  0.43765500  0.89155700  1
  Se  Se52  1  0.01287400  0.75314100  0.92959600  1
  Se  Se53  1  0.00554600  0.88069100  0.17496900  1
  Se  Se54  1  0.34751100  0.50000000  0.00000000  1
  Se  Se55  1  0.76911400  0.13252000  0.25113300  1
  Se  Se56  1  0.51441800  0.25932300  0.07275500  1
  Se  Se57  1  0.72210300  0.00000000  0.00000000  1
  Se  Se58  1  0.71730200  0.37128800  0.73752900  1
  Se  Se59  1  0.76911400  0.86748000  0.74886700  1
  Se  Se60  1  0.71730200  0.62871200  0.26247100  1
  Se  Se61  1  0.98712600  0.74685900  0.42959600  1
  Se  Se62  1  0.23088600  0.36748000  0.75113300  1
  Se  Se63  1  0.27621300  0.00000000  0.00000000  1
