# generated using pymatgen
data_Cr2PBrO4
_symmetry_space_group_name_H-M   'P 1'
_cell_length_a   6.33709951
_cell_length_b   6.50969380
_cell_length_c   11.86156600
_cell_angle_alpha   89.99960792
_cell_angle_beta   90.00005535
_cell_angle_gamma   90.60485442
_symmetry_Int_Tables_number   1
_chemical_formula_structural   Cr2PBrO4
_chemical_formula_sum   'Cr8 P4 Br4 O16'
_cell_volume   489.29290401
_cell_formula_units_Z   4
loop_
 _symmetry_equiv_pos_site_id
 _symmetry_equiv_pos_as_xyz
  1  'x, y, z'
loop_
 _atom_site_type_symbol
 _atom_site_label
 _atom_site_symmetry_multiplicity
 _atom_site_fract_x
 _atom_site_fract_y
 _atom_site_fract_z
 _atom_site_occupancy
  Cr  Cr0  1  0.99428700  0.85755500  0.88665700  1
  Cr  Cr1  1  0.49434500  0.85757000  0.61338900  1
  Cr  Cr2  1  0.15216000  0.53215700  0.39488700  1
  Cr  Cr3  1  0.65218600  0.53218700  0.10508300  1
  Cr  Cr4  1  0.00539400  0.14235100  0.11341300  1
  Cr  Cr5  1  0.50534900  0.14236700  0.38663300  1
  Cr  Cr6  1  0.34792100  0.46813100  0.89477300  1
  Cr  Cr7  1  0.84790400  0.46815600  0.60520300  1
  P  P8  1  0.13431700  0.64251600  0.12708300  1
  P  P9  1  0.36573900  0.35740600  0.62709500  1
  P  P10  1  0.63430400  0.64253500  0.37290900  1
  P  P11  1  0.86575400  0.35738700  0.87289700  1
  Br  Br12  1  0.98991500  0.87190900  0.66624400  1
  Br  Br13  1  0.48991600  0.87191400  0.83376400  1
  Br  Br14  1  0.51015500  0.12808100  0.16622100  1
  Br  Br15  1  0.01014700  0.12808000  0.33378200  1
  O  O16  1  0.31789500  0.30968600  0.74896100  1
  O  O17  1  0.81789500  0.30970300  0.75102400  1
  O  O18  1  0.18215400  0.69026100  0.24894000  1
  O  O19  1  0.68215300  0.69024400  0.25104700  1
  O  O20  1  0.16227500  0.41790500  0.56055200  1
  O  O21  1  0.83774200  0.58207600  0.43945300  1
  O  O22  1  0.66227400  0.41790500  0.93943400  1
  O  O23  1  0.33774500  0.58207500  0.06052900  1
  O  O24  1  0.53245900  0.83303700  0.43443000  1
  O  O25  1  0.46756300  0.16689200  0.56558700  1
  O  O26  1  0.96756400  0.16689000  0.93442800  1
  O  O27  1  0.03246200  0.83303800  0.06558300  1
  O  O28  1  0.47099500  0.45915100  0.38323500  1
  O  O29  1  0.97100300  0.45914200  0.11676200  1
  O  O30  1  0.52901100  0.54084800  0.61678700  1
  O  O31  1  0.02901600  0.54084600  0.88321200  1
