# generated using pymatgen
data_ReSb(OF4)2
_symmetry_space_group_name_H-M   'P 1'
_cell_length_a   10.41041900
_cell_length_b   5.76213300
_cell_length_c   12.92396684
_cell_angle_alpha   80.27010384
_cell_angle_beta   90.00000000
_cell_angle_gamma   90.00000000
_symmetry_Int_Tables_number   1
_chemical_formula_structural   ReSb(OF4)2
_chemical_formula_sum   'Re4 Sb4 O8 F32'
_cell_volume   764.10811505
_cell_formula_units_Z   4
loop_
 _symmetry_equiv_pos_site_id
 _symmetry_equiv_pos_as_xyz
  1  'x, y, z'
loop_
 _atom_site_type_symbol
 _atom_site_label
 _atom_site_symmetry_multiplicity
 _atom_site_fract_x
 _atom_site_fract_y
 _atom_site_fract_z
 _atom_site_occupancy
  Re  Re0  1  0.73942200  0.66653800  0.21440400  1
  Re  Re1  1  0.23942200  0.33346200  0.28559600  1
  Re  Re2  1  0.26057800  0.33346200  0.78559600  1
  Re  Re3  1  0.76057800  0.66653800  0.71440400  1
  Sb  Sb4  1  0.00000000  0.00000000  0.50000000  1
  Sb  Sb5  1  0.50000000  0.00000000  0.50000000  1
  Sb  Sb6  1  0.50000000  0.00000000  0.00000000  1
  Sb  Sb7  1  0.00000000  0.00000000  0.00000000  1
  O  O8  1  0.59923600  0.52327700  0.24786500  1
  O  O9  1  0.33016300  0.40693500  0.17598400  1
  O  O10  1  0.83016300  0.59306500  0.32401600  1
  O  O11  1  0.40076400  0.47672300  0.75213500  1
  O  O12  1  0.16983700  0.40693500  0.67598400  1
  O  O13  1  0.66983700  0.59306500  0.82401600  1
  O  O14  1  0.09923600  0.47672300  0.25213500  1
  O  O15  1  0.90076400  0.52327700  0.74786500  1
  F  F16  1  0.84620000  0.81003400  0.55574700  1
  F  F17  1  0.92595400  0.27128000  0.53972400  1
  F  F18  1  0.14044100  0.80822200  0.05340700  1
  F  F19  1  0.57404600  0.27128000  0.03972400  1
  F  F20  1  0.60008900  0.88465600  0.63129800  1
  F  F21  1  0.07891700  0.92686400  0.63401100  1
  F  F22  1  0.69006500  0.46786000  0.63103300  1
  F  F23  1  0.39991100  0.11534400  0.36870200  1
  F  F24  1  0.34620000  0.18996600  0.94425300  1
  F  F25  1  0.42108300  0.92686400  0.13401100  1
  F  F26  1  0.80625300  0.97052800  0.72937600  1
  F  F27  1  0.30625300  0.02947200  0.77062400  1
  F  F28  1  0.69374700  0.97052800  0.22937600  1
  F  F29  1  0.35955900  0.80822200  0.55340700  1
  F  F30  1  0.42595400  0.72872000  0.96027600  1
  F  F31  1  0.93318500  0.75301300  0.93608200  1
  F  F32  1  0.10008900  0.11534400  0.86870200  1
  F  F33  1  0.30993500  0.53214000  0.36896700  1
  F  F34  1  0.06681500  0.24698700  0.06391800  1
  F  F35  1  0.19374700  0.02947200  0.27062400  1
  F  F36  1  0.64044100  0.19177800  0.44659300  1
  F  F37  1  0.56681500  0.75301300  0.43608200  1
  F  F38  1  0.57891700  0.07313600  0.86598900  1
  F  F39  1  0.43318500  0.24698700  0.56391800  1
  F  F40  1  0.92108300  0.07313600  0.36598900  1
  F  F41  1  0.80993500  0.46786000  0.13103300  1
  F  F42  1  0.19006500  0.53214000  0.86896700  1
  F  F43  1  0.65380000  0.81003400  0.05574700  1
  F  F44  1  0.89991100  0.88465600  0.13129800  1
  F  F45  1  0.85955900  0.19177800  0.94659300  1
  F  F46  1  0.15380000  0.18996600  0.44425300  1
  F  F47  1  0.07404600  0.72872000  0.46027600  1
