# generated using pymatgen
data_PICl8
_symmetry_space_group_name_H-M   'P 1'
_cell_length_a   12.29507479
_cell_length_b   12.29507479
_cell_length_c   12.29507479
_cell_angle_alpha   118.30554859
_cell_angle_beta   117.24832654
_cell_angle_gamma   93.89789162
_symmetry_Int_Tables_number   1
_chemical_formula_structural   PICl8
_chemical_formula_sum   'P4 I4 Cl32'
_cell_volume   1354.88759874
_cell_formula_units_Z   4
loop_
 _symmetry_equiv_pos_site_id
 _symmetry_equiv_pos_as_xyz
  1  'x, y, z'
loop_
 _atom_site_type_symbol
 _atom_site_label
 _atom_site_symmetry_multiplicity
 _atom_site_fract_x
 _atom_site_fract_y
 _atom_site_fract_z
 _atom_site_occupancy
  P  P0  1  0.24648400  0.74648400  0.00000000  1
  P  P1  1  0.25351600  0.25351600  0.50000000  1
  P  P2  1  0.74648400  0.74648400  0.50000000  1
  P  P3  1  0.75351600  0.25351600  0.00000000  1
  I  I4  1  0.75000000  0.68962300  0.93962300  1
  I  I5  1  0.75000000  0.17844300  0.42844300  1
  I  I6  1  0.25000000  0.82155700  0.57155700  1
  I  I7  1  0.25000000  0.31037700  0.06037700  1
  Cl  Cl8  1  0.22623700  0.40206400  0.48493100  1
  Cl  Cl9  1  0.75000000  0.97890200  0.22890200  1
  Cl  Cl10  1  0.39308900  0.71603600  0.98048400  1
  Cl  Cl11  1  0.10691100  0.08739500  0.32294700  1
  Cl  Cl12  1  0.40090400  0.96971500  0.56881100  1
  Cl  Cl13  1  0.76444800  0.08739500  0.98048400  1
  Cl  Cl14  1  0.09909600  0.66790700  0.56881100  1
  Cl  Cl15  1  0.25000000  0.02109800  0.77109800  1
  Cl  Cl16  1  0.58286700  0.75869400  0.48493100  1
  Cl  Cl17  1  0.09885600  0.15781800  0.05896200  1
  Cl  Cl18  1  0.23555200  0.91260500  0.01951600  1
  Cl  Cl19  1  0.55283700  0.69227700  0.74511400  1
  Cl  Cl20  1  0.25000000  0.61888300  0.36888300  1
  Cl  Cl21  1  0.77376300  0.59793600  0.51506900  1
  Cl  Cl22  1  0.59885600  0.53989500  0.94103800  1
  Cl  Cl23  1  0.94716300  0.69227700  0.13944000  1
  Cl  Cl24  1  0.72623700  0.24130600  0.82417300  1
  Cl  Cl25  1  0.90090400  0.33209300  0.43118900  1
  Cl  Cl26  1  0.90114400  0.84218200  0.94103800  1
  Cl  Cl27  1  0.26444800  0.28396400  0.67705300  1
  Cl  Cl28  1  0.05283700  0.30772300  0.86056000  1
  Cl  Cl29  1  0.41713300  0.24130600  0.51506900  1
  Cl  Cl30  1  0.73555200  0.71603600  0.32294700  1
  Cl  Cl31  1  0.08286700  0.59793600  0.82417300  1
  Cl  Cl32  1  0.75000000  0.38111700  0.63111700  1
  Cl  Cl33  1  0.27376300  0.75869400  0.17582700  1
  Cl  Cl34  1  0.40114400  0.46010500  0.05896200  1
  Cl  Cl35  1  0.60691100  0.28396400  0.01951600  1
  Cl  Cl36  1  0.91713300  0.40206400  0.17582700  1
  Cl  Cl37  1  0.89308900  0.91260500  0.67705300  1
  Cl  Cl38  1  0.59909600  0.03028500  0.43118900  1
  Cl  Cl39  1  0.44716300  0.30772300  0.25488600  1
