# generated using pymatgen
data_YbZr6(PO4)9
_symmetry_space_group_name_H-M   'P 1'
_cell_length_a   8.99054803
_cell_length_b   8.99054803
_cell_length_c   22.81548100
_cell_angle_alpha   90.00000000
_cell_angle_beta   90.00000000
_cell_angle_gamma   120.00000024
_symmetry_Int_Tables_number   1
_chemical_formula_structural   YbZr6(PO4)9
_chemical_formula_sum   'Yb2 Zr12 P18 O72'
_cell_volume   1597.10177001
_cell_formula_units_Z   2
loop_
 _symmetry_equiv_pos_site_id
 _symmetry_equiv_pos_as_xyz
  1  'x, y, z'
loop_
 _atom_site_type_symbol
 _atom_site_label
 _atom_site_symmetry_multiplicity
 _atom_site_fract_x
 _atom_site_fract_y
 _atom_site_fract_z
 _atom_site_occupancy
  Yb  Yb0  1  0.00000000  0.00000000  0.50000000  1
  Yb  Yb1  1  0.00000000  0.00000000  0.00000000  1
  Zr  Zr2  1  0.33333300  0.66666700  0.81086900  1
  Zr  Zr3  1  0.66666700  0.33333300  0.97023400  1
  Zr  Zr4  1  0.33333300  0.66666700  0.02976600  1
  Zr  Zr5  1  0.66666700  0.33333300  0.18913100  1
  Zr  Zr6  1  0.66666700  0.33333300  0.47023400  1
  Zr  Zr7  1  0.00000000  0.00000000  0.64692900  1
  Zr  Zr8  1  0.33333300  0.66666700  0.31086900  1
  Zr  Zr9  1  0.00000000  0.00000000  0.35307100  1
  Zr  Zr10  1  0.66666700  0.33333300  0.68913100  1
  Zr  Zr11  1  0.33333300  0.66666700  0.52976600  1
  Zr  Zr12  1  0.00000000  0.00000000  0.14692900  1
  Zr  Zr13  1  0.00000000  0.00000000  0.85307100  1
  P  P14  1  0.94645000  0.32071400  0.57976700  1
  P  P15  1  0.32071400  0.37426400  0.42023300  1
  P  P16  1  0.32071400  0.94645000  0.92023300  1
  P  P17  1  0.37426400  0.05355000  0.57976700  1
  P  P18  1  0.00000000  0.71056700  0.75000000  1
  P  P19  1  0.05355000  0.37426400  0.92023300  1
  P  P20  1  0.62573600  0.94645000  0.42023300  1
  P  P21  1  0.28943300  0.00000000  0.25000000  1
  P  P22  1  0.28943300  0.28943300  0.75000000  1
  P  P23  1  0.71056700  0.00000000  0.75000000  1
  P  P24  1  0.67928600  0.62573600  0.57976700  1
  P  P25  1  0.37426400  0.32071400  0.07976700  1
  P  P26  1  0.71056700  0.71056700  0.25000000  1
  P  P27  1  0.67928600  0.05355000  0.07976700  1
  P  P28  1  0.05355000  0.67928600  0.42023300  1
  P  P29  1  0.00000000  0.28943300  0.25000000  1
  P  P30  1  0.94645000  0.62573600  0.07976700  1
  P  P31  1  0.62573600  0.67928600  0.92023300  1
  O  O32  1  0.32464100  0.85290700  0.86469700  1
  O  O33  1  0.15960200  0.97100600  0.92005000  1
  O  O34  1  0.97100600  0.15960200  0.57995000  1
  O  O35  1  0.12548600  0.64219800  0.07762500  1
  O  O36  1  0.18859500  0.15960200  0.07995000  1
  O  O37  1  0.85290700  0.32464100  0.63530300  1
  O  O38  1  0.48328700  0.12548600  0.92237500  1
  O  O39  1  0.30686900  0.84246100  0.97549300  1
  O  O40  1  0.79778800  0.82501500  0.19548400  1
  O  O41  1  0.84039800  0.02899400  0.07995000  1
  O  O42  1  0.18859500  0.02899400  0.57995000  1
  O  O43  1  0.84139600  0.53343100  0.74150700  1
  O  O44  1  0.12548600  0.48328700  0.57762500  1
  O  O45  1  0.85290700  0.52826500  0.13530300  1
  O  O46  1  0.20221200  0.17498500  0.80451600  1
  O  O47  1  0.15753900  0.46440800  0.97549300  1
  O  O48  1  0.15860400  0.69203500  0.75849300  1
  O  O49  1  0.32464100  0.47173500  0.36469700  1
  O  O50  1  0.15860400  0.46656900  0.25849300  1
  O  O51  1  0.53343100  0.69203500  0.25849300  1
  O  O52  1  0.52826500  0.85290700  0.36469700  1
  O  O53  1  0.84246100  0.53559200  0.02450700  1
  O  O54  1  0.97277200  0.79778800  0.80451600  1
  O  O55  1  0.52826500  0.67535900  0.86469700  1
  O  O56  1  0.64219800  0.51671300  0.92237500  1
  O  O57  1  0.14709300  0.67535900  0.36469700  1
  O  O58  1  0.53343100  0.84139600  0.75849300  1
  O  O59  1  0.20221200  0.02722800  0.30451600  1
  O  O60  1  0.51671300  0.87451400  0.07762500  1
  O  O61  1  0.82501500  0.79778800  0.30451600  1
  O  O62  1  0.81140500  0.97100600  0.42005000  1
  O  O63  1  0.87451400  0.35780200  0.92237500  1
  O  O64  1  0.69203500  0.15860400  0.74150700  1
  O  O65  1  0.46440800  0.15753900  0.52450700  1
  O  O66  1  0.87451400  0.51671300  0.42237500  1
  O  O67  1  0.30686900  0.46440800  0.47549300  1
  O  O68  1  0.79778800  0.97277200  0.69548400  1
  O  O69  1  0.47173500  0.14709300  0.63530300  1
  O  O70  1  0.15960200  0.18859500  0.42005000  1
  O  O71  1  0.51671300  0.64219800  0.57762500  1
  O  O72  1  0.35780200  0.48328700  0.07762500  1
  O  O73  1  0.02899400  0.84039800  0.42005000  1
  O  O74  1  0.47173500  0.32464100  0.13530300  1
  O  O75  1  0.46656900  0.30796500  0.74150700  1
  O  O76  1  0.53559200  0.84246100  0.47549300  1
  O  O77  1  0.35780200  0.87451400  0.57762500  1
  O  O78  1  0.17498500  0.97277200  0.19548400  1
  O  O79  1  0.84039800  0.81140500  0.57995000  1
  O  O80  1  0.81140500  0.84039800  0.92005000  1
  O  O81  1  0.02722800  0.20221200  0.19548400  1
  O  O82  1  0.14709300  0.47173500  0.86469700  1
  O  O83  1  0.64219800  0.12548600  0.42237500  1
  O  O84  1  0.97277200  0.17498500  0.30451600  1
  O  O85  1  0.69313100  0.15753900  0.02450700  1
  O  O86  1  0.84246100  0.30686900  0.52450700  1
  O  O87  1  0.67535900  0.14709300  0.13530300  1
  O  O88  1  0.02899400  0.18859500  0.92005000  1
  O  O89  1  0.17498500  0.20221200  0.69548400  1
  O  O90  1  0.30796500  0.84139600  0.25849300  1
  O  O91  1  0.69313100  0.53559200  0.52450700  1
  O  O92  1  0.53559200  0.69313100  0.97549300  1
  O  O93  1  0.46440800  0.30686900  0.02450700  1
  O  O94  1  0.82501500  0.02722800  0.80451600  1
  O  O95  1  0.69203500  0.53343100  0.24150700  1
  O  O96  1  0.02722800  0.82501500  0.69548400  1
  O  O97  1  0.30796500  0.46656900  0.75849300  1
  O  O98  1  0.67535900  0.52826500  0.63530300  1
  O  O99  1  0.97100600  0.81140500  0.07995000  1
  O  O100  1  0.48328700  0.35780200  0.42237500  1
  O  O101  1  0.15753900  0.69313100  0.47549300  1
  O  O102  1  0.46656900  0.15860400  0.24150700  1
  O  O103  1  0.84139600  0.30796500  0.24150700  1
