# generated using pymatgen
data_HgSeO3
_symmetry_space_group_name_H-M   'P 1'
_cell_length_a   10.37650200
_cell_length_b   4.63223300
_cell_length_c   7.49879072
_cell_angle_alpha   76.98302129
_cell_angle_beta   90.00000000
_cell_angle_gamma   90.00000000
_symmetry_Int_Tables_number   1
_chemical_formula_structural   HgSeO3
_chemical_formula_sum   'Hg4 Se4 O12'
_cell_volume   351.17759811
_cell_formula_units_Z   4
loop_
 _symmetry_equiv_pos_site_id
 _symmetry_equiv_pos_as_xyz
  1  'x, y, z'
loop_
 _atom_site_type_symbol
 _atom_site_label
 _atom_site_symmetry_multiplicity
 _atom_site_fract_x
 _atom_site_fract_y
 _atom_site_fract_z
 _atom_site_occupancy
  Hg  Hg0  1  0.83171300  0.89336800  0.40249100  1
  Hg  Hg1  1  0.16828700  0.10663200  0.59750900  1
  Hg  Hg2  1  0.33171300  0.10663200  0.09750900  1
  Hg  Hg3  1  0.66828700  0.89336800  0.90249100  1
  Se  Se4  1  0.41764700  0.67259900  0.67740600  1
  Se  Se5  1  0.08235300  0.67259900  0.17740600  1
  Se  Se6  1  0.91764700  0.32740100  0.82259400  1
  Se  Se7  1  0.58235300  0.32740100  0.32259400  1
  O  O8  1  0.52828800  0.17442000  0.13877200  1
  O  O9  1  0.71842800  0.49369100  0.22649200  1
  O  O10  1  0.28157200  0.50630900  0.77350800  1
  O  O11  1  0.35505500  0.99053600  0.52840300  1
  O  O12  1  0.02828800  0.82558000  0.36122800  1
  O  O13  1  0.14494500  0.99053600  0.02840300  1
  O  O14  1  0.64494500  0.00946400  0.47159700  1
  O  O15  1  0.97171200  0.17442000  0.63877200  1
  O  O16  1  0.47171200  0.82558000  0.86122800  1
  O  O17  1  0.21842800  0.50630900  0.27350800  1
  O  O18  1  0.85505500  0.00946400  0.97159700  1
  O  O19  1  0.78157200  0.49369100  0.72649200  1
