# generated using pymatgen
data_Ta3Te14Pd3
_symmetry_space_group_name_H-M   'P 1'
_cell_length_a   3.79574000
_cell_length_b   14.82459100
_cell_length_c   21.26101700
_cell_angle_alpha   73.87246410
_cell_angle_beta   90.00000000
_cell_angle_gamma   90.00000000
_symmetry_Int_Tables_number   1
_chemical_formula_structural   Ta3Te14Pd3
_chemical_formula_sum   'Ta6 Te28 Pd6'
_cell_volume   1149.28168381
_cell_formula_units_Z   2
loop_
 _symmetry_equiv_pos_site_id
 _symmetry_equiv_pos_as_xyz
  1  'x, y, z'
loop_
 _atom_site_type_symbol
 _atom_site_label
 _atom_site_symmetry_multiplicity
 _atom_site_fract_x
 _atom_site_fract_y
 _atom_site_fract_z
 _atom_site_occupancy
  Ta  Ta0  1  0.75000000  0.30017400  0.45600000  1
  Ta  Ta1  1  0.25000000  0.69982600  0.54400000  1
  Ta  Ta2  1  0.75000000  0.94606600  0.81041300  1
  Ta  Ta3  1  0.25000000  0.05393400  0.18958700  1
  Ta  Ta4  1  0.75000000  0.57598300  0.15543600  1
  Ta  Ta5  1  0.25000000  0.42401700  0.84456400  1
  Te  Te6  1  0.25000000  0.31341400  0.55342400  1
  Te  Te7  1  0.75000000  0.68658600  0.44657600  1
  Te  Te8  1  0.75000000  0.13968300  0.72356100  1
  Te  Te9  1  0.25000000  0.86031700  0.27643900  1
  Te  Te10  1  0.75000000  0.61182500  0.01291700  1
  Te  Te11  1  0.25000000  0.38817500  0.98708300  1
  Te  Te12  1  0.25000000  0.72291900  0.11285600  1
  Te  Te13  1  0.75000000  0.27708100  0.88714400  1
  Te  Te14  1  0.25000000  0.44944000  0.41258100  1
  Te  Te15  1  0.75000000  0.55056000  0.58741900  1
  Te  Te16  1  0.25000000  0.18689400  0.41009500  1
  Te  Te17  1  0.75000000  0.81310600  0.58990500  1
  Te  Te18  1  0.75000000  0.88641100  0.95311100  1
  Te  Te19  1  0.25000000  0.11358900  0.04688900  1
  Te  Te20  1  0.25000000  0.79517900  0.84623200  1
  Te  Te21  1  0.75000000  0.20482100  0.15376800  1
  Te  Te22  1  0.75000000  0.34179100  0.31383100  1
  Te  Te23  1  0.25000000  0.65820900  0.68616900  1
  Te  Te24  1  0.25000000  0.94607500  0.70936300  1
  Te  Te25  1  0.75000000  0.05392500  0.29063700  1
  Te  Te26  1  0.75000000  0.61694700  0.27019300  1
  Te  Te27  1  0.25000000  0.38305300  0.72980700  1
  Te  Te28  1  0.25000000  0.05444100  0.86048900  1
  Te  Te29  1  0.75000000  0.94555900  0.13951100  1
  Te  Te30  1  0.25000000  0.44033100  0.15254900  1
  Te  Te31  1  0.75000000  0.55966900  0.84745100  1
  Te  Te32  1  0.75000000  0.11087800  0.54710800  1
  Te  Te33  1  0.25000000  0.88912200  0.45289200  1
  Pd  Pd34  1  0.25000000  0.74885500  0.98113100  1
  Pd  Pd35  1  0.75000000  0.25114500  0.01886900  1
  Pd  Pd36  1  0.25000000  0.12895100  0.63467800  1
  Pd  Pd37  1  0.75000000  0.87104900  0.36532200  1
  Pd  Pd38  1  0.25000000  0.48112700  0.27261700  1
  Pd  Pd39  1  0.75000000  0.51887300  0.72738300  1
