# generated using pymatgen
data_P4S9
_symmetry_space_group_name_H-M   'P 1'
_cell_length_a   13.65792600
_cell_length_b   9.22527700
_cell_length_c   14.03219023
_cell_angle_alpha   65.87393591
_cell_angle_beta   90.00000000
_cell_angle_gamma   90.00000000
_symmetry_Int_Tables_number   1
_chemical_formula_structural   P4S9
_chemical_formula_sum   'P16 S36'
_cell_volume   1613.58964568
_cell_formula_units_Z   4
loop_
 _symmetry_equiv_pos_site_id
 _symmetry_equiv_pos_as_xyz
  1  'x, y, z'
loop_
 _atom_site_type_symbol
 _atom_site_label
 _atom_site_symmetry_multiplicity
 _atom_site_fract_x
 _atom_site_fract_y
 _atom_site_fract_z
 _atom_site_occupancy
  P  P0  1  0.19827200  0.08650900  0.52741600  1
  P  P1  1  0.69827200  0.91349100  0.97258400  1
  P  P2  1  0.80172800  0.91349100  0.47258400  1
  P  P3  1  0.30172800  0.08650900  0.02741600  1
  P  P4  1  0.23842300  0.47918100  0.49157900  1
  P  P5  1  0.73842300  0.52081900  0.00842100  1
  P  P6  1  0.76157700  0.52081900  0.50842100  1
  P  P7  1  0.26157700  0.47918100  0.99157900  1
  P  P8  1  0.40298700  0.29448900  0.38805400  1
  P  P9  1  0.90298700  0.70551100  0.11194600  1
  P  P10  1  0.59701300  0.70551100  0.61194600  1
  P  P11  1  0.09701300  0.29448900  0.88805400  1
  P  P12  1  0.39117100  0.18081300  0.65605500  1
  P  P13  1  0.89117100  0.81918700  0.84394500  1
  P  P14  1  0.60882900  0.81918700  0.34394500  1
  P  P15  1  0.10882900  0.18081300  0.15605500  1
  S  S16  1  0.33281200  0.51184500  0.36442000  1
  S  S17  1  0.83281200  0.48815500  0.13558000  1
  S  S18  1  0.66718800  0.48815500  0.63558000  1
  S  S19  1  0.16718800  0.51184500  0.86442000  1
  S  S20  1  0.28357700  0.01156100  0.66656500  1
  S  S21  1  0.78357700  0.98843900  0.83343500  1
  S  S22  1  0.71642300  0.98843900  0.33343500  1
  S  S23  1  0.21642300  0.01156100  0.16656500  1
  S  S24  1  0.46803000  0.11438500  0.78197300  1
  S  S25  1  0.96803000  0.88561500  0.71802700  1
  S  S26  1  0.53197000  0.88561500  0.21802700  1
  S  S27  1  0.03197000  0.11438500  0.28197300  1
  S  S28  1  0.29608700  0.12320900  0.40134700  1
  S  S29  1  0.79608700  0.87679100  0.09865300  1
  S  S30  1  0.70391300  0.87679100  0.59865300  1
  S  S31  1  0.20391300  0.12320900  0.90134700  1
  S  S32  1  0.48518400  0.21514100  0.52853100  1
  S  S33  1  0.98518400  0.78485900  0.97146900  1
  S  S34  1  0.51481600  0.78485900  0.47146900  1
  S  S35  1  0.01481600  0.21514100  0.02853100  1
  S  S36  1  0.48981200  0.32872300  0.27323900  1
  S  S37  1  0.98981200  0.67127700  0.22676100  1
  S  S38  1  0.51018800  0.67127700  0.72676100  1
  S  S39  1  0.01018800  0.32872300  0.77323900  1
  S  S40  1  0.32182700  0.39922500  0.63093600  1
  S  S41  1  0.82182700  0.60077500  0.86906400  1
  S  S42  1  0.67817300  0.60077500  0.36906400  1
  S  S43  1  0.17817300  0.39922500  0.13093600  1
  S  S44  1  0.13210800  0.30819700  0.50266200  1
  S  S45  1  0.63210800  0.69180300  0.99733800  1
  S  S46  1  0.86789200  0.69180300  0.49733800  1
  S  S47  1  0.36789200  0.30819700  0.00266200  1
  S  S48  1  0.17866900  0.67931800  0.46992500  1
  S  S49  1  0.67866900  0.32068200  0.03007500  1
  S  S50  1  0.82133100  0.32068200  0.53007500  1
  S  S51  1  0.32133100  0.67931800  0.96992500  1
