# generated using pymatgen
data_Ca(AlCl4)2
_symmetry_space_group_name_H-M   'P 1'
_cell_length_a   12.93287736
_cell_length_b   12.93287736
_cell_length_c   12.93287736
_cell_angle_alpha   126.35867051
_cell_angle_beta   126.35867051
_cell_angle_gamma   79.29943720
_symmetry_Int_Tables_number   1
_chemical_formula_structural   Ca(AlCl4)2
_chemical_formula_sum   'Ca4 Al8 Cl32'
_cell_volume   1356.28399020
_cell_formula_units_Z   4
loop_
 _symmetry_equiv_pos_site_id
 _symmetry_equiv_pos_as_xyz
  1  'x, y, z'
loop_
 _atom_site_type_symbol
 _atom_site_label
 _atom_site_symmetry_multiplicity
 _atom_site_fract_x
 _atom_site_fract_y
 _atom_site_fract_z
 _atom_site_occupancy
  Ca  Ca0  1  0.00000000  0.00000000  0.00000000  1
  Ca  Ca1  1  0.75000000  0.25000000  0.50000000  1
  Ca  Ca2  1  0.25000000  0.75000000  0.50000000  1
  Ca  Ca3  1  0.50000000  0.50000000  0.00000000  1
  Al  Al4  1  0.59932700  0.87500000  0.22432700  1
  Al  Al5  1  0.12500000  0.84932700  0.22432700  1
  Al  Al6  1  0.12500000  0.34932700  0.72432700  1
  Al  Al7  1  0.65067300  0.37500000  0.77567300  1
  Al  Al8  1  0.62500000  0.90067300  0.77567300  1
  Al  Al9  1  0.09932700  0.87500000  0.72432700  1
  Al  Al10  1  0.15067300  0.37500000  0.27567300  1
  Al  Al11  1  0.62500000  0.40067300  0.27567300  1
  Cl  Cl12  1  0.56761400  0.20613500  0.19894900  1
  Cl  Cl13  1  0.11866500  0.81761400  0.86147900  1
  Cl  Cl14  1  0.74281400  0.88133500  0.69894900  1
  Cl  Cl15  1  0.25444000  0.22511800  0.21894200  1
  Cl  Cl16  1  0.75444000  0.53549800  0.02932300  1
  Cl  Cl17  1  0.78549800  0.50444000  0.52932300  1
  Cl  Cl18  1  0.18238600  0.04386500  0.30105100  1
  Cl  Cl19  1  0.95613500  0.25718600  0.13852100  1
  Cl  Cl20  1  0.50718600  0.70613500  0.63852100  1
  Cl  Cl21  1  0.27488200  0.24556000  0.78105800  1
  Cl  Cl22  1  0.00617500  0.03549800  0.78105800  1
  Cl  Cl23  1  0.99556000  0.71450200  0.47067700  1
  Cl  Cl24  1  0.96450200  0.74556000  0.97067700  1
  Cl  Cl25  1  0.13133500  0.49281400  0.19894900  1
  Cl  Cl26  1  0.24281400  0.54386500  0.86147900  1
  Cl  Cl27  1  0.61866500  0.75718600  0.30105100  1
  Cl  Cl28  1  0.74382500  0.21450200  0.71894200  1
  Cl  Cl29  1  0.29386500  0.93238600  0.80105100  1
  Cl  Cl30  1  0.45613500  0.31761400  0.69894900  1
  Cl  Cl31  1  0.00718600  0.36866500  0.80105100  1
  Cl  Cl32  1  0.28549800  0.75617500  0.28105800  1
  Cl  Cl33  1  0.46450200  0.49382500  0.21894200  1
  Cl  Cl34  1  0.63133500  0.43238600  0.63852100  1
  Cl  Cl35  1  0.68238600  0.38133500  0.13852100  1
  Cl  Cl36  1  0.24382500  0.52488200  0.52932300  1
  Cl  Cl37  1  0.49556000  0.02488200  0.28105800  1
  Cl  Cl38  1  0.06761400  0.86866500  0.36147900  1
  Cl  Cl39  1  0.47511800  0.00444000  0.71894200  1
  Cl  Cl40  1  0.50617500  0.72511800  0.97067700  1
  Cl  Cl41  1  0.97511800  0.25617500  0.47067700  1
  Cl  Cl42  1  0.79386500  0.99281400  0.36147900  1
  Cl  Cl43  1  0.77488200  0.99382500  0.02932300  1
