# generated using pymatgen
data_Pr8Sb2S15
_symmetry_space_group_name_H-M   'P 1'
_cell_length_a   15.01010113
_cell_length_b   15.01010113
_cell_length_c   15.01010113
_cell_angle_alpha   116.37616551
_cell_angle_beta   116.37616551
_cell_angle_gamma   96.40034600
_symmetry_Int_Tables_number   1
_chemical_formula_structural   Pr8Sb2S15
_chemical_formula_sum   'Pr32 Sb8 S60'
_cell_volume   2505.36134284
_cell_formula_units_Z   4
loop_
 _symmetry_equiv_pos_site_id
 _symmetry_equiv_pos_as_xyz
  1  'x, y, z'
loop_
 _atom_site_type_symbol
 _atom_site_label
 _atom_site_symmetry_multiplicity
 _atom_site_fract_x
 _atom_site_fract_y
 _atom_site_fract_z
 _atom_site_occupancy
  Pr  Pr0  1  0.39921000  0.89233300  0.79291500  1
  Pr  Pr1  1  0.35629500  0.64921000  0.00687700  1
  Pr  Pr2  1  0.89921000  0.10629500  0.50687700  1
  Pr  Pr3  1  0.21768500  0.58379300  0.67315100  1
  Pr  Pr4  1  0.14233300  0.14921000  0.29291500  1
  Pr  Pr5  1  0.59941800  0.39233300  0.49312300  1
  Pr  Pr6  1  0.33379300  0.16064100  0.86610800  1
  Pr  Pr7  1  0.31691200  0.47203600  0.42975300  1
  Pr  Pr8  1  0.95080400  0.28069600  0.36977700  1
  Pr  Pr9  1  0.71768500  0.04453400  0.63389200  1
  Pr  Pr10  1  0.41064100  0.08379300  0.36610800  1
  Pr  Pr11  1  0.13715800  0.79228200  0.07024700  1
  Pr  Pr12  1  0.29453400  0.46768500  0.13389200  1
  Pr  Pr13  1  0.81691200  0.38715800  0.84487600  1
  Pr  Pr14  1  0.04228200  0.88715800  0.57024700  1
  Pr  Pr15  1  0.22203600  0.29228200  0.65512400  1
  Pr  Pr16  1  0.91064100  0.54453400  0.32684900  1
  Pr  Pr17  1  0.41091900  0.78069600  0.32989200  1
  Pr  Pr18  1  0.85629500  0.84941800  0.70708500  1
  Pr  Pr19  1  0.53069600  0.70080400  0.86977700  1
  Pr  Pr20  1  0.83379300  0.96768500  0.17315100  1
  Pr  Pr21  1  0.63715800  0.56691200  0.34487600  1
  Pr  Pr22  1  0.09941800  0.60629500  0.20708500  1
  Pr  Pr23  1  0.33102700  0.20080400  0.17010800  1
  Pr  Pr24  1  0.64233300  0.34941800  0.99312300  1
  Pr  Pr25  1  0.72203600  0.06691200  0.92975300  1
  Pr  Pr26  1  0.91091900  0.58102700  0.63022300  1
  Pr  Pr27  1  0.03069600  0.16091900  0.82989200  1
  Pr  Pr28  1  0.79453400  0.66064100  0.82684900  1
  Pr  Pr29  1  0.54228200  0.97203600  0.15512400  1
  Pr  Pr30  1  0.45080400  0.08102700  0.67010800  1
  Pr  Pr31  1  0.83102700  0.66091900  0.13022300  1
  Sb  Sb32  1  0.99396300  0.31405800  0.11312600  1
  Sb  Sb33  1  0.63083700  0.24396300  0.17990600  1
  Sb  Sb34  1  0.13083700  0.95093100  0.38687400  1
  Sb  Sb35  1  0.56405800  0.74396300  0.61312600  1
  Sb  Sb36  1  0.49396300  0.38083700  0.67990600  1
  Sb  Sb37  1  0.20093100  0.88083700  0.88687400  1
  Sb  Sb38  1  0.06405800  0.45093100  0.82009400  1
  Sb  Sb39  1  0.70093100  0.81405800  0.32009400  1
  S  S40  1  0.37298400  0.67216400  0.64687700  1
  S  S41  1  0.05118200  0.38316300  0.01262600  1
  S  S42  1  0.87062900  0.06659400  0.85048200  1
  S  S43  1  0.87038300  0.46294700  0.08723100  1
  S  S44  1  0.42216400  0.27528700  0.79918000  1
  S  S45  1  0.47610700  0.62298400  0.20082000  1
  S  S46  1  0.73272100  0.84175300  0.81618900  1
  S  S47  1  0.66091300  0.46897400  0.88657400  1
  S  S48  1  0.87571600  0.96294700  0.59256400  1
  S  S49  1  0.52528700  0.17216400  0.29918000  1
  S  S50  1  0.44889600  0.43898900  0.32294200  1
  S  S51  1  0.71611200  0.56659400  0.19596500  1
  S  S52  1  0.16653200  0.77556400  0.68381100  1
  S  S53  1  0.23272100  0.41653200  0.89096800  1
  S  S54  1  0.68898900  0.19889600  0.82294200  1
  S  S55  1  0.13316300  0.62053700  0.83198100  1
  S  S56  1  0.02528700  0.72610700  0.35312300  1
  S  S57  1  0.52556400  0.34175300  0.10903200  1
  S  S58  1  0.63316300  0.80118200  0.51262600  1
  S  S59  1  0.28855600  0.12053700  0.48737400  1
  S  S60  1  0.18898900  0.36604700  0.49009300  1
  S  S61  1  0.92216400  0.12298400  0.14687700  1
  S  S62  1  0.66653200  0.98272100  0.39096800  1
  S  S63  1  0.08240000  0.96897400  0.80806100  1
  S  S64  1  0.74946400  0.74946400  0.00000000  1
  S  S65  1  0.16091300  0.27433900  0.19193900  1
  S  S66  1  0.55118200  0.53855600  0.66801900  1
  S  S67  1  0.78855600  0.30118200  0.16801900  1
  S  S68  1  0.77014700  0.12062900  0.30403500  1
  S  S69  1  0.87595400  0.69889600  0.50990700  1
  S  S70  1  0.71897400  0.41091300  0.38657400  1
  S  S71  1  0.02433900  0.33240000  0.61342600  1
  S  S72  1  0.09175300  0.48272100  0.31618900  1
  S  S73  1  0.27014700  0.96611200  0.64951800  1
  S  S74  1  0.21294700  0.62571600  0.09256400  1
  S  S75  1  0.31659400  0.62062900  0.35048200  1
  S  S76  1  0.87298400  0.22610700  0.70082000  1
  S  S77  1  0.21897400  0.83240000  0.30806100  1
  S  S78  1  0.37038300  0.28315200  0.40743600  1
  S  S79  1  0.49946400  0.99946400  0.50000000  1
  S  S80  1  0.94889600  0.62595400  0.00990700  1
  S  S81  1  0.99946400  0.49946400  0.50000000  1
  S  S82  1  0.58240000  0.77433900  0.11342600  1
  S  S83  1  0.59175300  0.27556400  0.60903200  1
  S  S84  1  0.81659400  0.46611200  0.69596500  1
  S  S85  1  0.03315200  0.12571600  0.41276900  1
  S  S86  1  0.37571600  0.78315200  0.91276900  1
  S  S87  1  0.53315200  0.12038300  0.90743600  1
  S  S88  1  0.02556400  0.91653200  0.18381100  1
  S  S89  1  0.71294700  0.62038300  0.58723100  1
  S  S90  1  0.97610700  0.77528700  0.85312300  1
  S  S91  1  0.21611200  0.02014700  0.14951800  1
  S  S92  1  0.37595400  0.86604700  0.17705800  1
  S  S93  1  0.37053700  0.03855600  0.98737400  1
  S  S94  1  0.61604700  0.93898900  0.99009300  1
  S  S95  1  0.37062900  0.52014700  0.80403500  1
  S  S96  1  0.24946400  0.24946400  0.00000000  1
  S  S97  1  0.87053700  0.88316300  0.33198100  1
  S  S98  1  0.11604700  0.12595400  0.67705800  1
  S  S99  1  0.52433900  0.91091300  0.69193900  1
