# generated using pymatgen
data_Na3Fe2(AsO4)3
_symmetry_space_group_name_H-M   'P 1'
_cell_length_a   10.76138928
_cell_length_b   10.76138928
_cell_length_c   10.76138928
_cell_angle_alpha   109.47122063
_cell_angle_beta   109.47122063
_cell_angle_gamma   109.47122063
_symmetry_Int_Tables_number   1
_chemical_formula_structural   Na3Fe2(AsO4)3
_chemical_formula_sum   'Na12 Fe8 As12 O48'
_cell_volume   959.36337570
_cell_formula_units_Z   4
loop_
 _symmetry_equiv_pos_site_id
 _symmetry_equiv_pos_as_xyz
  1  'x, y, z'
loop_
 _atom_site_type_symbol
 _atom_site_label
 _atom_site_symmetry_multiplicity
 _atom_site_fract_x
 _atom_site_fract_y
 _atom_site_fract_z
 _atom_site_occupancy
  Na  Na0  1  0.37500000  0.75000000  0.12500000  1
  Na  Na1  1  0.25000000  0.37500000  0.12500000  1
  Na  Na2  1  0.87500000  0.62500000  0.25000000  1
  Na  Na3  1  0.12500000  0.37500000  0.75000000  1
  Na  Na4  1  0.37500000  0.12500000  0.25000000  1
  Na  Na5  1  0.75000000  0.62500000  0.87500000  1
  Na  Na6  1  0.25000000  0.87500000  0.62500000  1
  Na  Na7  1  0.75000000  0.12500000  0.37500000  1
  Na  Na8  1  0.87500000  0.75000000  0.62500000  1
  Na  Na9  1  0.62500000  0.87500000  0.75000000  1
  Na  Na10  1  0.12500000  0.25000000  0.37500000  1
  Na  Na11  1  0.62500000  0.25000000  0.87500000  1
  Fe  Fe12  1  0.50000000  0.50000000  0.50000000  1
  Fe  Fe13  1  0.50000000  0.00000000  0.50000000  1
  Fe  Fe14  1  0.50000000  0.00000000  0.00000000  1
  Fe  Fe15  1  0.50000000  0.50000000  0.00000000  1
  Fe  Fe16  1  0.00000000  0.00000000  0.00000000  1
  Fe  Fe17  1  0.00000000  0.00000000  0.50000000  1
  Fe  Fe18  1  0.00000000  0.50000000  0.00000000  1
  Fe  Fe19  1  0.00000000  0.50000000  0.50000000  1
  As  As20  1  0.25000000  0.12500000  0.87500000  1
  As  As21  1  0.87500000  0.12500000  0.75000000  1
  As  As22  1  0.62500000  0.75000000  0.37500000  1
  As  As23  1  0.37500000  0.62500000  0.75000000  1
  As  As24  1  0.25000000  0.62500000  0.37500000  1
  As  As25  1  0.75000000  0.37500000  0.62500000  1
  As  As26  1  0.75000000  0.87500000  0.12500000  1
  As  As27  1  0.87500000  0.25000000  0.12500000  1
  As  As28  1  0.12500000  0.75000000  0.87500000  1
  As  As29  1  0.37500000  0.25000000  0.62500000  1
  As  As30  1  0.12500000  0.87500000  0.25000000  1
  As  As31  1  0.62500000  0.37500000  0.25000000  1
  O  O32  1  0.60431900  0.19061900  0.48996500  1
  O  O33  1  0.58630000  0.19061900  0.20065400  1
  O  O34  1  0.41370000  0.80938100  0.79934600  1
  O  O35  1  0.79934600  0.88564600  0.98996500  1
  O  O36  1  0.61435400  0.70065400  0.51003500  1
  O  O37  1  0.91370000  0.29934600  0.30938100  1
  O  O38  1  0.08630000  0.70065400  0.69061900  1
  O  O39  1  0.88564600  0.39568100  0.08630000  1
  O  O40  1  0.51003500  0.39568100  0.80938100  1
  O  O41  1  0.58630000  0.89568100  0.38564600  1
  O  O42  1  0.08630000  0.88564600  0.39568100  1
  O  O43  1  0.80938100  0.79934600  0.41370000  1
  O  O44  1  0.79934600  0.41370000  0.80938100  1
  O  O45  1  0.41370000  0.10431900  0.61435400  1
  O  O46  1  0.60431900  0.91370000  0.11435400  1
  O  O47  1  0.48996500  0.60431900  0.19061900  1
  O  O48  1  0.70065400  0.51003500  0.61435400  1
  O  O49  1  0.10431900  0.98996500  0.69061900  1
  O  O50  1  0.10431900  0.61435400  0.41370000  1
  O  O51  1  0.38564600  0.29934600  0.48996500  1
  O  O52  1  0.88564600  0.98996500  0.79934600  1
  O  O53  1  0.38564600  0.58630000  0.89568100  1
  O  O54  1  0.69061900  0.08630000  0.70065400  1
  O  O55  1  0.11435400  0.01003500  0.20065400  1
  O  O56  1  0.29934600  0.30938100  0.91370000  1
  O  O57  1  0.48996500  0.38564600  0.29934600  1
  O  O58  1  0.89568100  0.38564600  0.58630000  1
  O  O59  1  0.70065400  0.69061900  0.08630000  1
  O  O60  1  0.69061900  0.10431900  0.98996500  1
  O  O61  1  0.39568100  0.80938100  0.51003500  1
  O  O62  1  0.11435400  0.60431900  0.91370000  1
  O  O63  1  0.51003500  0.61435400  0.70065400  1
  O  O64  1  0.61435400  0.41370000  0.10431900  1
  O  O65  1  0.91370000  0.11435400  0.60431900  1
  O  O66  1  0.98996500  0.69061900  0.10431900  1
  O  O67  1  0.01003500  0.20065400  0.11435400  1
  O  O68  1  0.01003500  0.30938100  0.89568100  1
  O  O69  1  0.89568100  0.01003500  0.30938100  1
  O  O70  1  0.29934600  0.48996500  0.38564600  1
  O  O71  1  0.19061900  0.20065400  0.58630000  1
  O  O72  1  0.20065400  0.11435400  0.01003500  1
  O  O73  1  0.30938100  0.91370000  0.29934600  1
  O  O74  1  0.39568100  0.08630000  0.88564600  1
  O  O75  1  0.20065400  0.58630000  0.19061900  1
  O  O76  1  0.80938100  0.51003500  0.39568100  1
  O  O77  1  0.98996500  0.79934600  0.88564600  1
  O  O78  1  0.30938100  0.89568100  0.01003500  1
  O  O79  1  0.19061900  0.48996500  0.60431900  1
