# generated using pymatgen
data_Ba6Na2Cr2Ru2O17
_symmetry_space_group_name_H-M   'P 1'
_cell_length_a   5.92461690
_cell_length_b   5.92461690
_cell_length_c   30.19064600
_cell_angle_alpha   90.00000000
_cell_angle_beta   90.00000000
_cell_angle_gamma   120.00001002
_symmetry_Int_Tables_number   1
_chemical_formula_structural   Ba6Na2Cr2Ru2O17
_chemical_formula_sum   'Ba12 Na4 Cr4 Ru4 O34'
_cell_volume   917.74819595
_cell_formula_units_Z   2
loop_
 _symmetry_equiv_pos_site_id
 _symmetry_equiv_pos_as_xyz
  1  'x, y, z'
loop_
 _atom_site_type_symbol
 _atom_site_label
 _atom_site_symmetry_multiplicity
 _atom_site_fract_x
 _atom_site_fract_y
 _atom_site_fract_z
 _atom_site_occupancy
  Ba  Ba0  1  0.66666700  0.33333300  0.09209600  1
  Ba  Ba1  1  0.33333300  0.66666700  0.31964200  1
  Ba  Ba2  1  0.33333300  0.66666700  0.18035800  1
  Ba  Ba3  1  0.66666700  0.33333300  0.68035800  1
  Ba  Ba4  1  0.33333300  0.66666700  0.90790400  1
  Ba  Ba5  1  0.66666700  0.33333300  0.40790400  1
  Ba  Ba6  1  0.33333300  0.66666700  0.59209600  1
  Ba  Ba7  1  0.00000000  0.00000000  0.25000000  1
  Ba  Ba8  1  0.66666700  0.33333300  0.81964200  1
  Ba  Ba9  1  0.00000000  0.00000000  0.75000000  1
  Ba  Ba10  1  0.00000000  0.00000000  0.50000000  1
  Ba  Ba11  1  0.00000000  0.00000000  0.00000000  1
  Na  Na12  1  0.00000000  0.00000000  0.12406600  1
  Na  Na13  1  0.00000000  0.00000000  0.87593400  1
  Na  Na14  1  0.00000000  0.00000000  0.37593400  1
  Na  Na15  1  0.00000000  0.00000000  0.62406600  1
  Cr  Cr16  1  0.66666700  0.33333300  0.55197900  1
  Cr  Cr17  1  0.33333300  0.66666700  0.44802100  1
  Cr  Cr18  1  0.33333300  0.66666700  0.05197900  1
  Cr  Cr19  1  0.66666700  0.33333300  0.94802100  1
  Ru  Ru20  1  0.66666700  0.33333300  0.20381400  1
  Ru  Ru21  1  0.33333300  0.66666700  0.79618600  1
  Ru  Ru22  1  0.66666700  0.33333300  0.29618600  1
  Ru  Ru23  1  0.33333300  0.66666700  0.70381400  1
  O  O24  1  0.35341800  0.17670900  0.17022200  1
  O  O25  1  0.48622300  0.97244500  0.75000000  1
  O  O26  1  0.35341800  0.17670900  0.32977800  1
  O  O27  1  0.82329100  0.17670900  0.32977800  1
  O  O28  1  0.17538800  0.35077600  0.07282900  1
  O  O29  1  0.64658200  0.82329100  0.67022200  1
  O  O30  1  0.33333300  0.66666700  0.99537200  1
  O  O31  1  0.17670900  0.82329100  0.67022200  1
  O  O32  1  0.17538800  0.82461200  0.07282900  1
  O  O33  1  0.17670900  0.35341800  0.67022200  1
  O  O34  1  0.82329100  0.64658200  0.17022200  1
  O  O35  1  0.35077600  0.17538800  0.57282900  1
  O  O36  1  0.82461200  0.64922400  0.92717100  1
  O  O37  1  0.51377700  0.48622300  0.25000000  1
  O  O38  1  0.66666700  0.33333300  0.49537200  1
  O  O39  1  0.17670900  0.35341800  0.82977800  1
  O  O40  1  0.82461200  0.64922400  0.57282900  1
  O  O41  1  0.51377700  0.02755500  0.25000000  1
  O  O42  1  0.66666700  0.33333300  0.00462800  1
  O  O43  1  0.35077600  0.17538800  0.92717100  1
  O  O44  1  0.64922400  0.82461200  0.07282900  1
  O  O45  1  0.33333300  0.66666700  0.50462800  1
  O  O46  1  0.17670900  0.82329100  0.82977800  1
  O  O47  1  0.97244500  0.48622300  0.25000000  1
  O  O48  1  0.17538800  0.35077600  0.42717100  1
  O  O49  1  0.64658200  0.82329100  0.82977800  1
  O  O50  1  0.82461200  0.17538800  0.57282900  1
  O  O51  1  0.82461200  0.17538800  0.92717100  1
  O  O52  1  0.64922400  0.82461200  0.42717100  1
  O  O53  1  0.17538800  0.82461200  0.42717100  1
  O  O54  1  0.82329100  0.64658200  0.32977800  1
  O  O55  1  0.48622300  0.51377700  0.75000000  1
  O  O56  1  0.02755500  0.51377700  0.75000000  1
  O  O57  1  0.82329100  0.17670900  0.17022200  1
