# generated using pymatgen
data_Na3B5Pt9
_symmetry_space_group_name_H-M   'P 1'
_cell_length_a   6.40957328
_cell_length_b   6.40957328
_cell_length_c   15.27785000
_cell_angle_alpha   90.00000000
_cell_angle_beta   90.00000000
_cell_angle_gamma   128.02850231
_symmetry_Int_Tables_number   1
_chemical_formula_structural   Na3B5Pt9
_chemical_formula_sum   'Na6 B10 Pt18'
_cell_volume   494.40601060
_cell_formula_units_Z   2
loop_
 _symmetry_equiv_pos_site_id
 _symmetry_equiv_pos_as_xyz
  1  'x, y, z'
loop_
 _atom_site_type_symbol
 _atom_site_label
 _atom_site_symmetry_multiplicity
 _atom_site_fract_x
 _atom_site_fract_y
 _atom_site_fract_z
 _atom_site_occupancy
  Na  Na0  1  0.31404800  0.68595200  0.75000000  1
  Na  Na1  1  0.68595200  0.31404800  0.25000000  1
  Na  Na2  1  0.55895400  0.44104600  0.08673000  1
  Na  Na3  1  0.44104600  0.55895400  0.91327000  1
  Na  Na4  1  0.44104600  0.55895400  0.58673000  1
  Na  Na5  1  0.55895400  0.44104600  0.41327000  1
  B  B6  1  0.94415700  0.05584300  0.14654300  1
  B  B7  1  0.05584300  0.94415700  0.85345700  1
  B  B8  1  0.05584300  0.94415700  0.64654300  1
  B  B9  1  0.94415700  0.05584300  0.35345700  1
  B  B10  1  0.18958100  0.81041900  0.02777900  1
  B  B11  1  0.81041900  0.18958100  0.97222100  1
  B  B12  1  0.81041900  0.18958100  0.52777900  1
  B  B13  1  0.18958100  0.81041900  0.47222100  1
  B  B14  1  0.72750200  0.27249800  0.75000000  1
  B  B15  1  0.27249800  0.72750200  0.25000000  1
  Pt  Pt16  1  0.00000000  0.00000000  0.00000000  1
  Pt  Pt17  1  0.00000000  0.00000000  0.50000000  1
  Pt  Pt18  1  0.65939900  0.83334600  0.25000000  1
  Pt  Pt19  1  0.83334600  0.65939900  0.75000000  1
  Pt  Pt20  1  0.34060100  0.16665400  0.75000000  1
  Pt  Pt21  1  0.16665400  0.34060100  0.25000000  1
  Pt  Pt22  1  0.12778600  0.87221400  0.15697700  1
  Pt  Pt23  1  0.87221400  0.12778600  0.84302300  1
  Pt  Pt24  1  0.87221400  0.12778600  0.65697700  1
  Pt  Pt25  1  0.12778600  0.87221400  0.34302300  1
  Pt  Pt26  1  0.56841300  0.93634500  0.07897100  1
  Pt  Pt27  1  0.93634500  0.56841300  0.92102900  1
  Pt  Pt28  1  0.43158700  0.06365500  0.57897100  1
  Pt  Pt29  1  0.06365500  0.43158700  0.42102900  1
  Pt  Pt30  1  0.43158700  0.06365500  0.92102900  1
  Pt  Pt31  1  0.06365500  0.43158700  0.07897100  1
  Pt  Pt32  1  0.56841300  0.93634500  0.42102900  1
  Pt  Pt33  1  0.93634500  0.56841300  0.57897100  1
