# generated using pymatgen
data_Tl2Cu(CO3)2
_symmetry_space_group_name_H-M   'P 1'
_cell_length_a   9.97449300
_cell_length_b   7.70210900
_cell_length_c   9.27893566
_cell_angle_alpha   68.54942311
_cell_angle_beta   90.00000000
_cell_angle_gamma   90.00000000
_symmetry_Int_Tables_number   1
_chemical_formula_structural   Tl2Cu(CO3)2
_chemical_formula_sum   'Tl8 Cu4 C8 O24'
_cell_volume   663.47404189
_cell_formula_units_Z   4
loop_
 _symmetry_equiv_pos_site_id
 _symmetry_equiv_pos_as_xyz
  1  'x, y, z'
loop_
 _atom_site_type_symbol
 _atom_site_label
 _atom_site_symmetry_multiplicity
 _atom_site_fract_x
 _atom_site_fract_y
 _atom_site_fract_z
 _atom_site_occupancy
  Tl  Tl0  1  0.11041600  0.26575200  0.64804100  1
  Tl  Tl1  1  0.79721600  0.12183600  0.48216000  1
  Tl  Tl2  1  0.29721600  0.87816400  0.01784000  1
  Tl  Tl3  1  0.61041600  0.73424800  0.85195900  1
  Tl  Tl4  1  0.70278400  0.12183600  0.98216000  1
  Tl  Tl5  1  0.38958400  0.26575200  0.14804100  1
  Tl  Tl6  1  0.88958400  0.73424800  0.35195900  1
  Tl  Tl7  1  0.20278400  0.87816400  0.51784000  1
  Cu  Cu8  1  0.10603400  0.53891900  0.92308400  1
  Cu  Cu9  1  0.39396600  0.53891900  0.42308400  1
  Cu  Cu10  1  0.89396600  0.46108100  0.07691600  1
  Cu  Cu11  1  0.60603400  0.46108100  0.57691600  1
  C  C12  1  0.11743900  0.52033700  0.25032500  1
  C  C13  1  0.38256100  0.52033700  0.75032500  1
  C  C14  1  0.95043600  0.86077500  0.90526900  1
  C  C15  1  0.04956400  0.13922500  0.09473100  1
  C  C16  1  0.54956400  0.86077500  0.40526900  1
  C  C17  1  0.45043600  0.13922500  0.59473100  1
  C  C18  1  0.88256100  0.47966300  0.74967500  1
  C  C19  1  0.61743900  0.47966300  0.24967500  1
  O  O20  1  0.50678900  0.46165400  0.76539500  1
  O  O21  1  0.81392600  0.46097700  0.87476700  1
  O  O22  1  0.87492600  0.73906000  0.00904000  1
  O  O23  1  0.68607400  0.46097700  0.37476700  1
  O  O24  1  0.32853700  0.56080500  0.85905200  1
  O  O25  1  0.17146300  0.56080500  0.35905200  1
  O  O26  1  0.00678900  0.53834600  0.73460500  1
  O  O27  1  0.62507400  0.73906000  0.50904000  1
  O  O28  1  0.99321100  0.46165400  0.26539500  1
  O  O29  1  0.18607400  0.53902300  0.12523300  1
  O  O30  1  0.06543700  0.81187300  0.86201400  1
  O  O31  1  0.93456300  0.18812700  0.13798600  1
  O  O32  1  0.56543700  0.18812700  0.63798600  1
  O  O33  1  0.58920600  0.03012500  0.34400900  1
  O  O34  1  0.43456300  0.81187300  0.36201400  1
  O  O35  1  0.82853700  0.43919500  0.64094800  1
  O  O36  1  0.31392600  0.53902300  0.62523300  1
  O  O37  1  0.12507400  0.26094000  0.99096000  1
  O  O38  1  0.08920600  0.96987500  0.15599100  1
  O  O39  1  0.91079400  0.03012500  0.84400900  1
  O  O40  1  0.37492600  0.26094000  0.49096000  1
  O  O41  1  0.49321100  0.53834600  0.23460500  1
  O  O42  1  0.67146300  0.43919500  0.14094800  1
  O  O43  1  0.41079400  0.96987500  0.65599100  1
