# generated using pymatgen
data_Ba2V5(PO6)4
_symmetry_space_group_name_H-M   'P 1'
_cell_length_a   13.27209765
_cell_length_b   13.27209765
_cell_length_c   7.81630574
_cell_angle_alpha   79.10020509
_cell_angle_beta   79.10020509
_cell_angle_gamma   123.76410227
_symmetry_Int_Tables_number   1
_chemical_formula_structural   Ba2V5(PO6)4
_chemical_formula_sum   'Ba4 V10 P8 O48'
_cell_volume   1048.43541449
_cell_formula_units_Z   2
loop_
 _symmetry_equiv_pos_site_id
 _symmetry_equiv_pos_as_xyz
  1  'x, y, z'
loop_
 _atom_site_type_symbol
 _atom_site_label
 _atom_site_symmetry_multiplicity
 _atom_site_fract_x
 _atom_site_fract_y
 _atom_site_fract_z
 _atom_site_occupancy
  Ba  Ba0  1  0.96990000  0.47375400  0.53164600  1
  Ba  Ba1  1  0.26656000  0.26656000  0.99516900  1
  Ba  Ba2  1  0.12000600  0.12000600  0.57453000  1
  Ba  Ba3  1  0.47375400  0.96990000  0.53164600  1
  V  V4  1  0.59234200  0.22920500  0.79397000  1
  V  V5  1  0.38855100  0.66465000  0.32389600  1
  V  V6  1  0.78426400  0.07023800  0.73414400  1
  V  V7  1  0.22782700  0.85423200  0.26846800  1
  V  V8  1  0.66465000  0.38855100  0.32389600  1
  V  V9  1  0.57175700  0.57175700  0.82045400  1
  V  V10  1  0.07023800  0.78426400  0.73414400  1
  V  V11  1  0.22920500  0.59234200  0.79397000  1
  V  V12  1  0.91572700  0.91572700  0.20279000  1
  V  V13  1  0.85423200  0.22782700  0.26846800  1
  P  P14  1  0.51696300  0.77724200  0.84600600  1
  P  P15  1  0.68546700  0.94143900  0.21414200  1
  P  P16  1  0.28780300  0.02255000  0.84766100  1
  P  P17  1  0.42656800  0.16403100  0.21711800  1
  P  P18  1  0.94143900  0.68546700  0.21414200  1
  P  P19  1  0.02255000  0.28780300  0.84766100  1
  P  P20  1  0.77724200  0.51696300  0.84600600  1
  P  P21  1  0.16403100  0.42656800  0.21711800  1
  O  O22  1  0.83415700  0.53563900  0.31581400  1
  O  O23  1  0.15552600  0.65045500  0.86242100  1
  O  O24  1  0.12562800  0.27195200  0.77902300  1
  O  O25  1  0.29198600  0.65546900  0.54066000  1
  O  O26  1  0.48220200  0.48220200  0.04165300  1
  O  O27  1  0.08069800  0.43587100  0.79181500  1
  O  O28  1  0.17618600  0.32128800  0.28718400  1
  O  O29  1  0.37759200  0.02062300  0.26940700  1
  O  O30  1  0.02953000  0.87130000  0.64143000  1
  O  O31  1  0.05206500  0.70973200  0.28589500  1
  O  O32  1  0.58998300  0.72679200  0.76820300  1
  O  O33  1  0.02062300  0.37759200  0.26940700  1
  O  O34  1  0.48360000  0.48360000  0.70954700  1
  O  O35  1  0.79087600  0.17569500  0.51193300  1
  O  O36  1  0.02559400  0.02559400  0.27274200  1
  O  O37  1  0.47006300  0.72578000  0.05936700  1
  O  O38  1  0.22398100  0.95937400  0.06528600  1
  O  O39  1  0.97413300  0.97413300  0.97383200  1
  O  O40  1  0.75767500  0.89086800  0.28375100  1
  O  O41  1  0.27195200  0.12562800  0.77902300  1
  O  O42  1  0.98324300  0.72605000  0.00436100  1
  O  O43  1  0.30892700  0.80479000  0.19040500  1
  O  O44  1  0.70973200  0.05206500  0.28589500  1
  O  O45  1  0.80479000  0.30892700  0.19040500  1
  O  O46  1  0.32128800  0.17618600  0.28718400  1
  O  O47  1  0.23075900  0.48703300  0.99686700  1
  O  O48  1  0.72605000  0.98324300  0.00436100  1
  O  O49  1  0.40103700  0.73376500  0.77809300  1
  O  O50  1  0.53563900  0.83415700  0.31581400  1
  O  O51  1  0.57468500  0.42718600  0.39635500  1
  O  O52  1  0.43587100  0.08069800  0.79181500  1
  O  O53  1  0.23944500  0.91955000  0.75318600  1
  O  O54  1  0.53671000  0.22316100  0.30014400  1
  O  O55  1  0.65045500  0.15552600  0.86242100  1
  O  O56  1  0.73376500  0.40103700  0.77809300  1
  O  O57  1  0.42718600  0.57468500  0.39635500  1
  O  O58  1  0.87130000  0.02953000  0.64143000  1
  O  O59  1  0.91955000  0.23944500  0.75318600  1
  O  O60  1  0.22316100  0.53671000  0.30014400  1
  O  O61  1  0.17569500  0.79087600  0.51193300  1
  O  O62  1  0.65546900  0.29198600  0.54066000  1
  O  O63  1  0.92630800  0.60396500  0.75513500  1
  O  O64  1  0.89086800  0.75767500  0.28375100  1
  O  O65  1  0.48703300  0.23075900  0.99686700  1
  O  O66  1  0.72679200  0.58998300  0.76820300  1
  O  O67  1  0.60396500  0.92630800  0.75513500  1
  O  O68  1  0.95937400  0.22398100  0.06528600  1
  O  O69  1  0.72578000  0.47006300  0.05936700  1
