# generated using pymatgen
data_Ba(NiAs)2
_symmetry_space_group_name_H-M   'P 1'
_cell_length_a   6.57789079
_cell_length_b   6.57789079
_cell_length_c   6.57789079
_cell_angle_alpha   143.16379155
_cell_angle_beta   143.16379155
_cell_angle_gamma   53.07957166
_symmetry_Int_Tables_number   1
_chemical_formula_structural   Ba(NiAs)2
_chemical_formula_sum   'Ba1 Ni2 As2'
_cell_volume   101.67032397
_cell_formula_units_Z   1
loop_
 _symmetry_equiv_pos_site_id
 _symmetry_equiv_pos_as_xyz
  1  'x, y, z'
loop_
 _atom_site_type_symbol
 _atom_site_label
 _atom_site_symmetry_multiplicity
 _atom_site_fract_x
 _atom_site_fract_y
 _atom_site_fract_z
 _atom_site_occupancy
  Ba  Ba0  1  0.00000000  0.00000000  0.00000000  1
  Ni  Ni1  1  0.75000000  0.25000000  0.50000000  1
  Ni  Ni2  1  0.25000000  0.75000000  0.50000000  1
  As  As3  1  0.34636700  0.34636700  0.00000000  1
  As  As4  1  0.65363300  0.65363300  0.00000000  1
