# generated using pymatgen
data_Na2Zn5(PO4)4
_symmetry_space_group_name_H-M   'P 1'
_cell_length_a   8.63336700
_cell_length_b   10.54917100
_cell_length_c   16.79497900
_cell_angle_alpha   90.00000000
_cell_angle_beta   90.00000000
_cell_angle_gamma   90.00000000
_symmetry_Int_Tables_number   1
_chemical_formula_structural   Na2Zn5(PO4)4
_chemical_formula_sum   'Na8 Zn20 P16 O64'
_cell_volume   1529.60044156
_cell_formula_units_Z   4
loop_
 _symmetry_equiv_pos_site_id
 _symmetry_equiv_pos_as_xyz
  1  'x, y, z'
loop_
 _atom_site_type_symbol
 _atom_site_label
 _atom_site_symmetry_multiplicity
 _atom_site_fract_x
 _atom_site_fract_y
 _atom_site_fract_z
 _atom_site_occupancy
  Na  Na0  1  0.73768500  0.83336200  0.70448600  1
  Na  Na1  1  0.76231500  0.66663800  0.20448600  1
  Na  Na2  1  0.73768500  0.16663800  0.79551400  1
  Na  Na3  1  0.76231500  0.33336200  0.29551400  1
  Na  Na4  1  0.23768500  0.66663800  0.70448600  1
  Na  Na5  1  0.23768500  0.33336200  0.79551400  1
  Na  Na6  1  0.26231500  0.16663800  0.29551400  1
  Na  Na7  1  0.26231500  0.83336200  0.20448600  1
  Zn  Zn8  1  0.88822200  0.15975400  0.57919000  1
  Zn  Zn9  1  0.07906600  0.66469600  0.05368900  1
  Zn  Zn10  1  0.88822200  0.84024600  0.92081000  1
  Zn  Zn11  1  0.42093400  0.83530400  0.55368900  1
  Zn  Zn12  1  0.42093400  0.16469600  0.94631100  1
  Zn  Zn13  1  0.30486700  0.00000000  0.75000000  1
  Zn  Zn14  1  0.11177800  0.15975400  0.07919000  1
  Zn  Zn15  1  0.07906600  0.33530400  0.44631100  1
  Zn  Zn16  1  0.92093400  0.33530400  0.94631100  1
  Zn  Zn17  1  0.19513300  0.50000000  0.25000000  1
  Zn  Zn18  1  0.80486700  0.50000000  0.75000000  1
  Zn  Zn19  1  0.61177800  0.65975400  0.42081000  1
  Zn  Zn20  1  0.57906600  0.16469600  0.44631100  1
  Zn  Zn21  1  0.57906600  0.83530400  0.05368900  1
  Zn  Zn22  1  0.92093400  0.66469600  0.55368900  1
  Zn  Zn23  1  0.69513300  0.00000000  0.25000000  1
  Zn  Zn24  1  0.38822200  0.34024600  0.57919000  1
  Zn  Zn25  1  0.11177800  0.84024600  0.42081000  1
  Zn  Zn26  1  0.61177800  0.34024600  0.07919000  1
  Zn  Zn27  1  0.38822200  0.65975400  0.92081000  1
  P  P28  1  0.05424400  0.59385700  0.86710100  1
  P  P29  1  0.94575600  0.40614300  0.13289900  1
  P  P30  1  0.44575600  0.09385700  0.13289900  1
  P  P31  1  0.94575600  0.59385700  0.36710100  1
  P  P32  1  0.05424400  0.40614300  0.63289900  1
  P  P33  1  0.90529600  0.08880600  0.39374400  1
  P  P34  1  0.55424400  0.09385700  0.63289900  1
  P  P35  1  0.40529600  0.58880600  0.10625600  1
  P  P36  1  0.59470400  0.41119400  0.89374400  1
  P  P37  1  0.90529600  0.91119400  0.10625600  1
  P  P38  1  0.55424400  0.90614300  0.86710100  1
  P  P39  1  0.09470400  0.08880600  0.89374400  1
  P  P40  1  0.44575600  0.90614300  0.36710100  1
  P  P41  1  0.09470400  0.91119400  0.60625600  1
  P  P42  1  0.59470400  0.58880600  0.60625600  1
  P  P43  1  0.40529600  0.41119400  0.39374400  1
  O  O44  1  0.94354700  0.83168200  0.60606600  1
  O  O45  1  0.69463400  0.37971000  0.81951400  1
  O  O46  1  0.05645300  0.83168200  0.10606600  1
  O  O47  1  0.49808300  0.82601100  0.94136800  1
  O  O48  1  0.27680600  0.13077300  0.15599000  1
  O  O49  1  0.69463400  0.62029000  0.68048600  1
  O  O50  1  0.43558400  0.55346400  0.39778600  1
  O  O51  1  0.94627100  0.45085100  0.38753500  1
  O  O52  1  0.22319400  0.63077300  0.84401000  1
  O  O53  1  0.06441600  0.94653600  0.89778600  1
  O  O54  1  0.49808300  0.17398900  0.55863200  1
  O  O55  1  0.50191700  0.17398900  0.05863200  1
  O  O56  1  0.94627100  0.54914900  0.11246500  1
  O  O57  1  0.05372900  0.54914900  0.61246500  1
  O  O58  1  0.00191700  0.32601100  0.05863200  1
  O  O59  1  0.69667100  0.63296600  0.53198100  1
  O  O60  1  0.05372900  0.45085100  0.88753500  1
  O  O61  1  0.56441600  0.55346400  0.89778600  1
  O  O62  1  0.94777000  0.37266900  0.70310900  1
  O  O63  1  0.06441600  0.05346400  0.60221400  1
  O  O64  1  0.77680600  0.36922700  0.15599000  1
  O  O65  1  0.19667100  0.13296600  0.96801900  1
  O  O66  1  0.00191700  0.67398900  0.44136800  1
  O  O67  1  0.55372900  0.04914900  0.88753500  1
  O  O68  1  0.44627100  0.04914900  0.38753500  1
  O  O69  1  0.55645300  0.66831800  0.10606600  1
  O  O70  1  0.55223000  0.12733100  0.20310900  1
  O  O71  1  0.50191700  0.82601100  0.44136800  1
  O  O72  1  0.19463400  0.87971000  0.68048600  1
  O  O73  1  0.19667100  0.86703400  0.53198100  1
  O  O74  1  0.44777000  0.87266900  0.79689100  1
  O  O75  1  0.80536600  0.12029000  0.31951400  1
  O  O76  1  0.05645300  0.16831800  0.39393400  1
  O  O77  1  0.69667100  0.36703400  0.96801900  1
  O  O78  1  0.05223000  0.37266900  0.20310900  1
  O  O79  1  0.44777000  0.12733100  0.70310900  1
  O  O80  1  0.80332900  0.13296600  0.46801900  1
  O  O81  1  0.30332900  0.63296600  0.03198100  1
  O  O82  1  0.93558400  0.94653600  0.39778600  1
  O  O83  1  0.77680600  0.63077300  0.34401000  1
  O  O84  1  0.56441600  0.44653600  0.60221400  1
  O  O85  1  0.30332900  0.36703400  0.46801900  1
  O  O86  1  0.44354700  0.33168200  0.89393400  1
  O  O87  1  0.55223000  0.87266900  0.29689100  1
  O  O88  1  0.93558400  0.05346400  0.10221400  1
  O  O89  1  0.80332900  0.86703400  0.03198100  1
  O  O90  1  0.99808300  0.67398900  0.94136800  1
  O  O91  1  0.44627100  0.95085100  0.11246500  1
  O  O92  1  0.72319400  0.13077300  0.65599000  1
  O  O93  1  0.44354700  0.66831800  0.60606600  1
  O  O94  1  0.27680600  0.86922700  0.34401000  1
  O  O95  1  0.55372900  0.95085100  0.61246500  1
  O  O96  1  0.94354700  0.16831800  0.89393400  1
  O  O97  1  0.80536600  0.87971000  0.18048600  1
  O  O98  1  0.30536600  0.62029000  0.18048600  1
  O  O99  1  0.55645300  0.33168200  0.39393400  1
  O  O100  1  0.72319400  0.86922700  0.84401000  1
  O  O101  1  0.99808300  0.32601100  0.55863200  1
  O  O102  1  0.30536600  0.37971000  0.31951400  1
  O  O103  1  0.05223000  0.62733100  0.29689100  1
  O  O104  1  0.19463400  0.12029000  0.81951400  1
  O  O105  1  0.94777000  0.62733100  0.79689100  1
  O  O106  1  0.43558400  0.44653600  0.10221400  1
  O  O107  1  0.22319400  0.36922700  0.65599000  1
