# generated using pymatgen
data_KTeOF3
_symmetry_space_group_name_H-M   'P 1'
_cell_length_a   10.31308400
_cell_length_b   10.31308400
_cell_length_c   8.04286500
_cell_angle_alpha   90.00000000
_cell_angle_beta   90.00000000
_cell_angle_gamma   90.00000000
_symmetry_Int_Tables_number   1
_chemical_formula_structural   KTeOF3
_chemical_formula_sum   'K8 Te8 O8 F24'
_cell_volume   855.43672134
_cell_formula_units_Z   8
loop_
 _symmetry_equiv_pos_site_id
 _symmetry_equiv_pos_as_xyz
  1  'x, y, z'
loop_
 _atom_site_type_symbol
 _atom_site_label
 _atom_site_symmetry_multiplicity
 _atom_site_fract_x
 _atom_site_fract_y
 _atom_site_fract_z
 _atom_site_occupancy
  K  K0  1  0.50000000  0.50000000  0.50000000  1
  K  K1  1  0.00000000  0.00000000  0.00000000  1
  K  K2  1  0.50000000  0.50000000  0.00000000  1
  K  K3  1  0.00000000  0.00000000  0.50000000  1
  K  K4  1  0.75000000  0.25000000  0.25000000  1
  K  K5  1  0.25000000  0.75000000  0.25000000  1
  K  K6  1  0.25000000  0.25000000  0.75000000  1
  K  K7  1  0.75000000  0.75000000  0.75000000  1
  Te  Te8  1  0.65662900  0.86689700  0.20969500  1
  Te  Te9  1  0.13310300  0.65662900  0.79030500  1
  Te  Te10  1  0.84337100  0.63310300  0.29030500  1
  Te  Te11  1  0.36689700  0.84337100  0.70969500  1
  Te  Te12  1  0.86689700  0.34337100  0.79030500  1
  Te  Te13  1  0.63310300  0.15662900  0.70969500  1
  Te  Te14  1  0.34337100  0.13310300  0.20969500  1
  Te  Te15  1  0.15662900  0.36689700  0.29030500  1
  O  O16  1  0.25378600  0.72154200  0.59851500  1
  O  O17  1  0.24621400  0.77845800  0.90148500  1
  O  O18  1  0.27845800  0.25378600  0.40148500  1
  O  O19  1  0.77845800  0.75378600  0.09851500  1
  O  O20  1  0.75378600  0.22154200  0.90148500  1
  O  O21  1  0.22154200  0.24621400  0.09851500  1
  O  O22  1  0.74621400  0.27845800  0.59851500  1
  O  O23  1  0.72154200  0.74621400  0.40148500  1
  F  F24  1  0.51379500  0.73899600  0.14673100  1
  F  F25  1  0.99454000  0.18456000  0.76327000  1
  F  F26  1  0.98620500  0.76100400  0.35326900  1
  F  F27  1  0.18456000  0.00546000  0.23673000  1
  F  F28  1  0.76100400  0.01379500  0.64673100  1
  F  F29  1  0.48620500  0.26100400  0.14673100  1
  F  F30  1  0.31544000  0.49454000  0.26327000  1
  F  F31  1  0.50546000  0.31544000  0.73673000  1
  F  F32  1  0.06162500  0.64002700  0.02624300  1
  F  F33  1  0.00546000  0.81544000  0.76327000  1
  F  F34  1  0.93837500  0.35997300  0.02624300  1
  F  F35  1  0.64002700  0.93837500  0.97375700  1
  F  F36  1  0.56162500  0.14002700  0.47375700  1
  F  F37  1  0.14002700  0.43837500  0.52624300  1
  F  F38  1  0.85997300  0.56162500  0.52624300  1
  F  F39  1  0.23899600  0.98620500  0.64673100  1
  F  F40  1  0.43837500  0.85997300  0.47375700  1
  F  F41  1  0.35997300  0.06162500  0.97375700  1
  F  F42  1  0.68456000  0.50546000  0.26327000  1
  F  F43  1  0.26100400  0.51379500  0.85326900  1
  F  F44  1  0.73899600  0.48620500  0.85326900  1
  F  F45  1  0.01379500  0.23899600  0.35326900  1
  F  F46  1  0.81544000  0.99454000  0.23673000  1
  F  F47  1  0.49454000  0.68456000  0.73673000  1
