# generated using pymatgen
data_CsMgH3
_symmetry_space_group_name_H-M   'P 1'
_cell_length_a   6.15760700
_cell_length_b   8.61119600
_cell_length_c   10.01945400
_cell_angle_alpha   90.00000000
_cell_angle_beta   90.00000000
_cell_angle_gamma   90.00000000
_symmetry_Int_Tables_number   1
_chemical_formula_structural   CsMgH3
_chemical_formula_sum   'Cs6 Mg6 H18'
_cell_volume   531.27514359
_cell_formula_units_Z   6
loop_
 _symmetry_equiv_pos_site_id
 _symmetry_equiv_pos_as_xyz
  1  'x, y, z'
loop_
 _atom_site_type_symbol
 _atom_site_label
 _atom_site_symmetry_multiplicity
 _atom_site_fract_x
 _atom_site_fract_y
 _atom_site_fract_z
 _atom_site_occupancy
  Cs  Cs0  1  0.50000000  0.66605900  0.27915100  1
  Cs  Cs1  1  0.50000000  0.18181000  0.50000000  1
  Cs  Cs2  1  0.00000000  0.33394100  0.77915100  1
  Cs  Cs3  1  0.00000000  0.81819000  0.00000000  1
  Cs  Cs4  1  0.00000000  0.33394100  0.22084900  1
  Cs  Cs5  1  0.50000000  0.66605900  0.72084900  1
  Mg  Mg6  1  0.50000000  0.07338800  0.13948200  1
  Mg  Mg7  1  0.50000000  0.36477800  0.00000000  1
  Mg  Mg8  1  0.00000000  0.92661200  0.63948200  1
  Mg  Mg9  1  0.50000000  0.07338800  0.86051800  1
  Mg  Mg10  1  0.00000000  0.63522200  0.50000000  1
  Mg  Mg11  1  0.00000000  0.92661200  0.36051800  1
  H  H12  1  0.79928900  0.83320500  0.50000000  1
  H  H13  1  0.70071100  0.16679500  0.00000000  1
  H  H14  1  0.73545900  0.50204800  0.00000000  1
  H  H15  1  0.23545900  0.49795200  0.50000000  1
  H  H16  1  0.76454100  0.49795200  0.50000000  1
  H  H17  1  0.26454100  0.50204800  0.00000000  1
  H  H18  1  0.50000000  0.90645600  0.00000000  1
  H  H19  1  0.00000000  0.70842400  0.69853200  1
  H  H20  1  0.00000000  0.09354400  0.50000000  1
  H  H21  1  0.50000000  0.29157600  0.19853200  1
  H  H22  1  0.00000000  0.70842400  0.30146800  1
  H  H23  1  0.29928900  0.16679500  0.00000000  1
  H  H24  1  0.75000000  0.00000000  0.25000000  1
  H  H25  1  0.50000000  0.29157600  0.80146800  1
  H  H26  1  0.20071100  0.83320500  0.50000000  1
  H  H27  1  0.25000000  0.00000000  0.25000000  1
  H  H28  1  0.75000000  0.00000000  0.75000000  1
  H  H29  1  0.25000000  0.00000000  0.75000000  1
