# generated using pymatgen
data_Cs6K3GaSb4
_symmetry_space_group_name_H-M   'P 1'
_cell_length_a   11.16825924
_cell_length_b   11.16825924
_cell_length_c   11.70399400
_cell_angle_alpha   90.00000000
_cell_angle_beta   90.00000000
_cell_angle_gamma   119.99999551
_symmetry_Int_Tables_number   1
_chemical_formula_structural   Cs6K3GaSb4
_chemical_formula_sum   'Cs12 K6 Ga2 Sb8'
_cell_volume   1264.25801210
_cell_formula_units_Z   2
loop_
 _symmetry_equiv_pos_site_id
 _symmetry_equiv_pos_as_xyz
  1  'x, y, z'
loop_
 _atom_site_type_symbol
 _atom_site_label
 _atom_site_symmetry_multiplicity
 _atom_site_fract_x
 _atom_site_fract_y
 _atom_site_fract_z
 _atom_site_occupancy
  Cs  Cs0  1  0.20941000  0.41881900  0.54164400  1
  Cs  Cs1  1  0.79059000  0.20941000  0.04164400  1
  Cs  Cs2  1  0.41881900  0.20941000  0.04164400  1
  Cs  Cs3  1  0.58118100  0.79059000  0.54164400  1
  Cs  Cs4  1  0.20941000  0.79059000  0.54164400  1
  Cs  Cs5  1  0.79059000  0.58118100  0.45835600  1
  Cs  Cs6  1  0.79059000  0.20941000  0.45835600  1
  Cs  Cs7  1  0.79059000  0.58118100  0.04164400  1
  Cs  Cs8  1  0.41881900  0.20941000  0.45835600  1
  Cs  Cs9  1  0.58118100  0.79059000  0.95835600  1
  Cs  Cs10  1  0.20941000  0.41881900  0.95835600  1
  Cs  Cs11  1  0.20941000  0.79059000  0.95835600  1
  K  K12  1  0.11903000  0.23805900  0.25000000  1
  K  K13  1  0.88097000  0.11903000  0.75000000  1
  K  K14  1  0.23805900  0.11903000  0.75000000  1
  K  K15  1  0.76194100  0.88097000  0.25000000  1
  K  K16  1  0.11903000  0.88097000  0.25000000  1
  K  K17  1  0.88097000  0.76194100  0.75000000  1
  Ga  Ga18  1  0.33333300  0.66666700  0.25000000  1
  Ga  Ga19  1  0.66666700  0.33333300  0.75000000  1
  Sb  Sb20  1  0.47262400  0.52737600  0.25000000  1
  Sb  Sb21  1  0.94524700  0.47262400  0.75000000  1
  Sb  Sb22  1  0.52737600  0.05475300  0.75000000  1
  Sb  Sb23  1  0.47262400  0.94524700  0.25000000  1
  Sb  Sb24  1  0.05475300  0.52737600  0.25000000  1
  Sb  Sb25  1  0.52737600  0.47262400  0.75000000  1
  Sb  Sb26  1  0.00000000  0.00000000  0.00000000  1
  Sb  Sb27  1  0.00000000  0.00000000  0.50000000  1
