# generated using pymatgen
data_CsAsF4
_symmetry_space_group_name_H-M   'P 1'
_cell_length_a   4.90811700
_cell_length_b   6.76546800
_cell_length_c   8.76530569
_cell_angle_alpha   67.41655981
_cell_angle_beta   90.00000000
_cell_angle_gamma   90.00000000
_symmetry_Int_Tables_number   1
_chemical_formula_structural   CsAsF4
_chemical_formula_sum   'Cs2 As2 F8'
_cell_volume   268.74020762
_cell_formula_units_Z   2
loop_
 _symmetry_equiv_pos_site_id
 _symmetry_equiv_pos_as_xyz
  1  'x, y, z'
loop_
 _atom_site_type_symbol
 _atom_site_label
 _atom_site_symmetry_multiplicity
 _atom_site_fract_x
 _atom_site_fract_y
 _atom_site_fract_z
 _atom_site_occupancy
  Cs  Cs0  1  0.30476900  0.68680200  0.21628100  1
  Cs  Cs1  1  0.80476900  0.31319800  0.78371900  1
  As  As2  1  0.81012200  0.15448100  0.30841000  1
  As  As3  1  0.31012200  0.84551900  0.69159000  1
  F  F4  1  0.79973600  0.98987800  0.16735600  1
  F  F5  1  0.29973600  0.01012200  0.83264400  1
  F  F6  1  0.44197300  0.16298000  0.29353600  1
  F  F7  1  0.94197300  0.83702000  0.70646400  1
  F  F8  1  0.27981300  0.64123600  0.58586900  1
  F  F9  1  0.77981300  0.35876400  0.41413100  1
  F  F10  1  0.36638700  0.61441600  0.87847600  1
  F  F11  1  0.86638700  0.38558400  0.12152400  1
