# generated using pymatgen
data_Sr2NiSe2(ClO3)2
_symmetry_space_group_name_H-M   'P 1'
_cell_length_a   5.42322709
_cell_length_b   13.03721877
_cell_length_c   12.43189688
_cell_angle_alpha   90.05545137
_cell_angle_beta   93.05175337
_cell_angle_gamma   89.89451949
_symmetry_Int_Tables_number   1
_chemical_formula_structural   Sr2NiSe2(ClO3)2
_chemical_formula_sum   'Sr8 Ni4 Se8 Cl8 O24'
_cell_volume   877.73398025
_cell_formula_units_Z   4
loop_
 _symmetry_equiv_pos_site_id
 _symmetry_equiv_pos_as_xyz
  1  'x, y, z'
loop_
 _atom_site_type_symbol
 _atom_site_label
 _atom_site_symmetry_multiplicity
 _atom_site_fract_x
 _atom_site_fract_y
 _atom_site_fract_z
 _atom_site_occupancy
  Sr  Sr0  1  0.48454900  0.39876700  0.26564900  1
  Sr  Sr1  1  0.48454700  0.89886600  0.26565600  1
  Sr  Sr2  1  0.51541500  0.10118700  0.73436700  1
  Sr  Sr3  1  0.51550400  0.60120800  0.73434900  1
  Sr  Sr4  1  0.01486200  0.14880800  0.23435400  1
  Sr  Sr5  1  0.01496700  0.64879100  0.23434400  1
  Sr  Sr6  1  0.98507500  0.35113800  0.76567400  1
  Sr  Sr7  1  0.98508500  0.85122500  0.76564700  1
  Ni  Ni8  1  0.49998600  0.74997300  0.99998900  1
  Ni  Ni9  1  0.99998700  0.49999800  0.49998500  1
  Ni  Ni10  1  0.50002000  0.25001200  0.00004600  1
  Ni  Ni11  1  0.99979400  0.99983500  0.49998300  1
  Se  Se12  1  0.50435500  0.13017500  0.42638300  1
  Se  Se13  1  0.50439100  0.63021400  0.42644800  1
  Se  Se14  1  0.00519500  0.11965100  0.92667800  1
  Se  Se15  1  0.00524000  0.61962900  0.92666800  1
  Se  Se16  1  0.99480600  0.38037700  0.07332800  1
  Se  Se17  1  0.99482200  0.88037500  0.07331600  1
  Se  Se18  1  0.49556000  0.36979800  0.57357600  1
  Se  Se19  1  0.49572600  0.86989000  0.57366500  1
  Cl  Cl20  1  0.44937200  0.41053300  0.89659700  1
  Cl  Cl21  1  0.44935100  0.91053400  0.89653200  1
  Cl  Cl22  1  0.55064700  0.08945400  0.10337700  1
  Cl  Cl23  1  0.55063000  0.58943800  0.10346300  1
  Cl  Cl24  1  0.05085200  0.16074000  0.60326300  1
  Cl  Cl25  1  0.05082900  0.66076900  0.60335100  1
  Cl  Cl26  1  0.94913100  0.33924900  0.39667300  1
  Cl  Cl27  1  0.94920500  0.83927500  0.39674600  1
  O  O28  1  0.25679400  0.18570400  0.87900800  1
  O  O29  1  0.25680200  0.68571200  0.87902500  1
  O  O30  1  0.74330700  0.31426900  0.12097800  1
  O  O31  1  0.74325600  0.81427600  0.12097600  1
  O  O32  1  0.75634700  0.06367500  0.37882800  1
  O  O33  1  0.75646500  0.56377300  0.37888500  1
  O  O34  1  0.24349600  0.43624900  0.62110100  1
  O  O35  1  0.24352600  0.93627600  0.62110300  1
  O  O36  1  0.27987400  0.03629500  0.39472600  1
  O  O37  1  0.27997600  0.53632200  0.39472700  1
  O  O38  1  0.77889700  0.21283600  0.89494800  1
  O  O39  1  0.77887500  0.71281000  0.89493200  1
  O  O40  1  0.22107700  0.28718300  0.10504900  1
  O  O41  1  0.22106600  0.78715200  0.10502300  1
  O  O42  1  0.72003100  0.46368700  0.60527900  1
  O  O43  1  0.72023900  0.96381800  0.60525200  1
  O  O44  1  0.93633500  0.03559400  0.82446500  1
  O  O45  1  0.93634300  0.53558500  0.82445600  1
  O  O46  1  0.56640300  0.28562600  0.67559200  1
  O  O47  1  0.56646400  0.78573900  0.67570200  1
  O  O48  1  0.43357100  0.21431200  0.32432100  1
  O  O49  1  0.43361100  0.71438200  0.32442000  1
  O  O50  1  0.06367600  0.46441700  0.17555200  1
  O  O51  1  0.06366500  0.96440000  0.17554600  1
