# generated using pymatgen
data_RbZrCdF7
_symmetry_space_group_name_H-M   'P 1'
_cell_length_a   6.63913777
_cell_length_b   6.63913777
_cell_length_c   8.67049600
_cell_angle_alpha   90.00000000
_cell_angle_beta   90.00000000
_cell_angle_gamma   116.97669797
_symmetry_Int_Tables_number   1
_chemical_formula_structural   RbZrCdF7
_chemical_formula_sum   'Rb2 Zr2 Cd2 F14'
_cell_volume   340.59489846
_cell_formula_units_Z   2
loop_
 _symmetry_equiv_pos_site_id
 _symmetry_equiv_pos_as_xyz
  1  'x, y, z'
loop_
 _atom_site_type_symbol
 _atom_site_label
 _atom_site_symmetry_multiplicity
 _atom_site_fract_x
 _atom_site_fract_y
 _atom_site_fract_z
 _atom_site_occupancy
  Rb  Rb0  1  0.50000000  0.50000000  0.50000000  1
  Rb  Rb1  1  0.50000000  0.50000000  0.00000000  1
  Zr  Zr2  1  0.80682000  0.19318000  0.25000000  1
  Zr  Zr3  1  0.19318000  0.80682000  0.75000000  1
  Cd  Cd4  1  0.80863800  0.19136200  0.75000000  1
  Cd  Cd5  1  0.19136200  0.80863800  0.25000000  1
  F  F6  1  0.79638100  0.20361900  0.01393300  1
  F  F7  1  0.15256200  0.43680400  0.25000000  1
  F  F8  1  0.56319600  0.84743800  0.25000000  1
  F  F9  1  0.52532500  0.82864300  0.75000000  1
  F  F10  1  0.17135700  0.47467500  0.75000000  1
  F  F11  1  0.79638100  0.20361900  0.48606700  1
  F  F12  1  0.43680400  0.15256200  0.75000000  1
  F  F13  1  0.82864300  0.52532500  0.25000000  1
  F  F14  1  0.47467500  0.17135700  0.25000000  1
  F  F15  1  0.98954500  0.01045500  0.25000000  1
  F  F16  1  0.20361900  0.79638100  0.51393300  1
  F  F17  1  0.20361900  0.79638100  0.98606700  1
  F  F18  1  0.01045500  0.98954500  0.75000000  1
  F  F19  1  0.84743800  0.56319600  0.75000000  1
