# generated using pymatgen
data_CsUAgSe3
_symmetry_space_group_name_H-M   'P 1'
_cell_length_a   8.30008084
_cell_length_b   8.30008084
_cell_length_c   10.94223400
_cell_angle_alpha   90.00000000
_cell_angle_beta   90.00000000
_cell_angle_gamma   150.05764018
_symmetry_Int_Tables_number   1
_chemical_formula_structural   CsUAgSe3
_chemical_formula_sum   'Cs2 U2 Ag2 Se6'
_cell_volume   376.25564602
_cell_formula_units_Z   2
loop_
 _symmetry_equiv_pos_site_id
 _symmetry_equiv_pos_as_xyz
  1  'x, y, z'
loop_
 _atom_site_type_symbol
 _atom_site_label
 _atom_site_symmetry_multiplicity
 _atom_site_fract_x
 _atom_site_fract_y
 _atom_site_fract_z
 _atom_site_occupancy
  Cs  Cs0  1  0.25518100  0.74481900  0.75000000  1
  Cs  Cs1  1  0.74481900  0.25518100  0.25000000  1
  U  U2  1  0.00000000  0.00000000  0.00000000  1
  U  U3  1  0.00000000  0.00000000  0.50000000  1
  Ag  Ag4  1  0.54136300  0.45863700  0.75000000  1
  Ag  Ag5  1  0.45863700  0.54136300  0.25000000  1
  Se  Se6  1  0.94146900  0.05853100  0.75000000  1
  Se  Se7  1  0.05853100  0.94146900  0.25000000  1
  Se  Se8  1  0.61713800  0.38286200  0.96160900  1
  Se  Se9  1  0.38286200  0.61713800  0.03839100  1
  Se  Se10  1  0.38286200  0.61713800  0.46160900  1
  Se  Se11  1  0.61713800  0.38286200  0.53839100  1
