# generated using pymatgen
data_HfV2O7
_symmetry_space_group_name_H-M   'P 1'
_cell_length_a   8.98862000
_cell_length_b   8.98862000
_cell_length_c   8.98862000
_cell_angle_alpha   90.00000000
_cell_angle_beta   90.00000000
_cell_angle_gamma   90.00000000
_symmetry_Int_Tables_number   1
_chemical_formula_structural   HfV2O7
_chemical_formula_sum   'Hf4 V8 O28'
_cell_volume   726.23815515
_cell_formula_units_Z   4
loop_
 _symmetry_equiv_pos_site_id
 _symmetry_equiv_pos_as_xyz
  1  'x, y, z'
loop_
 _atom_site_type_symbol
 _atom_site_label
 _atom_site_symmetry_multiplicity
 _atom_site_fract_x
 _atom_site_fract_y
 _atom_site_fract_z
 _atom_site_occupancy
  Hf  Hf0  1  0.00000000  0.50000000  0.50000000  1
  Hf  Hf1  1  0.50000000  0.50000000  0.00000000  1
  Hf  Hf2  1  0.50000000  0.00000000  0.50000000  1
  Hf  Hf3  1  0.00000000  0.00000000  0.00000000  1
  V  V4  1  0.38497500  0.11502500  0.88497500  1
  V  V5  1  0.11502500  0.88497500  0.38497500  1
  V  V6  1  0.88497500  0.38497500  0.11502500  1
  V  V7  1  0.61502500  0.61502500  0.61502500  1
  V  V8  1  0.61502500  0.88497500  0.11502500  1
  V  V9  1  0.88497500  0.11502500  0.61502500  1
  V  V10  1  0.11502500  0.61502500  0.88497500  1
  V  V11  1  0.38497500  0.38497500  0.38497500  1
  O  O12  1  0.50000000  0.00000000  0.00000000  1
  O  O13  1  0.00000000  0.00000000  0.50000000  1
  O  O14  1  0.00000000  0.50000000  0.00000000  1
  O  O15  1  0.50000000  0.50000000  0.50000000  1
  O  O16  1  0.93657100  0.20233300  0.09069800  1
  O  O17  1  0.43657100  0.29766700  0.90930200  1
  O  O18  1  0.06342900  0.70233300  0.40930200  1
  O  O19  1  0.29766700  0.90930200  0.43657100  1
  O  O20  1  0.40930200  0.06342900  0.70233300  1
  O  O21  1  0.90930200  0.43657100  0.29766700  1
  O  O22  1  0.20233300  0.09069800  0.93657100  1
  O  O23  1  0.09069800  0.93657100  0.20233300  1
  O  O24  1  0.43657100  0.20233300  0.40930200  1
  O  O25  1  0.40930200  0.43657100  0.20233300  1
  O  O26  1  0.20233300  0.40930200  0.43657100  1
  O  O27  1  0.29766700  0.59069800  0.93657100  1
  O  O28  1  0.90930200  0.06342900  0.79766700  1
  O  O29  1  0.79766700  0.90930200  0.06342900  1
  O  O30  1  0.09069800  0.56342900  0.70233300  1
  O  O31  1  0.59069800  0.93657100  0.29766700  1
  O  O32  1  0.70233300  0.09069800  0.56342900  1
  O  O33  1  0.93657100  0.29766700  0.59069800  1
  O  O34  1  0.56342900  0.70233300  0.09069800  1
  O  O35  1  0.06342900  0.79766700  0.90930200  1
  O  O36  1  0.56342900  0.79766700  0.59069800  1
  O  O37  1  0.59069800  0.56342900  0.79766700  1
  O  O38  1  0.79766700  0.59069800  0.56342900  1
  O  O39  1  0.70233300  0.40930200  0.06342900  1
