# generated using pymatgen
data_Ce(PRh)2
_symmetry_space_group_name_H-M   'P 1'
_cell_length_a   4.15863900
_cell_length_b   4.15863900
_cell_length_c   9.55139400
_cell_angle_alpha   90.00000000
_cell_angle_beta   90.00000000
_cell_angle_gamma   90.00000000
_symmetry_Int_Tables_number   1
_chemical_formula_structural   Ce(PRh)2
_chemical_formula_sum   'Ce2 P4 Rh4'
_cell_volume   165.18446630
_cell_formula_units_Z   2
loop_
 _symmetry_equiv_pos_site_id
 _symmetry_equiv_pos_as_xyz
  1  'x, y, z'
loop_
 _atom_site_type_symbol
 _atom_site_label
 _atom_site_symmetry_multiplicity
 _atom_site_fract_x
 _atom_site_fract_y
 _atom_site_fract_z
 _atom_site_occupancy
  Ce  Ce0  1  0.50000000  0.00000000  0.74354900  1
  Ce  Ce1  1  0.00000000  0.50000000  0.25645100  1
  P  P2  1  0.50000000  0.50000000  0.50000000  1
  P  P3  1  0.50000000  0.00000000  0.13894600  1
  P  P4  1  0.00000000  0.00000000  0.50000000  1
  P  P5  1  0.00000000  0.50000000  0.86105400  1
  Rh  Rh6  1  0.00000000  0.50000000  0.61415500  1
  Rh  Rh7  1  0.50000000  0.00000000  0.38584500  1
  Rh  Rh8  1  0.00000000  0.00000000  0.00000000  1
  Rh  Rh9  1  0.50000000  0.50000000  0.00000000  1
