# generated using pymatgen
data_CaMn6SiO12
_symmetry_space_group_name_H-M   'P 1'
_cell_length_a   11.76467641
_cell_length_b   11.76467641
_cell_length_c   11.76467641
_cell_angle_alpha   131.68061020
_cell_angle_beta   131.68061020
_cell_angle_gamma   70.73393851
_symmetry_Int_Tables_number   1
_chemical_formula_structural   CaMn6SiO12
_chemical_formula_sum   'Ca4 Mn24 Si4 O48'
_cell_volume   889.70753086
_cell_formula_units_Z   4
loop_
 _symmetry_equiv_pos_site_id
 _symmetry_equiv_pos_as_xyz
  1  'x, y, z'
loop_
 _atom_site_type_symbol
 _atom_site_label
 _atom_site_symmetry_multiplicity
 _atom_site_fract_x
 _atom_site_fract_y
 _atom_site_fract_z
 _atom_site_occupancy
  Ca  Ca0  1  0.25000000  0.25000000  0.00000000  1
  Ca  Ca1  1  0.75000000  0.75000000  0.00000000  1
  Ca  Ca2  1  0.50000000  0.00000000  0.50000000  1
  Ca  Ca3  1  0.00000000  0.50000000  0.50000000  1
  Mn  Mn4  1  0.12500000  0.90311700  0.27811700  1
  Mn  Mn5  1  0.87500000  0.12500000  0.25000000  1
  Mn  Mn6  1  0.59688300  0.37500000  0.72188300  1
  Mn  Mn7  1  0.87500000  0.62500000  0.75000000  1
  Mn  Mn8  1  0.09688300  0.37500000  0.22188300  1
  Mn  Mn9  1  0.37500000  0.62500000  0.25000000  1
  Mn  Mn10  1  0.87500000  0.12500000  0.75000000  1
  Mn  Mn11  1  0.98722700  0.51277300  0.00000000  1
  Mn  Mn12  1  0.26277300  0.76277300  0.02554700  1
  Mn  Mn13  1  0.73722700  0.23722700  0.97445300  1
  Mn  Mn14  1  0.12500000  0.40311700  0.77811700  1
  Mn  Mn15  1  0.37500000  0.12500000  0.75000000  1
  Mn  Mn16  1  0.65311700  0.87500000  0.27811700  1
  Mn  Mn17  1  0.51277300  0.98722700  0.00000000  1
  Mn  Mn18  1  0.76277300  0.73722700  0.50000000  1
  Mn  Mn19  1  0.23722700  0.26277300  0.50000000  1
  Mn  Mn20  1  0.37500000  0.62500000  0.75000000  1
  Mn  Mn21  1  0.37500000  0.12500000  0.25000000  1
  Mn  Mn22  1  0.48722700  0.48722700  0.47445300  1
  Mn  Mn23  1  0.15311700  0.87500000  0.77811700  1
  Mn  Mn24  1  0.62500000  0.84688300  0.72188300  1
  Mn  Mn25  1  0.62500000  0.34688300  0.22188300  1
  Mn  Mn26  1  0.01277300  0.01277300  0.52554700  1
  Mn  Mn27  1  0.87500000  0.62500000  0.25000000  1
  Si  Si28  1  0.75000000  0.25000000  0.50000000  1
  Si  Si29  1  0.50000000  0.50000000  0.00000000  1
  Si  Si30  1  0.00000000  0.00000000  0.00000000  1
  Si  Si31  1  0.25000000  0.75000000  0.50000000  1
  O  O32  1  0.93891200  0.13357800  0.97387400  1
  O  O33  1  0.79049300  0.26280500  0.18953900  1
  O  O34  1  0.57326600  0.76280500  0.47231200  1
  O  O35  1  0.29049300  0.10095300  0.52768800  1
  O  O36  1  0.85095300  0.82326600  0.31046100  1
  O  O37  1  0.45950700  0.14904700  0.97231200  1
  O  O38  1  0.27493900  0.80943600  0.23105800  1
  O  O39  1  0.45611900  0.92162300  0.23105800  1
  O  O40  1  0.47506100  0.44056400  0.26894200  1
  O  O41  1  0.77493900  0.54388100  0.46550400  1
  O  O42  1  0.97506100  0.70611900  0.03449600  1
  O  O43  1  0.88357800  0.40970400  0.69466600  1
  O  O44  1  0.29388100  0.32837700  0.26894200  1
  O  O45  1  0.65970400  0.63357800  0.19466600  1
  O  O46  1  0.38357800  0.68891200  0.47387400  1
  O  O47  1  0.36642200  0.56108800  0.02612600  1
  O  O48  1  0.59029600  0.28496300  0.47387400  1
  O  O49  1  0.71503700  0.18891200  0.30533400  1
  O  O50  1  0.53496300  0.34029600  0.97387400  1
  O  O51  1  0.07326600  0.60095300  0.81046100  1
  O  O52  1  0.03496300  0.06108800  0.19466600  1
  O  O53  1  0.57837700  0.04388100  0.76894200  1
  O  O54  1  0.81108800  0.11642200  0.52612600  1
  O  O55  1  0.95950700  0.98719500  0.31046100  1
  O  O56  1  0.01280500  0.32326600  0.97231200  1
  O  O57  1  0.55943600  0.82837700  0.03449600  1
  O  O58  1  0.05943600  0.02493900  0.73105800  1
  O  O59  1  0.35095300  0.04049300  0.02768800  1
  O  O60  1  0.17673400  0.48719500  0.02768800  1
  O  O61  1  0.07837700  0.30943600  0.53449600  1
  O  O62  1  0.69056400  0.22506100  0.76894200  1
  O  O63  1  0.67162300  0.94056400  0.96550400  1
  O  O64  1  0.67673400  0.64904700  0.68953900  1
  O  O65  1  0.17162300  0.20611900  0.73105800  1
  O  O66  1  0.15970400  0.96503700  0.02612600  1
  O  O67  1  0.79388100  0.52493900  0.96550400  1
  O  O68  1  0.95611900  0.72506100  0.53449600  1
  O  O69  1  0.51280500  0.54049300  0.68953900  1
  O  O70  1  0.86642200  0.84029600  0.80533400  1
  O  O71  1  0.89904700  0.42673400  0.18953900  1
  O  O72  1  0.19056400  0.42162300  0.46550400  1
  O  O73  1  0.31108800  0.78496300  0.69466600  1
  O  O74  1  0.09029600  0.61642200  0.30533400  1
  O  O75  1  0.39904700  0.20950700  0.47231200  1
  O  O76  1  0.21503700  0.90970400  0.52612600  1
  O  O77  1  0.23719500  0.70950700  0.81046100  1
  O  O78  1  0.43891200  0.46503700  0.80533400  1
  O  O79  1  0.73719500  0.92673400  0.52768800  1
