# generated using pymatgen
data_AlBPbO4
_symmetry_space_group_name_H-M   'P 1'
_cell_length_a   7.15405200
_cell_length_b   9.53455700
_cell_length_c   9.98020100
_cell_angle_alpha   90.00000000
_cell_angle_beta   90.00000000
_cell_angle_gamma   90.00000000
_symmetry_Int_Tables_number   1
_chemical_formula_structural   AlBPbO4
_chemical_formula_sum   'Al8 B8 Pb8 O32'
_cell_volume   680.75666177
_cell_formula_units_Z   8
loop_
 _symmetry_equiv_pos_site_id
 _symmetry_equiv_pos_as_xyz
  1  'x, y, z'
loop_
 _atom_site_type_symbol
 _atom_site_label
 _atom_site_symmetry_multiplicity
 _atom_site_fract_x
 _atom_site_fract_y
 _atom_site_fract_z
 _atom_site_occupancy
  Al  Al0  1  0.50000000  0.00000000  0.50000000  1
  Al  Al1  1  0.00000000  0.75000000  0.16531200  1
  Al  Al2  1  0.00000000  0.25000000  0.83468800  1
  Al  Al3  1  0.50000000  0.75000000  0.66531200  1
  Al  Al4  1  0.00000000  0.00000000  0.00000000  1
  Al  Al5  1  0.50000000  0.25000000  0.33468800  1
  Al  Al6  1  0.50000000  0.50000000  0.50000000  1
  Al  Al7  1  0.00000000  0.50000000  0.00000000  1
  B  B8  1  0.77870000  0.25260400  0.09420000  1
  B  B9  1  0.72130000  0.25260400  0.59420000  1
  B  B10  1  0.72130000  0.75260400  0.40580000  1
  B  B11  1  0.77870000  0.75260400  0.90580000  1
  B  B12  1  0.22130000  0.24739600  0.09420000  1
  B  B13  1  0.22130000  0.74739600  0.90580000  1
  B  B14  1  0.27870000  0.74739600  0.40580000  1
  B  B15  1  0.27870000  0.24739600  0.59420000  1
  Pb  Pb16  1  0.57169900  0.54747200  0.17178300  1
  Pb  Pb17  1  0.42830100  0.45252800  0.82821700  1
  Pb  Pb18  1  0.42830100  0.95252800  0.17178300  1
  Pb  Pb19  1  0.92830100  0.54747200  0.67178300  1
  Pb  Pb20  1  0.57169900  0.04747200  0.82821700  1
  Pb  Pb21  1  0.07169900  0.45252800  0.32821700  1
  Pb  Pb22  1  0.92830100  0.04747200  0.32821700  1
  Pb  Pb23  1  0.07169900  0.95252800  0.67178300  1
  O  O24  1  0.33213300  0.88657600  0.39165000  1
  O  O25  1  0.67217500  0.31417400  0.19488400  1
  O  O26  1  0.83213300  0.11342400  0.10835000  1
  O  O27  1  0.66786700  0.11342400  0.60835000  1
  O  O28  1  0.83516400  0.82991000  0.01661400  1
  O  O29  1  0.66786700  0.61342400  0.39165000  1
  O  O30  1  0.33213300  0.38657600  0.60835000  1
  O  O31  1  0.40190600  0.92859000  0.65627000  1
  O  O32  1  0.90190600  0.07141000  0.84373000  1
  O  O33  1  0.83213300  0.61342400  0.89165000  1
  O  O34  1  0.82782500  0.31417400  0.69488400  1
  O  O35  1  0.09809400  0.92859000  0.15627000  1
  O  O36  1  0.66483600  0.82991000  0.51661400  1
  O  O37  1  0.32782500  0.68582600  0.80511600  1
  O  O38  1  0.17217500  0.18582600  0.69488400  1
  O  O39  1  0.17217500  0.68582600  0.30511600  1
  O  O40  1  0.32782500  0.18582600  0.19488400  1
  O  O41  1  0.09809400  0.42859000  0.84373000  1
  O  O42  1  0.67217500  0.81417400  0.80511600  1
  O  O43  1  0.66483600  0.32991000  0.48338600  1
  O  O44  1  0.59809400  0.07141000  0.34373000  1
  O  O45  1  0.83516400  0.32991000  0.98338600  1
  O  O46  1  0.33516400  0.67009000  0.51661400  1
  O  O47  1  0.33516400  0.17009000  0.48338600  1
  O  O48  1  0.16786700  0.38657600  0.10835000  1
  O  O49  1  0.82782500  0.81417400  0.30511600  1
  O  O50  1  0.16483600  0.17009000  0.98338600  1
  O  O51  1  0.59809400  0.57141000  0.65627000  1
  O  O52  1  0.90190600  0.57141000  0.15627000  1
  O  O53  1  0.16483600  0.67009000  0.01661400  1
  O  O54  1  0.16786700  0.88657600  0.89165000  1
  O  O55  1  0.40190600  0.42859000  0.34373000  1
