# generated using pymatgen
data_KSr4(BO3)3
_symmetry_space_group_name_H-M   'P 1'
_cell_length_a   6.98366774
_cell_length_b   6.98366774
_cell_length_c   11.16525800
_cell_angle_alpha   90.00000000
_cell_angle_beta   90.00000000
_cell_angle_gamma   120.20915608
_symmetry_Int_Tables_number   1
_chemical_formula_structural   KSr4(BO3)3
_chemical_formula_sum   'K2 Sr8 B6 O18'
_cell_volume   470.59504667
_cell_formula_units_Z   2
loop_
 _symmetry_equiv_pos_site_id
 _symmetry_equiv_pos_as_xyz
  1  'x, y, z'
loop_
 _atom_site_type_symbol
 _atom_site_label
 _atom_site_symmetry_multiplicity
 _atom_site_fract_x
 _atom_site_fract_y
 _atom_site_fract_z
 _atom_site_occupancy
  K  K0  1  0.08519500  0.25103400  0.75000000  1
  K  K1  1  0.25103400  0.08519500  0.25000000  1
  Sr  Sr2  1  0.28704700  0.85721500  0.53076600  1
  Sr  Sr3  1  0.71781800  0.71781800  0.00000000  1
  Sr  Sr4  1  0.28704700  0.85721500  0.96923400  1
  Sr  Sr5  1  0.71781800  0.71781800  0.50000000  1
  Sr  Sr6  1  0.85721500  0.28704700  0.03076600  1
  Sr  Sr7  1  0.85721500  0.28704700  0.46923400  1
  Sr  Sr8  1  0.58514600  0.29574200  0.75000000  1
  Sr  Sr9  1  0.29574200  0.58514600  0.25000000  1
  B  B10  1  0.61644000  0.86744700  0.75000000  1
  B  B11  1  0.03071400  0.69001600  0.75000000  1
  B  B12  1  0.86744700  0.61644000  0.25000000  1
  B  B13  1  0.28810600  0.28810600  0.00000000  1
  B  B14  1  0.69001600  0.03071400  0.25000000  1
  B  B15  1  0.28810600  0.28810600  0.50000000  1
  O  O16  1  0.20225800  0.90760500  0.75000000  1
  O  O17  1  0.94533700  0.57402900  0.85788000  1
  O  O18  1  0.90760500  0.20225800  0.25000000  1
  O  O19  1  0.29093100  0.48511500  0.02733500  1
  O  O20  1  0.98871000  0.65704100  0.14210500  1
  O  O21  1  0.57402900  0.94533700  0.14212000  1
  O  O22  1  0.48511500  0.29093100  0.97266500  1
  O  O23  1  0.65704100  0.98871000  0.64210500  1
  O  O24  1  0.98871000  0.65704100  0.35789500  1
  O  O25  1  0.64587700  0.55026100  0.25000000  1
  O  O26  1  0.55026100  0.64587700  0.75000000  1
  O  O27  1  0.94533700  0.57402900  0.64212000  1
  O  O28  1  0.57402900  0.94533700  0.35788000  1
  O  O29  1  0.29093100  0.48511500  0.47266500  1
  O  O30  1  0.65704100  0.98871000  0.85789500  1
  O  O31  1  0.48511500  0.29093100  0.52733500  1
  O  O32  1  0.08938300  0.08938300  0.50000000  1
  O  O33  1  0.08938300  0.08938300  0.00000000  1
