# generated using pymatgen
data_Li2ZnGe
_symmetry_space_group_name_H-M   'P 1'
_cell_length_a   4.31201566
_cell_length_b   4.31201566
_cell_length_c   16.54539600
_cell_angle_alpha   90.00000000
_cell_angle_beta   90.00000000
_cell_angle_gamma   119.99999472
_symmetry_Int_Tables_number   1
_chemical_formula_structural   Li2ZnGe
_chemical_formula_sum   'Li8 Zn4 Ge4'
_cell_volume   266.42101521
_cell_formula_units_Z   4
loop_
 _symmetry_equiv_pos_site_id
 _symmetry_equiv_pos_as_xyz
  1  'x, y, z'
loop_
 _atom_site_type_symbol
 _atom_site_label
 _atom_site_symmetry_multiplicity
 _atom_site_fract_x
 _atom_site_fract_y
 _atom_site_fract_z
 _atom_site_occupancy
  Li  Li0  1  0.33333300  0.66666700  0.20950200  1
  Li  Li1  1  0.33333300  0.66666700  0.04260600  1
  Li  Li2  1  0.66666700  0.33333300  0.79049800  1
  Li  Li3  1  0.66666700  0.33333300  0.45842800  1
  Li  Li4  1  0.66666700  0.33333300  0.29217800  1
  Li  Li5  1  0.33333300  0.66666700  0.70782200  1
  Li  Li6  1  0.66666700  0.33333300  0.95739400  1
  Li  Li7  1  0.33333300  0.66666700  0.54157200  1
  Zn  Zn8  1  0.00000000  0.00000000  0.13061000  1
  Zn  Zn9  1  0.00000000  0.00000000  0.62036200  1
  Zn  Zn10  1  0.00000000  0.00000000  0.37963800  1
  Zn  Zn11  1  0.00000000  0.00000000  0.86939000  1
  Ge  Ge12  1  0.66666700  0.33333300  0.62468000  1
  Ge  Ge13  1  0.66666700  0.33333300  0.12544700  1
  Ge  Ge14  1  0.33333300  0.66666700  0.87455300  1
  Ge  Ge15  1  0.33333300  0.66666700  0.37532000  1
