# generated using pymatgen
data_Na2NiH8(SO6)2
_symmetry_space_group_name_H-M   'P 1'
_cell_length_a   8.25921400
_cell_length_b   5.56722200
_cell_length_c   11.12545037
_cell_angle_alpha   80.04354865
_cell_angle_beta   90.00000000
_cell_angle_gamma   90.00000000
_symmetry_Int_Tables_number   1
_chemical_formula_structural   Na2NiH8(SO6)2
_chemical_formula_sum   'Na4 Ni2 H16 S4 O24'
_cell_volume   503.85363186
_cell_formula_units_Z   2
loop_
 _symmetry_equiv_pos_site_id
 _symmetry_equiv_pos_as_xyz
  1  'x, y, z'
loop_
 _atom_site_type_symbol
 _atom_site_label
 _atom_site_symmetry_multiplicity
 _atom_site_fract_x
 _atom_site_fract_y
 _atom_site_fract_z
 _atom_site_occupancy
  Na  Na0  1  0.07108300  0.12325800  0.63935000  1
  Na  Na1  1  0.57108300  0.87674200  0.86065000  1
  Na  Na2  1  0.92891700  0.87674200  0.36065000  1
  Na  Na3  1  0.42891700  0.12325800  0.13935000  1
  Ni  Ni4  1  0.00000000  0.00000000  0.00000000  1
  Ni  Ni5  1  0.50000000  0.00000000  0.50000000  1
  H  H6  1  0.94427800  0.76555000  0.82111800  1
  H  H7  1  0.44427800  0.23445000  0.67888200  1
  H  H8  1  0.05572200  0.23445000  0.17888200  1
  H  H9  1  0.55572200  0.76555000  0.32111800  1
  H  H10  1  0.13622000  0.77296800  0.84721300  1
  H  H11  1  0.63622000  0.22703200  0.65278700  1
  H  H12  1  0.86378000  0.22703200  0.15278700  1
  H  H13  1  0.36378000  0.77296800  0.34721300  1
  H  H14  1  0.30682800  0.67834200  0.63996200  1
  H  H15  1  0.80682800  0.32165800  0.86003800  1
  H  H16  1  0.69317200  0.32165800  0.36003800  1
  H  H17  1  0.19317200  0.67834200  0.13996200  1
  H  H18  1  0.22453600  0.76419600  0.51490400  1
  H  H19  1  0.72453600  0.23580400  0.98509600  1
  H  H20  1  0.77546400  0.23580400  0.48509600  1
  H  H21  1  0.27546400  0.76419600  0.01490400  1
  S  S22  1  0.28556500  0.37634400  0.86359000  1
  S  S23  1  0.78556500  0.62365600  0.63641000  1
  S  S24  1  0.71443500  0.62365600  0.13641000  1
  S  S25  1  0.21443500  0.37634400  0.36359000  1
  O  O26  1  0.27521700  0.36274500  0.72975400  1
  O  O27  1  0.77521700  0.63725500  0.77024600  1
  O  O28  1  0.72478300  0.63725500  0.27024600  1
  O  O29  1  0.22478300  0.36274500  0.22975400  1
  O  O30  1  0.41390500  0.21314700  0.92243800  1
  O  O31  1  0.91390500  0.78685300  0.57756200  1
  O  O32  1  0.58609500  0.78685300  0.07756200  1
  O  O33  1  0.08609500  0.21314700  0.42243800  1
  O  O34  1  0.12552800  0.31525300  0.92338300  1
  O  O35  1  0.62552800  0.68474700  0.57661700  1
  O  O36  1  0.87447200  0.68474700  0.07661700  1
  O  O37  1  0.37447200  0.31525300  0.42338300  1
  O  O38  1  0.32153900  0.63757700  0.87381800  1
  O  O39  1  0.82153900  0.36242300  0.62618200  1
  O  O40  1  0.67846100  0.36242300  0.12618200  1
  O  O41  1  0.17846100  0.63757700  0.37381800  1
  O  O42  1  0.03522400  0.87334800  0.83853500  1
  O  O43  1  0.53522400  0.12665200  0.66146500  1
  O  O44  1  0.96477600  0.12665200  0.16146500  1
  O  O45  1  0.46477600  0.87334800  0.33853500  1
  O  O46  1  0.28720300  0.82735000  0.57867400  1
  O  O47  1  0.78720300  0.17265000  0.92132600  1
  O  O48  1  0.71279700  0.17265000  0.42132600  1
  O  O49  1  0.21279700  0.82735000  0.07867400  1
