# generated using pymatgen
data_PuAl4
_symmetry_space_group_name_H-M   'P 1'
_cell_length_a   7.82300299
_cell_length_b   7.82300299
_cell_length_c   7.82300299
_cell_angle_alpha   147.43609936
_cell_angle_beta   135.09402958
_cell_angle_gamma   56.56037602
_symmetry_Int_Tables_number   1
_chemical_formula_structural   PuAl4
_chemical_formula_sum   'Pu2 Al8'
_cell_volume   180.58454271
_cell_formula_units_Z   2
loop_
 _symmetry_equiv_pos_site_id
 _symmetry_equiv_pos_as_xyz
  1  'x, y, z'
loop_
 _atom_site_type_symbol
 _atom_site_label
 _atom_site_symmetry_multiplicity
 _atom_site_fract_x
 _atom_site_fract_y
 _atom_site_fract_z
 _atom_site_occupancy
  Pu  Pu0  1  0.85816500  0.10816500  0.75000000  1
  Pu  Pu1  1  0.14183500  0.89183500  0.25000000  1
  Al  Al2  1  0.64024200  0.89024200  0.75000000  1
  Al  Al3  1  0.35975800  0.10975800  0.25000000  1
  Al  Al4  1  0.50000000  0.50000000  0.00000000  1
  Al  Al5  1  0.00000000  0.50000000  0.50000000  1
  Al  Al6  1  0.30518500  0.30063300  0.00455200  1
  Al  Al7  1  0.69481500  0.69936700  0.99544800  1
  Al  Al8  1  0.20391900  0.69936700  0.50455200  1
  Al  Al9  1  0.79608100  0.30063300  0.49544800  1
