# generated using pymatgen
data_Ba8Ce3(SbO6)4
_symmetry_space_group_name_H-M   'P 1'
_cell_length_a   10.53582047
_cell_length_b   10.53582047
_cell_length_c   10.53582047
_cell_angle_alpha   131.97451165
_cell_angle_beta   131.97451165
_cell_angle_gamma   70.26928594
_symmetry_Int_Tables_number   1
_chemical_formula_structural   Ba8Ce3(SbO6)4
_chemical_formula_sum   'Ba8 Ce3 Sb4 O24'
_cell_volume   633.53934617
_cell_formula_units_Z   1
loop_
 _symmetry_equiv_pos_site_id
 _symmetry_equiv_pos_as_xyz
  1  'x, y, z'
loop_
 _atom_site_type_symbol
 _atom_site_label
 _atom_site_symmetry_multiplicity
 _atom_site_fract_x
 _atom_site_fract_y
 _atom_site_fract_z
 _atom_site_occupancy
  Ba  Ba0  1  0.34579200  0.34579200  0.45925600  1
  Ba  Ba1  1  0.88653600  0.34579200  0.00000000  1
  Ba  Ba2  1  0.11346400  0.11346400  0.45925600  1
  Ba  Ba3  1  0.11346400  0.65420800  0.00000000  1
  Ba  Ba4  1  0.34579200  0.88653600  0.00000000  1
  Ba  Ba5  1  0.65420800  0.65420800  0.54074400  1
  Ba  Ba6  1  0.65420800  0.11346400  0.00000000  1
  Ba  Ba7  1  0.88653600  0.88653600  0.54074400  1
  Ce  Ce8  1  0.75000000  0.25000000  0.50000000  1
  Ce  Ce9  1  0.25000000  0.75000000  0.50000000  1
  Ce  Ce10  1  0.50000000  0.50000000  0.00000000  1
  Sb  Sb11  1  0.74471900  0.74471900  0.00000000  1
  Sb  Sb12  1  0.25528100  0.25528100  0.00000000  1
  Sb  Sb13  1  0.00000000  0.50000000  0.50000000  1
  Sb  Sb14  1  0.50000000  0.00000000  0.50000000  1
  O  O15  1  0.50000000  0.23953900  0.73953900  1
  O  O16  1  0.37090800  0.37090800  0.00000000  1
  O  O17  1  0.74624500  0.98509300  0.23884700  1
  O  O18  1  0.25375500  0.01490700  0.76115300  1
  O  O19  1  0.50739800  0.74624500  0.76115300  1
  O  O20  1  0.50000000  0.76046100  0.26046100  1
  O  O21  1  0.38025200  0.88025200  0.50000000  1
  O  O22  1  0.27254100  0.00000000  0.27254100  1
  O  O23  1  0.49260200  0.25375500  0.23884700  1
  O  O24  1  0.76046100  0.50000000  0.26046100  1
  O  O25  1  0.61974800  0.11974800  0.50000000  1
  O  O26  1  0.01490700  0.25375500  0.76115300  1
  O  O27  1  0.74624500  0.50739800  0.76115300  1
  O  O28  1  0.62909200  0.62909200  0.00000000  1
  O  O29  1  0.72745900  0.00000000  0.72745900  1
  O  O30  1  0.23953900  0.50000000  0.73953900  1
  O  O31  1  0.00000000  0.72745900  0.72745900  1
  O  O32  1  0.98509300  0.74624500  0.23884700  1
  O  O33  1  0.14100700  0.14100700  0.00000000  1
  O  O34  1  0.11974800  0.61974800  0.50000000  1
  O  O35  1  0.85899300  0.85899300  0.00000000  1
  O  O36  1  0.00000000  0.27254100  0.27254100  1
  O  O37  1  0.25375500  0.49260200  0.23884700  1
  O  O38  1  0.88025200  0.38025200  0.50000000  1
