# generated using pymatgen
data_K2Ti(Si2O5)3
_symmetry_space_group_name_H-M   'P 1'
_cell_length_a   12.93854200
_cell_length_b   7.00864000
_cell_length_c   7.75873248
_cell_angle_alpha   73.82061093
_cell_angle_beta   90.00000000
_cell_angle_gamma   90.00000000
_symmetry_Int_Tables_number   1
_chemical_formula_structural   K2Ti(Si2O5)3
_chemical_formula_sum   'K4 Ti2 Si12 O30'
_cell_volume   675.70837485
_cell_formula_units_Z   2
loop_
 _symmetry_equiv_pos_site_id
 _symmetry_equiv_pos_as_xyz
  1  'x, y, z'
loop_
 _atom_site_type_symbol
 _atom_site_label
 _atom_site_symmetry_multiplicity
 _atom_site_fract_x
 _atom_site_fract_y
 _atom_site_fract_z
 _atom_site_occupancy
  K  K0  1  0.89114000  0.19956600  0.84917200  1
  K  K1  1  0.59450500  0.19036200  0.57941400  1
  K  K2  1  0.09450500  0.80963800  0.42058600  1
  K  K3  1  0.39114000  0.80043400  0.15082800  1
  Ti  Ti4  1  0.75064600  0.75596000  0.75102200  1
  Ti  Ti5  1  0.25064600  0.24404000  0.24897800  1
  Si  Si6  1  0.99401700  0.69353400  0.93085800  1
  Si  Si7  1  0.83340900  0.55129300  0.44259900  1
  Si  Si8  1  0.33340900  0.44870700  0.55740100  1
  Si  Si9  1  0.49401700  0.30646600  0.06914200  1
  Si  Si10  1  0.49027700  0.67096200  0.70855400  1
  Si  Si11  1  0.16557000  0.45438800  0.83634700  1
  Si  Si12  1  0.65783800  0.98671500  0.04391900  1
  Si  Si13  1  0.99027700  0.32903800  0.29144600  1
  Si  Si14  1  0.32181900  0.00785000  0.66844300  1
  Si  Si15  1  0.82181900  0.99215000  0.33155700  1
  Si  Si16  1  0.66557000  0.54561200  0.16365300  1
  Si  Si17  1  0.15783800  0.01328500  0.95608100  1
  O  O18  1  0.24029700  0.53509700  0.65948200  1
  O  O19  1  0.39188000  0.20716100  0.17137000  1
  O  O20  1  0.72154900  0.56145600  0.97546100  1
  O  O21  1  0.27341100  0.02583200  0.47448100  1
  O  O22  1  0.47186900  0.49905700  0.89811800  1
  O  O23  1  0.70764000  0.97677400  0.85687400  1
  O  O24  1  0.97186900  0.50094300  0.10188200  1
  O  O25  1  0.29984300  0.45087600  0.35735000  1
  O  O26  1  0.56865000  0.38681700  0.20776700  1
  O  O27  1  0.89188000  0.79283900  0.82863000  1
  O  O28  1  0.79984300  0.54912400  0.64265000  1
  O  O29  1  0.06865000  0.61318300  0.79223300  1
  O  O30  1  0.93703800  0.41109400  0.45181000  1
  O  O31  1  0.86554900  0.77440500  0.31985400  1
  O  O32  1  0.20764000  0.02322600  0.14312600  1
  O  O33  1  0.74029700  0.46490300  0.34051800  1
  O  O34  1  0.42430000  0.86642100  0.72211600  1
  O  O35  1  0.74011700  0.07370100  0.16456700  1
  O  O36  1  0.22154900  0.43854400  0.02453900  1
  O  O37  1  0.92430000  0.13357900  0.27788400  1
  O  O38  1  0.36554900  0.22559500  0.68014600  1
  O  O39  1  0.43703800  0.58890600  0.54819000  1
  O  O40  1  0.24011700  0.92629900  0.83543300  1
  O  O41  1  0.77341100  0.97416800  0.52551900  1
  O  O42  1  0.60843300  0.73287200  0.66702900  1
  O  O43  1  0.10843300  0.26712800  0.33297100  1
  O  O44  1  0.61702700  0.76529300  0.16304100  1
  O  O45  1  0.11702700  0.23470700  0.83695900  1
  O  O46  1  0.05727700  0.86473700  0.99760000  1
  O  O47  1  0.55727700  0.13526300  0.00240000  1
