# generated using pymatgen
data_LiAl5O8
_symmetry_space_group_name_H-M   'P 1'
_cell_length_a   7.98736700
_cell_length_b   7.98736700
_cell_length_c   7.98736700
_cell_angle_alpha   90.00000000
_cell_angle_beta   90.00000000
_cell_angle_gamma   90.00000000
_symmetry_Int_Tables_number   1
_chemical_formula_structural   LiAl5O8
_chemical_formula_sum   'Li4 Al20 O32'
_cell_volume   509.57829221
_cell_formula_units_Z   4
loop_
 _symmetry_equiv_pos_site_id
 _symmetry_equiv_pos_as_xyz
  1  'x, y, z'
loop_
 _atom_site_type_symbol
 _atom_site_label
 _atom_site_symmetry_multiplicity
 _atom_site_fract_x
 _atom_site_fract_y
 _atom_site_fract_z
 _atom_site_occupancy
  Li  Li0  1  0.12500000  0.87500000  0.37500000  1
  Li  Li1  1  0.37500000  0.12500000  0.87500000  1
  Li  Li2  1  0.62500000  0.62500000  0.62500000  1
  Li  Li3  1  0.87500000  0.37500000  0.12500000  1
  Al  Al4  1  0.99762200  0.99762200  0.99762200  1
  Al  Al5  1  0.00237800  0.49762200  0.50237800  1
  Al  Al6  1  0.11872600  0.62500000  0.13127400  1
  Al  Al7  1  0.12500000  0.36872600  0.88127400  1
  Al  Al8  1  0.13127400  0.11872600  0.62500000  1
  Al  Al9  1  0.24762200  0.74762200  0.75237800  1
  Al  Al10  1  0.25237800  0.25237800  0.25237800  1
  Al  Al11  1  0.36872600  0.88127400  0.12500000  1
  Al  Al12  1  0.37500000  0.63127400  0.38127400  1
  Al  Al13  1  0.38127400  0.37500000  0.63127400  1
  Al  Al14  1  0.49762200  0.50237800  0.00237800  1
  Al  Al15  1  0.50237800  0.00237800  0.49762200  1
  Al  Al16  1  0.61872600  0.87500000  0.86872600  1
  Al  Al17  1  0.62500000  0.13127400  0.11872600  1
  Al  Al18  1  0.63127400  0.38127400  0.37500000  1
  Al  Al19  1  0.74762200  0.75237800  0.24762200  1
  Al  Al20  1  0.75237800  0.24762200  0.74762200  1
  Al  Al21  1  0.86872600  0.61872600  0.87500000  1
  Al  Al22  1  0.87500000  0.86872600  0.61872600  1
  Al  Al23  1  0.88127400  0.12500000  0.36872600  1
  O  O24  1  0.61449400  0.88550600  0.11449400  1
  O  O25  1  0.61547400  0.61471700  0.36689400  1
  O  O26  1  0.86449400  0.86449400  0.86449400  1
  O  O27  1  0.86547400  0.11689400  0.13528300  1
  O  O28  1  0.86689400  0.88452600  0.38528300  1
  O  O29  1  0.88528300  0.63310600  0.11547400  1
  O  O30  1  0.11449400  0.61449400  0.88550600  1
  O  O31  1  0.11471700  0.13310600  0.38452600  1
  O  O32  1  0.11547400  0.88528300  0.63310600  1
  O  O33  1  0.11689400  0.13528300  0.86547400  1
  O  O34  1  0.13310600  0.38452600  0.11471700  1
  O  O35  1  0.13528300  0.86547400  0.11689400  1
  O  O36  1  0.36449400  0.63550600  0.13550600  1
  O  O37  1  0.36471700  0.13452600  0.61689400  1
  O  O38  1  0.36547400  0.38310600  0.86471700  1
  O  O39  1  0.36689400  0.61547400  0.61471700  1
  O  O40  1  0.38310600  0.86471700  0.36547400  1
  O  O41  1  0.38452600  0.11471700  0.13310600  1
  O  O42  1  0.38528300  0.86689400  0.88452600  1
  O  O43  1  0.38550600  0.38550600  0.38550600  1
  O  O44  1  0.61471700  0.36689400  0.61547400  1
  O  O45  1  0.61689400  0.36471700  0.13452600  1
  O  O46  1  0.63310600  0.11547400  0.88528300  1
  O  O47  1  0.63452600  0.88310600  0.63528300  1
  O  O48  1  0.63528300  0.63452600  0.88310600  1
  O  O49  1  0.63550600  0.13550600  0.36449400  1
  O  O50  1  0.86471700  0.36547400  0.38310600  1
  O  O51  1  0.88310600  0.63528300  0.63452600  1
  O  O52  1  0.88452600  0.38528300  0.86689400  1
  O  O53  1  0.88550600  0.11449400  0.61449400  1
  O  O54  1  0.13452600  0.61689400  0.36471700  1
  O  O55  1  0.13550600  0.36449400  0.63550600  1
