# generated using pymatgen
data_SrAgB7O12
_symmetry_space_group_name_H-M   'P 1'
_cell_length_a   6.74918728
_cell_length_b   6.74918728
_cell_length_c   22.37051218
_cell_angle_alpha   88.76360106
_cell_angle_beta   88.76360106
_cell_angle_gamma   120.29675047
_symmetry_Int_Tables_number   1
_chemical_formula_structural   SrAgB7O12
_chemical_formula_sum   'Sr4 Ag4 B28 O48'
_cell_volume   879.01166461
_cell_formula_units_Z   4
loop_
 _symmetry_equiv_pos_site_id
 _symmetry_equiv_pos_as_xyz
  1  'x, y, z'
loop_
 _atom_site_type_symbol
 _atom_site_label
 _atom_site_symmetry_multiplicity
 _atom_site_fract_x
 _atom_site_fract_y
 _atom_site_fract_z
 _atom_site_occupancy
  Sr  Sr0  1  0.83937900  0.16960200  0.94186200  1
  Sr  Sr1  1  0.16062100  0.83039800  0.05813800  1
  Sr  Sr2  1  0.83039800  0.16062100  0.55813800  1
  Sr  Sr3  1  0.16960200  0.83937900  0.44186200  1
  Ag  Ag4  1  0.54120500  0.73568700  0.19977600  1
  Ag  Ag5  1  0.45879500  0.26431300  0.80022400  1
  Ag  Ag6  1  0.73568700  0.54120500  0.69977600  1
  Ag  Ag7  1  0.26431300  0.45879500  0.30022400  1
  B  B8  1  0.83754000  0.29271600  0.19169000  1
  B  B9  1  0.41729900  0.65532700  0.56339400  1
  B  B10  1  0.65532700  0.41729900  0.06339400  1
  B  B11  1  0.34467300  0.58270100  0.93660600  1
  B  B12  1  0.58270100  0.34467300  0.43660600  1
  B  B13  1  0.13711100  0.23031200  0.69208000  1
  B  B14  1  0.73884400  0.66736900  0.90743700  1
  B  B15  1  0.17496800  0.83990500  0.91596500  1
  B  B16  1  0.03651900  0.72345600  0.21130700  1
  B  B17  1  0.73123900  0.57332400  0.56376600  1
  B  B18  1  0.33263100  0.26115600  0.59256300  1
  B  B19  1  0.86288900  0.76968800  0.30792000  1
  B  B20  1  0.76968800  0.86288900  0.80792000  1
  B  B21  1  0.66736900  0.73884400  0.40743700  1
  B  B22  1  0.42667600  0.26876100  0.93623400  1
  B  B23  1  0.70728400  0.16246000  0.30831000  1
  B  B24  1  0.83990500  0.17496800  0.41596500  1
  B  B25  1  0.23031200  0.13711100  0.19208000  1
  B  B26  1  0.82503200  0.16009500  0.08403500  1
  B  B27  1  0.27654400  0.96348100  0.28869300  1
  B  B28  1  0.16009500  0.82503200  0.58403500  1
  B  B29  1  0.16246000  0.70728400  0.80831000  1
  B  B30  1  0.29271600  0.83754000  0.69169000  1
  B  B31  1  0.96348100  0.27654400  0.78869300  1
  B  B32  1  0.26876100  0.42667600  0.43623400  1
  B  B33  1  0.72345600  0.03651900  0.71130700  1
  B  B34  1  0.26115600  0.33263100  0.09256300  1
  B  B35  1  0.57332400  0.73123900  0.06376600  1
  O  O36  1  0.26253300  0.42671000  0.56796000  1
  O  O37  1  0.84120300  0.71085200  0.24866200  1
  O  O38  1  0.04185100  0.17517500  0.06923400  1
  O  O39  1  0.42337800  0.65604100  0.42716600  1
  O  O40  1  0.17517500  0.04185100  0.56923400  1
  O  O41  1  0.87697300  0.07680800  0.83269500  1
  O  O42  1  0.04290600  0.36210700  0.44642400  1
  O  O43  1  0.20858100  0.79141900  0.75000000  1
  O  O44  1  0.04574200  0.47858600  0.82409600  1
  O  O45  1  0.82482500  0.95814900  0.43076600  1
  O  O46  1  0.95709400  0.63789300  0.55357600  1
  O  O47  1  0.33199600  0.27907200  0.65880700  1
  O  O48  1  0.65604100  0.42337800  0.92716600  1
  O  O49  1  0.36210700  0.04290600  0.94642400  1
  O  O50  1  0.65423400  0.73024700  0.56350900  1
  O  O51  1  0.57329000  0.73746700  0.93204000  1
  O  O52  1  0.34576600  0.26975300  0.43649100  1
  O  O53  1  0.82610400  0.36670500  0.05616200  1
  O  O54  1  0.28914800  0.15879700  0.25133800  1
  O  O55  1  0.92319200  0.12302700  0.66730500  1
  O  O56  1  0.95425800  0.52141400  0.17590400  1
  O  O57  1  0.76066000  0.12909100  0.14840100  1
  O  O58  1  0.36670500  0.82610400  0.55616200  1
  O  O59  1  0.17389600  0.63329500  0.94383800  1
  O  O60  1  0.63789300  0.95709400  0.05357600  1
  O  O61  1  0.26975300  0.34576600  0.93649100  1
  O  O62  1  0.63329500  0.17389600  0.44383800  1
  O  O63  1  0.79141900  0.20858100  0.25000000  1
  O  O64  1  0.47858600  0.04574200  0.32409600  1
  O  O65  1  0.73024700  0.65423400  0.06350900  1
  O  O66  1  0.72092800  0.66800400  0.84119300  1
  O  O67  1  0.15879700  0.28914800  0.75133800  1
  O  O68  1  0.23060900  0.76939100  0.25000000  1
  O  O69  1  0.12302700  0.92319200  0.16730500  1
  O  O70  1  0.66800400  0.72092800  0.34119300  1
  O  O71  1  0.34395900  0.57662200  0.07283400  1
  O  O72  1  0.95814900  0.82482500  0.93076600  1
  O  O73  1  0.73746700  0.57329000  0.43204000  1
  O  O74  1  0.07680800  0.87697300  0.33269500  1
  O  O75  1  0.12909100  0.76066000  0.64840100  1
  O  O76  1  0.71085200  0.84120300  0.74866200  1
  O  O77  1  0.27907200  0.33199600  0.15880700  1
  O  O78  1  0.23934000  0.87090900  0.85159900  1
  O  O79  1  0.57662200  0.34395900  0.57283400  1
  O  O80  1  0.52141400  0.95425800  0.67590400  1
  O  O81  1  0.42671000  0.26253300  0.06796000  1
  O  O82  1  0.87090900  0.23934000  0.35159900  1
  O  O83  1  0.76939100  0.23060900  0.75000000  1
