# generated using pymatgen
data_SrMn2(PO4)2
_symmetry_space_group_name_H-M   'P 1'
_cell_length_a   8.97917400
_cell_length_b   9.20950755
_cell_length_c   9.22195536
_cell_angle_alpha   69.06094072
_cell_angle_beta   89.35392387
_cell_angle_gamma   89.68009535
_symmetry_Int_Tables_number   1
_chemical_formula_structural   SrMn2(PO4)2
_chemical_formula_sum   'Sr4 Mn8 P8 O32'
_cell_volume   712.19081861
_cell_formula_units_Z   4
loop_
 _symmetry_equiv_pos_site_id
 _symmetry_equiv_pos_as_xyz
  1  'x, y, z'
loop_
 _atom_site_type_symbol
 _atom_site_label
 _atom_site_symmetry_multiplicity
 _atom_site_fract_x
 _atom_site_fract_y
 _atom_site_fract_z
 _atom_site_occupancy
  Sr  Sr0  1  0.25676300  0.79780800  0.19151100  1
  Sr  Sr1  1  0.74323700  0.20219200  0.80848900  1
  Sr  Sr2  1  0.24961800  0.38820800  0.60913400  1
  Sr  Sr3  1  0.75038200  0.61179200  0.39086600  1
  Mn  Mn4  1  0.07146300  0.99259100  0.75215500  1
  Mn  Mn5  1  0.92853700  0.00740900  0.24784500  1
  Mn  Mn6  1  0.23834400  0.62667100  0.87653800  1
  Mn  Mn7  1  0.76165600  0.37332900  0.12346200  1
  Mn  Mn8  1  0.61012000  0.74515900  0.98269200  1
  Mn  Mn9  1  0.38988000  0.25484100  0.01730800  1
  Mn  Mn10  1  0.71605700  0.89401700  0.61085500  1
  Mn  Mn11  1  0.28394300  0.10598300  0.38914500  1
  P  P12  1  0.07071800  0.78084900  0.53029400  1
  P  P13  1  0.92928200  0.21915100  0.46970600  1
  P  P14  1  0.06163700  0.25503700  0.94607200  1
  P  P15  1  0.93836300  0.74496300  0.05392800  1
  P  P16  1  0.42656300  0.46880600  0.22485600  1
  P  P17  1  0.57343700  0.53119400  0.77514400  1
  P  P18  1  0.41949000  0.04448800  0.76601400  1
  P  P19  1  0.58051000  0.95551200  0.23398600  1
  O  O20  1  0.10851900  0.62395600  0.52112100  1
  O  O21  1  0.89148100  0.37604400  0.47887900  1
  O  O22  1  0.90119800  0.82040300  0.49652700  1
  O  O23  1  0.09880200  0.17959700  0.50347300  1
  O  O24  1  0.11220400  0.79189500  0.68954000  1
  O  O25  1  0.88779600  0.20810500  0.31046000  1
  O  O26  1  0.84443900  0.08855100  0.60422400  1
  O  O27  1  0.15556100  0.91144900  0.39577600  1
  O  O28  1  0.09204800  0.67989000  0.03232100  1
  O  O29  1  0.90795200  0.32011000  0.96767900  1
  O  O30  1  0.10982600  0.11524900  0.09063100  1
  O  O31  1  0.89017400  0.88475100  0.90936900  1
  O  O32  1  0.04885200  0.20410100  0.80235100  1
  O  O33  1  0.95114800  0.79589900  0.19764900  1
  O  O34  1  0.18673800  0.38123600  0.90771600  1
  O  O35  1  0.81326200  0.61876400  0.09228400  1
  O  O36  1  0.35289900  0.52469700  0.34687000  1
  O  O37  1  0.64710100  0.47530300  0.65313000  1
  O  O38  1  0.40641900  0.56660800  0.74014100  1
  O  O39  1  0.59358100  0.43339200  0.25985900  1
  O  O40  1  0.65495900  0.67687200  0.78432500  1
  O  O41  1  0.34504100  0.32312800  0.21567500  1
  O  O42  1  0.40942600  0.60462000  0.06108800  1
  O  O43  1  0.59057400  0.39538000  0.93891200  1
  O  O44  1  0.38799700  0.10951600  0.59048700  1
  O  O45  1  0.61200300  0.89048400  0.40951300  1
  O  O46  1  0.57637900  0.96359900  0.79414100  1
  O  O47  1  0.42362100  0.03640100  0.20585900  1
  O  O48  1  0.29680800  0.93059200  0.86078100  1
  O  O49  1  0.70319200  0.06940800  0.13921900  1
  O  O50  1  0.56873200  0.81348800  0.17963200  1
  O  O51  1  0.43126800  0.18651200  0.82036800  1
