# generated using pymatgen
data_KPr3Te8
_symmetry_space_group_name_H-M   'P 1'
_cell_length_a   13.00984600
_cell_length_b   9.05727700
_cell_length_c   14.38592460
_cell_angle_alpha   81.00221547
_cell_angle_beta   90.00000000
_cell_angle_gamma   90.00000000
_symmetry_Int_Tables_number   1
_chemical_formula_structural   KPr3Te8
_chemical_formula_sum   'K4 Pr12 Te32'
_cell_volume   1674.28802821
_cell_formula_units_Z   4
loop_
 _symmetry_equiv_pos_site_id
 _symmetry_equiv_pos_as_xyz
  1  'x, y, z'
loop_
 _atom_site_type_symbol
 _atom_site_label
 _atom_site_symmetry_multiplicity
 _atom_site_fract_x
 _atom_site_fract_y
 _atom_site_fract_z
 _atom_site_occupancy
  K  K0  1  0.90803200  0.75831900  0.96334400  1
  K  K1  1  0.59196800  0.25831900  0.96334400  1
  K  K2  1  0.09196800  0.24168100  0.03665600  1
  K  K3  1  0.40803200  0.74168100  0.03665600  1
  Pr  Pr4  1  0.91521000  0.58019200  0.65015400  1
  Pr  Pr5  1  0.58479000  0.08019200  0.65015400  1
  Pr  Pr6  1  0.41596200  0.40421200  0.35205100  1
  Pr  Pr7  1  0.75068200  0.91297700  0.34611100  1
  Pr  Pr8  1  0.08403800  0.90421200  0.35205100  1
  Pr  Pr9  1  0.74931800  0.41297700  0.34611100  1
  Pr  Pr10  1  0.41521000  0.91980800  0.34984600  1
  Pr  Pr11  1  0.58403800  0.59578800  0.64794900  1
  Pr  Pr12  1  0.25068200  0.58702300  0.65388900  1
  Pr  Pr13  1  0.91596200  0.09578800  0.64794900  1
  Pr  Pr14  1  0.24931800  0.08702300  0.65388900  1
  Pr  Pr15  1  0.08479000  0.41980800  0.34984600  1
  Te  Te16  1  0.24930400  0.95665600  0.17483700  1
  Te  Te17  1  0.08539100  0.35627800  0.58428500  1
  Te  Te18  1  0.42026300  0.35144500  0.58697000  1
  Te  Te19  1  0.92000100  0.96660500  0.17030300  1
  Te  Te20  1  0.57999900  0.46660500  0.17030300  1
  Te  Te21  1  0.75069600  0.04334400  0.82516300  1
  Te  Te22  1  0.92026300  0.14855500  0.41303000  1
  Te  Te23  1  0.07973700  0.85144500  0.58697000  1
  Te  Te24  1  0.25438800  0.64498300  0.41928900  1
  Te  Te25  1  0.42000100  0.53339500  0.82969700  1
  Te  Te26  1  0.22708900  0.79145400  0.83624900  1
  Te  Te27  1  0.41919100  0.05189000  0.83028000  1
  Te  Te28  1  0.24561200  0.14498300  0.41928900  1
  Te  Te29  1  0.58539100  0.14372200  0.41571500  1
  Te  Te30  1  0.72708900  0.70854600  0.16375100  1
  Te  Te31  1  0.57973700  0.64855500  0.41303000  1
  Te  Te32  1  0.08080900  0.55189000  0.83028000  1
  Te  Te33  1  0.27291100  0.29145400  0.83624900  1
  Te  Te34  1  0.90380200  0.29276000  0.82760600  1
  Te  Te35  1  0.75438800  0.85501700  0.58071100  1
  Te  Te36  1  0.41460900  0.85627800  0.58428500  1
  Te  Te37  1  0.09619800  0.70724000  0.17239400  1
  Te  Te38  1  0.40380200  0.20724000  0.17239400  1
  Te  Te39  1  0.77291100  0.20854600  0.16375100  1
  Te  Te40  1  0.07999900  0.03339500  0.82969700  1
  Te  Te41  1  0.74561200  0.35501700  0.58071100  1
  Te  Te42  1  0.91460900  0.64372200  0.41571500  1
  Te  Te43  1  0.74930400  0.54334400  0.82516300  1
  Te  Te44  1  0.59619800  0.79276000  0.82760600  1
  Te  Te45  1  0.25069600  0.45665600  0.17483700  1
  Te  Te46  1  0.58080900  0.94811000  0.16972000  1
  Te  Te47  1  0.91919100  0.44811000  0.16972000  1
