# generated using pymatgen
data_K6Be4C6O19
_symmetry_space_group_name_H-M   'P 1'
_cell_length_a   10.10427342
_cell_length_b   10.10427342
_cell_length_c   10.10427324
_cell_angle_alpha   90.80146861
_cell_angle_beta   90.80146861
_cell_angle_gamma   90.80147220
_symmetry_Int_Tables_number   1
_chemical_formula_structural   K6Be4C6O19
_chemical_formula_sum   'K12 Be8 C12 O38'
_cell_volume   1031.30369481
_cell_formula_units_Z   2
loop_
 _symmetry_equiv_pos_site_id
 _symmetry_equiv_pos_as_xyz
  1  'x, y, z'
loop_
 _atom_site_type_symbol
 _atom_site_label
 _atom_site_symmetry_multiplicity
 _atom_site_fract_x
 _atom_site_fract_y
 _atom_site_fract_z
 _atom_site_occupancy
  K  K0  1  0.32609100  0.82006800  0.97672100  1
  K  K1  1  0.67390900  0.17993200  0.02327900  1
  K  K2  1  0.85882700  0.35198300  0.46736500  1
  K  K3  1  0.97672100  0.32609100  0.82006800  1
  K  K4  1  0.64801700  0.53263500  0.14117300  1
  K  K5  1  0.14117300  0.64801700  0.53263500  1
  K  K6  1  0.82006800  0.97672100  0.32609100  1
  K  K7  1  0.35198300  0.46736500  0.85882700  1
  K  K8  1  0.53263500  0.14117300  0.64801700  1
  K  K9  1  0.46736500  0.85882700  0.35198300  1
  K  K10  1  0.02327900  0.67390900  0.17993200  1
  K  K11  1  0.17993200  0.02327900  0.67390900  1
  Be  Be12  1  0.68583300  0.83876700  0.62900800  1
  Be  Be13  1  0.37099200  0.31416700  0.16123300  1
  Be  Be14  1  0.15302000  0.15302000  0.15302000  1
  Be  Be15  1  0.62900800  0.68583300  0.83876700  1
  Be  Be16  1  0.84698000  0.84698000  0.84698000  1
  Be  Be17  1  0.83876700  0.62900800  0.68583300  1
  Be  Be18  1  0.31416700  0.16123300  0.37099200  1
  Be  Be19  1  0.16123300  0.37099200  0.31416700  1
  C  C20  1  0.02607500  0.66437900  0.86967300  1
  C  C21  1  0.78785400  0.68951500  0.43965900  1
  C  C22  1  0.68951500  0.43965900  0.78785400  1
  C  C23  1  0.21214600  0.31048500  0.56034100  1
  C  C24  1  0.31048500  0.56034100  0.21214600  1
  C  C25  1  0.13032700  0.97392500  0.33562100  1
  C  C26  1  0.56034100  0.21214600  0.31048500  1
  C  C27  1  0.86967300  0.02607500  0.66437900  1
  C  C28  1  0.97392500  0.33562100  0.13032700  1
  C  C29  1  0.33562100  0.13032700  0.97392500  1
  C  C30  1  0.66437900  0.86967300  0.02607500  1
  C  C31  1  0.43965900  0.78785400  0.68951500  1
  O  O32  1  0.87140400  0.38047200  0.07310400  1
  O  O33  1  0.79896800  0.66385400  0.31725800  1
  O  O34  1  0.20103200  0.33614600  0.68274200  1
  O  O35  1  0.38047200  0.07310400  0.87140400  1
  O  O36  1  0.25111400  0.25111400  0.25111400  1
  O  O37  1  0.52726200  0.86948300  0.63950000  1
  O  O38  1  0.04186200  0.24046900  0.07483900  1
  O  O39  1  0.33614600  0.68274200  0.20103200  1
  O  O40  1  0.23151100  0.51871300  0.30533100  1
  O  O41  1  0.24532500  0.01467800  0.38486500  1
  O  O42  1  0.31725800  0.79896800  0.66385400  1
  O  O43  1  0.07310400  0.87140400  0.38047200  1
  O  O44  1  0.30533100  0.23151100  0.51871300  1
  O  O45  1  0.07483900  0.04186200  0.24046900  1
  O  O46  1  0.51871300  0.30533100  0.23151100  1
  O  O47  1  0.13051700  0.36050000  0.47273800  1
  O  O48  1  0.48128700  0.69466900  0.76848900  1
  O  O49  1  0.76848900  0.48128700  0.69466900  1
  O  O50  1  0.86948300  0.63950000  0.52726200  1
  O  O51  1  0.75953100  0.92516100  0.95813800  1
  O  O52  1  0.61513500  0.75467500  0.98532200  1
  O  O53  1  0.69466900  0.76848900  0.48128700  1
  O  O54  1  0.61952800  0.92689600  0.12859600  1
  O  O55  1  0.92516100  0.95813800  0.75953100  1
  O  O56  1  0.74888600  0.74888600  0.74888600  1
  O  O57  1  0.36050000  0.47273800  0.13051700  1
  O  O58  1  0.95813800  0.75953100  0.92516100  1
  O  O59  1  0.92689600  0.12859600  0.61952800  1
  O  O60  1  0.12859600  0.61952800  0.92689600  1
  O  O61  1  0.01467800  0.38486500  0.24532500  1
  O  O62  1  0.98532200  0.61513500  0.75467500  1
  O  O63  1  0.24046900  0.07483900  0.04186200  1
  O  O64  1  0.47273800  0.13051700  0.36050000  1
  O  O65  1  0.38486500  0.24532500  0.01467800  1
  O  O66  1  0.68274200  0.20103200  0.33614600  1
  O  O67  1  0.63950000  0.52726200  0.86948300  1
  O  O68  1  0.66385400  0.31725800  0.79896800  1
  O  O69  1  0.75467500  0.98532200  0.61513500  1
