# generated using pymatgen
data_Ca5(CoN2)2
_symmetry_space_group_name_H-M   'P 1'
_cell_length_a   8.09742400
_cell_length_b   8.09742400
_cell_length_c   12.03781900
_cell_angle_alpha   90.00000000
_cell_angle_beta   90.00000000
_cell_angle_gamma   90.00000000
_symmetry_Int_Tables_number   1
_chemical_formula_structural   Ca5(CoN2)2
_chemical_formula_sum   'Ca20 Co8 N16'
_cell_volume   789.29903184
_cell_formula_units_Z   4
loop_
 _symmetry_equiv_pos_site_id
 _symmetry_equiv_pos_as_xyz
  1  'x, y, z'
loop_
 _atom_site_type_symbol
 _atom_site_label
 _atom_site_symmetry_multiplicity
 _atom_site_fract_x
 _atom_site_fract_y
 _atom_site_fract_z
 _atom_site_occupancy
  Ca  Ca0  1  0.50000000  0.00000000  0.65148000  1
  Ca  Ca1  1  0.00000000  0.50000000  0.34852000  1
  Ca  Ca2  1  0.50000000  0.00000000  0.15148000  1
  Ca  Ca3  1  0.67306600  0.38210500  0.59649100  1
  Ca  Ca4  1  0.11789500  0.82693400  0.09649100  1
  Ca  Ca5  1  0.38210500  0.67306600  0.90350900  1
  Ca  Ca6  1  0.32693400  0.38210500  0.09649100  1
  Ca  Ca7  1  0.82693400  0.88210500  0.90350900  1
  Ca  Ca8  1  0.88210500  0.82693400  0.59649100  1
  Ca  Ca9  1  0.61789500  0.32693400  0.90350900  1
  Ca  Ca10  1  0.32693400  0.61789500  0.59649100  1
  Ca  Ca11  1  0.17306600  0.11789500  0.90350900  1
  Ca  Ca12  1  0.00000000  0.50000000  0.84852000  1
  Ca  Ca13  1  0.82693400  0.11789500  0.40350900  1
  Ca  Ca14  1  0.17306600  0.88210500  0.40350900  1
  Ca  Ca15  1  0.88210500  0.17306600  0.09649100  1
  Ca  Ca16  1  0.67306600  0.61789500  0.09649100  1
  Ca  Ca17  1  0.38210500  0.32693400  0.40350900  1
  Ca  Ca18  1  0.11789500  0.17306600  0.59649100  1
  Ca  Ca19  1  0.61789500  0.67306600  0.40350900  1
  Co  Co20  1  0.65798100  0.34201900  0.25000000  1
  Co  Co21  1  0.84201900  0.15798100  0.75000000  1
  Co  Co22  1  0.15798100  0.15798100  0.25000000  1
  Co  Co23  1  0.65798100  0.65798100  0.75000000  1
  Co  Co24  1  0.34201900  0.65798100  0.25000000  1
  Co  Co25  1  0.34201900  0.34201900  0.75000000  1
  Co  Co26  1  0.15798100  0.84201900  0.75000000  1
  Co  Co27  1  0.84201900  0.84201900  0.25000000  1
  N  N28  1  0.38993200  0.29929700  0.60721400  1
  N  N29  1  0.70070300  0.38993200  0.39278600  1
  N  N30  1  0.70070300  0.61006800  0.89278600  1
  N  N31  1  0.79929700  0.88993200  0.10721400  1
  N  N32  1  0.29929700  0.38993200  0.89278600  1
  N  N33  1  0.20070300  0.11006800  0.10721400  1
  N  N34  1  0.88993200  0.79929700  0.39278600  1
  N  N35  1  0.88993200  0.20070300  0.89278600  1
  N  N36  1  0.38993200  0.70070300  0.10721400  1
  N  N37  1  0.61006800  0.70070300  0.60721400  1
  N  N38  1  0.29929700  0.61006800  0.39278600  1
  N  N39  1  0.11006800  0.79929700  0.89278600  1
  N  N40  1  0.20070300  0.88993200  0.60721400  1
  N  N41  1  0.11006800  0.20070300  0.39278600  1
  N  N42  1  0.79929700  0.11006800  0.60721400  1
  N  N43  1  0.61006800  0.29929700  0.10721400  1
