# generated using pymatgen
data_Eu3Fe5O12
_symmetry_space_group_name_H-M   'P 1'
_cell_length_a   11.01295234
_cell_length_b   11.01295234
_cell_length_c   11.01295234
_cell_angle_alpha   109.47122063
_cell_angle_beta   109.47122063
_cell_angle_gamma   109.47122063
_symmetry_Int_Tables_number   1
_chemical_formula_structural   Eu3Fe5O12
_chemical_formula_sum   'Eu12 Fe20 O48'
_cell_volume   1028.22791199
_cell_formula_units_Z   4
loop_
 _symmetry_equiv_pos_site_id
 _symmetry_equiv_pos_as_xyz
  1  'x, y, z'
loop_
 _atom_site_type_symbol
 _atom_site_label
 _atom_site_symmetry_multiplicity
 _atom_site_fract_x
 _atom_site_fract_y
 _atom_site_fract_z
 _atom_site_occupancy
  Eu  Eu0  1  0.62500000  0.87500000  0.75000000  1
  Eu  Eu1  1  0.75000000  0.12500000  0.37500000  1
  Eu  Eu2  1  0.62500000  0.25000000  0.87500000  1
  Eu  Eu3  1  0.12500000  0.25000000  0.37500000  1
  Eu  Eu4  1  0.25000000  0.37500000  0.12500000  1
  Eu  Eu5  1  0.87500000  0.75000000  0.62500000  1
  Eu  Eu6  1  0.87500000  0.62500000  0.25000000  1
  Eu  Eu7  1  0.12500000  0.37500000  0.75000000  1
  Eu  Eu8  1  0.37500000  0.12500000  0.25000000  1
  Eu  Eu9  1  0.25000000  0.87500000  0.62500000  1
  Eu  Eu10  1  0.75000000  0.62500000  0.87500000  1
  Eu  Eu11  1  0.37500000  0.75000000  0.12500000  1
  Fe  Fe12  1  0.87500000  0.25000000  0.12500000  1
  Fe  Fe13  1  0.75000000  0.87500000  0.12500000  1
  Fe  Fe14  1  0.12500000  0.75000000  0.87500000  1
  Fe  Fe15  1  0.00000000  0.50000000  0.50000000  1
  Fe  Fe16  1  0.00000000  0.50000000  0.00000000  1
  Fe  Fe17  1  0.50000000  0.50000000  0.50000000  1
  Fe  Fe18  1  0.00000000  0.00000000  0.00000000  1
  Fe  Fe19  1  0.37500000  0.62500000  0.75000000  1
  Fe  Fe20  1  0.62500000  0.75000000  0.37500000  1
  Fe  Fe21  1  0.62500000  0.37500000  0.25000000  1
  Fe  Fe22  1  0.50000000  0.50000000  0.00000000  1
  Fe  Fe23  1  0.75000000  0.37500000  0.62500000  1
  Fe  Fe24  1  0.25000000  0.62500000  0.37500000  1
  Fe  Fe25  1  0.25000000  0.12500000  0.87500000  1
  Fe  Fe26  1  0.50000000  0.00000000  0.50000000  1
  Fe  Fe27  1  0.37500000  0.25000000  0.62500000  1
  Fe  Fe28  1  0.12500000  0.87500000  0.25000000  1
  Fe  Fe29  1  0.00000000  0.00000000  0.50000000  1
  Fe  Fe30  1  0.87500000  0.12500000  0.75000000  1
  Fe  Fe31  1  0.50000000  0.00000000  0.00000000  1
  O  O32  1  0.52495600  0.40407100  0.82198200  1
  O  O33  1  0.29702600  0.47504400  0.37911400  1
  O  O34  1  0.37911400  0.58208900  0.90407100  1
  O  O35  1  0.82198200  0.52495600  0.40407100  1
  O  O36  1  0.17801800  0.47504400  0.59592900  1
  O  O37  1  0.67801800  0.08208900  0.70297400  1
  O  O38  1  0.97504400  0.67801800  0.09592900  1
  O  O39  1  0.32198200  0.91791100  0.29702600  1
  O  O40  1  0.02495600  0.20297400  0.12088600  1
  O  O41  1  0.08208900  0.87911400  0.40407100  1
  O  O42  1  0.08208900  0.70297400  0.67801800  1
  O  O43  1  0.70297400  0.52495600  0.62088600  1
  O  O44  1  0.62088600  0.70297400  0.52495600  1
  O  O45  1  0.40407100  0.82198200  0.52495600  1
  O  O46  1  0.90407100  0.02495600  0.32198200  1
  O  O47  1  0.20297400  0.12088600  0.02495600  1
  O  O48  1  0.59592900  0.91791100  0.12088600  1
  O  O49  1  0.17801800  0.20297400  0.58208900  1
  O  O50  1  0.37911400  0.29702600  0.47504400  1
  O  O51  1  0.58208900  0.90407100  0.37911400  1
  O  O52  1  0.40407100  0.08208900  0.87911400  1
  O  O53  1  0.59592900  0.17801800  0.47504400  1
  O  O54  1  0.09592900  0.97504400  0.67801800  1
  O  O55  1  0.20297400  0.58208900  0.17801800  1
  O  O56  1  0.79702600  0.87911400  0.97504400  1
  O  O57  1  0.91791100  0.12088600  0.59592900  1
  O  O58  1  0.87911400  0.40407100  0.08208900  1
  O  O59  1  0.97504400  0.79702600  0.87911400  1
  O  O60  1  0.91791100  0.29702600  0.32198200  1
  O  O61  1  0.12088600  0.59592900  0.91791100  1
  O  O62  1  0.70297400  0.67801800  0.08208900  1
  O  O63  1  0.41791100  0.82198200  0.79702600  1
  O  O64  1  0.62088600  0.41791100  0.09592900  1
  O  O65  1  0.90407100  0.37911400  0.58208900  1
  O  O66  1  0.79702600  0.41791100  0.82198200  1
  O  O67  1  0.82198200  0.79702600  0.41791100  1
  O  O68  1  0.67801800  0.09592900  0.97504400  1
  O  O69  1  0.52495600  0.62088600  0.70297400  1
  O  O70  1  0.41791100  0.09592900  0.62088600  1
  O  O71  1  0.29702600  0.32198200  0.91791100  1
  O  O72  1  0.12088600  0.02495600  0.20297400  1
  O  O73  1  0.32198200  0.90407100  0.02495600  1
  O  O74  1  0.47504400  0.37911400  0.29702600  1
  O  O75  1  0.58208900  0.17801800  0.20297400  1
  O  O76  1  0.02495600  0.32198200  0.90407100  1
  O  O77  1  0.87911400  0.97504400  0.79702600  1
  O  O78  1  0.47504400  0.59592900  0.17801800  1
  O  O79  1  0.09592900  0.62088600  0.41791100  1
