# generated using pymatgen
data_In7GeIrO8
_symmetry_space_group_name_H-M   'P 1'
_cell_length_a   7.28747501
_cell_length_b   7.28747501
_cell_length_c   7.28747501
_cell_angle_alpha   60.00000000
_cell_angle_beta   60.00000000
_cell_angle_gamma   60.00000000
_symmetry_Int_Tables_number   1
_chemical_formula_structural   In7GeIrO8
_chemical_formula_sum   'In7 Ge1 Ir1 O8'
_cell_volume   273.66309754
_cell_formula_units_Z   1
loop_
 _symmetry_equiv_pos_site_id
 _symmetry_equiv_pos_as_xyz
  1  'x, y, z'
loop_
 _atom_site_type_symbol
 _atom_site_label
 _atom_site_symmetry_multiplicity
 _atom_site_fract_x
 _atom_site_fract_y
 _atom_site_fract_z
 _atom_site_occupancy
  In  In0  1  0.25003400  0.74996600  0.74996600  1
  In  In1  1  0.74996600  0.25003400  0.25003400  1
  In  In2  1  0.25003400  0.25003400  0.74996600  1
  In  In3  1  0.25003400  0.74996600  0.25003400  1
  In  In4  1  0.74996600  0.74996600  0.25003400  1
  In  In5  1  0.74996600  0.25003400  0.74996600  1
  In  In6  1  0.75000000  0.75000000  0.75000000  1
  Ge  Ge7  1  0.25000000  0.25000000  0.25000000  1
  Ir  Ir8  1  0.00000000  0.00000000  0.00000000  1
  O  O9  1  0.35102500  0.94692500  0.35102500  1
  O  O10  1  0.62970100  0.62970100  0.62970100  1
  O  O11  1  0.94692500  0.35102500  0.35102500  1
  O  O12  1  0.62970100  0.11089800  0.62970100  1
  O  O13  1  0.35102500  0.35102500  0.35102500  1
  O  O14  1  0.11089800  0.62970100  0.62970100  1
  O  O15  1  0.35102500  0.35102500  0.94692500  1
  O  O16  1  0.62970100  0.62970100  0.11089800  1
