# generated using pymatgen
data_Sr2Cu(BrO)2
_symmetry_space_group_name_H-M   'P 1'
_cell_length_a   9.87839968
_cell_length_b   9.87839968
_cell_length_c   9.87839968
_cell_angle_alpha   156.67358408
_cell_angle_beta   156.67358408
_cell_angle_gamma   33.22473598
_symmetry_Int_Tables_number   1
_chemical_formula_structural   Sr2Cu(BrO)2
_chemical_formula_sum   'Sr2 Cu1 Br2 O2'
_cell_volume   151.00361521
_cell_formula_units_Z   1
loop_
 _symmetry_equiv_pos_site_id
 _symmetry_equiv_pos_as_xyz
  1  'x, y, z'
loop_
 _atom_site_type_symbol
 _atom_site_label
 _atom_site_symmetry_multiplicity
 _atom_site_fract_x
 _atom_site_fract_y
 _atom_site_fract_z
 _atom_site_occupancy
  Sr  Sr0  1  0.58991300  0.58991300  0.00000000  1
  Sr  Sr1  1  0.41008700  0.41008700  0.00000000  1
  Cu  Cu2  1  0.00000000  0.00000000  0.00000000  1
  Br  Br3  1  0.83210800  0.83210800  0.00000000  1
  Br  Br4  1  0.16789200  0.16789200  0.00000000  1
  O  O5  1  0.00000000  0.50000000  0.50000000  1
  O  O6  1  0.50000000  0.00000000  0.50000000  1
