# generated using pymatgen
data_BeSO4
_symmetry_space_group_name_H-M   'P 1'
_cell_length_a   4.76455204
_cell_length_b   4.76455204
_cell_length_c   4.76455204
_cell_angle_alpha   122.31601156
_cell_angle_beta   122.31601156
_cell_angle_gamma   86.03327713
_symmetry_Int_Tables_number   1
_chemical_formula_structural   BeSO4
_chemical_formula_sum   'Be1 S1 O4'
_cell_volume   73.61106727
_cell_formula_units_Z   1
loop_
 _symmetry_equiv_pos_site_id
 _symmetry_equiv_pos_as_xyz
  1  'x, y, z'
loop_
 _atom_site_type_symbol
 _atom_site_label
 _atom_site_symmetry_multiplicity
 _atom_site_fract_x
 _atom_site_fract_y
 _atom_site_fract_z
 _atom_site_occupancy
  Be  Be0  1  0.25000000  0.75000000  0.50000000  1
  S  S1  1  0.00000000  0.00000000  0.00000000  1
  O  O2  1  0.64620900  0.75327700  0.63911100  1
  O  O3  1  0.99290200  0.35379100  0.10706800  1
  O  O4  1  0.11416600  0.00709800  0.36088900  1
  O  O5  1  0.24672300  0.88583400  0.89293200  1
