# generated using pymatgen
data_Dy2Mn3Si5
_symmetry_space_group_name_H-M   'P 1'
_cell_length_a   10.56816100
_cell_length_b   10.56816100
_cell_length_c   5.42832500
_cell_angle_alpha   90.00000000
_cell_angle_beta   90.00000000
_cell_angle_gamma   90.00000000
_symmetry_Int_Tables_number   1
_chemical_formula_structural   Dy2Mn3Si5
_chemical_formula_sum   'Dy8 Mn12 Si20'
_cell_volume   606.26805209
_cell_formula_units_Z   4
loop_
 _symmetry_equiv_pos_site_id
 _symmetry_equiv_pos_as_xyz
  1  'x, y, z'
loop_
 _atom_site_type_symbol
 _atom_site_label
 _atom_site_symmetry_multiplicity
 _atom_site_fract_x
 _atom_site_fract_y
 _atom_site_fract_z
 _atom_site_occupancy
  Dy  Dy0  1  0.23695200  0.07430200  0.00000000  1
  Dy  Dy1  1  0.07430200  0.76304800  0.00000000  1
  Dy  Dy2  1  0.92569800  0.23695200  0.00000000  1
  Dy  Dy3  1  0.76304800  0.92569800  0.00000000  1
  Dy  Dy4  1  0.26304800  0.57430200  0.50000000  1
  Dy  Dy5  1  0.73695200  0.42569800  0.50000000  1
  Dy  Dy6  1  0.57430200  0.73695200  0.50000000  1
  Dy  Dy7  1  0.42569800  0.26304800  0.50000000  1
  Mn  Mn8  1  0.50000000  0.00000000  0.25000000  1
  Mn  Mn9  1  0.00000000  0.50000000  0.25000000  1
  Mn  Mn10  1  0.50000000  0.00000000  0.75000000  1
  Mn  Mn11  1  0.00000000  0.50000000  0.75000000  1
  Mn  Mn12  1  0.35548400  0.37894000  0.00000000  1
  Mn  Mn13  1  0.37894000  0.64451600  0.00000000  1
  Mn  Mn14  1  0.62106000  0.35548400  0.00000000  1
  Mn  Mn15  1  0.64451600  0.62106000  0.00000000  1
  Mn  Mn16  1  0.14451600  0.87894000  0.50000000  1
  Mn  Mn17  1  0.85548400  0.12106000  0.50000000  1
  Mn  Mn18  1  0.87894000  0.85548400  0.50000000  1
  Mn  Mn19  1  0.12106000  0.14451600  0.50000000  1
  Si  Si20  1  0.00000000  0.00000000  0.25814800  1
  Si  Si21  1  0.50000000  0.50000000  0.24185200  1
  Si  Si22  1  0.00000000  0.00000000  0.74185200  1
  Si  Si23  1  0.50000000  0.50000000  0.75814800  1
  Si  Si24  1  0.67554100  0.17554100  0.25000000  1
  Si  Si25  1  0.17554100  0.32445900  0.25000000  1
  Si  Si26  1  0.82445900  0.67554100  0.25000000  1
  Si  Si27  1  0.32445900  0.82445900  0.25000000  1
  Si  Si28  1  0.32445900  0.82445900  0.75000000  1
  Si  Si29  1  0.82445900  0.67554100  0.75000000  1
  Si  Si30  1  0.17554100  0.32445900  0.75000000  1
  Si  Si31  1  0.67554100  0.17554100  0.75000000  1
  Si  Si32  1  0.47657100  0.18483500  0.00000000  1
  Si  Si33  1  0.18483500  0.52342900  0.00000000  1
  Si  Si34  1  0.81516500  0.47657100  0.00000000  1
  Si  Si35  1  0.52342900  0.81516500  0.00000000  1
  Si  Si36  1  0.02342900  0.68483500  0.50000000  1
  Si  Si37  1  0.97657100  0.31516500  0.50000000  1
  Si  Si38  1  0.68483500  0.97657100  0.50000000  1
  Si  Si39  1  0.31516500  0.02342900  0.50000000  1
