# generated using pymatgen
data_Rb2Co2O3
_symmetry_space_group_name_H-M   'P 1'
_cell_length_a   6.18182500
_cell_length_b   7.91738800
_cell_length_c   12.03813700
_cell_angle_alpha   90.00000000
_cell_angle_beta   90.00000000
_cell_angle_gamma   90.00000000
_symmetry_Int_Tables_number   1
_chemical_formula_structural   Rb2Co2O3
_chemical_formula_sum   'Rb8 Co8 O12'
_cell_volume   589.19345866
_cell_formula_units_Z   4
loop_
 _symmetry_equiv_pos_site_id
 _symmetry_equiv_pos_as_xyz
  1  'x, y, z'
loop_
 _atom_site_type_symbol
 _atom_site_label
 _atom_site_symmetry_multiplicity
 _atom_site_fract_x
 _atom_site_fract_y
 _atom_site_fract_z
 _atom_site_occupancy
  Rb  Rb0  1  0.25000000  0.00539200  0.37941800  1
  Rb  Rb1  1  0.75000000  0.99460800  0.62058200  1
  Rb  Rb2  1  0.75000000  0.50539200  0.12058200  1
  Rb  Rb3  1  0.25000000  0.49460800  0.87941800  1
  Rb  Rb4  1  0.25000000  0.87554000  0.05806700  1
  Rb  Rb5  1  0.75000000  0.12446000  0.94193300  1
  Rb  Rb6  1  0.75000000  0.37554000  0.44193300  1
  Rb  Rb7  1  0.25000000  0.62446000  0.55806700  1
  Co  Co8  1  0.25000000  0.58972700  0.26498800  1
  Co  Co9  1  0.75000000  0.41027300  0.73501200  1
  Co  Co10  1  0.75000000  0.08972700  0.23501200  1
  Co  Co11  1  0.25000000  0.91027300  0.76498800  1
  Co  Co12  1  0.25000000  0.27512900  0.15165500  1
  Co  Co13  1  0.75000000  0.72487100  0.84834500  1
  Co  Co14  1  0.75000000  0.77512900  0.34834500  1
  Co  Co15  1  0.25000000  0.22487100  0.65165500  1
  O  O16  1  0.25000000  0.51523600  0.12045200  1
  O  O17  1  0.75000000  0.48476400  0.87954800  1
  O  O18  1  0.75000000  0.01523600  0.37954800  1
  O  O19  1  0.25000000  0.98476400  0.62045200  1
  O  O20  1  0.99217900  0.16029500  0.15042100  1
  O  O21  1  0.49217900  0.83970500  0.84957900  1
  O  O22  1  0.00782100  0.66029500  0.34957900  1
  O  O23  1  0.50782100  0.33970500  0.65042100  1
  O  O24  1  0.00782100  0.83970500  0.84957900  1
  O  O25  1  0.50782100  0.16029500  0.15042100  1
  O  O26  1  0.99217900  0.33970500  0.65042100  1
  O  O27  1  0.49217900  0.66029500  0.34957900  1
