# generated using pymatgen
data_ErCuPbSe3
_symmetry_space_group_name_H-M   'P 1'
_cell_length_a   4.04935400
_cell_length_b   10.56782600
_cell_length_c   13.63375100
_cell_angle_alpha   90.00000000
_cell_angle_beta   90.00000000
_cell_angle_gamma   90.00000000
_symmetry_Int_Tables_number   1
_chemical_formula_structural   ErCuPbSe3
_chemical_formula_sum   'Er4 Cu4 Pb4 Se12'
_cell_volume   583.42731349
_cell_formula_units_Z   4
loop_
 _symmetry_equiv_pos_site_id
 _symmetry_equiv_pos_as_xyz
  1  'x, y, z'
loop_
 _atom_site_type_symbol
 _atom_site_label
 _atom_site_symmetry_multiplicity
 _atom_site_fract_x
 _atom_site_fract_y
 _atom_site_fract_z
 _atom_site_occupancy
  Er  Er0  1  0.25000000  0.51112800  0.74432200  1
  Er  Er1  1  0.25000000  0.01112800  0.75567800  1
  Er  Er2  1  0.75000000  0.98887200  0.24432200  1
  Er  Er3  1  0.75000000  0.48887200  0.25567800  1
  Cu  Cu4  1  0.75000000  0.75677900  0.71844200  1
  Cu  Cu5  1  0.25000000  0.74322100  0.21844200  1
  Cu  Cu6  1  0.75000000  0.25677900  0.78155800  1
  Cu  Cu7  1  0.25000000  0.24322100  0.28155800  1
  Pb  Pb8  1  0.25000000  0.26912600  0.99382700  1
  Pb  Pb9  1  0.25000000  0.76912600  0.50617300  1
  Pb  Pb10  1  0.75000000  0.23087400  0.49382700  1
  Pb  Pb11  1  0.75000000  0.73087400  0.00617300  1
  Se  Se12  1  0.25000000  0.25820200  0.67150600  1
  Se  Se13  1  0.75000000  0.44856400  0.88612500  1
  Se  Se14  1  0.75000000  0.07600400  0.89331600  1
  Se  Se15  1  0.75000000  0.74179800  0.32849400  1
  Se  Se16  1  0.25000000  0.92399600  0.10668400  1
  Se  Se17  1  0.25000000  0.42399600  0.39331600  1
  Se  Se18  1  0.25000000  0.55143600  0.11387500  1
  Se  Se19  1  0.75000000  0.94856400  0.61387500  1
  Se  Se20  1  0.25000000  0.05143600  0.38612500  1
  Se  Se21  1  0.75000000  0.24179800  0.17150600  1
  Se  Se22  1  0.25000000  0.75820200  0.82849400  1
  Se  Se23  1  0.75000000  0.57600400  0.60668400  1
