# generated using pymatgen
data_B4Rh5
_symmetry_space_group_name_H-M   'P 1'
_cell_length_a   3.33589987
_cell_length_b   3.33589987
_cell_length_c   20.62344400
_cell_angle_alpha   90.00000000
_cell_angle_beta   90.00000000
_cell_angle_gamma   119.99999752
_symmetry_Int_Tables_number   1
_chemical_formula_structural   B4Rh5
_chemical_formula_sum   'B8 Rh10'
_cell_volume   198.75490188
_cell_formula_units_Z   2
loop_
 _symmetry_equiv_pos_site_id
 _symmetry_equiv_pos_as_xyz
  1  'x, y, z'
loop_
 _atom_site_type_symbol
 _atom_site_label
 _atom_site_symmetry_multiplicity
 _atom_site_fract_x
 _atom_site_fract_y
 _atom_site_fract_z
 _atom_site_occupancy
  B  B0  1  0.66666700  0.33333300  0.08628200  1
  B  B1  1  0.33333300  0.66666700  0.58628200  1
  B  B2  1  0.66666700  0.33333300  0.30362200  1
  B  B3  1  0.33333300  0.66666700  0.69637800  1
  B  B4  1  0.66666700  0.33333300  0.19637800  1
  B  B5  1  0.33333300  0.66666700  0.80362200  1
  B  B6  1  0.33333300  0.66666700  0.91371800  1
  B  B7  1  0.66666700  0.33333300  0.41371800  1
  Rh  Rh8  1  0.00000000  0.00000000  0.85223800  1
  Rh  Rh9  1  0.00000000  0.00000000  0.64776200  1
  Rh  Rh10  1  0.00000000  0.00000000  0.35223800  1
  Rh  Rh11  1  0.66666700  0.33333300  0.95228800  1
  Rh  Rh12  1  0.66666700  0.33333300  0.54771200  1
  Rh  Rh13  1  0.66666700  0.33333300  0.75000000  1
  Rh  Rh14  1  0.00000000  0.00000000  0.14776200  1
  Rh  Rh15  1  0.33333300  0.66666700  0.45228800  1
  Rh  Rh16  1  0.33333300  0.66666700  0.04771200  1
  Rh  Rh17  1  0.33333300  0.66666700  0.25000000  1
