# generated using pymatgen
data_EuZr6(PO4)9
_symmetry_space_group_name_H-M   'P 1'
_cell_length_a   8.97278187
_cell_length_b   8.97278187
_cell_length_c   23.12320100
_cell_angle_alpha   90.00000000
_cell_angle_beta   90.00000000
_cell_angle_gamma   119.99999901
_symmetry_Int_Tables_number   1
_chemical_formula_structural   EuZr6(PO4)9
_chemical_formula_sum   'Eu2 Zr12 P18 O72'
_cell_volume   1612.25157612
_cell_formula_units_Z   2
loop_
 _symmetry_equiv_pos_site_id
 _symmetry_equiv_pos_as_xyz
  1  'x, y, z'
loop_
 _atom_site_type_symbol
 _atom_site_label
 _atom_site_symmetry_multiplicity
 _atom_site_fract_x
 _atom_site_fract_y
 _atom_site_fract_z
 _atom_site_occupancy
  Eu  Eu0  1  0.00000000  0.00000000  0.50000000  1
  Eu  Eu1  1  0.00000000  0.00000000  0.00000000  1
  Zr  Zr2  1  0.66666700  0.33333300  0.97145900  1
  Zr  Zr3  1  0.00000000  0.00000000  0.14928200  1
  Zr  Zr4  1  0.33333300  0.66666700  0.31130500  1
  Zr  Zr5  1  0.66666700  0.33333300  0.47145900  1
  Zr  Zr6  1  0.66666700  0.33333300  0.68869500  1
  Zr  Zr7  1  0.66666700  0.33333300  0.18869500  1
  Zr  Zr8  1  0.33333300  0.66666700  0.52854100  1
  Zr  Zr9  1  0.33333300  0.66666700  0.81130500  1
  Zr  Zr10  1  0.00000000  0.00000000  0.64928200  1
  Zr  Zr11  1  0.00000000  0.00000000  0.85071800  1
  Zr  Zr12  1  0.33333300  0.66666700  0.02854100  1
  Zr  Zr13  1  0.00000000  0.00000000  0.35071800  1
  P  P14  1  0.70960600  0.70960600  0.25000000  1
  P  P15  1  0.05360000  0.37624400  0.91995900  1
  P  P16  1  0.94640000  0.62375600  0.08004100  1
  P  P17  1  0.70960600  0.00000000  0.75000000  1
  P  P18  1  0.67735600  0.62375600  0.58004100  1
  P  P19  1  0.32264400  0.94640000  0.91995900  1
  P  P20  1  0.29039400  0.00000000  0.25000000  1
  P  P21  1  0.67735600  0.05360000  0.08004100  1
  P  P22  1  0.37624400  0.05360000  0.58004100  1
  P  P23  1  0.62375600  0.94640000  0.41995900  1
  P  P24  1  0.32264400  0.37624400  0.41995900  1
  P  P25  1  0.05360000  0.67735600  0.41995900  1
  P  P26  1  0.94640000  0.32264400  0.58004100  1
  P  P27  1  0.37624400  0.32264400  0.08004100  1
  P  P28  1  0.29039400  0.29039400  0.75000000  1
  P  P29  1  0.62375600  0.67735600  0.91995900  1
  P  P30  1  0.00000000  0.29039400  0.25000000  1
  P  P31  1  0.00000000  0.70960600  0.75000000  1
  O  O32  1  0.32842200  0.85435400  0.86511300  1
  O  O33  1  0.84111100  0.30771200  0.24037900  1
  O  O34  1  0.46028400  0.29967200  0.02534900  1
  O  O35  1  0.16061200  0.46028400  0.97465100  1
  O  O36  1  0.96999300  0.79621200  0.80359800  1
  O  O37  1  0.16169000  0.18839300  0.41764200  1
  O  O38  1  0.81160700  0.83831000  0.91764200  1
  O  O39  1  0.15888900  0.69228800  0.75962100  1
  O  O40  1  0.85435400  0.32842200  0.63488700  1
  O  O41  1  0.53971600  0.70032800  0.97465100  1
  O  O42  1  0.79621200  0.82621800  0.19640200  1
  O  O43  1  0.83831000  0.02670300  0.08235800  1
  O  O44  1  0.29967200  0.83938800  0.97465100  1
  O  O45  1  0.36114500  0.87531800  0.57609400  1
  O  O46  1  0.85435400  0.52593200  0.13488700  1
  O  O47  1  0.20378800  0.17378200  0.80359800  1
  O  O48  1  0.36114500  0.48582700  0.07609400  1
  O  O49  1  0.32842200  0.47406800  0.36511300  1
  O  O50  1  0.30771200  0.46660100  0.75962100  1
  O  O51  1  0.46660100  0.15888900  0.24037900  1
  O  O52  1  0.52593200  0.85435400  0.36511300  1
  O  O53  1  0.51417300  0.87531800  0.07609400  1
  O  O54  1  0.46660100  0.30771200  0.74037900  1
  O  O55  1  0.52593200  0.67157800  0.86511300  1
  O  O56  1  0.70032800  0.53971600  0.52534900  1
  O  O57  1  0.16169000  0.97329700  0.91764200  1
  O  O58  1  0.14564600  0.67157800  0.36511300  1
  O  O59  1  0.51417300  0.63885500  0.57609400  1
  O  O60  1  0.20378800  0.03000700  0.30359800  1
  O  O61  1  0.87531800  0.36114500  0.92390600  1
  O  O62  1  0.70032800  0.16061200  0.02534900  1
  O  O63  1  0.63885500  0.51417300  0.92390600  1
  O  O64  1  0.82621800  0.79621200  0.30359800  1
  O  O65  1  0.63885500  0.12468200  0.42390600  1
  O  O66  1  0.53339900  0.69228800  0.25962100  1
  O  O67  1  0.84111100  0.53339900  0.74037900  1
  O  O68  1  0.18839300  0.16169000  0.08235800  1
  O  O69  1  0.97329700  0.16169000  0.58235800  1
  O  O70  1  0.79621200  0.96999300  0.69640200  1
  O  O71  1  0.02670300  0.18839300  0.91764200  1
  O  O72  1  0.48582700  0.36114500  0.42390600  1
  O  O73  1  0.47406800  0.14564600  0.63488700  1
  O  O74  1  0.12468200  0.63885500  0.07609400  1
  O  O75  1  0.81160700  0.97329700  0.41764200  1
  O  O76  1  0.18839300  0.02670300  0.58235800  1
  O  O77  1  0.47406800  0.32842200  0.13488700  1
  O  O78  1  0.48582700  0.12468200  0.92390600  1
  O  O79  1  0.17378200  0.96999300  0.19640200  1
  O  O80  1  0.53339900  0.84111100  0.75962100  1
  O  O81  1  0.69228800  0.53339900  0.24037900  1
  O  O82  1  0.97329700  0.81160700  0.08235800  1
  O  O83  1  0.03000700  0.20378800  0.19640200  1
  O  O84  1  0.16061200  0.70032800  0.47465100  1
  O  O85  1  0.12468200  0.48582700  0.57609400  1
  O  O86  1  0.14564600  0.47406800  0.86511300  1
  O  O87  1  0.69228800  0.15888900  0.74037900  1
  O  O88  1  0.96999300  0.17378200  0.30359800  1
  O  O89  1  0.67157800  0.14564600  0.13488700  1
  O  O90  1  0.83938800  0.29967200  0.52534900  1
  O  O91  1  0.83938800  0.53971600  0.02534900  1
  O  O92  1  0.17378200  0.20378800  0.69640200  1
  O  O93  1  0.87531800  0.51417300  0.42390600  1
  O  O94  1  0.82621800  0.03000700  0.80359800  1
  O  O95  1  0.03000700  0.82621800  0.69640200  1
  O  O96  1  0.30771200  0.84111100  0.25962100  1
  O  O97  1  0.29967200  0.46028400  0.47465100  1
  O  O98  1  0.02670300  0.83831000  0.41764200  1
  O  O99  1  0.53971600  0.83938800  0.47465100  1
  O  O100  1  0.67157800  0.52593200  0.63488700  1
  O  O101  1  0.15888900  0.46660100  0.25962100  1
  O  O102  1  0.83831000  0.81160700  0.58235800  1
  O  O103  1  0.46028400  0.16061200  0.52534900  1
