# generated using pymatgen
data_Rb2Sb8O13
_symmetry_space_group_name_H-M   'P 1'
_cell_length_a   17.34654800
_cell_length_b   7.69723900
_cell_length_c   14.36175658
_cell_angle_alpha   89.85097722
_cell_angle_beta   90.00000000
_cell_angle_gamma   90.00000000
_symmetry_Int_Tables_number   1
_chemical_formula_structural   Rb2Sb8O13
_chemical_formula_sum   'Rb8 Sb32 O52'
_cell_volume   1917.58280327
_cell_formula_units_Z   4
loop_
 _symmetry_equiv_pos_site_id
 _symmetry_equiv_pos_as_xyz
  1  'x, y, z'
loop_
 _atom_site_type_symbol
 _atom_site_label
 _atom_site_symmetry_multiplicity
 _atom_site_fract_x
 _atom_site_fract_y
 _atom_site_fract_z
 _atom_site_occupancy
  Rb  Rb0  1  0.75000000  0.46938800  0.19302300  1
  Rb  Rb1  1  0.25000000  0.46136000  0.31996500  1
  Rb  Rb2  1  0.75000000  0.02351000  0.53348600  1
  Rb  Rb3  1  0.75000000  0.95569200  0.03158100  1
  Rb  Rb4  1  0.25000000  0.04430800  0.96841900  1
  Rb  Rb5  1  0.25000000  0.53061200  0.80697700  1
  Rb  Rb6  1  0.25000000  0.97649000  0.46651400  1
  Rb  Rb7  1  0.75000000  0.53864000  0.68003500  1
  Sb  Sb8  1  0.86193100  0.47845500  0.92477500  1
  Sb  Sb9  1  0.36193100  0.52154500  0.07522500  1
  Sb  Sb10  1  0.11459000  0.98370000  0.21000100  1
  Sb  Sb11  1  0.93907600  0.72876400  0.12234700  1
  Sb  Sb12  1  0.43907600  0.27123600  0.87765300  1
  Sb  Sb13  1  0.38541000  0.98370000  0.21000100  1
  Sb  Sb14  1  0.44676800  0.66915700  0.36583000  1
  Sb  Sb15  1  0.61459000  0.01630000  0.78999900  1
  Sb  Sb16  1  0.88541000  0.01630000  0.78999900  1
  Sb  Sb17  1  0.05323200  0.66915700  0.36583000  1
  Sb  Sb18  1  0.13806900  0.52154500  0.07522500  1
  Sb  Sb19  1  0.56092400  0.72876400  0.12234700  1
  Sb  Sb20  1  0.44098600  0.83099300  0.91785200  1
  Sb  Sb21  1  0.45016200  0.23638900  0.41284100  1
  Sb  Sb22  1  0.36225500  0.99373300  0.71358400  1
  Sb  Sb23  1  0.63806900  0.47845500  0.92477500  1
  Sb  Sb24  1  0.63774500  0.00626700  0.28641600  1
  Sb  Sb25  1  0.94098600  0.16900700  0.08214800  1
  Sb  Sb26  1  0.63616400  0.48637500  0.43457100  1
  Sb  Sb27  1  0.13774500  0.99373300  0.71358400  1
  Sb  Sb28  1  0.54983800  0.76361100  0.58715900  1
  Sb  Sb29  1  0.55323200  0.33084300  0.63417000  1
  Sb  Sb30  1  0.36383600  0.51362500  0.56542900  1
  Sb  Sb31  1  0.05901400  0.83099300  0.91785200  1
  Sb  Sb32  1  0.04983800  0.23638900  0.41284100  1
  Sb  Sb33  1  0.94676800  0.33084300  0.63417000  1
  Sb  Sb34  1  0.95016200  0.76361100  0.58715900  1
  Sb  Sb35  1  0.86383600  0.48637500  0.43457100  1
  Sb  Sb36  1  0.13616400  0.51362500  0.56542900  1
  Sb  Sb37  1  0.06092400  0.27123600  0.87765300  1
  Sb  Sb38  1  0.55901400  0.16900700  0.08214800  1
  Sb  Sb39  1  0.86225500  0.00626700  0.28641600  1
  O  O40  1  0.37787200  0.08063000  0.33883600  1
  O  O41  1  0.93171600  0.57367200  0.67960000  1
  O  O42  1  0.62376000  0.25936300  0.74423400  1
  O  O43  1  0.12212800  0.08063000  0.33883600  1
  O  O44  1  0.12376000  0.74063700  0.25576600  1
  O  O45  1  0.64067500  0.71147000  0.50494000  1
  O  O46  1  0.85518100  0.33321400  0.54822600  1
  O  O47  1  0.06828400  0.42632800  0.32040000  1
  O  O48  1  0.63568500  0.23725300  0.97436300  1
  O  O49  1  0.64481900  0.33321400  0.54822600  1
  O  O50  1  0.14650600  0.83787900  0.82499900  1
  O  O51  1  0.86431500  0.23725300  0.97436300  1
  O  O52  1  0.35908300  0.41382100  0.94805100  1
  O  O53  1  0.25000000  0.52111500  0.59024800  1
  O  O54  1  0.85932500  0.71147000  0.50494000  1
  O  O55  1  0.99964500  0.98685200  0.19671700  1
  O  O56  1  0.87624000  0.25936300  0.74423400  1
  O  O57  1  0.56828400  0.57367200  0.67960000  1
  O  O58  1  0.25000000  0.98164200  0.68186100  1
  O  O59  1  0.75000000  0.47888500  0.40975200  1
  O  O60  1  0.14067500  0.28853000  0.49506000  1
  O  O61  1  0.00000000  0.50000000  0.50000000  1
  O  O62  1  0.14481900  0.66678600  0.45177400  1
  O  O63  1  0.64091700  0.58617900  0.05194900  1
  O  O64  1  0.85538700  0.78504600  0.21362800  1
  O  O65  1  0.92026200  0.92776400  0.03431700  1
  O  O66  1  0.07973800  0.07223600  0.96568300  1
  O  O67  1  0.87787200  0.91937000  0.66116400  1
  O  O68  1  0.49964500  0.01314800  0.80328300  1
  O  O69  1  0.25000000  0.49884500  0.10501400  1
  O  O70  1  0.36431500  0.76274700  0.02563700  1
  O  O71  1  0.35932500  0.28853000  0.49506000  1
  O  O72  1  0.50035500  0.98685200  0.19671700  1
  O  O73  1  0.75000000  0.50115500  0.89498600  1
  O  O74  1  0.64650600  0.16212100  0.17500100  1
  O  O75  1  0.35518100  0.66678600  0.45177400  1
  O  O76  1  0.50000000  0.50000000  0.50000000  1
  O  O77  1  0.85349400  0.16212100  0.17500100  1
  O  O78  1  0.35349400  0.83787900  0.82499900  1
  O  O79  1  0.42026200  0.07223600  0.96568300  1
  O  O80  1  0.75000000  0.01835800  0.31813900  1
  O  O81  1  0.00035500  0.01314800  0.80328300  1
  O  O82  1  0.62212800  0.91937000  0.66116400  1
  O  O83  1  0.14091700  0.41382100  0.94805100  1
  O  O84  1  0.37624000  0.74063700  0.25576600  1
  O  O85  1  0.43171600  0.42632800  0.32040000  1
  O  O86  1  0.13568500  0.76274700  0.02563700  1
  O  O87  1  0.35538700  0.21495400  0.78637200  1
  O  O88  1  0.14461300  0.21495400  0.78637200  1
  O  O89  1  0.57973800  0.92776400  0.03431700  1
  O  O90  1  0.64461300  0.78504600  0.21362800  1
  O  O91  1  0.85908300  0.58617900  0.05194900  1
