# generated using pymatgen
data_Zn49Pt29
_symmetry_space_group_name_H-M   'P 1'
_cell_length_a   2.80596700
_cell_length_b   7.05316960
_cell_length_c   60.12659817
_cell_angle_alpha   93.36247868
_cell_angle_beta   90.00000000
_cell_angle_gamma   90.00000000
_symmetry_Int_Tables_number   1
_chemical_formula_structural   Zn49Pt29
_chemical_formula_sum   'Zn49 Pt29'
_cell_volume   1187.91458932
_cell_formula_units_Z   1
loop_
 _symmetry_equiv_pos_site_id
 _symmetry_equiv_pos_as_xyz
  1  'x, y, z'
loop_
 _atom_site_type_symbol
 _atom_site_label
 _atom_site_symmetry_multiplicity
 _atom_site_fract_x
 _atom_site_fract_y
 _atom_site_fract_z
 _atom_site_occupancy
  Zn  Zn0  1  0.00000000  0.70565100  0.13741500  1
  Zn  Zn1  1  0.00000000  0.45510100  0.32622500  1
  Zn  Zn2  1  0.00000000  0.56823600  0.86258500  1
  Zn  Zn3  1  0.00000000  0.27155300  0.24086100  1
  Zn  Zn4  1  0.00000000  0.48398900  0.28008700  1
  Zn  Zn5  1  0.00000000  0.25561700  0.16952800  1
  Zn  Zn6  1  0.00000000  0.67887300  0.06748400  1
  Zn  Zn7  1  0.00000000  0.71240700  0.82193400  1
  Zn  Zn8  1  0.00000000  0.94480600  0.55153800  1
  Zn  Zn9  1  0.00000000  0.49516200  0.65506800  1
  Zn  Zn10  1  0.00000000  0.61138900  0.93251600  1
  Zn  Zn11  1  0.00000000  0.19817700  0.87445800  1
  Zn  Zn12  1  0.00000000  0.88606400  0.22607200  1
  Zn  Zn13  1  0.00000000  0.08608900  0.83047200  1
  Zn  Zn14  1  0.00000000  0.93156400  0.10295200  1
  Zn  Zn15  1  0.00000000  0.57727200  0.57520100  1
  Zn  Zn16  1  0.00000000  0.62237900  0.41395300  1
  Zn  Zn17  1  0.00000000  0.32371900  0.12554200  1
  Zn  Zn18  1  0.00000000  0.37711800  0.00000000  1
  Zn  Zn19  1  0.00000000  0.39326800  0.44846200  1
  Zn  Zn20  1  0.00000000  0.06740300  0.31032900  1
  Zn  Zn21  1  0.00000000  0.03069300  0.75913900  1
  Zn  Zn22  1  0.00000000  0.08001700  0.38143900  1
  Zn  Zn23  1  0.00000000  0.20390300  0.71991300  1
  Zn  Zn24  1  0.00000000  0.12887700  0.67377500  1
  Zn  Zn25  1  0.00000000  0.82861200  0.89704800  1
  Zn  Zn26  1  0.00000000  0.84009400  0.34493200  1
  Zn  Zn27  1  0.00000000  0.20842600  0.58604700  1
  Zn  Zn28  1  0.00000000  0.54552000  0.52574500  1
  Zn  Zn29  1  0.00000000  0.69857800  0.61856100  1
  Zn  Zn30  1  0.00000000  0.31153500  0.07641200  1
  Zn  Zn31  1  0.00000000  0.00207100  0.42479900  1
  Zn  Zn32  1  0.00000000  0.84816500  0.27170100  1
  Zn  Zn33  1  0.00000000  0.44505900  0.37338100  1
  Zn  Zn34  1  0.00000000  0.57646400  0.72829900  1
  Zn  Zn35  1  0.00000000  0.01977400  0.47425500  1
  Zn  Zn36  1  0.00000000  0.11721900  0.96538400  1
  Zn  Zn37  1  0.00000000  0.65999200  0.77392800  1
  Zn  Zn38  1  0.00000000  0.75707400  0.68967100  1
  Zn  Zn39  1  0.00000000  0.28983600  0.79347500  1
  Zn  Zn40  1  0.00000000  0.89047200  0.17806600  1
  Zn  Zn41  1  0.00000000  0.65138000  0.48342900  1
  Zn  Zn42  1  0.00000000  0.74785200  0.97523200  1
  Zn  Zn43  1  0.00000000  0.07167800  0.62661900  1
  Zn  Zn44  1  0.00000000  0.15183500  0.03461600  1
  Zn  Zn45  1  0.00000000  0.49636200  0.20652500  1
  Zn  Zn46  1  0.00000000  0.77262100  0.02476800  1
  Zn  Zn47  1  0.00000000  0.23512400  0.92358800  1
  Zn  Zn48  1  0.00000000  0.16795100  0.51657100  1
  Pt  Pt49  1  0.50000000  0.89091600  0.72457900  1
  Pt  Pt50  1  0.50000000  0.88266600  0.58850600  1
  Pt  Pt51  1  0.50000000  0.93237300  0.79492100  1
  Pt  Pt52  1  0.50000000  0.33118200  0.48520700  1
  Pt  Pt53  1  0.50000000  0.43897400  0.96322700  1
  Pt  Pt54  1  0.50000000  0.93171200  0.93351600  1
  Pt  Pt55  1  0.50000000  0.16633700  0.27542100  1
  Pt  Pt56  1  0.50000000  0.19808900  0.34612500  1
  Pt  Pt57  1  0.50000000  0.36946400  0.75680700  1
  Pt  Pt58  1  0.50000000  0.41507200  0.69173900  1
  Pt  Pt59  1  0.50000000  0.13745200  0.20507900  1
  Pt  Pt60  1  0.50000000  0.47574600  0.03677300  1
  Pt  Pt61  1  0.50000000  0.00165600  0.00000000  1
  Pt  Pt62  1  0.50000000  0.61265700  0.24319300  1
  Pt  Pt63  1  0.50000000  0.72333300  0.30826100  1
  Pt  Pt64  1  0.50000000  0.31954000  0.55125300  1
  Pt  Pt65  1  0.50000000  0.76828700  0.44874700  1
  Pt  Pt66  1  0.50000000  0.84597400  0.51479300  1
  Pt  Pt67  1  0.50000000  0.40350400  0.82936900  1
  Pt  Pt68  1  0.50000000  0.57413500  0.17063100  1
  Pt  Pt69  1  0.50000000  0.89639800  0.86017300  1
  Pt  Pt70  1  0.50000000  0.45956300  0.89764800  1
  Pt  Pt71  1  0.50000000  0.99819700  0.06648400  1
  Pt  Pt72  1  0.50000000  0.76177600  0.38107000  1
  Pt  Pt73  1  0.50000000  0.38070600  0.61893000  1
  Pt  Pt74  1  0.50000000  0.29416000  0.41149400  1
  Pt  Pt75  1  0.50000000  0.56191500  0.10235200  1
  Pt  Pt76  1  0.50000000  0.03622500  0.13982700  1
  Pt  Pt77  1  0.50000000  0.85196400  0.65387500  1
