# generated using pymatgen
data_K3AlB8O15
_symmetry_space_group_name_H-M   'P 1'
_cell_length_a   11.60062500
_cell_length_b   10.32519600
_cell_length_c   12.91839359
_cell_angle_alpha   88.83451516
_cell_angle_beta   90.00000000
_cell_angle_gamma   90.00000000
_symmetry_Int_Tables_number   1
_chemical_formula_structural   K3AlB8O15
_chemical_formula_sum   'K12 Al4 B32 O60'
_cell_volume   1547.02861770
_cell_formula_units_Z   4
loop_
 _symmetry_equiv_pos_site_id
 _symmetry_equiv_pos_as_xyz
  1  'x, y, z'
loop_
 _atom_site_type_symbol
 _atom_site_label
 _atom_site_symmetry_multiplicity
 _atom_site_fract_x
 _atom_site_fract_y
 _atom_site_fract_z
 _atom_site_occupancy
  K  K0  1  0.87178600  0.11217900  0.93836700  1
  K  K1  1  0.37178600  0.88782100  0.56163300  1
  K  K2  1  0.62821400  0.11217900  0.43836700  1
  K  K3  1  0.40049600  0.10966100  0.89607600  1
  K  K4  1  0.63658500  0.52656000  0.22187300  1
  K  K5  1  0.13658500  0.47344000  0.27812700  1
  K  K6  1  0.12821400  0.88782100  0.06163300  1
  K  K7  1  0.59950400  0.89033900  0.10392400  1
  K  K8  1  0.90049600  0.89033900  0.60392400  1
  K  K9  1  0.36341500  0.47344000  0.77812700  1
  K  K10  1  0.09950400  0.10966100  0.39607600  1
  K  K11  1  0.86341500  0.52656000  0.72187300  1
  Al  Al12  1  0.33457000  0.25213000  0.53912500  1
  Al  Al13  1  0.16543000  0.25213000  0.03912500  1
  Al  Al14  1  0.66543000  0.74787000  0.46087500  1
  Al  Al15  1  0.83457000  0.74787000  0.96087500  1
  B  B16  1  0.09863900  0.65507000  0.47655300  1
  B  B17  1  0.30162200  0.49208100  0.08325000  1
  B  B18  1  0.83766900  0.86831800  0.35551500  1
  B  B19  1  0.61852800  0.77907000  0.68789100  1
  B  B20  1  0.66233100  0.86831800  0.85551500  1
  B  B21  1  0.90136100  0.34493000  0.52344700  1
  B  B22  1  0.94788800  0.22532600  0.16418900  1
  B  B23  1  0.55211200  0.22532600  0.66418900  1
  B  B24  1  0.44788800  0.77467400  0.33581100  1
  B  B25  1  0.25085500  0.82881100  0.28435600  1
  B  B26  1  0.87197800  0.30668000  0.33397200  1
  B  B27  1  0.03873800  0.80784000  0.31981200  1
  B  B28  1  0.69837800  0.50791900  0.91675000  1
  B  B29  1  0.80162200  0.50791900  0.41675000  1
  B  B30  1  0.24914500  0.82881100  0.78435600  1
  B  B31  1  0.59863900  0.34493000  0.02344700  1
  B  B32  1  0.75085500  0.17118900  0.21564400  1
  B  B33  1  0.12802200  0.69332000  0.66602800  1
  B  B34  1  0.96126200  0.19216000  0.68018800  1
  B  B35  1  0.40136100  0.65507000  0.97655300  1
  B  B36  1  0.33766900  0.13168200  0.14448500  1
  B  B37  1  0.88147200  0.77907000  0.18789100  1
  B  B38  1  0.11852800  0.22093000  0.81210900  1
  B  B39  1  0.38147200  0.22093000  0.31210900  1
  B  B40  1  0.05211200  0.77467400  0.83581100  1
  B  B41  1  0.74914500  0.17118900  0.71564400  1
  B  B42  1  0.37197800  0.69332000  0.16602800  1
  B  B43  1  0.53873800  0.19216000  0.18018800  1
  B  B44  1  0.46126200  0.80784000  0.81981200  1
  B  B45  1  0.62802200  0.30668000  0.83397200  1
  B  B46  1  0.19837800  0.49208100  0.58325000  1
  B  B47  1  0.16233100  0.13168200  0.64448500  1
  O  O48  1  0.84428000  0.46538500  0.51339100  1
  O  O49  1  0.84008300  0.16820900  0.14269900  1
  O  O50  1  0.56338600  0.31425500  0.12159300  1
  O  O51  1  0.03400700  0.71462600  0.74305200  1
  O  O52  1  0.15991700  0.83179100  0.85730100  1
  O  O53  1  0.74302300  0.88309600  0.93172200  1
  O  O54  1  0.27079100  0.77566300  0.19010600  1
  O  O55  1  0.22920900  0.77566300  0.69010600  1
  O  O56  1  0.46599300  0.71462600  0.24305200  1
  O  O57  1  0.24302300  0.11690400  0.56827800  1
  O  O58  1  0.14688800  0.88314900  0.30944800  1
  O  O59  1  0.77079100  0.22433700  0.30989400  1
  O  O60  1  0.22682900  0.39135100  0.09040700  1
  O  O61  1  0.30051000  0.17143000  0.24195000  1
  O  O62  1  0.45296300  0.11206700  0.12522200  1
  O  O63  1  0.65991700  0.16820900  0.64269900  1
  O  O64  1  0.96599300  0.28537400  0.25694800  1
  O  O65  1  0.54703700  0.88793300  0.87477800  1
  O  O66  1  0.08343100  0.73019600  0.56191500  1
  O  O67  1  0.35311200  0.88314900  0.80944800  1
  O  O68  1  0.02862100  0.21469100  0.08918800  1
  O  O69  1  0.15572000  0.53461500  0.48660900  1
  O  O70  1  0.34428000  0.53461500  0.98660900  1
  O  O71  1  0.65927400  0.74162100  0.59519200  1
  O  O72  1  0.85311200  0.11685100  0.69055200  1
  O  O73  1  0.41656900  0.73019600  0.06191500  1
  O  O74  1  0.95296300  0.88793300  0.37477800  1
  O  O75  1  0.99557400  0.77175400  0.21564100  1
  O  O76  1  0.53400700  0.28537400  0.75694800  1
  O  O77  1  0.49557400  0.22824600  0.28435900  1
  O  O78  1  0.93661400  0.31425500  0.62159300  1
  O  O79  1  0.04703700  0.11206700  0.62522200  1
  O  O80  1  0.64688800  0.11685100  0.19055200  1
  O  O81  1  0.06338600  0.68574500  0.37840700  1
  O  O82  1  0.00442600  0.22824600  0.78435900  1
  O  O83  1  0.50442600  0.77175400  0.71564100  1
  O  O84  1  0.16692700  0.55736900  0.67087000  1
  O  O85  1  0.91656900  0.26980400  0.43808500  1
  O  O86  1  0.69949000  0.82857000  0.75805000  1
  O  O87  1  0.34008300  0.83179100  0.35730100  1
  O  O88  1  0.34072600  0.25837900  0.40480800  1
  O  O89  1  0.97137900  0.78530900  0.91081200  1
  O  O90  1  0.75697700  0.88309600  0.43172200  1
  O  O91  1  0.43661400  0.68574500  0.87840700  1
  O  O92  1  0.52862100  0.78530900  0.41081200  1
  O  O93  1  0.19949000  0.17143000  0.74195000  1
  O  O94  1  0.58343100  0.26980400  0.93808500  1
  O  O95  1  0.72920900  0.22433700  0.80989400  1
  O  O96  1  0.84072600  0.74162100  0.09519200  1
  O  O97  1  0.25697700  0.11690400  0.06827800  1
  O  O98  1  0.83307300  0.44263100  0.32913000  1
  O  O99  1  0.15927400  0.25837900  0.90480800  1
  O  O100  1  0.65572000  0.46538500  0.01339100  1
  O  O101  1  0.66692700  0.44263100  0.82913000  1
  O  O102  1  0.47137900  0.21469100  0.58918800  1
  O  O103  1  0.77317100  0.60864900  0.90959300  1
  O  O104  1  0.72682900  0.60864900  0.40959300  1
  O  O105  1  0.80051000  0.82857000  0.25805000  1
  O  O106  1  0.33307300  0.55736900  0.17087000  1
  O  O107  1  0.27317100  0.39135100  0.59040700  1
