# generated using pymatgen
data_Na5(InTe3)2
_symmetry_space_group_name_H-M   'P 1'
_cell_length_a   8.99317729
_cell_length_b   8.99317729
_cell_length_c   23.88539600
_cell_angle_alpha   90.00000000
_cell_angle_beta   90.00000000
_cell_angle_gamma   118.91286953
_symmetry_Int_Tables_number   1
_chemical_formula_structural   Na5(InTe3)2
_chemical_formula_sum   'Na20 In8 Te24'
_cell_volume   1690.99936816
_cell_formula_units_Z   4
loop_
 _symmetry_equiv_pos_site_id
 _symmetry_equiv_pos_as_xyz
  1  'x, y, z'
loop_
 _atom_site_type_symbol
 _atom_site_label
 _atom_site_symmetry_multiplicity
 _atom_site_fract_x
 _atom_site_fract_y
 _atom_site_fract_z
 _atom_site_occupancy
  Na  Na0  1  0.75142000  0.74552800  0.24835300  1
  Na  Na1  1  0.24858000  0.25447200  0.74835300  1
  Na  Na2  1  0.25447200  0.24858000  0.24835300  1
  Na  Na3  1  0.74552800  0.75142000  0.74835300  1
  Na  Na4  1  0.00758200  0.50382600  0.25111700  1
  Na  Na5  1  0.99241800  0.49617400  0.75111700  1
  Na  Na6  1  0.49617400  0.99241800  0.25111700  1
  Na  Na7  1  0.50382600  0.00758200  0.75111700  1
  Na  Na8  1  0.91759000  0.56474100  0.08786900  1
  Na  Na9  1  0.08241000  0.43525900  0.58786900  1
  Na  Na10  1  0.43525900  0.08241000  0.08786900  1
  Na  Na11  1  0.56474100  0.91759000  0.58786900  1
  Na  Na12  1  0.15917800  0.31844200  0.41334600  1
  Na  Na13  1  0.84082200  0.68155800  0.91334600  1
  Na  Na14  1  0.68155800  0.84082200  0.41334600  1
  Na  Na15  1  0.31844200  0.15917800  0.91334600  1
  Na  Na16  1  0.18378600  0.43268000  0.00015400  1
  Na  Na17  1  0.81621400  0.56732000  0.50015400  1
  Na  Na18  1  0.56732000  0.81621400  0.00015400  1
  Na  Na19  1  0.43268000  0.18378600  0.50015400  1
  In  In20  1  0.96618500  0.03381500  0.11984500  1
  In  In21  1  0.03381500  0.96618500  0.61984500  1
  In  In22  1  0.73410700  0.26589300  0.37768000  1
  In  In23  1  0.26589300  0.73410700  0.87768000  1
  In  In24  1  0.21623200  0.78376800  0.38280800  1
  In  In25  1  0.78376800  0.21623200  0.88280800  1
  In  In26  1  0.48765200  0.51234800  0.12021700  1
  In  In27  1  0.51234800  0.48765200  0.62021700  1
  Te  Te28  1  0.78026700  0.21973300  0.00343400  1
  Te  Te29  1  0.21973300  0.78026700  0.50343400  1
  Te  Te30  1  0.87768000  0.12232000  0.30772500  1
  Te  Te31  1  0.12232000  0.87768000  0.80772500  1
  Te  Te32  1  0.62963100  0.37036900  0.19109100  1
  Te  Te33  1  0.37036900  0.62963100  0.69109100  1
  Te  Te34  1  0.96933000  0.03067000  0.99923900  1
  Te  Te35  1  0.03067000  0.96933000  0.49923900  1
  Te  Te36  1  0.85943800  0.62386400  0.35981900  1
  Te  Te37  1  0.14056200  0.37613600  0.85981900  1
  Te  Te38  1  0.37613600  0.14056200  0.35981900  1
  Te  Te39  1  0.62386400  0.85943800  0.85981900  1
  Te  Te40  1  0.13229300  0.39267300  0.14104100  1
  Te  Te41  1  0.86770700  0.60732700  0.64104100  1
  Te  Te42  1  0.60732700  0.86770700  0.14104100  1
  Te  Te43  1  0.39267300  0.13229300  0.64104100  1
  Te  Te44  1  0.54748200  0.45251800  0.00831800  1
  Te  Te45  1  0.45251800  0.54748200  0.50831800  1
  Te  Te46  1  0.37078300  0.62921700  0.32500000  1
  Te  Te47  1  0.62921700  0.37078300  0.82500000  1
  Te  Te48  1  0.87764800  0.12235200  0.67614900  1
  Te  Te49  1  0.12235200  0.87764800  0.17614900  1
  Te  Te50  1  0.79570300  0.20429700  0.48989600  1
  Te  Te51  1  0.20429700  0.79570300  0.98989600  1
