# generated using pymatgen
data_Ba3V4PbO14
_symmetry_space_group_name_H-M   'P 1'
_cell_length_a   7.45353500
_cell_length_b   7.50747807
_cell_length_c   13.56790259
_cell_angle_alpha   99.41202205
_cell_angle_beta   93.24025814
_cell_angle_gamma   92.09228028
_symmetry_Int_Tables_number   1
_chemical_formula_structural   Ba3V4PbO14
_chemical_formula_sum   'Ba6 V8 Pb2 O28'
_cell_volume   746.99713604
_cell_formula_units_Z   2
loop_
 _symmetry_equiv_pos_site_id
 _symmetry_equiv_pos_as_xyz
  1  'x, y, z'
loop_
 _atom_site_type_symbol
 _atom_site_label
 _atom_site_symmetry_multiplicity
 _atom_site_fract_x
 _atom_site_fract_y
 _atom_site_fract_z
 _atom_site_occupancy
  Ba  Ba0  1  0.77039300  0.74294900  0.34100000  1
  Ba  Ba1  1  0.92097400  0.16478200  0.15916600  1
  Ba  Ba2  1  0.33825700  0.79244800  0.13857800  1
  Ba  Ba3  1  0.07902600  0.83521800  0.84083400  1
  Ba  Ba4  1  0.66174300  0.20755200  0.86142200  1
  Ba  Ba5  1  0.22960700  0.25705100  0.65900000  1
  V  V6  1  0.56497000  0.68749100  0.88178900  1
  V  V7  1  0.15656500  0.31360800  0.92078000  1
  V  V8  1  0.84343500  0.68639200  0.07922000  1
  V  V9  1  0.17693700  0.70622200  0.58431900  1
  V  V10  1  0.23456400  0.91822300  0.39233500  1
  V  V11  1  0.76543600  0.08177700  0.60766500  1
  V  V12  1  0.82306300  0.29377800  0.41568100  1
  V  V13  1  0.43503000  0.31250900  0.11821100  1
  Pb  Pb14  1  0.65040200  0.61532500  0.62789200  1
  Pb  Pb15  1  0.34959800  0.38467500  0.37210800  1
  O  O16  1  0.40535200  0.79017800  0.34605800  1
  O  O17  1  0.99498900  0.38512400  0.35782700  1
  O  O18  1  0.47666900  0.51896000  0.78894900  1
  O  O19  1  0.60046500  0.19552500  0.05800600  1
  O  O20  1  0.28706500  0.16942000  0.84600600  1
  O  O21  1  0.29861000  0.17091200  0.17375300  1
  O  O22  1  0.67018700  0.46406100  0.44923000  1
  O  O23  1  0.70134900  0.57346500  0.96857200  1
  O  O24  1  0.09085600  0.93411100  0.29185800  1
  O  O25  1  0.70139000  0.82908800  0.82624700  1
  O  O26  1  0.29865100  0.42653500  0.03142800  1
  O  O27  1  0.01170700  0.82276000  0.04373400  1
  O  O28  1  0.68743700  0.86922000  0.54684100  1
  O  O29  1  0.52333100  0.48104000  0.21105100  1
  O  O30  1  0.59464800  0.20982200  0.65394200  1
  O  O31  1  0.31256300  0.13078000  0.45315900  1
  O  O32  1  0.00501100  0.61487600  0.64217300  1
  O  O33  1  0.06372500  0.45685100  0.84956700  1
  O  O34  1  0.32981300  0.53593900  0.55077000  1
  O  O35  1  0.71293500  0.83058000  0.15399400  1
  O  O36  1  0.09903700  0.79991600  0.47363500  1
  O  O37  1  0.71543200  0.13034800  0.33052600  1
  O  O38  1  0.93627500  0.54314900  0.15043300  1
  O  O39  1  0.39953500  0.80447500  0.94199400  1
  O  O40  1  0.98829300  0.17724000  0.95626600  1
  O  O41  1  0.90914400  0.06588900  0.70814200  1
  O  O42  1  0.90096300  0.20008400  0.52636500  1
  O  O43  1  0.28456800  0.86965200  0.66947400  1
