# generated using pymatgen
data_KNaNdNbO5
_symmetry_space_group_name_H-M   'P 1'
_cell_length_a   5.78869500
_cell_length_b   5.78869500
_cell_length_c   8.38758000
_cell_angle_alpha   90.00000000
_cell_angle_beta   90.00000000
_cell_angle_gamma   90.00000000
_symmetry_Int_Tables_number   1
_chemical_formula_structural   KNaNdNbO5
_chemical_formula_sum   'K2 Na2 Nd2 Nb2 O10'
_cell_volume   281.05933269
_cell_formula_units_Z   2
loop_
 _symmetry_equiv_pos_site_id
 _symmetry_equiv_pos_as_xyz
  1  'x, y, z'
loop_
 _atom_site_type_symbol
 _atom_site_label
 _atom_site_symmetry_multiplicity
 _atom_site_fract_x
 _atom_site_fract_y
 _atom_site_fract_z
 _atom_site_occupancy
  K  K0  1  0.50000000  0.50000000  0.00000000  1
  K  K1  1  0.00000000  0.00000000  0.00000000  1
  Na  Na2  1  0.50000000  0.00000000  0.75884600  1
  Na  Na3  1  0.00000000  0.50000000  0.24115400  1
  Nd  Nd4  1  0.50000000  0.50000000  0.50000000  1
  Nd  Nd5  1  0.00000000  0.00000000  0.50000000  1
  Nb  Nb6  1  0.50000000  0.00000000  0.25749100  1
  Nb  Nb7  1  0.00000000  0.50000000  0.74250900  1
  O  O8  1  0.23084200  0.73084200  0.66994600  1
  O  O9  1  0.76915800  0.26915800  0.66994600  1
  O  O10  1  0.00000000  0.50000000  0.96561700  1
  O  O11  1  0.73084200  0.76915800  0.33005400  1
  O  O12  1  0.73084200  0.23084200  0.33005400  1
  O  O13  1  0.50000000  0.00000000  0.03438300  1
  O  O14  1  0.76915800  0.73084200  0.66994600  1
  O  O15  1  0.23084200  0.26915800  0.66994600  1
  O  O16  1  0.26915800  0.76915800  0.33005400  1
  O  O17  1  0.26915800  0.23084200  0.33005400  1
