# generated using pymatgen
data_Cs3AlO3
_symmetry_space_group_name_H-M   'P 1'
_cell_length_a   13.05653500
_cell_length_b   7.28388900
_cell_length_c   8.02173295
_cell_angle_alpha   65.83000468
_cell_angle_beta   90.00000000
_cell_angle_gamma   90.00000000
_symmetry_Int_Tables_number   1
_chemical_formula_structural   Cs3AlO3
_chemical_formula_sum   'Cs12 Al4 O12'
_cell_volume   696.00703617
_cell_formula_units_Z   4
loop_
 _symmetry_equiv_pos_site_id
 _symmetry_equiv_pos_as_xyz
  1  'x, y, z'
loop_
 _atom_site_type_symbol
 _atom_site_label
 _atom_site_symmetry_multiplicity
 _atom_site_fract_x
 _atom_site_fract_y
 _atom_site_fract_z
 _atom_site_occupancy
  Cs  Cs0  1  0.69545600  0.86320300  0.92751000  1
  Cs  Cs1  1  0.35058700  0.55853700  0.51674400  1
  Cs  Cs2  1  0.30454400  0.13679700  0.07249000  1
  Cs  Cs3  1  0.85058700  0.94146300  0.48325600  1
  Cs  Cs4  1  0.19545600  0.63679700  0.07249000  1
  Cs  Cs5  1  0.56076400  0.01746400  0.27186900  1
  Cs  Cs6  1  0.80454400  0.36320300  0.92751000  1
  Cs  Cs7  1  0.64941300  0.44146300  0.48325600  1
  Cs  Cs8  1  0.06076400  0.48253600  0.72813100  1
  Cs  Cs9  1  0.93923600  0.51746400  0.27186900  1
  Cs  Cs10  1  0.43923600  0.98253600  0.72813100  1
  Cs  Cs11  1  0.14941300  0.05853700  0.51674400  1
  Al  Al12  1  0.45531400  0.51394800  0.14035100  1
  Al  Al13  1  0.54468600  0.48605200  0.85964900  1
  Al  Al14  1  0.04468600  0.01394800  0.14035100  1
  Al  Al15  1  0.95531400  0.98605200  0.85964900  1
  O  O16  1  0.90096400  0.19695400  0.67608400  1
  O  O17  1  0.41208300  0.53243300  0.91372900  1
  O  O18  1  0.08791700  0.03243300  0.91372900  1
  O  O19  1  0.06169000  0.24108800  0.16763100  1
  O  O20  1  0.09903600  0.80304600  0.32391600  1
  O  O21  1  0.40096400  0.30304600  0.32391600  1
  O  O22  1  0.59903600  0.69695400  0.67608400  1
  O  O23  1  0.91208300  0.96756700  0.08627100  1
  O  O24  1  0.56169000  0.25891200  0.83236900  1
  O  O25  1  0.43831000  0.74108800  0.16763100  1
  O  O26  1  0.58791700  0.46756700  0.08627100  1
  O  O27  1  0.93831000  0.75891200  0.83236900  1
