# generated using pymatgen
data_AlBiSCl4
_symmetry_space_group_name_H-M   'P 1'
_cell_length_a   10.28769688
_cell_length_b   10.28769688
_cell_length_c   10.28769688
_cell_angle_alpha   107.76482224
_cell_angle_beta   107.76482224
_cell_angle_gamma   112.94072761
_symmetry_Int_Tables_number   1
_chemical_formula_structural   AlBiSCl4
_chemical_formula_sum   'Al4 Bi4 S4 Cl16'
_cell_volume   835.85090152
_cell_formula_units_Z   4
loop_
 _symmetry_equiv_pos_site_id
 _symmetry_equiv_pos_as_xyz
  1  'x, y, z'
loop_
 _atom_site_type_symbol
 _atom_site_label
 _atom_site_symmetry_multiplicity
 _atom_site_fract_x
 _atom_site_fract_y
 _atom_site_fract_z
 _atom_site_occupancy
  Al  Al0  1  0.59065300  0.71092700  0.72994600  1
  Al  Al1  1  0.13929300  0.40934700  0.12027400  1
  Al  Al2  1  0.98098100  0.86070700  0.27005400  1
  Al  Al3  1  0.28907300  0.01901900  0.87972600  1
  Bi  Bi4  1  0.80739400  0.21529100  0.28791100  1
  Bi  Bi5  1  0.78470900  0.07262100  0.59210400  1
  Bi  Bi6  1  0.92737900  0.51948300  0.71208900  1
  Bi  Bi7  1  0.48051700  0.19260600  0.40789600  1
  S  S8  1  0.01103700  0.31810800  0.58472800  1
  S  S9  1  0.73338000  0.42631000  0.41527200  1
  S  S10  1  0.57369000  0.98896300  0.30707100  1
  S  S11  1  0.68189200  0.26662000  0.69292900  1
  Cl  Cl12  1  0.83414400  0.81918000  0.38368900  1
  Cl  Cl13  1  0.50882500  0.81330100  0.58813000  1
  Cl  Cl14  1  0.82235900  0.76748800  0.74226600  1
  Cl  Cl15  1  0.18082000  0.56451000  0.01496400  1
  Cl  Cl16  1  0.54954500  0.16585600  0.98503600  1
  Cl  Cl17  1  0.91990600  0.17764100  0.94512900  1
  Cl  Cl18  1  0.02522300  0.08009400  0.25773400  1
  Cl  Cl19  1  0.23251200  0.97477700  0.05487100  1
  Cl  Cl20  1  0.22517200  0.92069500  0.41187000  1
  Cl  Cl21  1  0.07930500  0.49117500  0.30447700  1
  Cl  Cl22  1  0.18936400  0.13549200  0.78386000  1
  Cl  Cl23  1  0.35163200  0.40550400  0.21614000  1
  Cl  Cl24  1  0.18669900  0.77482800  0.69552300  1
  Cl  Cl25  1  0.86450800  0.64836800  0.05387200  1
  Cl  Cl26  1  0.43549000  0.45045500  0.61631100  1
  Cl  Cl27  1  0.59449600  0.81063600  0.94612800  1
