# generated using pymatgen
data_Pu2InRh2
_symmetry_space_group_name_H-M   'P 1'
_cell_length_a   7.52612300
_cell_length_b   7.52612300
_cell_length_c   3.76341400
_cell_angle_alpha   90.00000000
_cell_angle_beta   90.00000000
_cell_angle_gamma   90.00000000
_symmetry_Int_Tables_number   1
_chemical_formula_structural   Pu2InRh2
_chemical_formula_sum   'Pu4 In2 Rh4'
_cell_volume   213.16928065
_cell_formula_units_Z   2
loop_
 _symmetry_equiv_pos_site_id
 _symmetry_equiv_pos_as_xyz
  1  'x, y, z'
loop_
 _atom_site_type_symbol
 _atom_site_label
 _atom_site_symmetry_multiplicity
 _atom_site_fract_x
 _atom_site_fract_y
 _atom_site_fract_z
 _atom_site_occupancy
  Pu  Pu0  1  0.66642900  0.16642900  0.50000000  1
  Pu  Pu1  1  0.16642900  0.33357100  0.50000000  1
  Pu  Pu2  1  0.83357100  0.66642900  0.50000000  1
  Pu  Pu3  1  0.33357100  0.83357100  0.50000000  1
  In  In4  1  0.00000000  0.00000000  0.00000000  1
  In  In5  1  0.50000000  0.50000000  0.00000000  1
  Rh  Rh6  1  0.86276600  0.36276600  0.00000000  1
  Rh  Rh7  1  0.13723400  0.63723400  0.00000000  1
  Rh  Rh8  1  0.63723400  0.86276600  0.00000000  1
  Rh  Rh9  1  0.36276600  0.13723400  0.00000000  1
