# generated using pymatgen
data_Bi9Ir2I3
_symmetry_space_group_name_H-M   'P 1'
_cell_length_a   9.91315777
_cell_length_b   14.09327479
_cell_length_c   27.63633600
_cell_angle_alpha   90.00000000
_cell_angle_beta   90.00000000
_cell_angle_gamma   90.00000000
_symmetry_Int_Tables_number   1
_chemical_formula_structural   Bi9Ir2I3
_chemical_formula_sum   'Bi72 Ir16 I24'
_cell_volume   3861.04090011
_cell_formula_units_Z   8
loop_
 _symmetry_equiv_pos_site_id
 _symmetry_equiv_pos_as_xyz
  1  'x, y, z'
loop_
 _atom_site_type_symbol
 _atom_site_label
 _atom_site_symmetry_multiplicity
 _atom_site_fract_x
 _atom_site_fract_y
 _atom_site_fract_z
 _atom_site_occupancy
  Bi  Bi0  1  0.24416776  0.96321078  0.95727005  1
  Bi  Bi1  1  0.98651074  0.47156223  0.41701539  1
  Bi  Bi2  1  0.51184991  0.25000000  0.08409372  1
  Bi  Bi3  1  0.64274979  0.96571338  0.21097098  1
  Bi  Bi4  1  0.12954056  0.25000000  0.82878381  1
  Bi  Bi5  1  0.89927724  0.63554494  0.32251071  1
  Bi  Bi6  1  0.37045944  0.25000000  0.32878381  1
  Bi  Bi7  1  0.98940903  0.63597837  0.07913055  1
  Bi  Bi8  1  0.90708208  0.03139117  0.16646876  1
  Bi  Bi9  1  0.32866679  0.75000000  0.79039045  1
  Bi  Bi10  1  0.51348926  0.02843777  0.91701539  1
  Bi  Bi11  1  0.01184991  0.75000000  0.41590628  1
  Bi  Bi12  1  0.27908561  0.25000000  0.95513033  1
  Bi  Bi13  1  0.16434577  0.75000000  0.89285837  1
  Bi  Bi14  1  0.25583224  0.96321078  0.45727005  1
  Bi  Bi15  1  0.64274979  0.53428662  0.21097098  1
  Bi  Bi16  1  0.51348926  0.47156223  0.91701539  1
  Bi  Bi17  1  0.77908561  0.75000000  0.54486967  1
  Bi  Bi18  1  0.01059097  0.13597837  0.92086945  1
  Bi  Bi19  1  0.82866679  0.25000000  0.70960955  1
  Bi  Bi20  1  0.54925339  0.75000000  0.14706483  1
  Bi  Bi21  1  0.98815009  0.25000000  0.58409372  1
  Bi  Bi22  1  0.39927724  0.36445506  0.17748929  1
  Bi  Bi23  1  0.59291792  0.03139117  0.66646876  1
  Bi  Bi24  1  0.66434577  0.25000000  0.60714163  1
  Bi  Bi25  1  0.10072276  0.13554494  0.67748929  1
  Bi  Bi26  1  0.48651074  0.52843777  0.08298461  1
  Bi  Bi27  1  0.83565423  0.25000000  0.10714163  1
  Bi  Bi28  1  0.59291792  0.46860883  0.66646876  1
  Bi  Bi29  1  0.01348926  0.97156223  0.58298461  1
  Bi  Bi30  1  0.25583224  0.53678922  0.45727005  1
  Bi  Bi31  1  0.85725021  0.96571338  0.71097098  1
  Bi  Bi32  1  0.98940903  0.86402163  0.07913055  1
  Bi  Bi33  1  0.35725021  0.03428662  0.78902902  1
  Bi  Bi34  1  0.48940903  0.36402163  0.42086945  1
  Bi  Bi35  1  0.24416776  0.53678922  0.95727005  1
  Bi  Bi36  1  0.14274979  0.46571338  0.28902902  1
  Bi  Bi37  1  0.33565423  0.75000000  0.39285837  1
  Bi  Bi38  1  0.35725021  0.46571338  0.78902902  1
  Bi  Bi39  1  0.22091439  0.25000000  0.45513033  1
  Bi  Bi40  1  0.87045944  0.75000000  0.17121619  1
  Bi  Bi41  1  0.40708208  0.96860883  0.33353124  1
  Bi  Bi42  1  0.04925339  0.25000000  0.35293517  1
  Bi  Bi43  1  0.40708208  0.53139117  0.33353124  1
  Bi  Bi44  1  0.74416776  0.03678922  0.54272995  1
  Bi  Bi45  1  0.51059097  0.86402163  0.57913055  1
  Bi  Bi46  1  0.10072276  0.36445506  0.67748929  1
  Bi  Bi47  1  0.95074661  0.75000000  0.64706483  1
  Bi  Bi48  1  0.48651074  0.97156223  0.08298461  1
  Bi  Bi49  1  0.72091439  0.75000000  0.04486967  1
  Bi  Bi50  1  0.74416776  0.46321078  0.54272995  1
  Bi  Bi51  1  0.14274979  0.03428662  0.28902902  1
  Bi  Bi52  1  0.67133321  0.25000000  0.20960955  1
  Bi  Bi53  1  0.01348926  0.52843777  0.58298461  1
  Bi  Bi54  1  0.17133321  0.75000000  0.29039045  1
  Bi  Bi55  1  0.98651074  0.02843777  0.41701539  1
  Bi  Bi56  1  0.01059097  0.36402163  0.92086945  1
  Bi  Bi57  1  0.09291792  0.96860883  0.83353124  1
  Bi  Bi58  1  0.75583224  0.46321078  0.04272995  1
  Bi  Bi59  1  0.75583224  0.03678922  0.04272995  1
  Bi  Bi60  1  0.85725021  0.53428662  0.71097098  1
  Bi  Bi61  1  0.48940903  0.13597837  0.42086945  1
  Bi  Bi62  1  0.90708208  0.46860883  0.16646876  1
  Bi  Bi63  1  0.60072276  0.63554494  0.82251071  1
  Bi  Bi64  1  0.09291792  0.53139117  0.83353124  1
  Bi  Bi65  1  0.60072276  0.86445506  0.82251071  1
  Bi  Bi66  1  0.48815009  0.75000000  0.91590628  1
  Bi  Bi67  1  0.39927724  0.13554494  0.17748929  1
  Bi  Bi68  1  0.51059097  0.63597837  0.57913055  1
  Bi  Bi69  1  0.62954056  0.75000000  0.67121619  1
  Bi  Bi70  1  0.89927724  0.86445506  0.32251071  1
  Bi  Bi71  1  0.45074661  0.25000000  0.85293517  1
  Ir  Ir72  1  0.65381930  0.39924950  0.13510169  1
  Ir  Ir73  1  0.26829177  0.10075054  0.88136383  1
  Ir  Ir74  1  0.26829177  0.39924946  0.88136383  1
  Ir  Ir75  1  0.23170823  0.39924946  0.38136383  1
  Ir  Ir76  1  0.73170823  0.60075054  0.11863617  1
  Ir  Ir77  1  0.15381930  0.60075050  0.36489831  1
  Ir  Ir78  1  0.84618070  0.39924950  0.63510169  1
  Ir  Ir79  1  0.23170823  0.10075054  0.38136383  1
  Ir  Ir80  1  0.84618070  0.10075050  0.63510169  1
  Ir  Ir81  1  0.15381930  0.89924950  0.36489831  1
  Ir  Ir82  1  0.73170823  0.89924946  0.11863617  1
  Ir  Ir83  1  0.76829177  0.60075054  0.61863617  1
  Ir  Ir84  1  0.65381930  0.10075050  0.13510169  1
  Ir  Ir85  1  0.34618070  0.89924950  0.86489831  1
  Ir  Ir86  1  0.34618070  0.60075050  0.86489831  1
  Ir  Ir87  1  0.76829177  0.89924946  0.61863617  1
  I  I88  1  0.33857690  0.39700192  0.56312758  1
  I  I89  1  0.77334408  0.39735623  0.82189223  1
  I  I90  1  0.54514151  0.75000000  0.28024241  1
  I  I91  1  0.67019284  0.25000000  0.96867958  1
  I  I92  1  0.17019284  0.75000000  0.53132042  1
  I  I93  1  0.83857690  0.60299808  0.93687242  1
  I  I94  1  0.82980716  0.25000000  0.46867958  1
  I  I95  1  0.04514151  0.25000000  0.21975759  1
  I  I96  1  0.33857690  0.10299808  0.56312758  1
  I  I97  1  0.77334408  0.10264377  0.82189223  1
  I  I98  1  0.16142310  0.10299808  0.06312758  1
  I  I99  1  0.72665592  0.39735623  0.32189223  1
  I  I100  1  0.66142310  0.89700192  0.43687242  1
  I  I101  1  0.16142310  0.39700192  0.06312758  1
  I  I102  1  0.32980716  0.75000000  0.03132042  1
  I  I103  1  0.83857690  0.89700192  0.93687242  1
  I  I104  1  0.27334408  0.89735623  0.67810777  1
  I  I105  1  0.22665592  0.60264377  0.17810777  1
  I  I106  1  0.72665592  0.10264377  0.32189223  1
  I  I107  1  0.45485849  0.25000000  0.71975759  1
  I  I108  1  0.66142310  0.60299808  0.43687242  1
  I  I109  1  0.95485849  0.75000000  0.78024241  1
  I  I110  1  0.22665592  0.89735623  0.17810777  1
  I  I111  1  0.27334408  0.60264377  0.67810777  1
