# generated using pymatgen
data_KLiB4O7
_symmetry_space_group_name_H-M   'P 1'
_cell_length_a   8.59424400
_cell_length_b   11.38175400
_cell_length_c   12.79573800
_cell_angle_alpha   90.00000000
_cell_angle_beta   90.00000000
_cell_angle_gamma   90.00000000
_symmetry_Int_Tables_number   1
_chemical_formula_structural   KLiB4O7
_chemical_formula_sum   'K8 Li8 B32 O56'
_cell_volume   1251.64801062
_cell_formula_units_Z   8
loop_
 _symmetry_equiv_pos_site_id
 _symmetry_equiv_pos_as_xyz
  1  'x, y, z'
loop_
 _atom_site_type_symbol
 _atom_site_label
 _atom_site_symmetry_multiplicity
 _atom_site_fract_x
 _atom_site_fract_y
 _atom_site_fract_z
 _atom_site_occupancy
  K  K0  1  0.36118800  0.45312900  0.09841800  1
  K  K1  1  0.86118800  0.04687100  0.90158200  1
  K  K2  1  0.63881200  0.95312900  0.40158200  1
  K  K3  1  0.13881200  0.54687100  0.59841800  1
  K  K4  1  0.68548200  0.37624200  0.80526200  1
  K  K5  1  0.18548200  0.12375800  0.19473800  1
  K  K6  1  0.31451800  0.87624200  0.69473800  1
  K  K7  1  0.81451800  0.62375800  0.30526200  1
  Li  Li8  1  0.74190800  0.67245700  0.79774300  1
  Li  Li9  1  0.24190800  0.82754300  0.20225700  1
  Li  Li10  1  0.25809200  0.17245700  0.70225700  1
  Li  Li11  1  0.75809200  0.32754300  0.29774300  1
  Li  Li12  1  0.07036400  0.64621200  0.88035600  1
  Li  Li13  1  0.57036400  0.85378800  0.11964400  1
  Li  Li14  1  0.92963600  0.14621200  0.61964400  1
  Li  Li15  1  0.42963600  0.35378800  0.38035600  1
  B  B16  1  0.34218400  0.72964200  0.99517700  1
  B  B17  1  0.84218400  0.77035800  0.00482300  1
  B  B18  1  0.65781600  0.22964200  0.50482300  1
  B  B19  1  0.15781600  0.27035800  0.49517700  1
  B  B20  1  0.41153500  0.60453600  0.84172500  1
  B  B21  1  0.91153600  0.89546400  0.15827500  1
  B  B22  1  0.58846400  0.10453600  0.65827500  1
  B  B23  1  0.08846500  0.39546400  0.34172500  1
  B  B24  1  0.21844500  0.43028200  0.83573300  1
  B  B25  1  0.71844500  0.06971800  0.16426700  1
  B  B26  1  0.78155500  0.93028200  0.66426700  1
  B  B27  1  0.28155500  0.56971800  0.33573300  1
  B  B28  1  0.05741000  0.25252300  0.81001800  1
  B  B29  1  0.55741000  0.24747700  0.18998200  1
  B  B30  1  0.94259000  0.75252300  0.68998200  1
  B  B31  1  0.44259000  0.74747700  0.31001800  1
  B  B32  1  0.00175700  0.38662600  0.96319700  1
  B  B33  1  0.50175700  0.11337400  0.03680300  1
  B  B34  1  0.99824300  0.88662600  0.53680300  1
  B  B35  1  0.49824300  0.61337400  0.46319700  1
  B  B36  1  0.98365700  0.36786700  0.15812500  1
  B  B37  1  0.48365700  0.13213300  0.84187500  1
  B  B38  1  0.01634300  0.86786700  0.34187500  1
  B  B39  1  0.51634300  0.63213300  0.65812500  1
  B  B40  1  0.78909100  0.48535200  0.06656500  1
  B  B41  1  0.28909100  0.01464800  0.93343500  1
  B  B42  1  0.21090900  0.98535200  0.43343500  1
  B  B43  1  0.71090900  0.51464800  0.56656500  1
  B  B44  1  0.60622600  0.63458500  0.98942600  1
  B  B45  1  0.10622600  0.86541500  0.01057400  1
  B  B46  1  0.39377400  0.13458500  0.51057400  1
  B  B47  1  0.89377400  0.36541500  0.48942600  1
  O  O48  1  0.29944600  0.67890800  0.90159700  1
  O  O49  1  0.79944600  0.82109200  0.09840300  1
  O  O50  1  0.70055400  0.17890800  0.59840300  1
  O  O51  1  0.20055400  0.32109200  0.40159700  1
  O  O52  1  0.46524900  0.67810900  0.75084700  1
  O  O53  1  0.96524900  0.82189100  0.24915300  1
  O  O54  1  0.53475100  0.17810900  0.74915300  1
  O  O55  1  0.03475100  0.32189100  0.25084700  1
  O  O56  1  0.33192100  0.50047200  0.79531000  1
  O  O57  1  0.83192100  0.99952800  0.20469000  1
  O  O58  1  0.66807900  0.00047200  0.70469000  1
  O  O59  1  0.16807900  0.49952800  0.29531000  1
  O  O60  1  0.19191300  0.32289800  0.78611800  1
  O  O61  1  0.69191300  0.17710200  0.21388200  1
  O  O62  1  0.80808700  0.82289800  0.71388200  1
  O  O63  1  0.30808700  0.67710200  0.28611800  1
  O  O64  1  0.03189600  0.15763700  0.75187100  1
  O  O65  1  0.53189600  0.34236300  0.24812900  1
  O  O66  1  0.96810400  0.65763700  0.74812900  1
  O  O67  1  0.46810400  0.84236300  0.25187100  1
  O  O68  1  0.96582200  0.28725600  0.89393700  1
  O  O69  1  0.46582200  0.21274400  0.10606300  1
  O  O70  1  0.03417800  0.78725600  0.60606300  1
  O  O71  1  0.53417800  0.71274400  0.39393700  1
  O  O72  1  0.12642500  0.46395600  0.91888000  1
  O  O73  1  0.62642500  0.03604400  0.08112000  1
  O  O74  1  0.87357500  0.96395600  0.58112000  1
  O  O75  1  0.37357500  0.53604400  0.41888000  1
  O  O76  1  0.86030500  0.45888900  0.97424300  1
  O  O77  1  0.36030500  0.04111100  0.02575700  1
  O  O78  1  0.13969500  0.95888900  0.52575700  1
  O  O79  1  0.63969500  0.54111100  0.47424300  1
  O  O80  1  0.05729500  0.34274600  0.06646200  1
  O  O81  1  0.55729500  0.15725400  0.93353800  1
  O  O82  1  0.94270500  0.84274600  0.43353800  1
  O  O83  1  0.44270500  0.65725400  0.56646200  1
  O  O84  1  0.84818800  0.43717400  0.16069900  1
  O  O85  1  0.34818800  0.06282600  0.83930100  1
  O  O86  1  0.15181200  0.93717400  0.33930100  1
  O  O87  1  0.65181200  0.56282600  0.66069900  1
  O  O88  1  0.66450700  0.55813200  0.07589500  1
  O  O89  1  0.16450700  0.94186800  0.92410500  1
  O  O90  1  0.33549300  0.05813200  0.42410500  1
  O  O91  1  0.83549300  0.44186800  0.57589500  1
  O  O92  1  0.53970800  0.56418900  0.90607000  1
  O  O93  1  0.03970800  0.93581100  0.09393000  1
  O  O94  1  0.46029200  0.06418900  0.59393000  1
  O  O95  1  0.96029200  0.43581100  0.40607000  1
  O  O96  1  0.73830600  0.70522000  0.94713200  1
  O  O97  1  0.23830600  0.79478000  0.05286800  1
  O  O98  1  0.26169400  0.20522000  0.55286800  1
  O  O99  1  0.76169400  0.29478000  0.44713200  1
  O  O100  1  0.48873900  0.71491300  0.03678200  1
  O  O101  1  0.98873900  0.78508700  0.96321800  1
  O  O102  1  0.51126100  0.21491300  0.46321800  1
  O  O103  1  0.01126100  0.28508700  0.53678200  1
