# generated using pymatgen
data_CaInPd
_symmetry_space_group_name_H-M   'P 1'
_cell_length_a   4.35555500
_cell_length_b   7.42895400
_cell_length_c   8.61585100
_cell_angle_alpha   90.00000000
_cell_angle_beta   90.00000000
_cell_angle_gamma   90.00000000
_symmetry_Int_Tables_number   1
_chemical_formula_structural   CaInPd
_chemical_formula_sum   'Ca4 In4 Pd4'
_cell_volume   278.78496682
_cell_formula_units_Z   4
loop_
 _symmetry_equiv_pos_site_id
 _symmetry_equiv_pos_as_xyz
  1  'x, y, z'
loop_
 _atom_site_type_symbol
 _atom_site_label
 _atom_site_symmetry_multiplicity
 _atom_site_fract_x
 _atom_site_fract_y
 _atom_site_fract_z
 _atom_site_occupancy
  Ca  Ca0  1  0.75000000  0.03188400  0.32253000  1
  Ca  Ca1  1  0.25000000  0.46811600  0.82253000  1
  Ca  Ca2  1  0.75000000  0.53188400  0.17747000  1
  Ca  Ca3  1  0.25000000  0.96811600  0.67747000  1
  In  In4  1  0.25000000  0.85360300  0.06232100  1
  In  In5  1  0.25000000  0.35360300  0.43767900  1
  In  In6  1  0.75000000  0.64639700  0.56232100  1
  In  In7  1  0.75000000  0.14639700  0.93767900  1
  Pd  Pd8  1  0.25000000  0.73216000  0.37111900  1
  Pd  Pd9  1  0.75000000  0.26784000  0.62888100  1
  Pd  Pd10  1  0.75000000  0.76784000  0.87111900  1
  Pd  Pd11  1  0.25000000  0.23216000  0.12888100  1
