# generated using pymatgen
data_K2SiAs2
_symmetry_space_group_name_H-M   'P 1'
_cell_length_a   8.24891628
_cell_length_b   8.24891628
_cell_length_c   8.24891628
_cell_angle_alpha   134.05713554
_cell_angle_beta   129.21854552
_cell_angle_gamma   70.87346711
_symmetry_Int_Tables_number   1
_chemical_formula_structural   K2SiAs2
_chemical_formula_sum   'K4 Si2 As4'
_cell_volume   306.11841889
_cell_formula_units_Z   2
loop_
 _symmetry_equiv_pos_site_id
 _symmetry_equiv_pos_as_xyz
  1  'x, y, z'
loop_
 _atom_site_type_symbol
 _atom_site_label
 _atom_site_symmetry_multiplicity
 _atom_site_fract_x
 _atom_site_fract_y
 _atom_site_fract_z
 _atom_site_occupancy
  K  K0  1  0.02177200  0.85688300  0.16488900  1
  K  K1  1  0.69199400  0.35688300  0.33511100  1
  K  K2  1  0.30800600  0.64311700  0.66488900  1
  K  K3  1  0.97822800  0.14311700  0.83511100  1
  Si  Si4  1  0.50000000  0.25000000  0.75000000  1
  Si  Si5  1  0.50000000  0.75000000  0.25000000  1
  As  As6  1  0.76606800  0.60090500  0.16516300  1
  As  As7  1  0.43574300  0.10090500  0.33483700  1
  As  As8  1  0.56425700  0.89909500  0.66516300  1
  As  As9  1  0.23393200  0.39909500  0.83483700  1
