# generated using pymatgen
data_Zr5ZnPb3
_symmetry_space_group_name_H-M   'P 1'
_cell_length_a   8.83727778
_cell_length_b   8.83727778
_cell_length_c   5.95635200
_cell_angle_alpha   90.00000000
_cell_angle_beta   90.00000000
_cell_angle_gamma   119.99999839
_symmetry_Int_Tables_number   1
_chemical_formula_structural   Zr5ZnPb3
_chemical_formula_sum   'Zr10 Zn2 Pb6'
_cell_volume   402.85430311
_cell_formula_units_Z   2
loop_
 _symmetry_equiv_pos_site_id
 _symmetry_equiv_pos_as_xyz
  1  'x, y, z'
loop_
 _atom_site_type_symbol
 _atom_site_label
 _atom_site_symmetry_multiplicity
 _atom_site_fract_x
 _atom_site_fract_y
 _atom_site_fract_z
 _atom_site_occupancy
  Zr  Zr0  1  0.33333300  0.66666700  0.00000000  1
  Zr  Zr1  1  0.66666700  0.33333300  0.50000000  1
  Zr  Zr2  1  0.66666700  0.33333300  0.00000000  1
  Zr  Zr3  1  0.33333300  0.66666700  0.50000000  1
  Zr  Zr4  1  0.26659900  0.00000000  0.25000000  1
  Zr  Zr5  1  0.26659900  0.26659900  0.75000000  1
  Zr  Zr6  1  0.00000000  0.73340100  0.75000000  1
  Zr  Zr7  1  0.00000000  0.26659900  0.25000000  1
  Zr  Zr8  1  0.73340100  0.73340100  0.25000000  1
  Zr  Zr9  1  0.73340100  0.00000000  0.75000000  1
  Zn  Zn10  1  0.00000000  0.00000000  0.00000000  1
  Zn  Zn11  1  0.00000000  0.00000000  0.50000000  1
  Pb  Pb12  1  0.61594200  0.00000000  0.25000000  1
  Pb  Pb13  1  0.61594200  0.61594200  0.75000000  1
  Pb  Pb14  1  0.00000000  0.38405800  0.75000000  1
  Pb  Pb15  1  0.00000000  0.61594200  0.25000000  1
  Pb  Pb16  1  0.38405800  0.38405800  0.25000000  1
  Pb  Pb17  1  0.38405800  0.00000000  0.75000000  1
