# generated using pymatgen
data_UTe5
_symmetry_space_group_name_H-M   'P 1'
_cell_length_a   4.28396800
_cell_length_b   10.31211400
_cell_length_c   18.38289200
_cell_angle_alpha   90.00000000
_cell_angle_beta   90.00000000
_cell_angle_gamma   90.00000000
_symmetry_Int_Tables_number   1
_chemical_formula_structural   UTe5
_chemical_formula_sum   'U4 Te20'
_cell_volume   812.09672543
_cell_formula_units_Z   4
loop_
 _symmetry_equiv_pos_site_id
 _symmetry_equiv_pos_as_xyz
  1  'x, y, z'
loop_
 _atom_site_type_symbol
 _atom_site_label
 _atom_site_symmetry_multiplicity
 _atom_site_fract_x
 _atom_site_fract_y
 _atom_site_fract_z
 _atom_site_occupancy
  U  U0  1  0.38557600  0.24739800  0.59044600  1
  U  U1  1  0.61442400  0.74739800  0.40955400  1
  U  U2  1  0.88557600  0.74739800  0.90955400  1
  U  U3  1  0.11442400  0.24739800  0.09044600  1
  Te  Te4  1  0.61304400  0.43636100  0.15857000  1
  Te  Te5  1  0.37499300  0.74737600  0.03622100  1
  Te  Te6  1  0.12500700  0.74737600  0.53622100  1
  Te  Te7  1  0.11304400  0.93636100  0.34143000  1
  Te  Te8  1  0.02243600  0.99175300  0.00398300  1
  Te  Te9  1  0.66084300  0.75772300  0.74301600  1
  Te  Te10  1  0.62500700  0.24737600  0.96377900  1
  Te  Te11  1  0.16084300  0.25772300  0.75698400  1
  Te  Te12  1  0.52243600  0.49175300  0.49601700  1
  Te  Te13  1  0.47756400  0.99175300  0.50398300  1
  Te  Te14  1  0.38563500  0.56808800  0.83458400  1
  Te  Te15  1  0.97756400  0.49175300  0.99601700  1
  Te  Te16  1  0.11436500  0.56808800  0.33458400  1
  Te  Te17  1  0.38695600  0.93636100  0.84143000  1
  Te  Te18  1  0.88563500  0.06808800  0.66541600  1
  Te  Te19  1  0.83915700  0.75772300  0.24301600  1
  Te  Te20  1  0.61436500  0.06808800  0.16541600  1
  Te  Te21  1  0.88695600  0.43636100  0.65857000  1
  Te  Te22  1  0.87499300  0.24737600  0.46377900  1
  Te  Te23  1  0.33915700  0.25772300  0.25698400  1
