# generated using pymatgen
data_RbV2SeO7
_symmetry_space_group_name_H-M   'P 1'
_cell_length_a   5.53949000
_cell_length_b   7.20656000
_cell_length_c   18.86288700
_cell_angle_alpha   90.00000000
_cell_angle_beta   90.00000000
_cell_angle_gamma   90.00000000
_symmetry_Int_Tables_number   1
_chemical_formula_structural   RbV2SeO7
_chemical_formula_sum   'Rb4 V8 Se4 O28'
_cell_volume   753.01903161
_cell_formula_units_Z   4
loop_
 _symmetry_equiv_pos_site_id
 _symmetry_equiv_pos_as_xyz
  1  'x, y, z'
loop_
 _atom_site_type_symbol
 _atom_site_label
 _atom_site_symmetry_multiplicity
 _atom_site_fract_x
 _atom_site_fract_y
 _atom_site_fract_z
 _atom_site_occupancy
  Rb  Rb0  1  0.25000000  0.24710700  0.53347300  1
  Rb  Rb1  1  0.75000000  0.74710700  0.96652700  1
  Rb  Rb2  1  0.25000000  0.25289300  0.03347300  1
  Rb  Rb3  1  0.75000000  0.75289300  0.46652700  1
  V  V4  1  0.25000000  0.73026300  0.62251500  1
  V  V5  1  0.25000000  0.55836300  0.31249000  1
  V  V6  1  0.75000000  0.26973700  0.37748500  1
  V  V7  1  0.75000000  0.05836300  0.18751000  1
  V  V8  1  0.25000000  0.94163700  0.81249000  1
  V  V9  1  0.25000000  0.76973700  0.12251500  1
  V  V10  1  0.75000000  0.44163700  0.68751000  1
  V  V11  1  0.75000000  0.23026300  0.87748500  1
  Se  Se12  1  0.75000000  0.51654100  0.15285600  1
  Se  Se13  1  0.25000000  0.01654100  0.34714400  1
  Se  Se14  1  0.75000000  0.98345900  0.65285600  1
  Se  Se15  1  0.25000000  0.48345900  0.84714400  1
  O  O16  1  0.25000000  0.64488200  0.54072900  1
  O  O17  1  0.98848700  0.92730300  0.59893600  1
  O  O18  1  0.50381000  0.43222900  0.33319600  1
  O  O19  1  0.49619000  0.56777100  0.66680400  1
  O  O20  1  0.01151300  0.07269700  0.40106400  1
  O  O21  1  0.75000000  0.38012700  0.77382300  1
  O  O22  1  0.48848700  0.42730300  0.90106400  1
  O  O23  1  0.25000000  0.72603600  0.86767200  1
  O  O24  1  0.00381000  0.93222900  0.16680400  1
  O  O25  1  0.75000000  0.27396400  0.13232800  1
  O  O26  1  0.00381000  0.56777100  0.66680400  1
  O  O27  1  0.99619000  0.06777100  0.83319600  1
  O  O28  1  0.48848700  0.07269700  0.40106400  1
  O  O29  1  0.49619000  0.93222900  0.16680400  1
  O  O30  1  0.50381000  0.06777100  0.83319600  1
  O  O31  1  0.75000000  0.35511800  0.45927100  1
  O  O32  1  0.25000000  0.77396400  0.36767200  1
  O  O33  1  0.75000000  0.11987300  0.27382300  1
  O  O34  1  0.75000000  0.22603600  0.63232800  1
  O  O35  1  0.25000000  0.61987300  0.22617700  1
  O  O36  1  0.25000000  0.85511800  0.04072900  1
  O  O37  1  0.51151300  0.92730300  0.59893600  1
  O  O38  1  0.75000000  0.14488200  0.95927100  1
  O  O39  1  0.98848700  0.57269700  0.09893600  1
  O  O40  1  0.01151300  0.42730300  0.90106400  1
  O  O41  1  0.51151300  0.57269700  0.09893600  1
  O  O42  1  0.99619000  0.43222900  0.33319600  1
  O  O43  1  0.25000000  0.88012700  0.72617700  1
