# generated using pymatgen
data_NaP3(PbO3)4
_symmetry_space_group_name_H-M   'P 1'
_cell_length_a   9.87025202
_cell_length_b   9.87025202
_cell_length_c   7.32504700
_cell_angle_alpha   90.00000000
_cell_angle_beta   90.00000000
_cell_angle_gamma   120.00000015
_symmetry_Int_Tables_number   1
_chemical_formula_structural   NaP3(PbO3)4
_chemical_formula_sum   'Na2 P6 Pb8 O24'
_cell_volume   618.01288588
_cell_formula_units_Z   2
loop_
 _symmetry_equiv_pos_site_id
 _symmetry_equiv_pos_as_xyz
  1  'x, y, z'
loop_
 _atom_site_type_symbol
 _atom_site_label
 _atom_site_symmetry_multiplicity
 _atom_site_fract_x
 _atom_site_fract_y
 _atom_site_fract_z
 _atom_site_occupancy
  Na  Na0  1  0.33333300  0.66666700  0.50643300  1
  Na  Na1  1  0.66666700  0.33333300  0.00643300  1
  P  P2  1  0.02073400  0.39574800  0.25136300  1
  P  P3  1  0.37501300  0.97926600  0.25136300  1
  P  P4  1  0.39574800  0.37501300  0.75136300  1
  P  P5  1  0.60425200  0.62498700  0.25136300  1
  P  P6  1  0.62498700  0.02073400  0.75136300  1
  P  P7  1  0.97926600  0.60425200  0.75136300  1
  Pb  Pb8  1  0.25852100  0.00136700  0.74963000  1
  Pb  Pb9  1  0.99863300  0.25715400  0.74963000  1
  Pb  Pb10  1  0.33333300  0.66666700  0.98858300  1
  Pb  Pb11  1  0.25715400  0.25852100  0.24963000  1
  Pb  Pb12  1  0.74284600  0.74147900  0.74963000  1
  Pb  Pb13  1  0.66666700  0.33333300  0.48858300  1
  Pb  Pb14  1  0.00136700  0.74284600  0.24963000  1
  Pb  Pb15  1  0.74147900  0.99863300  0.24963000  1
  O  O16  1  0.26630700  0.91774200  0.07930600  1
  O  O17  1  0.26295100  0.92377000  0.41912800  1
  O  O18  1  0.10422500  0.57948600  0.25626300  1
  O  O19  1  0.15915700  0.67747500  0.74597200  1
  O  O20  1  0.08225800  0.34856500  0.07930600  1
  O  O21  1  0.07623000  0.33918100  0.41912800  1
  O  O22  1  0.47526100  0.89577500  0.25626300  1
  O  O23  1  0.32252500  0.48168300  0.74597200  1
  O  O24  1  0.51831700  0.84084300  0.74597200  1
  O  O25  1  0.42051400  0.52473900  0.25626300  1
  O  O26  1  0.34856500  0.26630700  0.57930600  1
  O  O27  1  0.33918100  0.26295100  0.91912800  1
  O  O28  1  0.65143500  0.73369300  0.07930600  1
  O  O29  1  0.66081900  0.73704900  0.41912800  1
  O  O30  1  0.57948600  0.47526100  0.75626300  1
  O  O31  1  0.48168300  0.15915700  0.24597200  1
  O  O32  1  0.67747500  0.51831700  0.24597200  1
  O  O33  1  0.52473900  0.10422500  0.75626300  1
  O  O34  1  0.91774200  0.65143500  0.57930600  1
  O  O35  1  0.92377000  0.66081900  0.91912800  1
  O  O36  1  0.84084300  0.32252500  0.24597200  1
  O  O37  1  0.89577500  0.42051400  0.75626300  1
  O  O38  1  0.73369300  0.08225800  0.57930600  1
  O  O39  1  0.73704900  0.07623000  0.91912800  1
