# generated using pymatgen
data_RbLiB4O7
_symmetry_space_group_name_H-M   'P 1'
_cell_length_a   8.81127000
_cell_length_b   11.45887600
_cell_length_c   13.07206200
_cell_angle_alpha   90.00000000
_cell_angle_beta   90.00000000
_cell_angle_gamma   90.00000000
_symmetry_Int_Tables_number   1
_chemical_formula_structural   RbLiB4O7
_chemical_formula_sum   'Rb8 Li8 B32 O56'
_cell_volume   1319.85015632
_cell_formula_units_Z   8
loop_
 _symmetry_equiv_pos_site_id
 _symmetry_equiv_pos_as_xyz
  1  'x, y, z'
loop_
 _atom_site_type_symbol
 _atom_site_label
 _atom_site_symmetry_multiplicity
 _atom_site_fract_x
 _atom_site_fract_y
 _atom_site_fract_z
 _atom_site_occupancy
  Rb  Rb0  1  0.36622800  0.45458100  0.09979000  1
  Rb  Rb1  1  0.86622800  0.04541900  0.90021000  1
  Rb  Rb2  1  0.63377200  0.95458100  0.40021000  1
  Rb  Rb3  1  0.13377200  0.54541900  0.59979000  1
  Rb  Rb4  1  0.69165600  0.37339600  0.79256700  1
  Rb  Rb5  1  0.19165600  0.12660400  0.20743300  1
  Rb  Rb6  1  0.30834400  0.87339600  0.70743300  1
  Rb  Rb7  1  0.80834400  0.62660400  0.29256700  1
  Li  Li8  1  0.75480000  0.67281700  0.80789600  1
  Li  Li9  1  0.25480000  0.82718300  0.19210400  1
  Li  Li10  1  0.24520000  0.17281700  0.69210400  1
  Li  Li11  1  0.74520000  0.32718300  0.30789600  1
  Li  Li12  1  0.08152500  0.64606600  0.88127500  1
  Li  Li13  1  0.58152500  0.85393400  0.11872500  1
  Li  Li14  1  0.91847500  0.14606600  0.61872500  1
  Li  Li15  1  0.41847500  0.35393400  0.38127500  1
  B  B16  1  0.36410300  0.72404900  0.98775800  1
  B  B17  1  0.86410300  0.77595100  0.01224200  1
  B  B18  1  0.63589700  0.22404900  0.51224200  1
  B  B19  1  0.13589700  0.27595100  0.48775800  1
  B  B20  1  0.43016600  0.59747900  0.83634300  1
  B  B21  1  0.93016600  0.90252100  0.16365700  1
  B  B22  1  0.56983400  0.09747900  0.66365700  1
  B  B23  1  0.06983400  0.40252100  0.33634300  1
  B  B24  1  0.23750600  0.42181700  0.84145400  1
  B  B25  1  0.73750600  0.07818300  0.15854600  1
  B  B26  1  0.76249400  0.92181700  0.65854600  1
  B  B27  1  0.26249400  0.57818300  0.34145400  1
  B  B28  1  0.06534000  0.25541900  0.80600900  1
  B  B29  1  0.56534000  0.24458100  0.19399100  1
  B  B30  1  0.93466000  0.75541900  0.69399100  1
  B  B31  1  0.43466000  0.74458100  0.30600900  1
  B  B32  1  0.00874800  0.39110300  0.95308600  1
  B  B33  1  0.50874800  0.10889700  0.04691400  1
  B  B34  1  0.99125200  0.89110300  0.54691400  1
  B  B35  1  0.49125200  0.60889700  0.45308600  1
  B  B36  1  0.99483300  0.37932300  0.14445000  1
  B  B37  1  0.49483300  0.12067700  0.85555000  1
  B  B38  1  0.00516700  0.87932300  0.35555000  1
  B  B39  1  0.50516700  0.62067700  0.64445000  1
  B  B40  1  0.79947400  0.48708100  0.05246700  1
  B  B41  1  0.29947400  0.01291900  0.94753300  1
  B  B42  1  0.20052600  0.98708100  0.44753300  1
  B  B43  1  0.70052600  0.51291900  0.55246700  1
  B  B44  1  0.62849700  0.64360800  0.97919100  1
  B  B45  1  0.12849700  0.85639200  0.02080900  1
  B  B46  1  0.37150300  0.14360800  0.52080900  1
  B  B47  1  0.87150300  0.35639200  0.47919100  1
  O  O48  1  0.32099400  0.66969200  0.89808600  1
  O  O49  1  0.82099400  0.83030800  0.10191400  1
  O  O50  1  0.67900600  0.16969200  0.60191400  1
  O  O51  1  0.17900600  0.33030800  0.39808600  1
  O  O52  1  0.43448500  0.65175500  0.73300700  1
  O  O53  1  0.93448500  0.84824500  0.26699300  1
  O  O54  1  0.56551500  0.15175500  0.76699300  1
  O  O55  1  0.06551500  0.34824500  0.23300700  1
  O  O56  1  0.37065900  0.47631300  0.82039300  1
  O  O57  1  0.87065900  0.02368700  0.17960700  1
  O  O58  1  0.62934100  0.97631300  0.67960700  1
  O  O59  1  0.12934100  0.52368700  0.32039300  1
  O  O60  1  0.20625800  0.31691800  0.79009100  1
  O  O61  1  0.70625800  0.18308200  0.20990900  1
  O  O62  1  0.79374200  0.81691800  0.70990900  1
  O  O63  1  0.29374200  0.68308200  0.29009100  1
  O  O64  1  0.03314000  0.16609800  0.74431500  1
  O  O65  1  0.53314000  0.33390200  0.25568500  1
  O  O66  1  0.96686000  0.66609800  0.75568500  1
  O  O67  1  0.46686000  0.83390200  0.24431500  1
  O  O68  1  0.97388400  0.29178100  0.88597200  1
  O  O69  1  0.47388400  0.20821900  0.11402800  1
  O  O70  1  0.02611600  0.79178100  0.61402800  1
  O  O71  1  0.52611600  0.70821900  0.38597200  1
  O  O72  1  0.13169700  0.46638800  0.90900200  1
  O  O73  1  0.63169700  0.03361200  0.09099800  1
  O  O74  1  0.86830300  0.96638800  0.59099800  1
  O  O75  1  0.36830300  0.53361200  0.40900200  1
  O  O76  1  0.87210600  0.46425100  0.96254000  1
  O  O77  1  0.37210600  0.03574900  0.03746000  1
  O  O78  1  0.12789400  0.96425100  0.53746000  1
  O  O79  1  0.62789400  0.53574900  0.46254000  1
  O  O80  1  0.06210300  0.34883800  0.05394600  1
  O  O81  1  0.56210300  0.15116200  0.94605400  1
  O  O82  1  0.93789700  0.84883800  0.44605400  1
  O  O83  1  0.43789700  0.65116200  0.55394600  1
  O  O84  1  0.85711300  0.44142400  0.14525200  1
  O  O85  1  0.35711300  0.05857600  0.85474800  1
  O  O86  1  0.14288700  0.94142400  0.35474800  1
  O  O87  1  0.64288700  0.55857600  0.64525200  1
  O  O88  1  0.67335900  0.55590100  0.05891300  1
  O  O89  1  0.17335900  0.94409900  0.94108700  1
  O  O90  1  0.32664100  0.05590100  0.44108700  1
  O  O91  1  0.82664100  0.44409900  0.55891300  1
  O  O92  1  0.57973200  0.59186100  0.88256700  1
  O  O93  1  0.07973200  0.90813900  0.11743300  1
  O  O94  1  0.42026800  0.09186100  0.61743300  1
  O  O95  1  0.92026800  0.40813900  0.38256700  1
  O  O96  1  0.76239700  0.71611800  0.95296600  1
  O  O97  1  0.26239700  0.78388200  0.04703400  1
  O  O98  1  0.23760300  0.21611800  0.54703400  1
  O  O99  1  0.73760300  0.28388200  0.45296600  1
  O  O100  1  0.50948400  0.71704600  0.02630600  1
  O  O101  1  0.00948400  0.78295400  0.97369400  1
  O  O102  1  0.49051600  0.21704600  0.47369400  1
  O  O103  1  0.99051600  0.28295400  0.52630600  1
