# generated using pymatgen
data_RbUN3O11
_symmetry_space_group_name_H-M   'P 1'
_cell_length_a   8.55063597
_cell_length_b   8.55063597
_cell_length_c   8.55063598
_cell_angle_alpha   69.84077865
_cell_angle_beta   69.84077865
_cell_angle_gamma   69.84077266
_symmetry_Int_Tables_number   1
_chemical_formula_structural   RbUN3O11
_chemical_formula_sum   'Rb2 U2 N6 O22'
_cell_volume   532.51271163
_cell_formula_units_Z   2
loop_
 _symmetry_equiv_pos_site_id
 _symmetry_equiv_pos_as_xyz
  1  'x, y, z'
loop_
 _atom_site_type_symbol
 _atom_site_label
 _atom_site_symmetry_multiplicity
 _atom_site_fract_x
 _atom_site_fract_y
 _atom_site_fract_z
 _atom_site_occupancy
  Rb  Rb0  1  0.00000000  0.00000000  0.00000000  1
  Rb  Rb1  1  0.50000000  0.50000000  0.50000000  1
  U  U2  1  0.25000000  0.25000000  0.25000000  1
  U  U3  1  0.75000000  0.75000000  0.75000000  1
  N  N4  1  0.75000000  0.05025500  0.44974500  1
  N  N5  1  0.44974500  0.75000000  0.05025500  1
  N  N6  1  0.05025500  0.44974500  0.75000000  1
  N  N7  1  0.25000000  0.94974500  0.55025500  1
  N  N8  1  0.55025500  0.25000000  0.94974500  1
  N  N9  1  0.94974500  0.55025500  0.25000000  1
  O  O10  1  0.84350000  0.84350000  0.84350000  1
  O  O11  1  0.65650000  0.65650000  0.65650000  1
  O  O12  1  0.34350000  0.34350000  0.34350000  1
  O  O13  1  0.15650000  0.15650000  0.15650000  1
  O  O14  1  0.87182700  0.90955100  0.45057900  1
  O  O15  1  0.04942100  0.59044900  0.62817300  1
  O  O16  1  0.59044900  0.62817300  0.04942100  1
  O  O17  1  0.62817300  0.04942100  0.59044900  1
  O  O18  1  0.82440500  0.67559500  0.25000000  1
  O  O19  1  0.67559500  0.25000000  0.82440500  1
  O  O20  1  0.25000000  0.82440500  0.67559500  1
  O  O21  1  0.17559500  0.32440500  0.75000000  1
  O  O22  1  0.32440500  0.75000000  0.17559500  1
  O  O23  1  0.75000000  0.17559500  0.32440500  1
  O  O24  1  0.09044900  0.54942100  0.12817300  1
  O  O25  1  0.54942100  0.12817300  0.09044900  1
  O  O26  1  0.12817300  0.09044900  0.54942100  1
  O  O27  1  0.95057900  0.40955100  0.37182700  1
  O  O28  1  0.40955100  0.37182700  0.95057900  1
  O  O29  1  0.37182700  0.95057900  0.40955100  1
  O  O30  1  0.90955100  0.45057900  0.87182700  1
  O  O31  1  0.45057900  0.87182700  0.90955100  1
