# generated using pymatgen
data_Rb3Ti3(PO4)5
_symmetry_space_group_name_H-M   'P 1'
_cell_length_a   6.37670100
_cell_length_b   15.03829500
_cell_length_c   18.62352100
_cell_angle_alpha   90.00000000
_cell_angle_beta   90.00000000
_cell_angle_gamma   90.00000000
_symmetry_Int_Tables_number   1
_chemical_formula_structural   Rb3Ti3(PO4)5
_chemical_formula_sum   'Rb12 Ti12 P20 O80'
_cell_volume   1785.89715972
_cell_formula_units_Z   4
loop_
 _symmetry_equiv_pos_site_id
 _symmetry_equiv_pos_as_xyz
  1  'x, y, z'
loop_
 _atom_site_type_symbol
 _atom_site_label
 _atom_site_symmetry_multiplicity
 _atom_site_fract_x
 _atom_site_fract_y
 _atom_site_fract_z
 _atom_site_occupancy
  Rb  Rb0  1  0.36577500  0.22392400  0.35092900  1
  Rb  Rb1  1  0.63422500  0.72392400  0.64907100  1
  Rb  Rb2  1  0.63422500  0.22392400  0.85092900  1
  Rb  Rb3  1  0.36577500  0.72392400  0.14907100  1
  Rb  Rb4  1  0.34288500  0.44527500  0.17563900  1
  Rb  Rb5  1  0.65711500  0.94527500  0.82436100  1
  Rb  Rb6  1  0.65711500  0.44527500  0.67563900  1
  Rb  Rb7  1  0.34288500  0.94527500  0.32436100  1
  Rb  Rb8  1  0.36705500  0.16909700  0.15259000  1
  Rb  Rb9  1  0.63294500  0.66909700  0.84741000  1
  Rb  Rb10  1  0.63294500  0.16909700  0.65259000  1
  Rb  Rb11  1  0.36705500  0.66909700  0.34741000  1
  Ti  Ti12  1  0.75510200  0.33262100  0.05080300  1
  Ti  Ti13  1  0.24489800  0.83262100  0.94919700  1
  Ti  Ti14  1  0.24489800  0.33262100  0.55080300  1
  Ti  Ti15  1  0.75510200  0.83262100  0.44919700  1
  Ti  Ti16  1  0.74839800  0.94324000  0.14675800  1
  Ti  Ti17  1  0.25160200  0.44324000  0.85324200  1
  Ti  Ti18  1  0.25160200  0.94324000  0.64675800  1
  Ti  Ti19  1  0.74839800  0.44324000  0.35324200  1
  Ti  Ti20  1  0.24489900  0.06961700  0.95479200  1
  Ti  Ti21  1  0.75510100  0.56961700  0.04520800  1
  Ti  Ti22  1  0.75510100  0.06961700  0.45479200  1
  Ti  Ti23  1  0.24489900  0.56961700  0.54520800  1
  P  P24  1  0.85746300  0.09623700  0.27688300  1
  P  P25  1  0.14253700  0.59623700  0.72311700  1
  P  P26  1  0.14253700  0.09623700  0.77688300  1
  P  P27  1  0.85746300  0.59623700  0.22311700  1
  P  P28  1  0.25391500  0.30177000  0.00075000  1
  P  P29  1  0.74608500  0.80177000  0.99925000  1
  P  P30  1  0.74608500  0.30177000  0.50075000  1
  P  P31  1  0.25391500  0.80177000  0.49925000  1
  P  P32  1  0.24677300  0.94608400  0.10124700  1
  P  P33  1  0.75322700  0.44608400  0.89875300  1
  P  P34  1  0.75322700  0.94608400  0.60124700  1
  P  P35  1  0.24677300  0.44608400  0.39875300  1
  P  P36  1  0.74590000  0.09940400  0.00918400  1
  P  P37  1  0.25410000  0.59940400  0.99081600  1
  P  P38  1  0.25410000  0.09940400  0.50918400  1
  P  P39  1  0.74590000  0.59940400  0.49081600  1
  P  P40  1  0.85585300  0.28762500  0.22651800  1
  P  P41  1  0.14414700  0.78762500  0.77348200  1
  P  P42  1  0.14414700  0.28762500  0.72651800  1
  P  P43  1  0.85585300  0.78762500  0.27348200  1
  O  O44  1  0.74007900  0.85916000  0.06832900  1
  O  O45  1  0.25992100  0.35916000  0.93167100  1
  O  O46  1  0.25992100  0.85916000  0.56832900  1
  O  O47  1  0.74007900  0.35916000  0.43167100  1
  O  O48  1  0.44269500  0.32615300  0.04960700  1
  O  O49  1  0.55730500  0.82615300  0.95039300  1
  O  O50  1  0.55730500  0.32615300  0.54960700  1
  O  O51  1  0.44269500  0.82615300  0.45039300  1
  O  O52  1  0.94197500  0.07653400  0.96358900  1
  O  O53  1  0.05802500  0.57653400  0.03641100  1
  O  O54  1  0.05802500  0.07653400  0.46358900  1
  O  O55  1  0.94197500  0.57653400  0.53641100  1
  O  O56  1  0.74153800  0.19853100  0.02832100  1
  O  O57  1  0.25846200  0.69853100  0.97167900  1
  O  O58  1  0.25846200  0.19853100  0.52832100  1
  O  O59  1  0.74153800  0.69853100  0.47167900  1
  O  O60  1  0.74174700  0.83969600  0.21350600  1
  O  O61  1  0.25825300  0.33969600  0.78649400  1
  O  O62  1  0.25825300  0.83969600  0.71350600  1
  O  O63  1  0.74174700  0.33969600  0.28649400  1
  O  O64  1  0.74498000  0.02315500  0.23283300  1
  O  O65  1  0.25502000  0.52315500  0.76716700  1
  O  O66  1  0.25502000  0.02315500  0.73283300  1
  O  O67  1  0.74498000  0.52315500  0.26716700  1
  O  O68  1  0.77173400  0.18578500  0.23697200  1
  O  O69  1  0.22826600  0.68578500  0.76302800  1
  O  O70  1  0.22826600  0.18578500  0.73697200  1
  O  O71  1  0.77173400  0.68578500  0.26302800  1
  O  O72  1  0.75150000  0.45235100  0.06947200  1
  O  O73  1  0.24850000  0.95235100  0.93052800  1
  O  O74  1  0.25846800  0.20292300  0.98162700  1
  O  O75  1  0.24850000  0.45235100  0.56947200  1
  O  O76  1  0.24867400  0.10296000  0.85156500  1
  O  O77  1  0.75132600  0.60296000  0.14843500  1
  O  O78  1  0.75132600  0.10296000  0.35156500  1
  O  O79  1  0.24867400  0.60296000  0.64843500  1
  O  O80  1  0.74667500  0.30973700  0.15468400  1
  O  O81  1  0.25332500  0.80973700  0.84531600  1
  O  O82  1  0.25332500  0.30973700  0.65468400  1
  O  O83  1  0.74667500  0.80973700  0.34531600  1
  O  O84  1  0.09253700  0.09359600  0.27757600  1
  O  O85  1  0.90746300  0.59359600  0.72242400  1
  O  O86  1  0.90746300  0.09359600  0.77757600  1
  O  O87  1  0.09253700  0.59359600  0.22242400  1
  O  O88  1  0.09063800  0.79207600  0.27293000  1
  O  O89  1  0.90936200  0.29207600  0.72707000  1
  O  O90  1  0.90936200  0.79207600  0.77293000  1
  O  O91  1  0.09063800  0.29207600  0.22707000  1
  O  O92  1  0.55766400  0.57532400  0.54032600  1
  O  O93  1  0.44233600  0.07532400  0.45967400  1
  O  O94  1  0.44233600  0.57532400  0.04032600  1
  O  O95  1  0.55766400  0.07532400  0.95967400  1
  O  O96  1  0.73877700  0.54391700  0.42031100  1
  O  O97  1  0.26122300  0.04391700  0.57968900  1
  O  O98  1  0.26122300  0.54391700  0.92031100  1
  O  O99  1  0.73877700  0.04391700  0.07968900  1
  O  O100  1  0.04805400  0.44446600  0.35100000  1
  O  O101  1  0.95194600  0.94446600  0.64900000  1
  O  O102  1  0.95194600  0.44446600  0.85100000  1
  O  O103  1  0.04805400  0.94446600  0.14900000  1
  O  O104  1  0.43568900  0.44382900  0.34647900  1
  O  O105  1  0.56431100  0.94382900  0.65352100  1
  O  O106  1  0.56431100  0.44382900  0.84647900  1
  O  O107  1  0.43568900  0.94382900  0.15352100  1
  O  O108  1  0.75019800  0.86202400  0.55366900  1
  O  O109  1  0.24980200  0.36202400  0.44633100  1
  O  O110  1  0.24980200  0.86202400  0.05366900  1
  O  O111  1  0.75019800  0.36202400  0.94633100  1
  O  O112  1  0.25062600  0.53339500  0.44194400  1
  O  O113  1  0.74937400  0.03339500  0.55805600  1
  O  O114  1  0.74937400  0.53339500  0.94194400  1
  O  O115  1  0.25062600  0.03339500  0.05805600  1
  O  O116  1  0.05806300  0.82481300  0.45366600  1
  O  O117  1  0.94193700  0.32481300  0.54633400  1
  O  O118  1  0.94193700  0.82481300  0.95366600  1
  O  O119  1  0.05806300  0.32481300  0.04633400  1
  O  O120  1  0.25846800  0.70292300  0.51837300  1
  O  O121  1  0.74153200  0.20292300  0.48162700  1
  O  O122  1  0.74153200  0.70292300  0.01837300  1
  O  O123  1  0.75150000  0.95235100  0.43052800  1
