# generated using pymatgen
data_Al(SeCl)4
_symmetry_space_group_name_H-M   'P 1'
_cell_length_a   10.90011000
_cell_length_b   13.89044500
_cell_length_c   15.25667500
_cell_angle_alpha   90.00000000
_cell_angle_beta   90.00000000
_cell_angle_gamma   90.00000000
_symmetry_Int_Tables_number   1
_chemical_formula_structural   Al(SeCl)4
_chemical_formula_sum   'Al8 Se32 Cl32'
_cell_volume   2309.97316560
_cell_formula_units_Z   8
loop_
 _symmetry_equiv_pos_site_id
 _symmetry_equiv_pos_as_xyz
  1  'x, y, z'
loop_
 _atom_site_type_symbol
 _atom_site_label
 _atom_site_symmetry_multiplicity
 _atom_site_fract_x
 _atom_site_fract_y
 _atom_site_fract_z
 _atom_site_occupancy
  Al  Al0  1  0.26585200  0.81880100  0.11241200  1
  Al  Al1  1  0.23672100  0.00898900  0.73483800  1
  Al  Al2  1  0.76327900  0.00898900  0.23483800  1
  Al  Al3  1  0.76327900  0.50898900  0.26516200  1
  Al  Al4  1  0.23672100  0.50898900  0.76516200  1
  Al  Al5  1  0.73414800  0.31880100  0.88758800  1
  Al  Al6  1  0.26585200  0.31880100  0.38758800  1
  Al  Al7  1  0.73414800  0.81880100  0.61241200  1
  Se  Se8  1  0.27230200  0.12802800  0.99893100  1
  Se  Se9  1  0.46636500  0.22790200  0.60158500  1
  Se  Se10  1  0.91306600  0.87434700  0.95804800  1
  Se  Se11  1  0.27230200  0.62802800  0.50106900  1
  Se  Se12  1  0.39868100  0.35646900  0.12895600  1
  Se  Se13  1  0.93656500  0.13163100  0.54156200  1
  Se  Se14  1  0.08693400  0.87434700  0.45804800  1
  Se  Se15  1  0.91306600  0.37434700  0.54195200  1
  Se  Se16  1  0.72769800  0.12802800  0.49893100  1
  Se  Se17  1  0.06966700  0.75294000  0.35191900  1
  Se  Se18  1  0.37621700  0.61609600  0.36628400  1
  Se  Se19  1  0.39868100  0.85646900  0.37104400  1
  Se  Se20  1  0.72769800  0.62802800  0.00106900  1
  Se  Se21  1  0.46636500  0.72790200  0.89841500  1
  Se  Se22  1  0.60131900  0.85646900  0.87104400  1
  Se  Se23  1  0.06966700  0.25294000  0.14808100  1
  Se  Se24  1  0.93033300  0.25294000  0.64808100  1
  Se  Se25  1  0.70798900  0.35179200  0.49506300  1
  Se  Se26  1  0.06343500  0.63163100  0.45843800  1
  Se  Se27  1  0.93033300  0.75294000  0.85191900  1
  Se  Se28  1  0.53363500  0.72790200  0.39841500  1
  Se  Se29  1  0.60131900  0.35646900  0.62895600  1
  Se  Se30  1  0.93656500  0.63163100  0.95843800  1
  Se  Se31  1  0.62378300  0.11609600  0.63371600  1
  Se  Se32  1  0.62378300  0.61609600  0.86628400  1
  Se  Se33  1  0.29201100  0.85179200  0.50493700  1
  Se  Se34  1  0.70798900  0.85179200  0.00493700  1
  Se  Se35  1  0.37621700  0.11609600  0.13371600  1
  Se  Se36  1  0.06343500  0.13163100  0.04156200  1
  Se  Se37  1  0.29201100  0.35179200  0.99506300  1
  Se  Se38  1  0.53363500  0.22790200  0.10158500  1
  Se  Se39  1  0.08693400  0.37434700  0.04195200  1
  Cl  Cl40  1  0.76024000  0.36371500  0.02278500  1
  Cl  Cl41  1  0.78466200  0.85610600  0.22104900  1
  Cl  Cl42  1  0.59022100  0.54795800  0.20618800  1
  Cl  Cl43  1  0.21331000  0.17213800  0.36966300  1
  Cl  Cl44  1  0.76702100  0.57315300  0.39581700  1
  Cl  Cl45  1  0.23976000  0.36371500  0.52278500  1
  Cl  Cl46  1  0.45680200  0.33791700  0.35438400  1
  Cl  Cl47  1  0.78669000  0.67213800  0.63033700  1
  Cl  Cl48  1  0.54319800  0.83791700  0.64561600  1
  Cl  Cl49  1  0.21331000  0.67213800  0.13033700  1
  Cl  Cl50  1  0.83932100  0.91592400  0.69383900  1
  Cl  Cl51  1  0.09376100  0.57239300  0.68690700  1
  Cl  Cl52  1  0.83932100  0.41592400  0.80616100  1
  Cl  Cl53  1  0.78466200  0.35610600  0.27895100  1
  Cl  Cl54  1  0.21533800  0.35610600  0.77895100  1
  Cl  Cl55  1  0.40977900  0.04795800  0.79381200  1
  Cl  Cl56  1  0.09376100  0.07239300  0.81309300  1
  Cl  Cl57  1  0.23297900  0.57315300  0.89581700  1
  Cl  Cl58  1  0.78669000  0.17213800  0.86966300  1
  Cl  Cl59  1  0.16067900  0.41592400  0.30616100  1
  Cl  Cl60  1  0.90623900  0.57239300  0.18690700  1
  Cl  Cl61  1  0.45680200  0.83791700  0.14561600  1
  Cl  Cl62  1  0.90623900  0.07239300  0.31309300  1
  Cl  Cl63  1  0.23297900  0.07315300  0.60418300  1
  Cl  Cl64  1  0.23976000  0.86371500  0.97721500  1
  Cl  Cl65  1  0.40977900  0.54795800  0.70618800  1
  Cl  Cl66  1  0.76702100  0.07315300  0.10418300  1
  Cl  Cl67  1  0.59022100  0.04795800  0.29381200  1
  Cl  Cl68  1  0.16067900  0.91592400  0.19383900  1
  Cl  Cl69  1  0.54319800  0.33791700  0.85438400  1
  Cl  Cl70  1  0.76024000  0.86371500  0.47721500  1
  Cl  Cl71  1  0.21533800  0.85610600  0.72104900  1
