# generated using pymatgen
data_Ba3NdRu2O9
_symmetry_space_group_name_H-M   'P 1'
_cell_length_a   6.00984350
_cell_length_b   6.00984350
_cell_length_c   14.92030100
_cell_angle_alpha   90.00000000
_cell_angle_beta   90.00000000
_cell_angle_gamma   119.99999450
_symmetry_Int_Tables_number   1
_chemical_formula_structural   Ba3NdRu2O9
_chemical_formula_sum   'Ba6 Nd2 Ru4 O18'
_cell_volume   466.69652393
_cell_formula_units_Z   2
loop_
 _symmetry_equiv_pos_site_id
 _symmetry_equiv_pos_as_xyz
  1  'x, y, z'
loop_
 _atom_site_type_symbol
 _atom_site_label
 _atom_site_symmetry_multiplicity
 _atom_site_fract_x
 _atom_site_fract_y
 _atom_site_fract_z
 _atom_site_occupancy
  Ba  Ba0  1  0.33333300  0.66666700  0.60288100  1
  Ba  Ba1  1  0.00000000  0.00000000  0.25000000  1
  Ba  Ba2  1  0.66666700  0.33333300  0.39711900  1
  Ba  Ba3  1  0.66666700  0.33333300  0.10288100  1
  Ba  Ba4  1  0.33333300  0.66666700  0.89711900  1
  Ba  Ba5  1  0.00000000  0.00000000  0.75000000  1
  Nd  Nd6  1  0.00000000  0.00000000  0.50000000  1
  Nd  Nd7  1  0.00000000  0.00000000  0.00000000  1
  Ru  Ru8  1  0.33333300  0.66666700  0.33364700  1
  Ru  Ru9  1  0.66666700  0.33333300  0.83364700  1
  Ru  Ru10  1  0.66666700  0.33333300  0.66635300  1
  Ru  Ru11  1  0.33333300  0.66666700  0.16635300  1
  O  O12  1  0.17813800  0.82186200  0.09266600  1
  O  O13  1  0.17813800  0.35627600  0.09266600  1
  O  O14  1  0.64372400  0.82186200  0.09266600  1
  O  O15  1  0.35627600  0.17813800  0.59266600  1
  O  O16  1  0.82186200  0.64372400  0.90733400  1
  O  O17  1  0.82186200  0.17813800  0.59266600  1
  O  O18  1  0.82186200  0.64372400  0.59266600  1
  O  O19  1  0.17813800  0.82186200  0.40733400  1
  O  O20  1  0.64372400  0.82186200  0.40733400  1
  O  O21  1  0.35627600  0.17813800  0.90733400  1
  O  O22  1  0.82186200  0.17813800  0.90733400  1
  O  O23  1  0.17813800  0.35627600  0.40733400  1
  O  O24  1  0.49096200  0.98192400  0.25000000  1
  O  O25  1  0.50903800  0.49096200  0.75000000  1
  O  O26  1  0.98192400  0.49096200  0.75000000  1
  O  O27  1  0.01807600  0.50903800  0.25000000  1
  O  O28  1  0.49096200  0.50903800  0.25000000  1
  O  O29  1  0.50903800  0.01807600  0.75000000  1
