# generated using pymatgen
data_Ti7S12
_symmetry_space_group_name_H-M   'P 1'
_cell_length_a   6.86249700
_cell_length_b   8.99796331
_cell_length_c   11.83663476
_cell_angle_alpha   99.38607264
_cell_angle_beta   89.98587529
_cell_angle_gamma   101.07444996
_symmetry_Int_Tables_number   1
_chemical_formula_structural   Ti7S12
_chemical_formula_sum   'Ti14 S24'
_cell_volume   707.31619153
_cell_formula_units_Z   2
loop_
 _symmetry_equiv_pos_site_id
 _symmetry_equiv_pos_as_xyz
  1  'x, y, z'
loop_
 _atom_site_type_symbol
 _atom_site_label
 _atom_site_symmetry_multiplicity
 _atom_site_fract_x
 _atom_site_fract_y
 _atom_site_fract_z
 _atom_site_occupancy
  Ti  Ti0  1  0.16690500  0.66999800  0.49676000  1
  Ti  Ti1  1  0.17902600  0.72131700  0.76460400  1
  Ti  Ti2  1  0.24748100  0.00253600  0.99782700  1
  Ti  Ti3  1  0.50000000  0.00000000  0.50000000  1
  Ti  Ti4  1  0.57893100  0.33332900  0.99820300  1
  Ti  Ti5  1  0.32956400  0.32111000  0.50096800  1
  Ti  Ti6  1  0.83309500  0.33000200  0.50324000  1
  Ti  Ti7  1  0.91974700  0.66344800  0.99859200  1
  Ti  Ti8  1  0.42106900  0.66667100  0.00179700  1
  Ti  Ti9  1  0.67043600  0.67889000  0.49903200  1
  Ti  Ti10  1  0.75251900  0.99746400  0.00217300  1
  Ti  Ti11  1  0.00000000  0.00000000  0.50000000  1
  Ti  Ti12  1  0.08025300  0.33655200  0.00140800  1
  Ti  Ti13  1  0.82097400  0.27868300  0.23539600  1
  S  S14  1  0.20103900  0.80290100  0.11702200  1
  S  S15  1  0.22852600  0.91517600  0.62672000  1
  S  S16  1  0.53107800  0.13597800  0.12646500  1
  S  S17  1  0.27051500  0.08263200  0.37809300  1
  S  S18  1  0.56157100  0.24863600  0.62240900  1
  S  S19  1  0.30019300  0.19572200  0.87845800  1
  S  S20  1  0.36938900  0.47184300  0.12213900  1
  S  S21  1  0.86883600  0.48011100  0.12908900  1
  S  S22  1  0.60835700  0.41725000  0.37681700  1
  S  S23  1  0.39164300  0.58275000  0.62318300  1
  S  S24  1  0.89829700  0.58537800  0.62698800  1
  S  S25  1  0.63061100  0.52815700  0.87786100  1
  S  S26  1  0.69980700  0.80427800  0.12154200  1
  S  S27  1  0.93751800  0.75050800  0.37740200  1
  S  S28  1  0.43842900  0.75136400  0.37759100  1
  S  S29  1  0.72948500  0.91736800  0.62190700  1
  S  S30  1  0.96135800  0.86401500  0.87236300  1
  S  S31  1  0.46892200  0.86402200  0.87353500  1
  S  S32  1  0.03864200  0.13598500  0.12763700  1
  S  S33  1  0.77147400  0.08482400  0.37328000  1
  S  S34  1  0.06248200  0.24949200  0.62259800  1
  S  S35  1  0.79896100  0.19709900  0.88297800  1
  S  S36  1  0.10170300  0.41462200  0.37301200  1
  S  S37  1  0.13116400  0.51988900  0.87091100  1
