# generated using pymatgen
data_Na9Sr2Nd9Ti20O60
_symmetry_space_group_name_H-M   'P 1'
_cell_length_a   38.78831200
_cell_length_b   5.48681100
_cell_length_c   5.52238341
_cell_angle_alpha   89.97782822
_cell_angle_beta   90.00000000
_cell_angle_gamma   90.00000000
_symmetry_Int_Tables_number   1
_chemical_formula_structural   Na9Sr2Nd9Ti20O60
_chemical_formula_sum   'Na9 Sr2 Nd9 Ti20 O60'
_cell_volume   1175.29639590
_cell_formula_units_Z   1
loop_
 _symmetry_equiv_pos_site_id
 _symmetry_equiv_pos_as_xyz
  1  'x, y, z'
loop_
 _atom_site_type_symbol
 _atom_site_label
 _atom_site_symmetry_multiplicity
 _atom_site_fract_x
 _atom_site_fract_y
 _atom_site_fract_z
 _atom_site_occupancy
  Na  Na0  1  0.50000000  0.48970900  0.97773200  1
  Na  Na1  1  0.00000000  0.50411200  0.99542300  1
  Na  Na2  1  0.79984000  0.50918100  0.99204600  1
  Na  Na3  1  0.20016000  0.50918100  0.99204600  1
  Na  Na4  1  0.60047600  0.98876000  0.51894800  1
  Na  Na5  1  0.39952400  0.98876000  0.51894800  1
  Na  Na6  1  0.00000000  0.99682500  0.49527000  1
  Na  Na7  1  0.79939300  0.99650300  0.48816200  1
  Na  Na8  1  0.20060700  0.99650300  0.48816200  1
  Sr  Sr9  1  0.70189400  0.49589900  0.98527000  1
  Sr  Sr10  1  0.29810600  0.49589900  0.98527000  1
  Nd  Nd11  1  0.50000000  0.00763600  0.46169900  1
  Nd  Nd12  1  0.70222900  0.00454700  0.47216600  1
  Nd  Nd13  1  0.90033700  0.00703900  0.46504600  1
  Nd  Nd14  1  0.09966300  0.00703900  0.46504600  1
  Nd  Nd15  1  0.29777100  0.00454700  0.47216600  1
  Nd  Nd16  1  0.90039500  0.49643800  0.96507100  1
  Nd  Nd17  1  0.09960500  0.49643800  0.96507100  1
  Nd  Nd18  1  0.40103500  0.50674000  0.03996800  1
  Nd  Nd19  1  0.59896500  0.50674000  0.03996800  1
  Ti  Ti20  1  0.35032200  0.99432400  0.99900400  1
  Ti  Ti21  1  0.44991600  0.99161300  0.99558000  1
  Ti  Ti22  1  0.55008400  0.99161300  0.99558000  1
  Ti  Ti23  1  0.64967800  0.99432400  0.99900400  1
  Ti  Ti24  1  0.75332300  0.99915500  0.98396400  1
  Ti  Ti25  1  0.84824400  0.99662000  0.98375800  1
  Ti  Ti26  1  0.95253400  0.99556300  0.98504700  1
  Ti  Ti27  1  0.04746600  0.99556300  0.98504700  1
  Ti  Ti28  1  0.15175600  0.99662000  0.98375800  1
  Ti  Ti29  1  0.24667700  0.99915500  0.98396400  1
  Ti  Ti30  1  0.45038900  0.49150100  0.50554200  1
  Ti  Ti31  1  0.64970500  0.49383900  0.50530200  1
  Ti  Ti32  1  0.35029500  0.49383900  0.50530200  1
  Ti  Ti33  1  0.84842400  0.50806700  0.48420300  1
  Ti  Ti34  1  0.24642900  0.50094300  0.48781500  1
  Ti  Ti35  1  0.54961100  0.49150100  0.50554200  1
  Ti  Ti36  1  0.04743600  0.50636100  0.48494700  1
  Ti  Ti37  1  0.95256400  0.50636100  0.48494700  1
  Ti  Ti38  1  0.75357100  0.50094300  0.48781500  1
  Ti  Ti39  1  0.15157600  0.50806700  0.48420300  1
  O  O40  1  0.50000000  0.93426200  0.01672200  1
  O  O41  1  0.69905800  0.94606100  0.01962500  1
  O  O42  1  0.90040000  0.92831600  0.02307800  1
  O  O43  1  0.09960000  0.92831600  0.02307800  1
  O  O44  1  0.30094200  0.94606100  0.01962500  1
  O  O45  1  0.44279800  0.77668700  0.27366400  1
  O  O46  1  0.64209900  0.76571100  0.27111700  1
  O  O47  1  0.35790100  0.76571100  0.27111700  1
  O  O48  1  0.84570700  0.78331800  0.28909400  1
  O  O49  1  0.04498300  0.78155700  0.28834000  1
  O  O50  1  0.55720200  0.77668700  0.27366400  1
  O  O51  1  0.75468400  0.76370300  0.26858400  1
  O  O52  1  0.24531600  0.76370300  0.26858400  1
  O  O53  1  0.95501700  0.78155700  0.28834000  1
  O  O54  1  0.15429300  0.78331800  0.28909400  1
  O  O55  1  0.35795700  0.71317800  0.78821600  1
  O  O56  1  0.44155200  0.72268300  0.78314400  1
  O  O57  1  0.55844800  0.72268300  0.78314400  1
  O  O58  1  0.64204300  0.71317800  0.78821600  1
  O  O59  1  0.75485800  0.73658000  0.76694600  1
  O  O60  1  0.95497000  0.72096100  0.78829900  1
  O  O61  1  0.84595400  0.72106200  0.78929900  1
  O  O62  1  0.04503000  0.72096100  0.78829900  1
  O  O63  1  0.15404600  0.72106200  0.78929900  1
  O  O64  1  0.24514200  0.73658000  0.76694600  1
  O  O65  1  0.69873800  0.57357700  0.50612700  1
  O  O66  1  0.50000000  0.58416600  0.51611100  1
  O  O67  1  0.90037800  0.57537000  0.52209900  1
  O  O68  1  0.09962200  0.57537000  0.52209900  1
  O  O69  1  0.30126200  0.57357700  0.50612700  1
  O  O70  1  0.40057800  0.43315000  0.48892700  1
  O  O71  1  0.59942200  0.43315000  0.48892700  1
  O  O72  1  0.00000000  0.43076500  0.49741700  1
  O  O73  1  0.80091200  0.43395200  0.50026400  1
  O  O74  1  0.19908800  0.43395200  0.50026400  1
  O  O75  1  0.45752100  0.27758200  0.22902100  1
  O  O76  1  0.65620700  0.26825100  0.23313200  1
  O  O77  1  0.54247900  0.27758200  0.22902100  1
  O  O78  1  0.74265300  0.25613200  0.24892400  1
  O  O79  1  0.94039900  0.27707200  0.23481100  1
  O  O80  1  0.86040600  0.27813700  0.23442800  1
  O  O81  1  0.05960100  0.27707200  0.23481100  1
  O  O82  1  0.25734700  0.25613200  0.24892400  1
  O  O83  1  0.13959400  0.27813700  0.23442800  1
  O  O84  1  0.34379300  0.26825100  0.23313200  1
  O  O85  1  0.45877600  0.22215300  0.72014500  1
  O  O86  1  0.54122400  0.22215300  0.72014500  1
  O  O87  1  0.65839100  0.21819000  0.72326700  1
  O  O88  1  0.74162900  0.22940400  0.73393500  1
  O  O89  1  0.86058000  0.22620700  0.73470600  1
  O  O90  1  0.94036400  0.22596900  0.73476900  1
  O  O91  1  0.05963600  0.22596900  0.73476900  1
  O  O92  1  0.13942000  0.22620700  0.73470600  1
  O  O93  1  0.25837100  0.22940400  0.73393500  1
  O  O94  1  0.34160900  0.21819000  0.72326700  1
  O  O95  1  0.40032500  0.08129500  0.98921200  1
  O  O96  1  0.59967500  0.08129500  0.98921200  1
  O  O97  1  0.80073400  0.07128600  0.99626300  1
  O  O98  1  0.00000000  0.07125000  0.99706600  1
  O  O99  1  0.19926600  0.07128600  0.99626300  1
