# generated using pymatgen
data_K2P4PbO12
_symmetry_space_group_name_H-M   'P 1'
_cell_length_a   9.33453900
_cell_length_b   15.65595700
_cell_length_c   15.68322400
_cell_angle_alpha   90.00000000
_cell_angle_beta   90.00000000
_cell_angle_gamma   90.00000000
_symmetry_Int_Tables_number   1
_chemical_formula_structural   K2P4PbO12
_chemical_formula_sum   'K16 P32 Pb8 O96'
_cell_volume   2291.96425304
_cell_formula_units_Z   8
loop_
 _symmetry_equiv_pos_site_id
 _symmetry_equiv_pos_as_xyz
  1  'x, y, z'
loop_
 _atom_site_type_symbol
 _atom_site_label
 _atom_site_symmetry_multiplicity
 _atom_site_fract_x
 _atom_site_fract_y
 _atom_site_fract_z
 _atom_site_occupancy
  K  K0  1  0.80629700  0.69479100  0.26054700  1
  K  K1  1  0.69370300  0.69479100  0.76054700  1
  K  K2  1  0.69370300  0.19479100  0.73945300  1
  K  K3  1  0.13426000  0.10014400  0.39439100  1
  K  K4  1  0.86574000  0.89985600  0.60560900  1
  K  K5  1  0.36574000  0.60014400  0.60560900  1
  K  K6  1  0.63426000  0.39985600  0.39439100  1
  K  K7  1  0.13426000  0.60014400  0.10560900  1
  K  K8  1  0.30629700  0.30520900  0.23945300  1
  K  K9  1  0.19370300  0.80520900  0.76054700  1
  K  K10  1  0.86574000  0.39985600  0.89439100  1
  K  K11  1  0.63426000  0.89985600  0.10560900  1
  K  K12  1  0.36574000  0.10014400  0.89439100  1
  K  K13  1  0.30629700  0.80520900  0.26054700  1
  K  K14  1  0.19370300  0.30520900  0.73945300  1
  K  K15  1  0.80629700  0.19479100  0.23945300  1
  P  P16  1  0.97100300  0.16224300  0.88724900  1
  P  P17  1  0.75039000  0.09913200  0.00392100  1
  P  P18  1  0.02899700  0.33775700  0.38724900  1
  P  P19  1  0.94455300  0.94757300  0.25865000  1
  P  P20  1  0.74961000  0.09913200  0.50392100  1
  P  P21  1  0.24961000  0.90086800  0.99607900  1
  P  P22  1  0.99851400  0.67001700  0.90204300  1
  P  P23  1  0.44455300  0.55242700  0.25865000  1
  P  P24  1  0.47100300  0.33775700  0.88724900  1
  P  P25  1  0.00148600  0.82998300  0.40204300  1
  P  P26  1  0.49851400  0.32998300  0.59795700  1
  P  P27  1  0.52899700  0.66224300  0.11275100  1
  P  P28  1  0.74961000  0.59913200  0.99607900  1
  P  P29  1  0.44455300  0.05242700  0.24135000  1
  P  P30  1  0.02899700  0.83775700  0.11275100  1
  P  P31  1  0.49851400  0.82998300  0.90204300  1
  P  P32  1  0.97100300  0.66224300  0.61275100  1
  P  P33  1  0.50148600  0.67001700  0.40204300  1
  P  P34  1  0.94455300  0.44757300  0.24135000  1
  P  P35  1  0.05544700  0.05242700  0.74135000  1
  P  P36  1  0.25039000  0.40086800  0.00392100  1
  P  P37  1  0.75039000  0.59913200  0.49607900  1
  P  P38  1  0.99851400  0.17001700  0.59795700  1
  P  P39  1  0.24961000  0.40086800  0.50392100  1
  P  P40  1  0.25039000  0.90086800  0.49607900  1
  P  P41  1  0.52899700  0.16224300  0.38724900  1
  P  P42  1  0.00148600  0.32998300  0.09795700  1
  P  P43  1  0.50148600  0.17001700  0.09795700  1
  P  P44  1  0.55544700  0.94757300  0.75865000  1
  P  P45  1  0.05544700  0.55242700  0.75865000  1
  P  P46  1  0.47100300  0.83775700  0.61275100  1
  P  P47  1  0.55544700  0.44757300  0.74135000  1
  Pb  Pb48  1  0.62129500  0.89889500  0.39390900  1
  Pb  Pb49  1  0.37870500  0.60110500  0.89390900  1
  Pb  Pb50  1  0.12129500  0.60110500  0.39390900  1
  Pb  Pb51  1  0.87870500  0.39889500  0.60609100  1
  Pb  Pb52  1  0.12129500  0.10110500  0.10609100  1
  Pb  Pb53  1  0.62129500  0.39889500  0.10609100  1
  Pb  Pb54  1  0.37870500  0.10110500  0.60609100  1
  Pb  Pb55  1  0.87870500  0.89889500  0.89390900  1
  O  O56  1  0.30404800  0.09949700  0.24778300  1
  O  O57  1  0.69595200  0.90050300  0.75221700  1
  O  O58  1  0.80404800  0.40050300  0.24778300  1
  O  O59  1  0.48595500  0.25376800  0.84328500  1
  O  O60  1  0.03022400  0.41451300  0.15614800  1
  O  O61  1  0.18877900  0.33925500  0.42844700  1
  O  O62  1  0.80404800  0.90050300  0.25221700  1
  O  O63  1  0.09524300  0.35423100  0.01487700  1
  O  O64  1  0.34869200  0.17448700  0.06820100  1
  O  O65  1  0.27937600  0.98822700  0.03208700  1
  O  O66  1  0.18877900  0.83925500  0.07155300  1
  O  O67  1  0.05329900  0.41412000  0.31624600  1
  O  O68  1  0.91914200  0.36849900  0.45087600  1
  O  O69  1  0.94670100  0.08588000  0.81624600  1
  O  O70  1  0.84869200  0.32551300  0.06820100  1
  O  O71  1  0.06469700  0.25400900  0.14348900  1
  O  O72  1  0.59524300  0.14576900  0.01487700  1
  O  O73  1  0.81122100  0.66074500  0.57155300  1
  O  O74  1  0.09524300  0.85423100  0.48512300  1
  O  O75  1  0.55329900  0.08588000  0.31624600  1
  O  O76  1  0.68877900  0.66074500  0.07155300  1
  O  O77  1  0.22062400  0.98822700  0.53208700  1
  O  O78  1  0.15130800  0.17448700  0.56820100  1
  O  O79  1  0.16221600  0.39287600  0.58403400  1
  O  O80  1  0.01404500  0.25376800  0.34328500  1
  O  O81  1  0.31122100  0.83925500  0.57155300  1
  O  O82  1  0.40475700  0.85423100  0.98512300  1
  O  O83  1  0.04399500  0.95713400  0.74026700  1
  O  O84  1  0.94670100  0.58588000  0.68375400  1
  O  O85  1  0.30404800  0.59949700  0.25221700  1
  O  O86  1  0.33778400  0.39287600  0.08403400  1
  O  O87  1  0.53022400  0.08548700  0.15614800  1
  O  O88  1  0.46977600  0.41451300  0.65614800  1
  O  O89  1  0.81122100  0.16074500  0.92844700  1
  O  O90  1  0.91914200  0.86849900  0.04912400  1
  O  O91  1  0.51404500  0.74623200  0.15671500  1
  O  O92  1  0.40475700  0.35423100  0.51487700  1
  O  O93  1  0.83778400  0.60712400  0.41596600  1
  O  O94  1  0.41914200  0.13150100  0.45087600  1
  O  O95  1  0.51404500  0.24623200  0.34328500  1
  O  O96  1  0.84869200  0.82551300  0.43179900  1
  O  O97  1  0.33778400  0.89287600  0.41596600  1
  O  O98  1  0.95600500  0.54286600  0.24026700  1
  O  O99  1  0.45600500  0.95713400  0.24026700  1
  O  O100  1  0.56469700  0.74599100  0.35651100  1
  O  O101  1  0.43530300  0.25400900  0.64348900  1
  O  O102  1  0.34869200  0.67448700  0.43179900  1
  O  O103  1  0.95600500  0.04286600  0.25973300  1
  O  O104  1  0.65130800  0.32551300  0.56820100  1
  O  O105  1  0.72062400  0.51177300  0.53208700  1
  O  O106  1  0.27937600  0.48822700  0.46791300  1
  O  O107  1  0.22062400  0.48822700  0.96791300  1
  O  O108  1  0.96977600  0.58548700  0.84385200  1
  O  O109  1  0.66221600  0.60712400  0.91596600  1
  O  O110  1  0.98595500  0.74623200  0.65671500  1
  O  O111  1  0.03022400  0.91451300  0.34385200  1
  O  O112  1  0.16221600  0.89287600  0.91596600  1
  O  O113  1  0.93530300  0.24599100  0.64348900  1
  O  O114  1  0.96977600  0.08548700  0.65614800  1
  O  O115  1  0.08085800  0.63150100  0.54912400  1
  O  O116  1  0.90475700  0.64576900  0.98512300  1
  O  O117  1  0.05329900  0.91412000  0.18375400  1
  O  O118  1  0.66221600  0.10712400  0.58403400  1
  O  O119  1  0.48595500  0.75376800  0.65671500  1
  O  O120  1  0.31122100  0.33925500  0.92844700  1
  O  O121  1  0.54399500  0.54286600  0.74026700  1
  O  O122  1  0.44670100  0.91412000  0.68375400  1
  O  O123  1  0.59524300  0.64576900  0.48512300  1
  O  O124  1  0.93530300  0.74599100  0.85651100  1
  O  O125  1  0.83778400  0.10712400  0.08403400  1
  O  O126  1  0.56469700  0.24599100  0.14348900  1
  O  O127  1  0.44670100  0.41412000  0.81624600  1
  O  O128  1  0.90475700  0.14576900  0.51487700  1
  O  O129  1  0.46977600  0.91451300  0.84385200  1
  O  O130  1  0.54399500  0.04286600  0.75973300  1
  O  O131  1  0.08085800  0.13150100  0.95087600  1
  O  O132  1  0.65130800  0.82551300  0.93179900  1
  O  O133  1  0.01404500  0.75376800  0.15671500  1
  O  O134  1  0.41914200  0.63150100  0.04912400  1
  O  O135  1  0.15130800  0.67448700  0.93179900  1
  O  O136  1  0.69595200  0.40050300  0.74778300  1
  O  O137  1  0.43530300  0.75400900  0.85651100  1
  O  O138  1  0.98595500  0.24623200  0.84328500  1
  O  O139  1  0.04399500  0.45713400  0.75973300  1
  O  O140  1  0.55329900  0.58588000  0.18375400  1
  O  O141  1  0.77937600  0.01177300  0.46791300  1
  O  O142  1  0.58085800  0.36849900  0.95087600  1
  O  O143  1  0.06469700  0.75400900  0.35651100  1
  O  O144  1  0.19595200  0.09949700  0.74778300  1
  O  O145  1  0.58085800  0.86849900  0.54912400  1
  O  O146  1  0.45600500  0.45713400  0.25973300  1
  O  O147  1  0.77937600  0.51177300  0.03208700  1
  O  O148  1  0.68877900  0.16074500  0.42844700  1
  O  O149  1  0.19595200  0.59949700  0.75221700  1
  O  O150  1  0.53022400  0.58548700  0.34385200  1
  O  O151  1  0.72062400  0.01177300  0.96791300  1
