# generated using pymatgen
data_Na2H6PtO6
_symmetry_space_group_name_H-M   'P 1'
_cell_length_a   5.91767039
_cell_length_b   5.91767039
_cell_length_c   4.61623300
_cell_angle_alpha   90.00000000
_cell_angle_beta   90.00000000
_cell_angle_gamma   120.00000435
_symmetry_Int_Tables_number   1
_chemical_formula_structural   Na2H6PtO6
_chemical_formula_sum   'Na2 H6 Pt1 O6'
_cell_volume   139.99736998
_cell_formula_units_Z   1
loop_
 _symmetry_equiv_pos_site_id
 _symmetry_equiv_pos_as_xyz
  1  'x, y, z'
loop_
 _atom_site_type_symbol
 _atom_site_label
 _atom_site_symmetry_multiplicity
 _atom_site_fract_x
 _atom_site_fract_y
 _atom_site_fract_z
 _atom_site_occupancy
  Na  Na0  1  0.66666700  0.33333300  0.95413200  1
  Na  Na1  1  0.33333300  0.66666700  0.04586800  1
  H  H2  1  0.18496000  0.32461200  0.59333100  1
  H  H3  1  0.13965200  0.81504000  0.59333100  1
  H  H4  1  0.67538800  0.86034800  0.59333100  1
  H  H5  1  0.81504000  0.67538800  0.40666900  1
  H  H6  1  0.86034800  0.18496000  0.40666900  1
  H  H7  1  0.32461200  0.13965200  0.40666900  1
  Pt  Pt8  1  0.00000000  0.00000000  0.00000000  1
  O  O9  1  0.27935000  0.29471800  0.75178900  1
  O  O10  1  0.01536800  0.72065000  0.75178900  1
  O  O11  1  0.70528200  0.98463200  0.75178900  1
  O  O12  1  0.72065000  0.70528200  0.24821100  1
  O  O13  1  0.98463200  0.27935000  0.24821100  1
  O  O14  1  0.29471800  0.01536800  0.24821100  1
