# generated using pymatgen
data_BaNa2Al4(SiO4)4
_symmetry_space_group_name_H-M   'P 1'
_cell_length_a   10.77495580
_cell_length_b   10.77495580
_cell_length_c   10.77495580
_cell_angle_alpha   132.45226230
_cell_angle_beta   124.22383830
_cell_angle_gamma   76.26667847
_symmetry_Int_Tables_number   1
_chemical_formula_structural   BaNa2Al4(SiO4)4
_chemical_formula_sum   'Ba2 Na4 Al8 Si8 O32'
_cell_volume   742.16429633
_cell_formula_units_Z   2
loop_
 _symmetry_equiv_pos_site_id
 _symmetry_equiv_pos_as_xyz
  1  'x, y, z'
loop_
 _atom_site_type_symbol
 _atom_site_label
 _atom_site_symmetry_multiplicity
 _atom_site_fract_x
 _atom_site_fract_y
 _atom_site_fract_z
 _atom_site_occupancy
  Ba  Ba0  1  0.15391200  0.65391200  0.50000000  1
  Ba  Ba1  1  0.65391200  0.15391200  0.50000000  1
  Na  Na2  1  0.23174900  0.86437300  0.28661500  1
  Na  Na3  1  0.07775800  0.36437300  0.63262400  1
  Na  Na4  1  0.57775800  0.94513400  0.71338500  1
  Na  Na5  1  0.73174900  0.44513400  0.36737600  1
  Al  Al6  1  0.24906300  0.13369000  0.25676000  1
  Al  Al7  1  0.87693000  0.99230300  0.74324000  1
  Al  Al8  1  0.75427700  0.03212000  0.16458100  1
  Al  Al9  1  0.74906300  0.49230300  0.11537300  1
  Al  Al10  1  0.36753900  0.53212000  0.27784300  1
  Al  Al11  1  0.25427700  0.08969600  0.72215700  1
  Al  Al12  1  0.86753900  0.58969600  0.83541900  1
  Al  Al13  1  0.37693000  0.63369000  0.88462700  1
  Si  Si14  1  0.93935600  0.82272400  0.27009100  1
  Si  Si15  1  0.55828100  0.73070000  0.29446300  1
  Si  Si16  1  0.43623700  0.26381800  0.70553700  1
  Si  Si17  1  0.05828100  0.76381800  0.82758100  1
  Si  Si18  1  0.93623700  0.23070000  0.17241900  1
  Si  Si19  1  0.05263300  0.32272400  0.88336800  1
  Si  Si20  1  0.43935600  0.16926500  0.11663200  1
  Si  Si21  1  0.55263300  0.66926500  0.72990900  1
  O  O22  1  0.87997400  0.40790100  0.22403800  1
  O  O23  1  0.18386300  0.65593600  0.77596200  1
  O  O24  1  0.37997400  0.15593600  0.47207300  1
  O  O25  1  0.68386300  0.90790100  0.52792700  1
  O  O26  1  0.11658300  0.90036000  0.47303600  1
  O  O27  1  0.42732400  0.64354700  0.52696400  1
  O  O28  1  0.61658300  0.14354700  0.21622300  1
  O  O29  1  0.92732400  0.40036000  0.78377700  1
  O  O30  1  0.46109300  0.36351400  0.20158800  1
  O  O31  1  0.16192600  0.25950500  0.79841200  1
  O  O32  1  0.96109300  0.75950500  0.09757900  1
  O  O33  1  0.66192600  0.86351400  0.90242100  1
  O  O34  1  0.48566900  0.77688300  0.15235200  1
  O  O35  1  0.62453100  0.33331700  0.84764800  1
  O  O36  1  0.98566900  0.83331700  0.70878600  1
  O  O37  1  0.12453100  0.27688300  0.29121400  1
  O  O38  1  0.83648600  0.96948300  0.30573100  1
  O  O39  1  0.66375200  0.53075500  0.69426900  1
  O  O40  1  0.33648600  0.03075500  0.86700300  1
  O  O41  1  0.16375200  0.46948300  0.13299700  1
  O  O42  1  0.34782000  0.41939300  0.77740500  1
  O  O43  1  0.64198800  0.57041500  0.22259500  1
  O  O44  1  0.89145600  0.19309700  0.26957300  1
  O  O45  1  0.92352400  0.62188300  0.73042700  1
  O  O46  1  0.39145600  0.12188300  0.69835900  1
  O  O47  1  0.42352400  0.69309700  0.30164100  1
  O  O48  1  0.36666000  0.15460400  0.20537700  1
  O  O49  1  0.94922700  0.16128300  0.79462300  1
  O  O50  1  0.86666000  0.66128300  0.21205600  1
  O  O51  1  0.44922700  0.65460400  0.78794400  1
  O  O52  1  0.14198800  0.91939300  0.07157300  1
  O  O53  1  0.84782000  0.07041500  0.92842700  1
