# generated using pymatgen
data_Ho(BO2)3
_symmetry_space_group_name_H-M   'P 1'
_cell_length_a   7.43195600
_cell_length_b   12.29583100
_cell_length_c   16.00669800
_cell_angle_alpha   90.00000000
_cell_angle_beta   90.00000000
_cell_angle_gamma   90.00000000
_symmetry_Int_Tables_number   1
_chemical_formula_structural   Ho(BO2)3
_chemical_formula_sum   'Ho16 B48 O96'
_cell_volume   1462.72527675
_cell_formula_units_Z   16
loop_
 _symmetry_equiv_pos_site_id
 _symmetry_equiv_pos_as_xyz
  1  'x, y, z'
loop_
 _atom_site_type_symbol
 _atom_site_label
 _atom_site_symmetry_multiplicity
 _atom_site_fract_x
 _atom_site_fract_y
 _atom_site_fract_z
 _atom_site_occupancy
  Ho  Ho0  1  0.25000000  0.93448100  0.17216500  1
  Ho  Ho1  1  0.75000000  0.76731300  0.62790900  1
  Ho  Ho2  1  0.75000000  0.00893700  0.12099200  1
  Ho  Ho3  1  0.25000000  0.58897000  0.04827600  1
  Ho  Ho4  1  0.75000000  0.41103000  0.95172400  1
  Ho  Ho5  1  0.25000000  0.91103000  0.54827600  1
  Ho  Ho6  1  0.25000000  0.50893700  0.37900800  1
  Ho  Ho7  1  0.75000000  0.73268700  0.12790900  1
  Ho  Ho8  1  0.75000000  0.06551900  0.82783500  1
  Ho  Ho9  1  0.25000000  0.26731300  0.87209100  1
  Ho  Ho10  1  0.75000000  0.08897000  0.45172400  1
  Ho  Ho11  1  0.75000000  0.49106300  0.62099200  1
  Ho  Ho12  1  0.25000000  0.23268700  0.37209100  1
  Ho  Ho13  1  0.25000000  0.56551900  0.67216500  1
  Ho  Ho14  1  0.75000000  0.43448100  0.32783500  1
  Ho  Ho15  1  0.25000000  0.99106300  0.87900800  1
  B  B16  1  0.56871000  0.12869600  0.25800500  1
  B  B17  1  0.57770400  0.48306400  0.15259800  1
  B  B18  1  0.42229600  0.98306400  0.34740200  1
  B  B19  1  0.42229600  0.51693600  0.84740200  1
  B  B20  1  0.42339500  0.14305200  0.10968100  1
  B  B21  1  0.07036000  0.31461100  0.21775700  1
  B  B22  1  0.92964000  0.81461100  0.28224300  1
  B  B23  1  0.57036000  0.68538900  0.78224300  1
  B  B24  1  0.43980100  0.82236500  0.03194200  1
  B  B25  1  0.56019900  0.32236500  0.46805800  1
  B  B26  1  0.06019900  0.82236500  0.03194200  1
  B  B27  1  0.92229600  0.48306400  0.15259800  1
  B  B28  1  0.92339500  0.64305200  0.39031900  1
  B  B29  1  0.92229600  0.01693600  0.65259800  1
  B  B30  1  0.93980100  0.32236500  0.46805800  1
  B  B31  1  0.42339500  0.35694800  0.60968100  1
  B  B32  1  0.92650400  0.84601800  0.44307800  1
  B  B33  1  0.57660500  0.85694800  0.89031900  1
  B  B34  1  0.57770400  0.01693600  0.65259800  1
  B  B35  1  0.42964000  0.31461100  0.21775700  1
  B  B36  1  0.06871000  0.87130400  0.74199500  1
  B  B37  1  0.93980100  0.17763500  0.96805800  1
  B  B38  1  0.56871000  0.37130400  0.75800500  1
  B  B39  1  0.93129000  0.37130400  0.75800500  1
  B  B40  1  0.07036000  0.18538900  0.71775700  1
  B  B41  1  0.92650400  0.65398200  0.94307800  1
  B  B42  1  0.57660500  0.64305200  0.39031900  1
  B  B43  1  0.42650400  0.15398200  0.55692200  1
  B  B44  1  0.07349600  0.34601800  0.05692200  1
  B  B45  1  0.93129000  0.12869600  0.25800500  1
  B  B46  1  0.42650400  0.34601800  0.05692200  1
  B  B47  1  0.92339500  0.85694800  0.89031900  1
  B  B48  1  0.07660500  0.14305200  0.10968100  1
  B  B49  1  0.42964000  0.18538900  0.71775700  1
  B  B50  1  0.92964000  0.68538900  0.78224300  1
  B  B51  1  0.07660500  0.35694800  0.60968100  1
  B  B52  1  0.57349600  0.65398200  0.94307800  1
  B  B53  1  0.43980100  0.67763500  0.53194200  1
  B  B54  1  0.57349600  0.84601800  0.44307800  1
  B  B55  1  0.06871000  0.62869600  0.24199500  1
  B  B56  1  0.43129000  0.87130400  0.74199500  1
  B  B57  1  0.56019900  0.17763500  0.96805800  1
  B  B58  1  0.43129000  0.62869600  0.24199500  1
  B  B59  1  0.07770400  0.98306400  0.34740200  1
  B  B60  1  0.06019900  0.67763500  0.53194200  1
  B  B61  1  0.57036000  0.81461100  0.28224300  1
  B  B62  1  0.07770400  0.51693600  0.84740200  1
  B  B63  1  0.07349600  0.15398200  0.55692200  1
  O  O64  1  0.56578300  0.37730800  0.54856400  1
  O  O65  1  0.52128900  0.73035300  0.22313900  1
  O  O66  1  0.75000000  0.64339200  0.75464500  1
  O  O67  1  0.43470400  0.60076600  0.78172200  1
  O  O68  1  0.56529600  0.10076600  0.71827800  1
  O  O69  1  0.07412900  0.23454600  0.62906800  1
  O  O70  1  0.06577200  0.56486200  0.16391900  1
  O  O71  1  0.46554300  0.07709100  0.18525700  1
  O  O72  1  0.93470400  0.10076600  0.71827800  1
  O  O73  1  0.02128900  0.23035300  0.27686100  1
  O  O74  1  0.02128900  0.26964700  0.77686100  1
  O  O75  1  0.94028800  0.06857900  0.56940900  1
  O  O76  1  0.93421700  0.12269200  0.04856400  1
  O  O77  1  0.43422800  0.93513800  0.66391900  1
  O  O78  1  0.75000000  0.85660800  0.25464500  1
  O  O79  1  0.97620500  0.79050000  0.52190000  1
  O  O80  1  0.06578300  0.87730800  0.95143600  1
  O  O81  1  0.55971200  0.43142100  0.06940900  1
  O  O82  1  0.42587100  0.23454600  0.62906800  1
  O  O83  1  0.25000000  0.39900700  0.04873500  1
  O  O84  1  0.03445700  0.07709100  0.18525700  1
  O  O85  1  0.75000000  0.54156800  0.15876400  1
  O  O86  1  0.52379500  0.79050000  0.52190000  1
  O  O87  1  0.92587100  0.76545400  0.37093200  1
  O  O88  1  0.25000000  0.04156800  0.34123600  1
  O  O89  1  0.43470400  0.89923400  0.28172200  1
  O  O90  1  0.56577200  0.06486200  0.33608100  1
  O  O91  1  0.04079100  0.37821500  0.40346900  1
  O  O92  1  0.42587100  0.26545400  0.12906800  1
  O  O93  1  0.95920900  0.62178500  0.59653100  1
  O  O94  1  0.93470400  0.39923400  0.21827800  1
  O  O95  1  0.75000000  0.60524000  0.42214800  1
  O  O96  1  0.75000000  0.30211600  0.43442000  1
  O  O97  1  0.45920900  0.37821500  0.40346900  1
  O  O98  1  0.04079100  0.12178500  0.90346900  1
  O  O99  1  0.43421700  0.87730800  0.95143600  1
  O  O100  1  0.25000000  0.10099300  0.54873500  1
  O  O101  1  0.25000000  0.86057100  0.77599200  1
  O  O102  1  0.02379500  0.29050000  0.97810000  1
  O  O103  1  0.75000000  0.19788400  0.93442000  1
  O  O104  1  0.92587100  0.73454600  0.87093200  1
  O  O105  1  0.47620500  0.20950000  0.47810000  1
  O  O106  1  0.45920900  0.12178500  0.90346900  1
  O  O107  1  0.44028800  0.93142100  0.43059100  1
  O  O108  1  0.55971200  0.06857900  0.56940900  1
  O  O109  1  0.05971200  0.93142100  0.43059100  1
  O  O110  1  0.93421700  0.37730800  0.54856400  1
  O  O111  1  0.52379500  0.70950000  0.02190000  1
  O  O112  1  0.25000000  0.10524000  0.07785200  1
  O  O113  1  0.06577200  0.93513800  0.66391900  1
  O  O114  1  0.57412900  0.73454600  0.87093200  1
  O  O115  1  0.75000000  0.36057100  0.72400800  1
  O  O116  1  0.44028800  0.56857900  0.93059100  1
  O  O117  1  0.56529600  0.39923400  0.21827800  1
  O  O118  1  0.56578300  0.12269200  0.04856400  1
  O  O119  1  0.75000000  0.13942900  0.22400800  1
  O  O120  1  0.96554300  0.92290900  0.81474300  1
  O  O121  1  0.25000000  0.39476000  0.57785200  1
  O  O122  1  0.25000000  0.63942900  0.27599200  1
  O  O123  1  0.75000000  0.89900700  0.45126500  1
  O  O124  1  0.25000000  0.80211600  0.06558000  1
  O  O125  1  0.07412900  0.26545400  0.12906800  1
  O  O126  1  0.53445700  0.57709100  0.31474300  1
  O  O127  1  0.94028800  0.43142100  0.06940900  1
  O  O128  1  0.75000000  0.89476000  0.92214800  1
  O  O129  1  0.05971200  0.56857900  0.93059100  1
  O  O130  1  0.97871100  0.73035300  0.22313900  1
  O  O131  1  0.03445700  0.42290900  0.68525700  1
  O  O132  1  0.43422800  0.56486200  0.16391900  1
  O  O133  1  0.52128900  0.76964700  0.72313900  1
  O  O134  1  0.56577200  0.43513800  0.83608100  1
  O  O135  1  0.25000000  0.35660800  0.24535500  1
  O  O136  1  0.96554300  0.57709100  0.31474300  1
  O  O137  1  0.97620500  0.70950000  0.02190000  1
  O  O138  1  0.02379500  0.20950000  0.47810000  1
  O  O139  1  0.06529600  0.60076600  0.78172200  1
  O  O140  1  0.25000000  0.45843200  0.84123600  1
  O  O141  1  0.95920900  0.87821500  0.09653100  1
  O  O142  1  0.75000000  0.95843200  0.65876400  1
  O  O143  1  0.97871100  0.76964700  0.72313900  1
  O  O144  1  0.93422800  0.06486200  0.33608100  1
  O  O145  1  0.06578300  0.62269200  0.45143600  1
  O  O146  1  0.54079100  0.87821500  0.09653100  1
  O  O147  1  0.46554300  0.42290900  0.68525700  1
  O  O148  1  0.93422800  0.43513800  0.83608100  1
  O  O149  1  0.54079100  0.62178500  0.59653100  1
  O  O150  1  0.25000000  0.14339200  0.74535500  1
  O  O151  1  0.53445700  0.92290900  0.81474300  1
  O  O152  1  0.25000000  0.69788400  0.56558000  1
  O  O153  1  0.06529600  0.89923400  0.28172200  1
  O  O154  1  0.47871100  0.23035300  0.27686100  1
  O  O155  1  0.43421700  0.62269200  0.45143600  1
  O  O156  1  0.75000000  0.60099300  0.95126500  1
  O  O157  1  0.57412900  0.76545400  0.37093200  1
  O  O158  1  0.47620500  0.29050000  0.97810000  1
  O  O159  1  0.47871100  0.26964700  0.77686100  1
