# generated using pymatgen
data_UTe2
_symmetry_space_group_name_H-M   'P 1'
_cell_length_a   7.86181873
_cell_length_b   7.86181873
_cell_length_c   7.86181873
_cell_angle_alpha   148.85715222
_cell_angle_beta   133.62706646
_cell_angle_gamma   56.91776946
_symmetry_Int_Tables_number   1
_chemical_formula_structural   UTe2
_chemical_formula_sum   'U2 Te4'
_cell_volume   180.60746227
_cell_formula_units_Z   2
loop_
 _symmetry_equiv_pos_site_id
 _symmetry_equiv_pos_as_xyz
  1  'x, y, z'
loop_
 _atom_site_type_symbol
 _atom_site_label
 _atom_site_symmetry_multiplicity
 _atom_site_fract_x
 _atom_site_fract_y
 _atom_site_fract_z
 _atom_site_occupancy
  U  U0  1  0.13321300  0.13321300  0.00000000  1
  U  U1  1  0.86678700  0.86678700  0.00000000  1
  Te  Te2  1  0.74979500  0.50000000  0.24979500  1
  Te  Te3  1  0.25020500  0.50000000  0.75020500  1
  Te  Te4  1  0.70333900  0.20333900  0.50000000  1
  Te  Te5  1  0.29666100  0.79666100  0.50000000  1
