# generated using pymatgen
data_K3Nb2CuSe12
_symmetry_space_group_name_H-M   'P 1'
_cell_length_a   13.90756700
_cell_length_b   9.70771100
_cell_length_c   17.68974433
_cell_angle_alpha   61.64736901
_cell_angle_beta   90.00000000
_cell_angle_gamma   90.00000000
_symmetry_Int_Tables_number   1
_chemical_formula_structural   K3Nb2CuSe12
_chemical_formula_sum   'K12 Nb8 Cu4 Se48'
_cell_volume   2101.80637331
_cell_formula_units_Z   4
loop_
 _symmetry_equiv_pos_site_id
 _symmetry_equiv_pos_as_xyz
  1  'x, y, z'
loop_
 _atom_site_type_symbol
 _atom_site_label
 _atom_site_symmetry_multiplicity
 _atom_site_fract_x
 _atom_site_fract_y
 _atom_site_fract_z
 _atom_site_occupancy
  K  K0  1  0.40987900  0.64154800  0.27174900  1
  K  K1  1  0.90987900  0.35845200  0.22825100  1
  K  K2  1  0.59012100  0.35845200  0.72825100  1
  K  K3  1  0.09012100  0.64154800  0.77174900  1
  K  K4  1  0.10265700  0.83642000  0.15799800  1
  K  K5  1  0.60265700  0.16358000  0.34200200  1
  K  K6  1  0.89734300  0.16358000  0.84200200  1
  K  K7  1  0.39734300  0.83642000  0.65799800  1
  K  K8  1  0.91648400  0.73660600  0.50621000  1
  K  K9  1  0.08351600  0.26339400  0.49379000  1
  K  K10  1  0.41648400  0.26339400  0.99379000  1
  K  K11  1  0.58351600  0.73660600  0.00621000  1
  Nb  Nb12  1  0.27558400  0.91027900  0.92225000  1
  Nb  Nb13  1  0.27490300  0.29025200  0.22325700  1
  Nb  Nb14  1  0.77490300  0.70974800  0.27674300  1
  Nb  Nb15  1  0.72509700  0.70974800  0.77674300  1
  Nb  Nb16  1  0.22509700  0.29025200  0.72325700  1
  Nb  Nb17  1  0.22441600  0.91027900  0.42225000  1
  Nb  Nb18  1  0.72441600  0.08972100  0.07775000  1
  Nb  Nb19  1  0.77558400  0.08972100  0.57775000  1
  Cu  Cu20  1  0.19594500  0.61007200  0.57691500  1
  Cu  Cu21  1  0.69594500  0.38992800  0.92308500  1
  Cu  Cu22  1  0.80405500  0.38992800  0.42308500  1
  Cu  Cu23  1  0.30405500  0.61007200  0.07691500  1
  Se  Se24  1  0.81935400  0.99288300  0.24568500  1
  Se  Se25  1  0.41033100  0.90177900  0.43469700  1
  Se  Se26  1  0.91033100  0.09822100  0.06530300  1
  Se  Se27  1  0.58966900  0.09822100  0.56530300  1
  Se  Se28  1  0.08966900  0.90177900  0.93469700  1
  Se  Se29  1  0.23572600  0.62866200  0.43525400  1
  Se  Se30  1  0.73572600  0.37133800  0.06474600  1
  Se  Se31  1  0.76427400  0.37133800  0.56474600  1
  Se  Se32  1  0.29706100  0.43829500  0.80003100  1
  Se  Se33  1  0.79706100  0.56170500  0.69996900  1
  Se  Se34  1  0.70293900  0.56170500  0.19996900  1
  Se  Se35  1  0.20293900  0.43829500  0.30003100  1
  Se  Se36  1  0.07329600  0.42718100  0.66049000  1
  Se  Se37  1  0.57329600  0.57281900  0.83951000  1
  Se  Se38  1  0.92670400  0.57281900  0.33951000  1
  Se  Se39  1  0.42670400  0.42718100  0.16049000  1
  Se  Se40  1  0.27875300  0.16679200  0.62974800  1
  Se  Se41  1  0.77875300  0.83320800  0.87025200  1
  Se  Se42  1  0.72124700  0.83320800  0.37025200  1
  Se  Se43  1  0.22124700  0.16679200  0.12974800  1
  Se  Se44  1  0.38918100  0.50150600  0.49484900  1
  Se  Se45  1  0.88918100  0.49849400  0.00515100  1
  Se  Se46  1  0.61081900  0.49849400  0.50515100  1
  Se  Se47  1  0.11081900  0.50150600  0.99484900  1
  Se  Se48  1  0.33125100  0.86384900  0.06404600  1
  Se  Se49  1  0.83125100  0.13615100  0.43595400  1
  Se  Se50  1  0.66874900  0.13615100  0.93595400  1
  Se  Se51  1  0.16874900  0.86384900  0.56404600  1
  Se  Se52  1  0.07308600  0.88248600  0.34244400  1
  Se  Se53  1  0.89144600  0.86054900  0.67207400  1
  Se  Se54  1  0.60855400  0.86054900  0.17207400  1
  Se  Se55  1  0.10855400  0.13945100  0.32792600  1
  Se  Se56  1  0.16410500  0.15783200  0.89103800  1
  Se  Se57  1  0.66410500  0.84216800  0.60896200  1
  Se  Se58  1  0.83589500  0.84216800  0.10896200  1
  Se  Se59  1  0.33589500  0.15783200  0.39103800  1
  Se  Se60  1  0.18064600  0.00711700  0.75431500  1
  Se  Se61  1  0.68064600  0.99288300  0.74568500  1
  Se  Se62  1  0.26427400  0.62866200  0.93525400  1
  Se  Se63  1  0.31935400  0.00711700  0.25431500  1
  Se  Se64  1  0.36030100  0.49682600  0.63840200  1
  Se  Se65  1  0.86030100  0.50317400  0.86159800  1
  Se  Se66  1  0.63969900  0.50317400  0.36159800  1
  Se  Se67  1  0.13969900  0.49682600  0.13840200  1
  Se  Se68  1  0.42691400  0.88248600  0.84244400  1
  Se  Se69  1  0.92691400  0.11751400  0.65755600  1
  Se  Se70  1  0.57308600  0.11751400  0.15755600  1
  Se  Se71  1  0.39144600  0.13945100  0.82792600  1
