# generated using pymatgen
data_Zr6Ni16Ge7
_symmetry_space_group_name_H-M   'P 1'
_cell_length_a   8.26783048
_cell_length_b   8.26783048
_cell_length_c   8.26783048
_cell_angle_alpha   60.00000000
_cell_angle_beta   60.00000000
_cell_angle_gamma   60.00000000
_symmetry_Int_Tables_number   1
_chemical_formula_structural   Zr6Ni16Ge7
_chemical_formula_sum   'Zr6 Ni16 Ge7'
_cell_volume   399.63148145
_cell_formula_units_Z   1
loop_
 _symmetry_equiv_pos_site_id
 _symmetry_equiv_pos_as_xyz
  1  'x, y, z'
loop_
 _atom_site_type_symbol
 _atom_site_label
 _atom_site_symmetry_multiplicity
 _atom_site_fract_x
 _atom_site_fract_y
 _atom_site_fract_z
 _atom_site_occupancy
  Zr  Zr0  1  0.20627200  0.79372800  0.79372800  1
  Zr  Zr1  1  0.20627200  0.79372800  0.20627200  1
  Zr  Zr2  1  0.79372800  0.20627200  0.20627200  1
  Zr  Zr3  1  0.79372800  0.20627200  0.79372800  1
  Zr  Zr4  1  0.79372800  0.79372800  0.20627200  1
  Zr  Zr5  1  0.20627200  0.20627200  0.79372800  1
  Ni  Ni6  1  0.38143300  0.38143300  0.38143300  1
  Ni  Ni7  1  0.50687100  0.83104300  0.83104300  1
  Ni  Ni8  1  0.61856700  0.61856700  0.14430000  1
  Ni  Ni9  1  0.16895700  0.16895700  0.49312900  1
  Ni  Ni10  1  0.83104300  0.83104300  0.50687100  1
  Ni  Ni11  1  0.16895700  0.16895700  0.16895700  1
  Ni  Ni12  1  0.83104300  0.83104300  0.83104300  1
  Ni  Ni13  1  0.38143300  0.38143300  0.85570000  1
  Ni  Ni14  1  0.83104300  0.50687100  0.83104300  1
  Ni  Ni15  1  0.61856700  0.61856700  0.61856700  1
  Ni  Ni16  1  0.38143300  0.85570000  0.38143300  1
  Ni  Ni17  1  0.14430000  0.61856700  0.61856700  1
  Ni  Ni18  1  0.61856700  0.14430000  0.61856700  1
  Ni  Ni19  1  0.16895700  0.49312900  0.16895700  1
  Ni  Ni20  1  0.85570000  0.38143300  0.38143300  1
  Ni  Ni21  1  0.49312900  0.16895700  0.16895700  1
  Ge  Ge22  1  0.00000000  0.00000000  0.50000000  1
  Ge  Ge23  1  0.50000000  0.00000000  0.50000000  1
  Ge  Ge24  1  0.50000000  0.50000000  0.50000000  1
  Ge  Ge25  1  0.00000000  0.50000000  0.00000000  1
  Ge  Ge26  1  0.50000000  0.50000000  0.00000000  1
  Ge  Ge27  1  0.50000000  0.00000000  0.00000000  1
  Ge  Ge28  1  0.00000000  0.50000000  0.50000000  1
