# generated using pymatgen
data_CsPuP2S7
_symmetry_space_group_name_H-M   'P 1'
_cell_length_a   12.76249000
_cell_length_b   9.14203400
_cell_length_c   10.28160400
_cell_angle_alpha   88.74458214
_cell_angle_beta   90.00000000
_cell_angle_gamma   90.00000000
_symmetry_Int_Tables_number   1
_chemical_formula_structural   CsPuP2S7
_chemical_formula_sum   'Cs4 Pu4 P8 S28'
_cell_volume   1199.31940065
_cell_formula_units_Z   4
loop_
 _symmetry_equiv_pos_site_id
 _symmetry_equiv_pos_as_xyz
  1  'x, y, z'
loop_
 _atom_site_type_symbol
 _atom_site_label
 _atom_site_symmetry_multiplicity
 _atom_site_fract_x
 _atom_site_fract_y
 _atom_site_fract_z
 _atom_site_occupancy
  Cs  Cs0  1  0.30247000  0.13399600  0.89816800  1
  Cs  Cs1  1  0.80247000  0.36600400  0.10183200  1
  Cs  Cs2  1  0.19753000  0.63399600  0.89816800  1
  Cs  Cs3  1  0.69753000  0.86600400  0.10183200  1
  Pu  Pu4  1  0.85902100  0.60566000  0.63478600  1
  Pu  Pu5  1  0.35902100  0.89434000  0.36521400  1
  Pu  Pu6  1  0.14097900  0.39434000  0.36521400  1
  Pu  Pu7  1  0.64097900  0.10566000  0.63478600  1
  P  P8  1  0.39399800  0.52440100  0.23982000  1
  P  P9  1  0.46674400  0.80035000  0.67648600  1
  P  P10  1  0.53325600  0.19965000  0.32351400  1
  P  P11  1  0.89399800  0.97559900  0.76018000  1
  P  P12  1  0.03325600  0.30035000  0.67648600  1
  P  P13  1  0.10600200  0.02440100  0.23982000  1
  P  P14  1  0.60600200  0.47559900  0.76018000  1
  P  P15  1  0.96674400  0.69965000  0.32351400  1
  S  S16  1  0.17175900  0.07741000  0.41498200  1
  S  S17  1  0.94314300  0.32480200  0.51377600  1
  S  S18  1  0.05685700  0.67519800  0.48622400  1
  S  S19  1  0.68619500  0.14758000  0.35999500  1
  S  S20  1  0.04701500  0.07451200  0.73632200  1
  S  S21  1  0.93679500  0.78616600  0.85220100  1
  S  S22  1  0.81380500  0.64758000  0.35999500  1
  S  S23  1  0.18619500  0.35242000  0.64000500  1
  S  S24  1  0.54701500  0.42548800  0.26367800  1
  S  S25  1  0.44314300  0.17519800  0.48622400  1
  S  S26  1  0.70903900  0.61135200  0.84529800  1
  S  S27  1  0.45298500  0.57451200  0.73632200  1
  S  S28  1  0.43679500  0.71383400  0.14779900  1
  S  S29  1  0.29096100  0.38864800  0.15470200  1
  S  S30  1  0.31380500  0.85242000  0.64000500  1
  S  S31  1  0.97070200  0.42577200  0.81804400  1
  S  S32  1  0.02929800  0.57422800  0.18195600  1
  S  S33  1  0.79096100  0.11135200  0.84529800  1
  S  S34  1  0.55685700  0.82480200  0.51377600  1
  S  S35  1  0.56320500  0.28616600  0.85220100  1
  S  S36  1  0.47070200  0.07422800  0.18195600  1
  S  S37  1  0.32824100  0.57741000  0.41498200  1
  S  S38  1  0.95298500  0.92548800  0.26367800  1
  S  S39  1  0.06320500  0.21383400  0.14779900  1
  S  S40  1  0.52929800  0.92577200  0.81804400  1
  S  S41  1  0.82824100  0.92259000  0.58501800  1
  S  S42  1  0.67175900  0.42259000  0.58501800  1
  S  S43  1  0.20903900  0.88864800  0.15470200  1
