# generated using pymatgen
data_KMgIn(MoO4)3
_symmetry_space_group_name_H-M   'P 1'
_cell_length_a   9.67485184
_cell_length_b   9.67485184
_cell_length_c   9.99091869
_cell_angle_alpha   61.10592459
_cell_angle_beta   61.10592459
_cell_angle_gamma   59.93175298
_symmetry_Int_Tables_number   1
_chemical_formula_structural   KMgIn(MoO4)3
_chemical_formula_sum   'K2 Mg2 In2 Mo6 O24'
_cell_volume   671.75104800
_cell_formula_units_Z   2
loop_
 _symmetry_equiv_pos_site_id
 _symmetry_equiv_pos_as_xyz
  1  'x, y, z'
loop_
 _atom_site_type_symbol
 _atom_site_label
 _atom_site_symmetry_multiplicity
 _atom_site_fract_x
 _atom_site_fract_y
 _atom_site_fract_z
 _atom_site_occupancy
  K  K0  1  0.88054700  0.62428900  0.24471400  1
  K  K1  1  0.37571100  0.11945300  0.75528600  1
  Mg  Mg2  1  0.24417300  0.96834000  0.18153700  1
  Mg  Mg3  1  0.03166000  0.75582700  0.81846300  1
  In  In4  1  0.74536500  0.46753700  0.68009800  1
  In  In5  1  0.53246300  0.25463500  0.31990200  1
  Mo  Mo6  1  0.92866800  0.07133200  0.00000000  1
  Mo  Mo7  1  0.63673200  0.64960600  0.00263200  1
  Mo  Mo8  1  0.85910400  0.14089600  0.50000000  1
  Mo  Mo9  1  0.41945500  0.86378300  0.49888000  1
  Mo  Mo10  1  0.13621700  0.58054500  0.50112000  1
  Mo  Mo11  1  0.35039400  0.36326800  0.99736800  1
  O  O12  1  0.95687000  0.88743100  0.97503100  1
  O  O13  1  0.89060600  0.96632100  0.67441500  1
  O  O14  1  0.81744800  0.67857500  0.97676300  1
  O  O15  1  0.95781200  0.54921600  0.51685700  1
  O  O16  1  0.89638200  0.24981300  0.82338300  1
  O  O17  1  0.66408300  0.61688400  0.82722200  1
  O  O18  1  0.82921600  0.33270900  0.51822300  1
  O  O19  1  0.60853300  0.67991600  0.51928400  1
  O  O20  1  0.53026700  0.38919100  0.82027600  1
  O  O21  1  0.38858100  0.89883100  0.32275500  1
  O  O22  1  0.24261900  0.83359200  0.66994000  1
  O  O23  1  0.66729100  0.17078400  0.48177700  1
  O  O24  1  0.61080900  0.46973300  0.17972400  1
  O  O25  1  0.16666500  0.54359300  0.97149100  1
  O  O26  1  0.45640700  0.83333500  0.02850900  1
  O  O27  1  0.75018700  0.10361800  0.17661700  1
  O  O28  1  0.32008400  0.39146700  0.48071600  1
  O  O29  1  0.10116900  0.61141900  0.67724500  1
  O  O30  1  0.45078400  0.04218800  0.48314300  1
  O  O31  1  0.16640800  0.75738100  0.33006000  1
  O  O32  1  0.38311600  0.33591700  0.17277800  1
  O  O33  1  0.32142500  0.18255200  0.02323700  1
  O  O34  1  0.03367900  0.10939400  0.32558500  1
  O  O35  1  0.11256900  0.04313000  0.02496900  1
