# generated using pymatgen
data_NaLuGeO4
_symmetry_space_group_name_H-M   'P 1'
_cell_length_a   5.28250100
_cell_length_b   6.38057600
_cell_length_c   11.32070200
_cell_angle_alpha   90.00000000
_cell_angle_beta   90.00000000
_cell_angle_gamma   90.00000000
_symmetry_Int_Tables_number   1
_chemical_formula_structural   NaLuGeO4
_chemical_formula_sum   'Na4 Lu4 Ge4 O16'
_cell_volume   381.56877901
_cell_formula_units_Z   4
loop_
 _symmetry_equiv_pos_site_id
 _symmetry_equiv_pos_as_xyz
  1  'x, y, z'
loop_
 _atom_site_type_symbol
 _atom_site_label
 _atom_site_symmetry_multiplicity
 _atom_site_fract_x
 _atom_site_fract_y
 _atom_site_fract_z
 _atom_site_occupancy
  Na  Na0  1  0.50000000  0.50000000  0.00000000  1
  Na  Na1  1  0.00000000  0.50000000  0.50000000  1
  Na  Na2  1  0.50000000  0.00000000  0.00000000  1
  Na  Na3  1  0.00000000  0.00000000  0.50000000  1
  Lu  Lu4  1  0.99371400  0.75000000  0.22347700  1
  Lu  Lu5  1  0.49371400  0.25000000  0.27652300  1
  Lu  Lu6  1  0.00628600  0.25000000  0.77652300  1
  Lu  Lu7  1  0.50628600  0.75000000  0.72347700  1
  Ge  Ge8  1  0.94977000  0.75000000  0.90092000  1
  Ge  Ge9  1  0.44977000  0.25000000  0.59908000  1
  Ge  Ge10  1  0.05023000  0.25000000  0.09908000  1
  Ge  Ge11  1  0.55023000  0.75000000  0.40092000  1
  O  O12  1  0.83349400  0.75000000  0.04697500  1
  O  O13  1  0.33349400  0.25000000  0.45302500  1
  O  O14  1  0.16650600  0.25000000  0.95302500  1
  O  O15  1  0.66650600  0.75000000  0.54697500  1
  O  O16  1  0.20788300  0.03971700  0.17729800  1
  O  O17  1  0.70788300  0.96028300  0.32270200  1
  O  O18  1  0.79211700  0.53971700  0.82270200  1
  O  O19  1  0.29211700  0.46028300  0.67729800  1
  O  O20  1  0.79211700  0.96028300  0.82270200  1
  O  O21  1  0.29211700  0.03971700  0.67729800  1
  O  O22  1  0.20788300  0.46028300  0.17729800  1
  O  O23  1  0.70788300  0.53971700  0.32270200  1
  O  O24  1  0.22139200  0.75000000  0.38699600  1
  O  O25  1  0.72139200  0.25000000  0.11300400  1
  O  O26  1  0.77860800  0.25000000  0.61300400  1
  O  O27  1  0.27860800  0.75000000  0.88699600  1
