# generated using pymatgen
data_TeS7Cl2
_symmetry_space_group_name_H-M   'P 1'
_cell_length_a   9.20488600
_cell_length_b   9.89320000
_cell_length_c   14.32853000
_cell_angle_alpha   90.00000000
_cell_angle_beta   90.00000000
_cell_angle_gamma   90.00000000
_symmetry_Int_Tables_number   1
_chemical_formula_structural   TeS7Cl2
_chemical_formula_sum   'Te4 S28 Cl8'
_cell_volume   1304.83873456
_cell_formula_units_Z   4
loop_
 _symmetry_equiv_pos_site_id
 _symmetry_equiv_pos_as_xyz
  1  'x, y, z'
loop_
 _atom_site_type_symbol
 _atom_site_label
 _atom_site_symmetry_multiplicity
 _atom_site_fract_x
 _atom_site_fract_y
 _atom_site_fract_z
 _atom_site_occupancy
  Te  Te0  1  0.75000000  0.32370700  0.60360000  1
  Te  Te1  1  0.25000000  0.17629300  0.10360000  1
  Te  Te2  1  0.25000000  0.67629300  0.39640000  1
  Te  Te3  1  0.75000000  0.82370700  0.89640000  1
  S  S4  1  0.93202400  0.63573700  0.18513300  1
  S  S5  1  0.93202400  0.13573700  0.31486700  1
  S  S6  1  0.46456400  0.80366700  0.45986500  1
  S  S7  1  0.75000000  0.22122600  0.25549800  1
  S  S8  1  0.52245200  0.73373400  0.58640900  1
  S  S9  1  0.43202400  0.36426300  0.81486700  1
  S  S10  1  0.96456400  0.19633300  0.54013500  1
  S  S11  1  0.52245200  0.23373400  0.91359100  1
  S  S12  1  0.25000000  0.27877400  0.75549800  1
  S  S13  1  0.97754800  0.73373400  0.58640900  1
  S  S14  1  0.02245200  0.76626600  0.08640900  1
  S  S15  1  0.47754800  0.76626600  0.08640900  1
  S  S16  1  0.02245200  0.26626600  0.41359100  1
  S  S17  1  0.97754800  0.23373400  0.91359100  1
  S  S18  1  0.03543600  0.30366700  0.04013500  1
  S  S19  1  0.06797600  0.36426300  0.81486700  1
  S  S20  1  0.43202400  0.86426300  0.68513300  1
  S  S21  1  0.56797600  0.13573700  0.31486700  1
  S  S22  1  0.25000000  0.77877400  0.74450200  1
  S  S23  1  0.56797600  0.63573700  0.18513300  1
  S  S24  1  0.06797600  0.86426300  0.68513300  1
  S  S25  1  0.53543600  0.19633300  0.54013500  1
  S  S26  1  0.75000000  0.72122600  0.24450200  1
  S  S27  1  0.46456400  0.30366700  0.04013500  1
  S  S28  1  0.47754800  0.26626600  0.41359100  1
  S  S29  1  0.03543600  0.80366700  0.45986500  1
  S  S30  1  0.96456400  0.69633300  0.95986500  1
  S  S31  1  0.53543600  0.69633300  0.95986500  1
  Cl  Cl32  1  0.25000000  0.88168300  0.29013200  1
  Cl  Cl33  1  0.75000000  0.98546300  0.02588000  1
  Cl  Cl34  1  0.25000000  0.01453700  0.97412000  1
  Cl  Cl35  1  0.75000000  0.11831700  0.70986800  1
  Cl  Cl36  1  0.75000000  0.48546300  0.47412000  1
  Cl  Cl37  1  0.25000000  0.51453700  0.52588000  1
  Cl  Cl38  1  0.75000000  0.61831700  0.79013200  1
  Cl  Cl39  1  0.25000000  0.38168300  0.20986800  1
