# generated using pymatgen
data_Hf5ZrTe8
_symmetry_space_group_name_H-M   'P 1'
_cell_length_a   10.98042800
_cell_length_b   11.01293677
_cell_length_c   15.77775338
_cell_angle_alpha   89.99790348
_cell_angle_beta   90.01172588
_cell_angle_gamma   119.88846624
_symmetry_Int_Tables_number   1
_chemical_formula_structural   Hf5ZrTe8
_chemical_formula_sum   'Hf20 Zr4 Te32'
_cell_volume   1654.18927621
_cell_formula_units_Z   4
loop_
 _symmetry_equiv_pos_site_id
 _symmetry_equiv_pos_as_xyz
  1  'x, y, z'
loop_
 _atom_site_type_symbol
 _atom_site_label
 _atom_site_symmetry_multiplicity
 _atom_site_fract_x
 _atom_site_fract_y
 _atom_site_fract_z
 _atom_site_occupancy
  Hf  Hf0  1  0.48994700  0.36706800  0.93736200  1
  Hf  Hf1  1  0.49080000  0.36583300  0.43793400  1
  Hf  Hf2  1  0.49022200  0.36704700  0.18730200  1
  Hf  Hf3  1  0.63306500  0.12153500  0.68776200  1
  Hf  Hf4  1  0.63274000  0.12127200  0.93763300  1
  Hf  Hf5  1  0.63281900  0.12220600  0.18807600  1
  Hf  Hf6  1  0.87669900  0.50857100  0.93793000  1
  Hf  Hf7  1  0.87675800  0.50968500  0.68761000  1
  Hf  Hf8  1  0.87804000  0.51005200  0.43763300  1
  Hf  Hf9  1  0.87768500  0.50970400  0.18688700  1
  Hf  Hf10  1  0.12250300  0.48998500  0.81224800  1
  Hf  Hf11  1  0.12348400  0.49113600  0.31291000  1
  Hf  Hf12  1  0.12214300  0.49017000  0.06294900  1
  Hf  Hf13  1  0.36578300  0.87706500  0.56283400  1
  Hf  Hf14  1  0.36731500  0.87875200  0.31262500  1
  Hf  Hf15  1  0.36687500  0.87788200  0.06167100  1
  Hf  Hf16  1  0.51025700  0.63289700  0.56308800  1
  Hf  Hf17  1  0.51051300  0.63378100  0.81276400  1
  Hf  Hf18  1  0.50988700  0.63298600  0.31165700  1
  Hf  Hf19  1  0.50896100  0.63242900  0.06265100  1
  Zr  Zr20  1  0.49158500  0.36784200  0.68724800  1
  Zr  Zr21  1  0.63218500  0.12184700  0.43654500  1
  Zr  Zr22  1  0.12291100  0.49133100  0.56183100  1
  Zr  Zr23  1  0.36764000  0.87731600  0.81292600  1
  Te  Te24  1  0.34292900  0.05639500  0.93834900  1
  Te  Te25  1  0.34265500  0.05436900  0.68655900  1
  Te  Te26  1  0.33842800  0.05248900  0.43769700  1
  Te  Te27  1  0.34196700  0.05424900  0.18731300  1
  Te  Te28  1  0.71118100  0.65676400  0.93797300  1
  Te  Te29  1  0.71331700  0.66055900  0.68808100  1
  Te  Te30  1  0.71080800  0.65651500  0.43726000  1
  Te  Te31  1  0.71127200  0.65668900  0.18703800  1
  Te  Te32  1  0.66741900  0.33193700  0.81320200  1
  Te  Te33  1  0.66854400  0.33285400  0.56237300  1
  Te  Te34  1  0.66750100  0.33410200  0.31179500  1
  Te  Te35  1  0.66656500  0.33202600  0.06263300  1
  Te  Te36  1  0.05111500  0.70968100  0.81287200  1
  Te  Te37  1  0.05112600  0.71329400  0.56301100  1
  Te  Te38  1  0.05302000  0.71163400  0.31218800  1
  Te  Te39  1  0.05316000  0.71174100  0.06209700  1
  Te  Te40  1  0.94713300  0.28829000  0.93789800  1
  Te  Te41  1  0.94528700  0.28770000  0.68806900  1
  Te  Te42  1  0.94686800  0.28877300  0.43592300  1
  Te  Te43  1  0.94709000  0.28854100  0.18791100  1
  Te  Te44  1  0.33241300  0.66592700  0.93808800  1
  Te  Te45  1  0.33367300  0.66690300  0.68770900  1
  Te  Te46  1  0.33279000  0.66788900  0.18733200  1
  Te  Te47  1  0.33492500  0.66887400  0.43691200  1
  Te  Te48  1  0.28824800  0.34425700  0.81324700  1
  Te  Te49  1  0.28949800  0.34361200  0.56104900  1
  Te  Te50  1  0.28948200  0.34321300  0.31261400  1
  Te  Te51  1  0.28838300  0.34270900  0.06266100  1
  Te  Te52  1  0.66139900  0.94704300  0.81303600  1
  Te  Te53  1  0.65646000  0.94378700  0.56330000  1
  Te  Te54  1  0.65698700  0.94343700  0.31097800  1
  Te  Te55  1  0.65754100  0.94535800  0.06275800  1
