# generated using pymatgen
data_Ba2AlH7
_symmetry_space_group_name_H-M   'P 1'
_cell_length_a   8.81390027
_cell_length_b   8.81390027
_cell_length_c   8.56715393
_cell_angle_alpha   70.10945678
_cell_angle_beta   70.10945678
_cell_angle_gamma   71.82281729
_symmetry_Int_Tables_number   1
_chemical_formula_structural   Ba2AlH7
_chemical_formula_sum   'Ba8 Al4 H28'
_cell_volume   573.83015707
_cell_formula_units_Z   4
loop_
 _symmetry_equiv_pos_site_id
 _symmetry_equiv_pos_as_xyz
  1  'x, y, z'
loop_
 _atom_site_type_symbol
 _atom_site_label
 _atom_site_symmetry_multiplicity
 _atom_site_fract_x
 _atom_site_fract_y
 _atom_site_fract_z
 _atom_site_occupancy
  Ba  Ba0  1  0.25930400  0.92862000  0.48265700  1
  Ba  Ba1  1  0.07138000  0.74069600  0.01734300  1
  Ba  Ba2  1  0.74069600  0.07138000  0.51734300  1
  Ba  Ba3  1  0.92862000  0.25930400  0.98265700  1
  Ba  Ba4  1  0.28062100  0.43408900  0.48049700  1
  Ba  Ba5  1  0.56591100  0.71937900  0.01950300  1
  Ba  Ba6  1  0.71937900  0.56591100  0.51950300  1
  Ba  Ba7  1  0.43408900  0.28062100  0.98049700  1
  Al  Al8  1  0.31820800  0.03180000  0.80239700  1
  Al  Al9  1  0.96820000  0.68179200  0.69760300  1
  Al  Al10  1  0.68179200  0.96820000  0.19760300  1
  Al  Al11  1  0.03180000  0.31820800  0.30239700  1
  H  H12  1  0.39060400  0.10583900  0.58062600  1
  H  H13  1  0.89416100  0.60939600  0.91937400  1
  H  H14  1  0.60939600  0.89416100  0.41937400  1
  H  H15  1  0.10583900  0.39060400  0.08062600  1
  H  H16  1  0.37704800  0.82379300  0.78100400  1
  H  H17  1  0.17620700  0.62295200  0.71899600  1
  H  H18  1  0.62295200  0.17620700  0.21899600  1
  H  H19  1  0.82379300  0.37704800  0.28100400  1
  H  H20  1  0.51200300  0.01735900  0.82751500  1
  H  H21  1  0.98264100  0.48799700  0.67248500  1
  H  H22  1  0.48799700  0.98264100  0.17248500  1
  H  H23  1  0.01735900  0.51200300  0.32751500  1
  H  H24  1  0.25392100  0.94518200  0.02556400  1
  H  H25  1  0.05481800  0.74607900  0.47443600  1
  H  H26  1  0.74607900  0.05481800  0.97443600  1
  H  H27  1  0.94518200  0.25392100  0.52556400  1
  H  H28  1  0.24719500  0.23579900  0.82079000  1
  H  H29  1  0.76420100  0.75280500  0.67921000  1
  H  H30  1  0.75280500  0.76420100  0.17921000  1
  H  H31  1  0.23579900  0.24719500  0.32079000  1
  H  H32  1  0.12359300  0.03867600  0.78739700  1
  H  H33  1  0.96132400  0.87640700  0.71260300  1
  H  H34  1  0.87640700  0.96132400  0.21260300  1
  H  H35  1  0.03867600  0.12359300  0.28739700  1
  H  H36  1  0.33772000  0.54668600  0.12609600  1
  H  H37  1  0.45331400  0.66228000  0.37390400  1
  H  H38  1  0.66228000  0.45331400  0.87390400  1
  H  H39  1  0.54668600  0.33772000  0.62609600  1
