# generated using pymatgen
data_Cs5Bi(MoO4)4
_symmetry_space_group_name_H-M   'P 1'
_cell_length_a   8.51353841
_cell_length_b   10.70632705
_cell_length_c   13.75972130
_cell_angle_alpha   83.81426803
_cell_angle_beta   71.87054906
_cell_angle_gamma   69.85760019
_symmetry_Int_Tables_number   1
_chemical_formula_structural   Cs5Bi(MoO4)4
_chemical_formula_sum   'Cs10 Bi2 Mo8 O32'
_cell_volume   1119.02003829
_cell_formula_units_Z   2
loop_
 _symmetry_equiv_pos_site_id
 _symmetry_equiv_pos_as_xyz
  1  'x, y, z'
loop_
 _atom_site_type_symbol
 _atom_site_label
 _atom_site_symmetry_multiplicity
 _atom_site_fract_x
 _atom_site_fract_y
 _atom_site_fract_z
 _atom_site_occupancy
  Cs  Cs0  1  0.43590500  0.54729500  0.37410400  1
  Cs  Cs1  1  0.83125300  0.43989700  0.11682200  1
  Cs  Cs2  1  0.17337300  0.55077100  0.87962200  1
  Cs  Cs3  1  0.19627100  0.94689300  0.37759900  1
  Cs  Cs4  1  0.05380500  0.04925600  0.12112800  1
  Cs  Cs5  1  0.56516800  0.74719000  0.87536200  1
  Cs  Cs6  1  0.94949600  0.94173000  0.88218900  1
  Cs  Cs7  1  0.80687900  0.04811900  0.62572500  1
  Cs  Cs8  1  0.43870800  0.24728000  0.12620500  1
  Cs  Cs9  1  0.57395400  0.44722100  0.62365600  1
  Bi  Bi10  1  0.80931200  0.74787100  0.38759300  1
  Bi  Bi11  1  0.19721500  0.24642200  0.61324700  1
  Mo  Mo12  1  0.35084600  0.14241800  0.85737400  1
  Mo  Mo13  1  0.40383800  0.85962400  0.62151300  1
  Mo  Mo14  1  0.02707800  0.36090300  0.37876900  1
  Mo  Mo15  1  0.20553700  0.64186500  0.14307300  1
  Mo  Mo16  1  0.98244500  0.63363000  0.62112600  1
  Mo  Mo17  1  0.60356500  0.13402000  0.37890200  1
  Mo  Mo18  1  0.79555800  0.35038800  0.85605200  1
  Mo  Mo19  1  0.65163200  0.85017900  0.14516200  1
  O  O20  1  0.13725700  0.51237200  0.11898600  1
  O  O21  1  0.79856500  0.24080900  0.96306900  1
  O  O22  1  0.57588000  0.89896000  0.64214900  1
  O  O23  1  0.22169800  0.39880200  0.35422500  1
  O  O24  1  0.48886400  0.77029600  0.50051200  1
  O  O25  1  0.05754800  0.73350400  0.26373800  1
  O  O26  1  0.99220200  0.27389300  0.50115700  1
  O  O27  1  0.43578200  0.09071100  0.35650500  1
  O  O28  1  0.67302700  0.24128100  0.27942200  1
  O  O29  1  0.84224600  0.51763100  0.38532100  1
  O  O30  1  0.22473400  0.01587100  0.61504700  1
  O  O31  1  0.86111400  0.48120700  0.88076200  1
  O  O32  1  0.42306100  0.56981100  0.15228300  1
  O  O33  1  0.25852800  0.01269000  0.88255600  1
  O  O34  1  0.42442000  0.91945900  0.15451700  1
  O  O35  1  0.20371700  0.75144800  0.03600600  1
  O  O36  1  0.79001100  0.59273200  0.64538900  1
  O  O37  1  0.24062800  0.25338500  0.96345000  1
  O  O38  1  0.76256500  0.73972100  0.03877100  1
  O  O39  1  0.67867100  0.76080100  0.26641700  1
  O  O40  1  0.95593800  0.74013700  0.71996000  1
  O  O41  1  0.57805800  0.42000700  0.84632600  1
  O  O42  1  0.74208500  0.98101600  0.12003400  1
  O  O43  1  0.33154400  0.75513400  0.72233700  1
  O  O44  1  0.32526700  0.23169400  0.73582900  1
  O  O45  1  0.57772300  0.07074000  0.84840300  1
  O  O46  1  0.16873000  0.47833400  0.61515600  1
  O  O47  1  0.01641100  0.72064400  0.49856600  1
  O  O48  1  0.78604900  0.98002300  0.38399100  1
  O  O49  1  0.05134400  0.25476700  0.28039300  1
  O  O50  1  0.94539200  0.25995500  0.73543300  1
  O  O51  1  0.51536500  0.22113800  0.50124800  1
