# generated using pymatgen
data_Na2CdO2
_symmetry_space_group_name_H-M   'P 1'
_cell_length_a   9.40939833
_cell_length_b   9.41654836
_cell_length_c   9.40170052
_cell_angle_alpha   109.44225839
_cell_angle_beta   109.66507543
_cell_angle_gamma   109.44297056
_symmetry_Int_Tables_number   1
_chemical_formula_structural   Na2CdO2
_chemical_formula_sum   'Na16 Cd8 O16'
_cell_volume   640.17976124
_cell_formula_units_Z   8
loop_
 _symmetry_equiv_pos_site_id
 _symmetry_equiv_pos_as_xyz
  1  'x, y, z'
loop_
 _atom_site_type_symbol
 _atom_site_label
 _atom_site_symmetry_multiplicity
 _atom_site_fract_x
 _atom_site_fract_y
 _atom_site_fract_z
 _atom_site_occupancy
  Na  Na0  1  0.03481500  0.49013400  0.76821500  1
  Na  Na1  1  0.23354600  0.96584800  0.50957300  1
  Na  Na2  1  0.22748900  0.27490700  0.73830800  1
  Na  Na3  1  0.01116900  0.04557400  0.26967100  1
  Na  Na4  1  0.22518200  0.45036200  0.46364900  1
  Na  Na5  1  0.04302300  0.27284000  0.00915300  1
  Na  Na6  1  0.27970900  0.74648300  0.23247200  1
  Na  Na7  1  0.72876600  0.98601100  0.95014700  1
  Na  Na8  1  0.52951200  0.76225400  0.54198000  1
  Na  Na9  1  0.49989800  0.23617100  0.95702500  1
  Na  Na10  1  0.48992800  0.76827500  0.03965400  1
  Na  Na11  1  0.45009000  0.45878600  0.22540400  1
  Na  Na12  1  0.27797600  0.01543100  0.04962700  1
  Na  Na13  1  0.73216000  0.26743400  0.78352200  1
  Na  Na14  1  0.96626100  0.73305700  0.99629400  1
  Na  Na15  1  0.77533400  0.54886200  0.53515900  1
  Cd  Cd16  1  0.26494300  0.77006100  0.72980500  1
  Cd  Cd17  1  0.54200400  0.53868100  0.77793700  1
  Cd  Cd18  1  0.45610000  0.22414000  0.45140400  1
  Cd  Cd19  1  0.00133500  0.96268500  0.74036300  1
  Cd  Cd20  1  0.76806400  0.72174400  0.25512200  1
  Cd  Cd21  1  0.73016800  0.21699200  0.26132300  1
  Cd  Cd22  1  0.75338900  0.03039700  0.49050400  1
  Cd  Cd23  1  0.97161200  0.51424900  0.23395500  1
  O  O24  1  0.04185500  0.75551600  0.77778900  1
  O  O25  1  0.22575000  0.97559900  0.25781700  1
  O  O26  1  0.98321900  0.98874500  0.49489500  1
  O  O27  1  0.28894200  0.54271500  0.75228900  1
  O  O28  1  0.24254400  0.71432300  0.47261800  1
  O  O29  1  0.24437700  0.21231300  0.96071100  1
  O  O30  1  0.47024500  0.26256000  0.71217000  1
  O  O31  1  0.50366400  0.49213800  0.50793700  1
  O  O32  1  0.54614200  0.75380100  0.29007800  1
  O  O33  1  0.74760300  0.77249800  0.03322000  1
  O  O34  1  0.73966500  0.26955500  0.51460500  1
  O  O35  1  0.72712500  0.47150200  0.24941800  1
  O  O36  1  0.50184200  0.00162700  0.99744200  1
  O  O37  1  0.78883900  0.02796000  0.74129200  1
  O  O38  1  0.95338300  0.25291700  0.21788400  1
  O  O39  1  0.00233300  0.50485600  0.00956700  1
