# generated using pymatgen
data_KTiPO5
_symmetry_space_group_name_H-M   'P 1'
_cell_length_a   6.49255500
_cell_length_b   10.70371500
_cell_length_c   12.98499400
_cell_angle_alpha   90.00000000
_cell_angle_beta   90.00000000
_cell_angle_gamma   90.00000000
_symmetry_Int_Tables_number   1
_chemical_formula_structural   KTiPO5
_chemical_formula_sum   'K8 Ti8 P8 O40'
_cell_volume   902.38512460
_cell_formula_units_Z   8
loop_
 _symmetry_equiv_pos_site_id
 _symmetry_equiv_pos_as_xyz
  1  'x, y, z'
loop_
 _atom_site_type_symbol
 _atom_site_label
 _atom_site_symmetry_multiplicity
 _atom_site_fract_x
 _atom_site_fract_y
 _atom_site_fract_z
 _atom_site_occupancy
  K  K0  1  0.20088100  0.56563200  0.60605800  1
  K  K1  1  0.21995200  0.81058000  0.37562000  1
  K  K2  1  0.71995200  0.31058000  0.12438000  1
  K  K3  1  0.28004800  0.81058000  0.87562000  1
  K  K4  1  0.78004800  0.31058000  0.62438000  1
  K  K5  1  0.70088100  0.06563200  0.89394200  1
  K  K6  1  0.29911900  0.56563200  0.10605800  1
  K  K7  1  0.79911900  0.06563200  0.39394200  1
  Ti  Ti8  1  0.76434300  0.75458300  0.74564900  1
  Ti  Ti9  1  0.23565700  0.25458300  0.25435100  1
  Ti  Ti10  1  0.73565700  0.75458300  0.24564900  1
  Ti  Ti11  1  0.26434300  0.25458300  0.75435100  1
  Ti  Ti12  1  0.99951900  0.50422300  0.87122600  1
  Ti  Ti13  1  0.00048100  0.00422300  0.12877400  1
  Ti  Ti14  1  0.50048100  0.50422300  0.37122600  1
  Ti  Ti15  1  0.49951900  0.00422300  0.62877400  1
  P  P16  1  0.83954000  0.76191600  0.99830600  1
  P  P17  1  0.33954000  0.26191600  0.50169400  1
  P  P18  1  0.66046000  0.76191600  0.49830600  1
  P  P19  1  0.16046000  0.26191600  0.00169400  1
  P  P20  1  0.50339100  0.51269100  0.81955800  1
  P  P21  1  0.49660900  0.01269100  0.18044200  1
  P  P22  1  0.99660900  0.51269100  0.31955800  1
  P  P23  1  0.00339100  0.01269100  0.68044200  1
  O  O24  1  0.96322600  0.89892600  0.75200200  1
  O  O25  1  0.03677400  0.39892600  0.24799800  1
  O  O26  1  0.53677400  0.89892600  0.25200200  1
  O  O27  1  0.46322600  0.39892600  0.74799800  1
  O  O28  1  0.03951200  0.12815800  0.75194300  1
  O  O29  1  0.96048800  0.62815800  0.24805700  1
  O  O30  1  0.46048800  0.12815800  0.25194300  1
  O  O31  1  0.53951200  0.62815800  0.74805700  1
  O  O32  1  0.19410100  0.98665500  0.61255800  1
  O  O33  1  0.80589900  0.48665500  0.38744200  1
  O  O34  1  0.30589900  0.98665500  0.11255800  1
  O  O35  1  0.69410100  0.48665500  0.88744200  1
  O  O36  1  0.81369700  0.04114900  0.61212400  1
  O  O37  1  0.18630300  0.54114900  0.38787600  1
  O  O38  1  0.68630300  0.04114900  0.11212400  1
  O  O39  1  0.69885500  0.74020100  0.09429100  1
  O  O40  1  0.31369700  0.54114900  0.88787600  1
  O  O41  1  0.45234600  0.38931400  0.27600600  1
  O  O42  1  0.95234600  0.88931400  0.22399400  1
  O  O43  1  0.04765400  0.38931400  0.77600600  1
  O  O44  1  0.46316000  0.14197000  0.72355500  1
  O  O45  1  0.53684000  0.64197000  0.27644500  1
  O  O46  1  0.03684000  0.14197000  0.22355500  1
  O  O47  1  0.96316000  0.64197000  0.77644500  1
  O  O48  1  0.48930100  0.15179200  0.51453800  1
  O  O49  1  0.51069900  0.65179200  0.48546200  1
  O  O50  1  0.01069900  0.15179200  0.01453800  1
  O  O51  1  0.98930100  0.65179200  0.98546200  1
  O  O52  1  0.46707600  0.38469500  0.48890500  1
  O  O53  1  0.53292400  0.88469500  0.51109500  1
  O  O54  1  0.03292400  0.38469500  0.98890500  1
  O  O55  1  0.96707600  0.88469500  0.01109500  1
  O  O56  1  0.20116600  0.28125400  0.59839900  1
  O  O57  1  0.79883400  0.78125400  0.40160100  1
  O  O58  1  0.29883400  0.28125400  0.09839900  1
  O  O59  1  0.70116600  0.78125400  0.90160100  1
  O  O60  1  0.19885500  0.24020100  0.40570900  1
  O  O61  1  0.80114500  0.74020100  0.59429100  1
  O  O62  1  0.30114500  0.24020100  0.90570900  1
  O  O63  1  0.54765400  0.88931400  0.72399400  1
