# generated using pymatgen
data_KZnPO4
_symmetry_space_group_name_H-M   'P 1'
_cell_length_a   18.47247781
_cell_length_b   18.47247781
_cell_length_c   8.64909600
_cell_angle_alpha   90.00000000
_cell_angle_beta   90.00000000
_cell_angle_gamma   119.99999932
_symmetry_Int_Tables_number   1
_chemical_formula_structural   KZnPO4
_chemical_formula_sum   'K24 Zn24 P24 O96'
_cell_volume   2555.94591267
_cell_formula_units_Z   24
loop_
 _symmetry_equiv_pos_site_id
 _symmetry_equiv_pos_as_xyz
  1  'x, y, z'
loop_
 _atom_site_type_symbol
 _atom_site_label
 _atom_site_symmetry_multiplicity
 _atom_site_fract_x
 _atom_site_fract_y
 _atom_site_fract_z
 _atom_site_occupancy
  K  K0  1  0.48046100  0.00008900  0.92734600  1
  K  K1  1  0.19477700  0.33442800  0.41810200  1
  K  K2  1  0.51962800  0.51953900  0.92734600  1
  K  K3  1  0.80522300  0.66557200  0.91810200  1
  K  K4  1  0.15166000  0.33088100  0.92806100  1
  K  K5  1  0.33333300  0.66666700  0.42072500  1
  K  K6  1  0.66557200  0.86034900  0.41810200  1
  K  K7  1  0.33088100  0.17922100  0.42806100  1
  K  K8  1  0.66666700  0.33333300  0.42516400  1
  K  K9  1  0.84834000  0.66911900  0.42806100  1
  K  K10  1  0.51953900  0.99991100  0.42734600  1
  K  K11  1  0.00008900  0.51962800  0.42734600  1
  K  K12  1  0.00000000  0.00000000  0.95885200  1
  K  K13  1  0.99991100  0.48037200  0.92734600  1
  K  K14  1  0.82077900  0.15166000  0.42806100  1
  K  K15  1  0.66911900  0.82077900  0.92806100  1
  K  K16  1  0.66666700  0.33333300  0.92072500  1
  K  K17  1  0.33442800  0.13965100  0.91810200  1
  K  K18  1  0.17922100  0.84834000  0.92806100  1
  K  K19  1  0.33333300  0.66666700  0.92516400  1
  K  K20  1  0.86034900  0.19477700  0.91810200  1
  K  K21  1  0.13965100  0.80522300  0.41810200  1
  K  K22  1  0.48037200  0.48046100  0.42734600  1
  K  K23  1  0.00000000  0.00000000  0.45885200  1
  Zn  Zn24  1  0.99746400  0.66349900  0.11305500  1
  Zn  Zn25  1  0.83666300  0.33848300  0.24396100  1
  Zn  Zn26  1  0.00253600  0.33650100  0.61305500  1
  Zn  Zn27  1  0.33650100  0.33396500  0.11305500  1
  Zn  Zn28  1  0.84455900  0.00996700  0.73942900  1
  Zn  Zn29  1  0.16540800  0.15544100  0.73942900  1
  Zn  Zn30  1  0.15544100  0.99003300  0.23942900  1
  Zn  Zn31  1  0.49452200  0.32443900  0.74459000  1
  Zn  Zn32  1  0.83459200  0.84455900  0.23942900  1
  Zn  Zn33  1  0.49818000  0.83666300  0.74396100  1
  Zn  Zn34  1  0.00996700  0.16540800  0.23942900  1
  Zn  Zn35  1  0.32443900  0.82991700  0.24459000  1
  Zn  Zn36  1  0.50182000  0.16333700  0.24396100  1
  Zn  Zn37  1  0.66151700  0.49818000  0.24396100  1
  Zn  Zn38  1  0.67556100  0.17008300  0.74459000  1
  Zn  Zn39  1  0.33848300  0.50182000  0.74396100  1
  Zn  Zn40  1  0.82991700  0.50547800  0.74459000  1
  Zn  Zn41  1  0.66603500  0.00253600  0.11305500  1
  Zn  Zn42  1  0.99003300  0.83459200  0.73942900  1
  Zn  Zn43  1  0.17008300  0.49452200  0.24459000  1
  Zn  Zn44  1  0.16333700  0.66151700  0.74396100  1
  Zn  Zn45  1  0.50547800  0.67556100  0.24459000  1
  Zn  Zn46  1  0.33396500  0.99746400  0.61305500  1
  Zn  Zn47  1  0.66349900  0.66603500  0.61305500  1
  P  P48  1  0.82900900  0.84015600  0.62423000  1
  P  P49  1  0.50061400  0.67459800  0.63439000  1
  P  P50  1  0.49208900  0.83671800  0.13493400  1
  P  P51  1  0.34462900  0.50791100  0.13493400  1
  P  P52  1  0.33135000  0.00379800  0.21664300  1
  P  P53  1  0.83671800  0.34462900  0.63493400  1
  P  P54  1  0.16328200  0.65537100  0.13493400  1
  P  P55  1  0.99620200  0.32755200  0.21664300  1
  P  P56  1  0.32755200  0.33135000  0.71664300  1
  P  P57  1  0.84015600  0.01114700  0.12423000  1
  P  P58  1  0.17099100  0.15984400  0.12423000  1
  P  P59  1  0.82601600  0.50061400  0.13439000  1
  P  P60  1  0.00379800  0.67244800  0.71664300  1
  P  P61  1  0.98885300  0.82900900  0.12423000  1
  P  P62  1  0.17398400  0.49938600  0.63439000  1
  P  P63  1  0.32540200  0.82601600  0.63439000  1
  P  P64  1  0.65537100  0.49208900  0.63493400  1
  P  P65  1  0.66865000  0.99620200  0.71664300  1
  P  P66  1  0.49938600  0.32540200  0.13439000  1
  P  P67  1  0.50791100  0.16328200  0.63493400  1
  P  P68  1  0.15984400  0.98885300  0.62423000  1
  P  P69  1  0.67459800  0.17398400  0.13439000  1
  P  P70  1  0.67244800  0.66865000  0.21664300  1
  P  P71  1  0.01114700  0.17099100  0.62423000  1
  O  O72  1  0.38384400  0.29519700  0.66275500  1
  O  O73  1  0.23625400  0.26981100  0.66379400  1
  O  O74  1  0.92071400  0.04848600  0.22512500  1
  O  O75  1  0.81067300  0.51718700  0.96566000  1
  O  O76  1  0.44429900  0.86864600  0.23724400  1
  O  O77  1  0.04734300  0.18328200  0.45806700  1
  O  O78  1  0.48281300  0.29348600  0.96566000  1
  O  O79  1  0.11283000  0.69908300  0.18141100  1
  O  O80  1  0.41711700  0.06090100  0.13481400  1
  O  O81  1  0.95265700  0.81671800  0.95806700  1
  O  O82  1  0.86864600  0.42434700  0.73724400  1
  O  O83  1  0.96644300  0.23625400  0.16379400  1
  O  O84  1  0.08555400  0.88626900  0.12195000  1
  O  O85  1  0.06090100  0.64378400  0.63481400  1
  O  O86  1  0.88626900  0.80071500  0.62195000  1
  O  O87  1  0.35621600  0.41711700  0.63481400  1
  O  O88  1  0.38465000  0.78998000  0.65953900  1
  O  O89  1  0.51718700  0.70651400  0.46566000  1
  O  O90  1  0.69908300  0.58625300  0.68141100  1
  O  O91  1  0.29519700  0.91135400  0.16275500  1
  O  O92  1  0.93909900  0.35621600  0.13481400  1
  O  O93  1  0.78998000  0.40533000  0.15953900  1
  O  O94  1  0.92148600  0.54736500  0.17385000  1
  O  O95  1  0.73018900  0.96644300  0.66379400  1
  O  O96  1  0.46584800  0.24765600  0.24212100  1
  O  O97  1  0.21819300  0.46584800  0.74212100  1
  O  O98  1  0.34508800  0.01372700  0.39111000  1
  O  O99  1  0.86406100  0.04734300  0.95806700  1
  O  O100  1  0.96577500  0.74263400  0.19621000  1
  O  O101  1  0.78180700  0.53415200  0.24212100  1
  O  O102  1  0.33136000  0.34508800  0.89111000  1
  O  O103  1  0.03422500  0.25736600  0.69621000  1
  O  O104  1  0.12777200  0.07928600  0.22512500  1
  O  O105  1  0.21002000  0.59467000  0.65953900  1
  O  O106  1  0.11373100  0.19928500  0.12195000  1
  O  O107  1  0.66864000  0.65491200  0.39111000  1
  O  O108  1  0.52303100  0.15007100  0.46388500  1
  O  O109  1  0.01372700  0.66864000  0.89111000  1
  O  O110  1  0.18932700  0.48281300  0.46566000  1
  O  O111  1  0.13135400  0.57565300  0.23724400  1
  O  O112  1  0.04848600  0.12777200  0.72512500  1
  O  O113  1  0.58288300  0.93909900  0.63481400  1
  O  O114  1  0.37412100  0.92148600  0.67385000  1
  O  O115  1  0.91444600  0.11373100  0.62195000  1
  O  O116  1  0.64378400  0.58288300  0.13481400  1
  O  O117  1  0.74263400  0.77685900  0.69621000  1
  O  O118  1  0.75234400  0.21819300  0.24212100  1
  O  O119  1  0.61535000  0.21002000  0.15953900  1
  O  O120  1  0.26981100  0.03355700  0.16379400  1
  O  O121  1  0.70480300  0.08864600  0.66275500  1
  O  O122  1  0.47696900  0.84992900  0.96388500  1
  O  O123  1  0.03355700  0.76374600  0.66379400  1
  O  O124  1  0.30091700  0.41374700  0.18141100  1
  O  O125  1  0.07928600  0.95151400  0.72512500  1
  O  O126  1  0.40533000  0.61535000  0.65953900  1
  O  O127  1  0.59467000  0.38465000  0.15953900  1
  O  O128  1  0.28393900  0.54188800  0.16347800  1
  O  O129  1  0.84992900  0.37296000  0.46388500  1
  O  O130  1  0.65491200  0.98627300  0.89111000  1
  O  O131  1  0.08864600  0.38384400  0.16275500  1
  O  O132  1  0.74205000  0.28393900  0.66347800  1
  O  O133  1  0.22314100  0.96577500  0.69621000  1
  O  O134  1  0.53415200  0.75234400  0.74212100  1
  O  O135  1  0.41374700  0.11283000  0.68141100  1
  O  O136  1  0.62587900  0.07851400  0.17385000  1
  O  O137  1  0.98627300  0.33136000  0.39111000  1
  O  O138  1  0.45263500  0.37412100  0.17385000  1
  O  O139  1  0.18328200  0.13593900  0.95806700  1
  O  O140  1  0.91135400  0.61615600  0.66275500  1
  O  O141  1  0.25736600  0.22314100  0.19621000  1
  O  O142  1  0.88717000  0.30091700  0.68141100  1
  O  O143  1  0.70651400  0.18932700  0.96566000  1
  O  O144  1  0.19928500  0.08555400  0.62195000  1
  O  O145  1  0.15007100  0.62704000  0.96388500  1
  O  O146  1  0.76374600  0.73018900  0.16379400  1
  O  O147  1  0.07851400  0.45263500  0.67385000  1
  O  O148  1  0.25795000  0.71606100  0.16347800  1
  O  O149  1  0.61615600  0.70480300  0.16275500  1
  O  O150  1  0.24765600  0.78180700  0.74212100  1
  O  O151  1  0.54188800  0.25795000  0.66347800  1
  O  O152  1  0.80071500  0.91444600  0.12195000  1
  O  O153  1  0.62704000  0.47696900  0.46388500  1
  O  O154  1  0.57565300  0.44429900  0.73724400  1
  O  O155  1  0.81671800  0.86406100  0.45806700  1
  O  O156  1  0.37296000  0.52303100  0.96388500  1
  O  O157  1  0.13593900  0.95265700  0.45806700  1
  O  O158  1  0.58625300  0.88717000  0.18141100  1
  O  O159  1  0.77685900  0.03422500  0.19621000  1
  O  O160  1  0.42434700  0.55570100  0.23724400  1
  O  O161  1  0.55570100  0.13135400  0.73724400  1
  O  O162  1  0.95151400  0.87222800  0.22512500  1
  O  O163  1  0.45811200  0.74205000  0.16347800  1
  O  O164  1  0.87222800  0.92071400  0.72512500  1
  O  O165  1  0.54736500  0.62587900  0.67385000  1
  O  O166  1  0.29348600  0.81067300  0.46566000  1
  O  O167  1  0.71606100  0.45811200  0.66347800  1
