# generated using pymatgen
data_CeZn11
_symmetry_space_group_name_H-M   'P 1'
_cell_length_a   8.26254754
_cell_length_b   8.26254754
_cell_length_c   8.26254754
_cell_angle_alpha   100.16870476
_cell_angle_beta   100.16870476
_cell_angle_gamma   130.30871043
_symmetry_Int_Tables_number   1
_chemical_formula_structural   CeZn11
_chemical_formula_sum   'Ce2 Zn22'
_cell_volume   390.33814631
_cell_formula_units_Z   2
loop_
 _symmetry_equiv_pos_site_id
 _symmetry_equiv_pos_as_xyz
  1  'x, y, z'
loop_
 _atom_site_type_symbol
 _atom_site_label
 _atom_site_symmetry_multiplicity
 _atom_site_fract_x
 _atom_site_fract_y
 _atom_site_fract_z
 _atom_site_occupancy
  Ce  Ce0  1  0.00000000  0.00000000  0.00000000  1
  Ce  Ce1  1  0.25000000  0.75000000  0.50000000  1
  Zn  Zn2  1  0.75614400  0.17015500  0.82702800  1
  Zn  Zn3  1  0.62500000  0.87500000  0.25000000  1
  Zn  Zn4  1  0.07088400  0.24385600  0.41401100  1
  Zn  Zn5  1  0.34312700  0.17015500  0.41401100  1
  Zn  Zn6  1  0.07088400  0.65687300  0.82702800  1
  Zn  Zn7  1  0.90687300  0.57984500  0.08598900  1
  Zn  Zn8  1  0.34312700  0.92911600  0.17297200  1
  Zn  Zn9  1  0.75000000  0.25000000  0.50000000  1
  Zn  Zn10  1  0.90687300  0.82088400  0.32702800  1
  Zn  Zn11  1  0.50000000  0.50000000  0.00000000  1
  Zn  Zn12  1  0.42015500  0.09312700  0.91401100  1
  Zn  Zn13  1  0.62500000  0.37500000  0.25000000  1
  Zn  Zn14  1  0.49385600  0.57984500  0.67297200  1
  Zn  Zn15  1  0.17911600  0.09312700  0.67297200  1
  Zn  Zn16  1  0.75614400  0.92911600  0.58598900  1
  Zn  Zn17  1  0.82984500  0.65687300  0.58598900  1
  Zn  Zn18  1  0.42015500  0.50614400  0.32702800  1
  Zn  Zn19  1  0.49385600  0.82088400  0.91401100  1
  Zn  Zn20  1  0.17911600  0.50614400  0.08598900  1
  Zn  Zn21  1  0.82984500  0.24385600  0.17297200  1
  Zn  Zn22  1  0.12500000  0.37500000  0.75000000  1
  Zn  Zn23  1  0.62500000  0.37500000  0.75000000  1
