# generated using pymatgen
data_Tl2GePbS4
_symmetry_space_group_name_H-M   'P 1'
_cell_length_a   9.24236700
_cell_length_b   9.05353400
_cell_length_c   10.66282604
_cell_angle_alpha   85.81213964
_cell_angle_beta   90.00000000
_cell_angle_gamma   90.00000000
_symmetry_Int_Tables_number   1
_chemical_formula_structural   Tl2GePbS4
_chemical_formula_sum   'Tl8 Ge4 Pb4 S16'
_cell_volume   889.84126461
_cell_formula_units_Z   4
loop_
 _symmetry_equiv_pos_site_id
 _symmetry_equiv_pos_as_xyz
  1  'x, y, z'
loop_
 _atom_site_type_symbol
 _atom_site_label
 _atom_site_symmetry_multiplicity
 _atom_site_fract_x
 _atom_site_fract_y
 _atom_site_fract_z
 _atom_site_occupancy
  Tl  Tl0  1  0.69240100  0.55943600  0.94672300  1
  Tl  Tl1  1  0.80759900  0.05943600  0.94672300  1
  Tl  Tl2  1  0.30759900  0.44056400  0.05327700  1
  Tl  Tl3  1  0.60805300  0.09946500  0.22877800  1
  Tl  Tl4  1  0.10805300  0.40053500  0.77122200  1
  Tl  Tl5  1  0.39194700  0.90053500  0.77122200  1
  Tl  Tl6  1  0.19240100  0.94056400  0.05327700  1
  Tl  Tl7  1  0.89194700  0.59946500  0.22877800  1
  Ge  Ge8  1  0.47343400  0.70782200  0.26085500  1
  Ge  Ge9  1  0.02656600  0.20782200  0.26085500  1
  Ge  Ge10  1  0.52656600  0.29217800  0.73914500  1
  Ge  Ge11  1  0.97343400  0.79217800  0.73914500  1
  Pb  Pb12  1  0.30627800  0.39807100  0.44616900  1
  Pb  Pb13  1  0.80627800  0.10192900  0.55383100  1
  Pb  Pb14  1  0.19372200  0.89807100  0.44616900  1
  Pb  Pb15  1  0.69372200  0.60192900  0.55383100  1
  S  S16  1  0.06086400  0.02252900  0.70567700  1
  S  S17  1  0.96491900  0.32299000  0.07947800  1
  S  S18  1  0.43913600  0.52252900  0.70567700  1
  S  S19  1  0.22846800  0.68359700  0.26614700  1
  S  S20  1  0.53122900  0.83959100  0.42385700  1
  S  S21  1  0.03508100  0.67701000  0.92052200  1
  S  S22  1  0.46877100  0.16040900  0.57614300  1
  S  S23  1  0.46491900  0.17701000  0.92052200  1
  S  S24  1  0.93913600  0.97747100  0.29432300  1
  S  S25  1  0.72846800  0.81640300  0.73385300  1
  S  S26  1  0.27153200  0.18359700  0.26614700  1
  S  S27  1  0.77153200  0.31640300  0.73385300  1
  S  S28  1  0.03122900  0.66040900  0.57614300  1
  S  S29  1  0.53508100  0.82299000  0.07947800  1
  S  S30  1  0.56086400  0.47747100  0.29432300  1
  S  S31  1  0.96877100  0.33959100  0.42385700  1
