# generated using pymatgen
data_K5Th(PS4)3
_symmetry_space_group_name_H-M   'P 1'
_cell_length_a   11.58655900
_cell_length_b   9.84923400
_cell_length_c   22.55143464
_cell_angle_alpha   64.22836780
_cell_angle_beta   90.00000000
_cell_angle_gamma   90.00000000
_symmetry_Int_Tables_number   1
_chemical_formula_structural   K5Th(PS4)3
_chemical_formula_sum   'K20 Th4 P12 S48'
_cell_volume   2317.56164403
_cell_formula_units_Z   4
loop_
 _symmetry_equiv_pos_site_id
 _symmetry_equiv_pos_as_xyz
  1  'x, y, z'
loop_
 _atom_site_type_symbol
 _atom_site_label
 _atom_site_symmetry_multiplicity
 _atom_site_fract_x
 _atom_site_fract_y
 _atom_site_fract_z
 _atom_site_occupancy
  K  K0  1  0.40789000  0.55739400  0.08362700  1
  K  K1  1  0.35937500  0.69875100  0.42073900  1
  K  K2  1  0.85937500  0.30124900  0.07926100  1
  K  K3  1  0.90382500  0.72142700  0.09723500  1
  K  K4  1  0.09211000  0.55739400  0.58362700  1
  K  K5  1  0.40382500  0.27857300  0.40276500  1
  K  K6  1  0.89214400  0.07908900  0.75028200  1
  K  K7  1  0.90789000  0.44260600  0.41637300  1
  K  K8  1  0.59617500  0.72142700  0.59723500  1
  K  K9  1  0.39214400  0.92091100  0.74971800  1
  K  K10  1  0.59211000  0.44260600  0.91637300  1
  K  K11  1  0.34413900  0.37254600  0.74194500  1
  K  K12  1  0.14062500  0.69875100  0.92073900  1
  K  K13  1  0.60785600  0.07908900  0.25028200  1
  K  K14  1  0.10785600  0.92091100  0.24971800  1
  K  K15  1  0.84413900  0.62745400  0.75805500  1
  K  K16  1  0.15586100  0.37254600  0.24194500  1
  K  K17  1  0.64062500  0.30124900  0.57926100  1
  K  K18  1  0.65586100  0.62745400  0.25805500  1
  K  K19  1  0.09617500  0.27857300  0.90276500  1
  Th  Th20  1  0.35169900  0.02578800  0.08135900  1
  Th  Th21  1  0.14830100  0.02578800  0.58135900  1
  Th  Th22  1  0.85169900  0.97421200  0.41864100  1
  Th  Th23  1  0.64830100  0.97421200  0.91864100  1
  P  P24  1  0.32890900  0.98876300  0.91893800  1
  P  P25  1  0.66899600  0.33467700  0.76249300  1
  P  P26  1  0.83100400  0.33467700  0.26249300  1
  P  P27  1  0.18940400  0.30004400  0.07913200  1
  P  P28  1  0.67109100  0.01123700  0.08106200  1
  P  P29  1  0.33100400  0.66532300  0.23750700  1
  P  P30  1  0.68940400  0.69995600  0.42086800  1
  P  P31  1  0.81059600  0.69995600  0.92086800  1
  P  P32  1  0.17109100  0.98876300  0.41893800  1
  P  P33  1  0.16899600  0.66532300  0.73750700  1
  P  P34  1  0.31059600  0.30004400  0.57913200  1
  P  P35  1  0.82890900  0.01123700  0.58106200  1
  S  S36  1  0.56865400  0.14519100  0.78170900  1
  S  S37  1  0.93568400  0.18050400  0.58040500  1
  S  S38  1  0.22952700  0.90411700  0.00263600  1
  S  S39  1  0.06309600  0.14295200  0.43159100  1
  S  S40  1  0.29736500  0.19667800  0.15915000  1
  S  S41  1  0.10209300  0.47494300  0.08075400  1
  S  S42  1  0.06865400  0.85480900  0.71829100  1
  S  S43  1  0.39790700  0.47494300  0.58075400  1
  S  S44  1  0.22800600  0.06626400  0.83940100  1
  S  S45  1  0.22310500  0.75017900  0.15569400  1
  S  S46  1  0.56431600  0.18050400  0.08040500  1
  S  S47  1  0.76256200  0.40416000  0.67891900  1
  S  S48  1  0.07614500  0.48934100  0.73828200  1
  S  S49  1  0.43134600  0.85480900  0.21829100  1
  S  S50  1  0.42385500  0.48934100  0.23828200  1
  S  S51  1  0.27047300  0.90411700  0.50263600  1
  S  S52  1  0.89790700  0.52505700  0.91924600  1
  S  S53  1  0.77047300  0.09588300  0.99736400  1
  S  S54  1  0.93134600  0.14519100  0.28170900  1
  S  S55  1  0.06431600  0.81949600  0.41959500  1
  S  S56  1  0.56309600  0.85704800  0.06840900  1
  S  S57  1  0.27199400  0.06626400  0.33940100  1
  S  S58  1  0.70263500  0.80332200  0.84085000  1
  S  S59  1  0.26256200  0.59584000  0.82108100  1
  S  S60  1  0.72800600  0.93373600  0.66059900  1
  S  S61  1  0.79736500  0.80332200  0.34085000  1
  S  S62  1  0.59511200  0.87610000  0.42166300  1
  S  S63  1  0.09511200  0.12390000  0.07833700  1
  S  S64  1  0.77689500  0.24982100  0.84430600  1
  S  S65  1  0.70277600  0.64214900  0.00090800  1
  S  S66  1  0.23743800  0.59584000  0.32108100  1
  S  S67  1  0.73743800  0.40416000  0.17891900  1
  S  S68  1  0.40488800  0.12390000  0.57833700  1
  S  S69  1  0.90488800  0.87610000  0.92166300  1
  S  S70  1  0.93690400  0.85704800  0.56840900  1
  S  S71  1  0.20263500  0.19667800  0.65915000  1
  S  S72  1  0.72310500  0.24982100  0.34430600  1
  S  S73  1  0.72952700  0.09588300  0.49736400  1
  S  S74  1  0.20277600  0.35785100  0.49909200  1
  S  S75  1  0.43690400  0.14295200  0.93159100  1
  S  S76  1  0.57614500  0.51065900  0.76171800  1
  S  S77  1  0.29722400  0.35785100  0.99909200  1
  S  S78  1  0.77199400  0.93373600  0.16059900  1
  S  S79  1  0.79722400  0.64214900  0.50090800  1
  S  S80  1  0.27689500  0.75017900  0.65569400  1
  S  S81  1  0.60209300  0.52505700  0.41924600  1
  S  S82  1  0.92385500  0.51065900  0.26171800  1
  S  S83  1  0.43568400  0.81949600  0.91959500  1
