# generated using pymatgen
data_Tl2Sn(AsS3)2
_symmetry_space_group_name_H-M   'P 1'
_cell_length_a   6.76597592
_cell_length_b   6.76597592
_cell_length_c   7.49110700
_cell_angle_alpha   90.00000000
_cell_angle_beta   90.00000000
_cell_angle_gamma   119.99999918
_symmetry_Int_Tables_number   1
_chemical_formula_structural   Tl2Sn(AsS3)2
_chemical_formula_sum   'Tl2 Sn1 As2 S6'
_cell_volume   296.98706250
_cell_formula_units_Z   1
loop_
 _symmetry_equiv_pos_site_id
 _symmetry_equiv_pos_as_xyz
  1  'x, y, z'
loop_
 _atom_site_type_symbol
 _atom_site_label
 _atom_site_symmetry_multiplicity
 _atom_site_fract_x
 _atom_site_fract_y
 _atom_site_fract_z
 _atom_site_occupancy
  Tl  Tl0  1  0.33333300  0.66666700  0.38063100  1
  Tl  Tl1  1  0.66666700  0.33333300  0.61936900  1
  Sn  Sn2  1  0.00000000  0.00000000  0.00000000  1
  As  As3  1  0.66666700  0.33333300  0.06942600  1
  As  As4  1  0.33333300  0.66666700  0.93057400  1
  S  S5  1  0.88996400  0.22648600  0.22181500  1
  S  S6  1  0.33652200  0.11003600  0.22181500  1
  S  S7  1  0.77351400  0.66347800  0.22181500  1
  S  S8  1  0.11003600  0.77351400  0.77818500  1
  S  S9  1  0.66347800  0.88996400  0.77818500  1
  S  S10  1  0.22648600  0.33652200  0.77818500  1
