# generated using pymatgen
data_CdHClO
_symmetry_space_group_name_H-M   'P 1'
_cell_length_a   3.73493560
_cell_length_b   3.73493560
_cell_length_c   10.41954400
_cell_angle_alpha   90.00000000
_cell_angle_beta   90.00000000
_cell_angle_gamma   119.99999298
_symmetry_Int_Tables_number   1
_chemical_formula_structural   CdHClO
_chemical_formula_sum   'Cd2 H2 Cl2 O2'
_cell_volume   125.87677625
_cell_formula_units_Z   2
loop_
 _symmetry_equiv_pos_site_id
 _symmetry_equiv_pos_as_xyz
  1  'x, y, z'
loop_
 _atom_site_type_symbol
 _atom_site_label
 _atom_site_symmetry_multiplicity
 _atom_site_fract_x
 _atom_site_fract_y
 _atom_site_fract_z
 _atom_site_occupancy
  Cd  Cd0  1  0.66666700  0.33333300  0.50780600  1
  Cd  Cd1  1  0.33333300  0.66666700  0.00780600  1
  H  H2  1  0.00000000  0.00000000  0.68158100  1
  H  H3  1  0.00000000  0.00000000  0.18158100  1
  Cl  Cl4  1  0.66666700  0.33333300  0.84426000  1
  Cl  Cl5  1  0.33333300  0.66666700  0.34426000  1
  O  O6  1  0.00000000  0.00000000  0.58676400  1
  O  O7  1  0.00000000  0.00000000  0.08676400  1
