# generated using pymatgen
data_MgH6(NCl)2
_symmetry_space_group_name_H-M   'P 1'
_cell_length_a   6.92565986
_cell_length_b   6.92565986
_cell_length_c   6.92565986
_cell_angle_alpha   114.21402029
_cell_angle_beta   107.22327586
_cell_angle_gamma   107.08305762
_symmetry_Int_Tables_number   1
_chemical_formula_structural   MgH6(NCl)2
_chemical_formula_sum   'Mg2 H12 N4 Cl4'
_cell_volume   254.39244574
_cell_formula_units_Z   2
loop_
 _symmetry_equiv_pos_site_id
 _symmetry_equiv_pos_as_xyz
  1  'x, y, z'
loop_
 _atom_site_type_symbol
 _atom_site_label
 _atom_site_symmetry_multiplicity
 _atom_site_fract_x
 _atom_site_fract_y
 _atom_site_fract_z
 _atom_site_occupancy
  Mg  Mg0  1  0.00312000  0.75312000  0.25000000  1
  Mg  Mg1  1  0.99688000  0.24688000  0.75000000  1
  H  H2  1  0.58220900  0.65332400  0.92888500  1
  H  H3  1  0.77556100  0.34667600  0.42888500  1
  H  H4  1  0.41779100  0.34667600  0.07111500  1
  H  H5  1  0.22443900  0.65332400  0.57111500  1
  H  H6  1  0.76851300  0.93424100  0.05006700  1
  H  H7  1  0.61582600  0.06575900  0.33427200  1
  H  H8  1  0.61582600  0.28155400  0.55006700  1
  H  H9  1  0.76851300  0.71844600  0.83427200  1
  H  H10  1  0.23148700  0.06575900  0.94993300  1
  H  H11  1  0.38417400  0.93424100  0.66572800  1
  H  H12  1  0.38417400  0.71844600  0.44993300  1
  H  H13  1  0.23148700  0.28155400  0.16572800  1
  N  N14  1  0.75021800  0.76369600  0.98652300  1
  N  N15  1  0.72282700  0.23630400  0.48652300  1
  N  N16  1  0.24978200  0.23630400  0.01347700  1
  N  N17  1  0.27717300  0.76369600  0.51347700  1
  Cl  Cl18  1  0.21518400  0.70887200  0.99368800  1
  Cl  Cl19  1  0.78481600  0.29112800  0.00631200  1
  Cl  Cl20  1  0.78481600  0.77850500  0.49368800  1
  Cl  Cl21  1  0.21518400  0.22149500  0.50631200  1
