# generated using pymatgen
data_HPbClO
_symmetry_space_group_name_H-M   'P 1'
_cell_length_a   5.84569274
_cell_length_b   5.84569274
_cell_length_c   7.39462902
_cell_angle_alpha   64.67693550
_cell_angle_beta   64.67693550
_cell_angle_gamma   40.60624488
_symmetry_Int_Tables_number   1
_chemical_formula_structural   HPbClO
_chemical_formula_sum   'H2 Pb2 Cl2 O2'
_cell_volume   146.36590262
_cell_formula_units_Z   2
loop_
 _symmetry_equiv_pos_site_id
 _symmetry_equiv_pos_as_xyz
  1  'x, y, z'
loop_
 _atom_site_type_symbol
 _atom_site_label
 _atom_site_symmetry_multiplicity
 _atom_site_fract_x
 _atom_site_fract_y
 _atom_site_fract_z
 _atom_site_occupancy
  H  H0  1  0.11391600  0.11391600  0.40157500  1
  H  H1  1  0.88608400  0.88608400  0.59842500  1
  Pb  Pb2  1  0.17491800  0.17491800  0.75888700  1
  Pb  Pb3  1  0.82508200  0.82508200  0.24111300  1
  Cl  Cl4  1  0.43372100  0.43372100  0.81179400  1
  Cl  Cl5  1  0.56627900  0.56627900  0.18820600  1
  O  O6  1  0.19839100  0.19839100  0.41537500  1
  O  O7  1  0.80160900  0.80160900  0.58462500  1
