# generated using pymatgen
data_Tm2Ga10Os3
_symmetry_space_group_name_H-M   'P 1'
_cell_length_a   8.91000500
_cell_length_b   8.91000500
_cell_length_c   6.38537100
_cell_angle_alpha   90.00000000
_cell_angle_beta   90.00000000
_cell_angle_gamma   90.00000000
_symmetry_Int_Tables_number   1
_chemical_formula_structural   Tm2Ga10Os3
_chemical_formula_sum   'Tm4 Ga20 Os6'
_cell_volume   506.92304042
_cell_formula_units_Z   2
loop_
 _symmetry_equiv_pos_site_id
 _symmetry_equiv_pos_as_xyz
  1  'x, y, z'
loop_
 _atom_site_type_symbol
 _atom_site_label
 _atom_site_symmetry_multiplicity
 _atom_site_fract_x
 _atom_site_fract_y
 _atom_site_fract_z
 _atom_site_occupancy
  Tm  Tm0  1  0.18314100  0.31685900  0.00000000  1
  Tm  Tm1  1  0.68314100  0.18314100  0.00000000  1
  Tm  Tm2  1  0.81685900  0.68314100  0.00000000  1
  Tm  Tm3  1  0.31685900  0.81685900  0.00000000  1
  Ga  Ga4  1  0.50000000  0.00000000  0.28220300  1
  Ga  Ga5  1  0.50000000  0.00000000  0.71779700  1
  Ga  Ga6  1  0.29309600  0.56125700  0.70767900  1
  Ga  Ga7  1  0.00000000  0.50000000  0.28220300  1
  Ga  Ga8  1  0.00000000  0.50000000  0.71779700  1
  Ga  Ga9  1  0.06125700  0.79309600  0.70767900  1
  Ga  Ga10  1  0.20690400  0.06125700  0.29232100  1
  Ga  Ga11  1  0.06125700  0.79309600  0.29232100  1
  Ga  Ga12  1  0.70690400  0.43874300  0.70767900  1
  Ga  Ga13  1  0.20690400  0.06125700  0.70767900  1
  Ga  Ga14  1  0.93874300  0.20690400  0.70767900  1
  Ga  Ga15  1  0.70690400  0.43874300  0.29232100  1
  Ga  Ga16  1  0.56125700  0.70690400  0.29232100  1
  Ga  Ga17  1  0.93874300  0.20690400  0.29232100  1
  Ga  Ga18  1  0.56125700  0.70690400  0.70767900  1
  Ga  Ga19  1  0.79309600  0.93874300  0.29232100  1
  Ga  Ga20  1  0.43874300  0.29309600  0.70767900  1
  Ga  Ga21  1  0.79309600  0.93874300  0.70767900  1
  Ga  Ga22  1  0.43874300  0.29309600  0.29232100  1
  Ga  Ga23  1  0.29309600  0.56125700  0.29232100  1
  Os  Os24  1  0.17851100  0.32148900  0.50000000  1
  Os  Os25  1  0.32148900  0.82148900  0.50000000  1
  Os  Os26  1  0.82148900  0.67851100  0.50000000  1
  Os  Os27  1  0.00000000  0.00000000  0.00000000  1
  Os  Os28  1  0.67851100  0.17851100  0.50000000  1
  Os  Os29  1  0.50000000  0.50000000  0.00000000  1
