# generated using pymatgen
data_K2PtS15
_symmetry_space_group_name_H-M   'P 1'
_cell_length_a   9.27989103
_cell_length_b   9.27989103
_cell_length_c   12.83858695
_cell_angle_alpha   89.44388363
_cell_angle_beta   89.44388363
_cell_angle_gamma   65.81122620
_symmetry_Int_Tables_number   1
_chemical_formula_structural   K2PtS15
_chemical_formula_sum   'K4 Pt2 S30'
_cell_volume   1008.47287844
_cell_formula_units_Z   2
loop_
 _symmetry_equiv_pos_site_id
 _symmetry_equiv_pos_as_xyz
  1  'x, y, z'
loop_
 _atom_site_type_symbol
 _atom_site_label
 _atom_site_symmetry_multiplicity
 _atom_site_fract_x
 _atom_site_fract_y
 _atom_site_fract_z
 _atom_site_occupancy
  K  K0  1  0.76796600  0.65059800  0.14210300  1
  K  K1  1  0.65059800  0.76796600  0.64210300  1
  K  K2  1  0.94661300  0.27803700  0.39509900  1
  K  K3  1  0.27803700  0.94661300  0.89509900  1
  Pt  Pt4  1  0.20067200  0.77727300  0.24906500  1
  Pt  Pt5  1  0.77727300  0.20067200  0.74906500  1
  S  S6  1  0.55921500  0.40777800  0.28012300  1
  S  S7  1  0.40777800  0.55921500  0.78012300  1
  S  S8  1  0.59329500  0.35875100  0.11988800  1
  S  S9  1  0.35875100  0.59329500  0.61988800  1
  S  S10  1  0.34535600  0.13420300  0.37645700  1
  S  S11  1  0.13420300  0.34535600  0.87645700  1
  S  S12  1  0.34706600  0.93876300  0.45987500  1
  S  S13  1  0.93876300  0.34706600  0.95987500  1
  S  S14  1  0.15200000  0.90399400  0.41957200  1
  S  S15  1  0.90399400  0.15200000  0.91957200  1
  S  S16  1  0.47875100  0.64665300  0.29390500  1
  S  S17  1  0.64665300  0.47875100  0.79390500  1
  S  S18  1  0.35942500  0.43306300  0.07384500  1
  S  S19  1  0.43306300  0.35942500  0.57384500  1
  S  S20  1  0.25792600  0.67303800  0.07273400  1
  S  S21  1  0.67303800  0.25792600  0.57273400  1
  S  S22  1  0.21352200  0.01380500  0.17447400  1
  S  S23  1  0.01380500  0.21352200  0.67447400  1
  S  S24  1  0.40651300  0.04212800  0.22672000  1
  S  S25  1  0.04212800  0.40651300  0.72672000  1
  S  S26  1  0.14527000  0.55610000  0.30759100  1
  S  S27  1  0.55610000  0.14527000  0.80759100  1
  S  S28  1  0.79400400  0.97168000  0.33519100  1
  S  S29  1  0.97168000  0.79400400  0.83519100  1
  S  S30  1  0.01256800  0.62469500  0.43943000  1
  S  S31  1  0.62469500  0.01256800  0.93943000  1
  S  S32  1  0.92283700  0.91105600  0.20150000  1
  S  S33  1  0.91105600  0.92283700  0.70150000  1
  S  S34  1  0.77941700  0.76377200  0.39142600  1
  S  S35  1  0.76377200  0.77941700  0.89142600  1
