# generated using pymatgen
data_Ba5Ga5Pb
_symmetry_space_group_name_H-M   'P 1'
_cell_length_a   6.13735136
_cell_length_b   6.13735136
_cell_length_c   10.88734400
_cell_angle_alpha   90.00000000
_cell_angle_beta   90.00000000
_cell_angle_gamma   119.99999305
_symmetry_Int_Tables_number   1
_chemical_formula_structural   Ba5Ga5Pb
_chemical_formula_sum   'Ba5 Ga5 Pb1'
_cell_volume   355.15225863
_cell_formula_units_Z   1
loop_
 _symmetry_equiv_pos_site_id
 _symmetry_equiv_pos_as_xyz
  1  'x, y, z'
loop_
 _atom_site_type_symbol
 _atom_site_label
 _atom_site_symmetry_multiplicity
 _atom_site_fract_x
 _atom_site_fract_y
 _atom_site_fract_z
 _atom_site_occupancy
  Ba  Ba0  1  0.66666700  0.33333300  0.83249300  1
  Ba  Ba1  1  0.33333300  0.66666700  0.70554000  1
  Ba  Ba2  1  0.33333300  0.66666700  0.29446000  1
  Ba  Ba3  1  0.66666700  0.33333300  0.16750700  1
  Ba  Ba4  1  0.00000000  0.00000000  0.50000000  1
  Ga  Ga5  1  0.00000000  0.00000000  0.17322100  1
  Ga  Ga6  1  0.18324200  0.81675800  0.00000000  1
  Ga  Ga7  1  0.18324200  0.36648400  0.00000000  1
  Ga  Ga8  1  0.00000000  0.00000000  0.82677900  1
  Ga  Ga9  1  0.63351600  0.81675800  0.00000000  1
  Pb  Pb10  1  0.66666700  0.33333300  0.50000000  1
