# generated using pymatgen
data_SrTiFe(PO4)3
_symmetry_space_group_name_H-M   'P 1'
_cell_length_a   9.08380195
_cell_length_b   9.08380195
_cell_length_c   9.08380225
_cell_angle_alpha   56.48482721
_cell_angle_beta   56.48482721
_cell_angle_gamma   56.48483330
_symmetry_Int_Tables_number   1
_chemical_formula_structural   SrTiFe(PO4)3
_chemical_formula_sum   'Sr2 Ti2 Fe2 P6 O24'
_cell_volume   486.94898664
_cell_formula_units_Z   2
loop_
 _symmetry_equiv_pos_site_id
 _symmetry_equiv_pos_as_xyz
  1  'x, y, z'
loop_
 _atom_site_type_symbol
 _atom_site_label
 _atom_site_symmetry_multiplicity
 _atom_site_fract_x
 _atom_site_fract_y
 _atom_site_fract_z
 _atom_site_occupancy
  Sr  Sr0  1  0.99834800  0.99834800  0.99834800  1
  Sr  Sr1  1  0.49834800  0.49834800  0.49834800  1
  Ti  Ti2  1  0.14931300  0.14931300  0.14931300  1
  Ti  Ti3  1  0.64931300  0.64931300  0.64931300  1
  Fe  Fe4  1  0.35034000  0.35034000  0.35034000  1
  Fe  Fe5  1  0.85034000  0.85034000  0.85034000  1
  P  P6  1  0.74895900  0.03781400  0.46500500  1
  P  P7  1  0.03781400  0.46500500  0.74895900  1
  P  P8  1  0.46500500  0.74895900  0.03781400  1
  P  P9  1  0.53781400  0.24895900  0.96500500  1
  P  P10  1  0.96500500  0.53781400  0.24895900  1
  P  P11  1  0.24895900  0.96500500  0.53781400  1
  O  O12  1  0.26790700  0.13358900  0.51467500  1
  O  O13  1  0.51467500  0.26790700  0.13358900  1
  O  O14  1  0.92806400  0.06131800  0.28338600  1
  O  O15  1  0.13358900  0.51467500  0.26790700  1
  O  O16  1  0.57558900  0.21707000  0.43409800  1
  O  O17  1  0.76790700  0.01467500  0.63358900  1
  O  O18  1  0.06131800  0.28338600  0.92806400  1
  O  O19  1  0.21707000  0.43409800  0.57558900  1
  O  O20  1  0.43409800  0.57558900  0.21707000  1
  O  O21  1  0.36300700  0.22898300  0.99253300  1
  O  O22  1  0.71707000  0.07558900  0.93409800  1
  O  O23  1  0.99253300  0.36300700  0.22898300  1
  O  O24  1  0.01467500  0.63358900  0.76790700  1
  O  O25  1  0.28338600  0.92806400  0.06131800  1
  O  O26  1  0.63358900  0.76790700  0.01467500  1
  O  O27  1  0.56131800  0.42806400  0.78338600  1
  O  O28  1  0.78338600  0.56131800  0.42806400  1
  O  O29  1  0.93409800  0.71707000  0.07558900  1
  O  O30  1  0.22898300  0.99253300  0.36300700  1
  O  O31  1  0.42806400  0.78338600  0.56131800  1
  O  O32  1  0.86300700  0.49253300  0.72898300  1
  O  O33  1  0.07558900  0.93409800  0.71707000  1
  O  O34  1  0.49253300  0.72898300  0.86300700  1
  O  O35  1  0.72898300  0.86300700  0.49253300  1
