# generated using pymatgen
data_Rb2ZnH4
_symmetry_space_group_name_H-M   'P 1'
_cell_length_a   6.09114200
_cell_length_b   8.21088400
_cell_length_c   10.69494200
_cell_angle_alpha   90.00000000
_cell_angle_beta   90.00000000
_cell_angle_gamma   90.00000000
_symmetry_Int_Tables_number   1
_chemical_formula_structural   Rb2ZnH4
_chemical_formula_sum   'Rb8 Zn4 H16'
_cell_volume   534.89319707
_cell_formula_units_Z   4
loop_
 _symmetry_equiv_pos_site_id
 _symmetry_equiv_pos_as_xyz
  1  'x, y, z'
loop_
 _atom_site_type_symbol
 _atom_site_label
 _atom_site_symmetry_multiplicity
 _atom_site_fract_x
 _atom_site_fract_y
 _atom_site_fract_z
 _atom_site_occupancy
  Rb  Rb0  1  0.25000000  0.66067500  0.09362800  1
  Rb  Rb1  1  0.25000000  0.16067500  0.40637200  1
  Rb  Rb2  1  0.75000000  0.33932500  0.90637200  1
  Rb  Rb3  1  0.75000000  0.83932500  0.59362800  1
  Rb  Rb4  1  0.25000000  0.98508500  0.81369300  1
  Rb  Rb5  1  0.25000000  0.48508500  0.68630700  1
  Rb  Rb6  1  0.75000000  0.01491500  0.18630700  1
  Rb  Rb7  1  0.75000000  0.51491500  0.31369300  1
  Zn  Zn8  1  0.25000000  0.73977500  0.41737600  1
  Zn  Zn9  1  0.25000000  0.23977500  0.08262400  1
  Zn  Zn10  1  0.75000000  0.26022500  0.58262400  1
  Zn  Zn11  1  0.75000000  0.76022500  0.91737600  1
  H  H12  1  0.02649200  0.81360300  0.34711000  1
  H  H13  1  0.47350800  0.31360300  0.15289000  1
  H  H14  1  0.52649200  0.18639700  0.65289000  1
  H  H15  1  0.97350800  0.68639700  0.84711000  1
  H  H16  1  0.97350800  0.18639700  0.65289000  1
  H  H17  1  0.52649200  0.68639700  0.84711000  1
  H  H18  1  0.47350800  0.81360300  0.34711000  1
  H  H19  1  0.02649200  0.31360300  0.15289000  1
  H  H20  1  0.25000000  0.53772900  0.40837700  1
  H  H21  1  0.25000000  0.03772900  0.09162300  1
  H  H22  1  0.75000000  0.46227100  0.59162300  1
  H  H23  1  0.75000000  0.96227100  0.90837700  1
  H  H24  1  0.25000000  0.30565700  0.93435700  1
  H  H25  1  0.25000000  0.80565700  0.56564300  1
  H  H26  1  0.75000000  0.69434300  0.06564300  1
  H  H27  1  0.75000000  0.19434300  0.43435700  1
