# generated using pymatgen
data_Ni3O4
_symmetry_space_group_name_H-M   'P 1'
_cell_length_a   5.75836200
_cell_length_b   5.85756174
_cell_length_c   5.85755037
_cell_angle_alpha   118.56758674
_cell_angle_beta   119.44196936
_cell_angle_gamma   60.55805365
_symmetry_Int_Tables_number   1
_chemical_formula_structural   Ni3O4
_chemical_formula_sum   'Ni6 O8'
_cell_volume   142.36088388
_cell_formula_units_Z   2
loop_
 _symmetry_equiv_pos_site_id
 _symmetry_equiv_pos_as_xyz
  1  'x, y, z'
loop_
 _atom_site_type_symbol
 _atom_site_label
 _atom_site_symmetry_multiplicity
 _atom_site_fract_x
 _atom_site_fract_y
 _atom_site_fract_z
 _atom_site_occupancy
  Ni  Ni0  1  0.50000000  0.49999900  0.00000000  1
  Ni  Ni1  1  0.50000000  0.50000100  0.50000000  1
  Ni  Ni2  1  0.00000000  0.50000100  0.50000000  1
  Ni  Ni3  1  0.00000100  0.49999900  0.00000000  1
  Ni  Ni4  1  0.00000000  0.99999900  0.00000000  1
  Ni  Ni5  1  0.50000000  0.00000000  0.00000000  1
  O  O6  1  0.25000900  0.70584000  0.20586000  1
  O  O7  1  0.75001000  0.70584000  0.20586000  1
  O  O8  1  0.24998900  0.29416000  0.79413900  1
  O  O9  1  0.74999000  0.29416000  0.79413900  1
  O  O10  1  0.22712100  0.27287900  0.22712100  1
  O  O11  1  0.72712200  0.27288000  0.22712200  1
  O  O12  1  0.27287800  0.72712000  0.77287700  1
  O  O13  1  0.77287800  0.72712200  0.77287900  1
