# generated using pymatgen
data_TlP(HO2)2
_symmetry_space_group_name_H-M   'P 1'
_cell_length_a   6.62922500
_cell_length_b   9.14204500
_cell_length_c   15.11691922
_cell_angle_alpha   73.11458704
_cell_angle_beta   90.00000000
_cell_angle_gamma   90.00000000
_symmetry_Int_Tables_number   1
_chemical_formula_structural   TlP(HO2)2
_chemical_formula_sum   'Tl8 P8 H16 O32'
_cell_volume   876.65823488
_cell_formula_units_Z   8
loop_
 _symmetry_equiv_pos_site_id
 _symmetry_equiv_pos_as_xyz
  1  'x, y, z'
loop_
 _atom_site_type_symbol
 _atom_site_label
 _atom_site_symmetry_multiplicity
 _atom_site_fract_x
 _atom_site_fract_y
 _atom_site_fract_z
 _atom_site_occupancy
  Tl  Tl0  1  0.27222300  0.93953000  0.61866300  1
  Tl  Tl1  1  0.77222300  0.06047000  0.88133700  1
  Tl  Tl2  1  0.72777700  0.06047000  0.38133700  1
  Tl  Tl3  1  0.22777700  0.93953000  0.11866300  1
  Tl  Tl4  1  0.22261500  0.43670600  0.63640700  1
  Tl  Tl5  1  0.72261500  0.56329400  0.86359300  1
  Tl  Tl6  1  0.77738500  0.56329400  0.36359300  1
  Tl  Tl7  1  0.27738500  0.43670600  0.13640700  1
  P  P8  1  0.25538800  0.82106100  0.87455000  1
  P  P9  1  0.75538800  0.17893900  0.62545000  1
  P  P10  1  0.74461200  0.17893900  0.12545000  1
  P  P11  1  0.24461200  0.82106100  0.37455000  1
  P  P12  1  0.24681500  0.31862700  0.87495800  1
  P  P13  1  0.74681500  0.68137300  0.62504200  1
  P  P14  1  0.75318500  0.68137300  0.12504200  1
  P  P15  1  0.25318500  0.31862700  0.37495800  1
  H  H16  1  0.02067300  0.27577500  0.99153100  1
  H  H17  1  0.52067300  0.72422500  0.50846900  1
  H  H18  1  0.97932700  0.72422500  0.00846900  1
  H  H19  1  0.47932700  0.27577500  0.49153100  1
  H  H20  1  0.47317700  0.23735900  0.99299800  1
  H  H21  1  0.97317700  0.76264100  0.50700200  1
  H  H22  1  0.52682300  0.76264100  0.00700200  1
  H  H23  1  0.02682300  0.23735900  0.49299800  1
  H  H24  1  0.23734300  0.62353900  0.81521800  1
  H  H25  1  0.73734300  0.37646100  0.68478200  1
  H  H26  1  0.76265700  0.37646100  0.18478200  1
  H  H27  1  0.26265700  0.62353900  0.31521800  1
  H  H28  1  0.24885400  0.07629000  0.81282000  1
  H  H29  1  0.74885400  0.92371000  0.68718000  1
  H  H30  1  0.75114600  0.92371000  0.18718000  1
  H  H31  1  0.25114600  0.07629000  0.31282000  1
  O  O32  1  0.44272400  0.73874000  0.92386800  1
  O  O33  1  0.94272400  0.26126000  0.57613200  1
  O  O34  1  0.55727600  0.26126000  0.07613200  1
  O  O35  1  0.05727600  0.73874000  0.42386800  1
  O  O36  1  0.31881800  0.98065300  0.80417000  1
  O  O37  1  0.81881800  0.01934700  0.69583000  1
  O  O38  1  0.68118200  0.01934700  0.19583000  1
  O  O39  1  0.18118200  0.98065300  0.30417000  1
  O  O40  1  0.08994700  0.84934700  0.93819500  1
  O  O41  1  0.58994700  0.15065300  0.56180500  1
  O  O42  1  0.91005300  0.15065300  0.06180500  1
  O  O43  1  0.41005300  0.84934700  0.43819500  1
  O  O44  1  0.16954000  0.72755600  0.80893200  1
  O  O45  1  0.66954100  0.27244400  0.69106800  1
  O  O46  1  0.83046000  0.27244400  0.19106800  1
  O  O47  1  0.33046000  0.72755600  0.30893200  1
  O  O48  1  0.41171400  0.20874900  0.93610400  1
  O  O49  1  0.91171400  0.79125100  0.56389600  1
  O  O50  1  0.58828600  0.79125100  0.06389600  1
  O  O51  1  0.08828600  0.20874900  0.43610400  1
  O  O52  1  0.33843800  0.46984600  0.81645600  1
  O  O53  1  0.83843800  0.53015400  0.68354400  1
  O  O54  1  0.66156200  0.53015400  0.18354400  1
  O  O55  1  0.16156200  0.46984600  0.31645600  1
  O  O56  1  0.09541500  0.36389800  0.94411200  1
  O  O57  1  0.59541500  0.63610200  0.55588800  1
  O  O58  1  0.90458500  0.63610200  0.05588800  1
  O  O59  1  0.40458500  0.36389800  0.44411200  1
  O  O60  1  0.14444600  0.22561100  0.81811600  1
  O  O61  1  0.64444600  0.77438900  0.68188400  1
  O  O62  1  0.85555400  0.77438900  0.18188400  1
  O  O63  1  0.35555400  0.22561100  0.31811600  1
