# generated using pymatgen
data_Ba2Dy(CuO2)4
_symmetry_space_group_name_H-M   'P 1'
_cell_length_a   13.87885898
_cell_length_b   13.87885898
_cell_length_c   3.88624600
_cell_angle_alpha   90.00000000
_cell_angle_beta   90.00000000
_cell_angle_gamma   163.85660266
_symmetry_Int_Tables_number   1
_chemical_formula_structural   Ba2Dy(CuO2)4
_chemical_formula_sum   'Ba2 Dy1 Cu4 O8'
_cell_volume   208.13670533
_cell_formula_units_Z   1
loop_
 _symmetry_equiv_pos_site_id
 _symmetry_equiv_pos_as_xyz
  1  'x, y, z'
loop_
 _atom_site_type_symbol
 _atom_site_label
 _atom_site_symmetry_multiplicity
 _atom_site_fract_x
 _atom_site_fract_y
 _atom_site_fract_z
 _atom_site_occupancy
  Ba  Ba0  1  0.63564400  0.36435600  0.50000000  1
  Ba  Ba1  1  0.36435600  0.63564400  0.50000000  1
  Dy  Dy2  1  0.50000000  0.50000000  0.50000000  1
  Cu  Cu3  1  0.06124300  0.93875700  0.00000000  1
  Cu  Cu4  1  0.93875700  0.06124300  0.00000000  1
  Cu  Cu5  1  0.21262900  0.78737100  0.00000000  1
  Cu  Cu6  1  0.78737100  0.21262900  0.00000000  1
  O  O7  1  0.71846200  0.28153800  0.00000000  1
  O  O8  1  0.28153800  0.71846200  0.00000000  1
  O  O9  1  0.55187100  0.44812900  0.00000000  1
  O  O10  1  0.44812900  0.55187100  0.00000000  1
  O  O11  1  0.05203500  0.94796500  0.50000000  1
  O  O12  1  0.94796500  0.05203500  0.50000000  1
  O  O13  1  0.14532600  0.85467400  0.00000000  1
  O  O14  1  0.85467400  0.14532600  0.00000000  1
