# generated using pymatgen
data_K2Re3C2Se5N2
_symmetry_space_group_name_H-M   'P 1'
_cell_length_a   13.25956700
_cell_length_b   9.80659300
_cell_length_c   12.40028434
_cell_angle_alpha   56.92748875
_cell_angle_beta   90.00000000
_cell_angle_gamma   90.00000000
_symmetry_Int_Tables_number   1
_chemical_formula_structural   K2Re3C2Se5N2
_chemical_formula_sum   'K8 Re12 C8 Se20 N8'
_cell_volume   1351.17970560
_cell_formula_units_Z   4
loop_
 _symmetry_equiv_pos_site_id
 _symmetry_equiv_pos_as_xyz
  1  'x, y, z'
loop_
 _atom_site_type_symbol
 _atom_site_label
 _atom_site_symmetry_multiplicity
 _atom_site_fract_x
 _atom_site_fract_y
 _atom_site_fract_z
 _atom_site_occupancy
  K  K0  1  0.44015900  0.73018200  0.32670100  1
  K  K1  1  0.94015900  0.26981800  0.17329900  1
  K  K2  1  0.55984100  0.26981800  0.67329900  1
  K  K3  1  0.17172200  0.09423200  0.99836000  1
  K  K4  1  0.82827800  0.90576800  0.00164000  1
  K  K5  1  0.05984100  0.73018200  0.82670100  1
  K  K6  1  0.32827800  0.09423200  0.49836000  1
  K  K7  1  0.67172200  0.90576800  0.50164000  1
  Re  Re8  1  0.02972200  0.68806800  0.49913000  1
  Re  Re9  1  0.63815400  0.55309300  0.98051000  1
  Re  Re10  1  0.86184600  0.55309300  0.48051000  1
  Re  Re11  1  0.36184600  0.44690700  0.01949000  1
  Re  Re12  1  0.47027800  0.68806800  0.99913000  1
  Re  Re13  1  0.48413200  0.61900400  0.81989200  1
  Re  Re14  1  0.51586800  0.38099600  0.18010800  1
  Re  Re15  1  0.97027800  0.31193200  0.50087000  1
  Re  Re16  1  0.52972200  0.31193200  0.00087000  1
  Re  Re17  1  0.01586800  0.61900400  0.31989200  1
  Re  Re18  1  0.98413200  0.38099600  0.68010800  1
  Re  Re19  1  0.13815400  0.44690700  0.51949000  1
  C  C20  1  0.04146800  0.74762800  0.12145100  1
  C  C21  1  0.79212100  0.60713000  0.96053100  1
  C  C22  1  0.95853200  0.25237200  0.87854900  1
  C  C23  1  0.45853200  0.74762800  0.62145100  1
  C  C24  1  0.20787900  0.39287000  0.03946900  1
  C  C25  1  0.29212100  0.39287000  0.53946900  1
  C  C26  1  0.54146800  0.25237200  0.37854900  1
  C  C27  1  0.70787900  0.60713000  0.46053100  1
  Se  Se28  1  0.14649200  0.51303400  0.69124800  1
  Se  Se29  1  0.67572400  0.25572300  0.15379200  1
  Se  Se30  1  0.35350800  0.51303400  0.19124800  1
  Se  Se31  1  0.40895100  0.15486700  0.19207200  1
  Se  Se32  1  0.61711100  0.61916200  0.15233400  1
  Se  Se33  1  0.90895100  0.84513300  0.30792800  1
  Se  Se34  1  0.11711100  0.38083800  0.34766600  1
  Se  Se35  1  0.32427600  0.74427700  0.84620800  1
  Se  Se36  1  0.59104900  0.84513300  0.80792800  1
  Se  Se37  1  0.57945500  0.05055400  0.01090700  1
  Se  Se38  1  0.88288900  0.61916200  0.65233400  1
  Se  Se39  1  0.07945500  0.94944600  0.48909300  1
  Se  Se40  1  0.09104900  0.15486700  0.69207200  1
  Se  Se41  1  0.64649200  0.48696600  0.80875200  1
  Se  Se42  1  0.17572400  0.74427700  0.34620800  1
  Se  Se43  1  0.92054500  0.05055400  0.51090700  1
  Se  Se44  1  0.85350800  0.48696600  0.30875200  1
  Se  Se45  1  0.82427600  0.25572300  0.65379200  1
  Se  Se46  1  0.42054500  0.94944600  0.98909300  1
  Se  Se47  1  0.38288900  0.38083800  0.84766600  1
  N  N48  1  0.87894000  0.63873600  0.94838600  1
  N  N49  1  0.55893100  0.17675000  0.48975500  1
  N  N50  1  0.94106900  0.17675000  0.98975500  1
  N  N51  1  0.37894000  0.36126400  0.55161400  1
  N  N52  1  0.05893100  0.82325000  0.01024500  1
  N  N53  1  0.12106000  0.36126400  0.05161400  1
  N  N54  1  0.44106900  0.82325000  0.51024500  1
  N  N55  1  0.62106000  0.63873600  0.44838600  1
