# generated using pymatgen
data_Ba3Ta6(Si2O13)2
_symmetry_space_group_name_H-M   'P 1'
_cell_length_a   9.13278764
_cell_length_b   9.13278764
_cell_length_c   7.83473600
_cell_angle_alpha   90.00000000
_cell_angle_beta   90.00000000
_cell_angle_gamma   119.99999739
_symmetry_Int_Tables_number   1
_chemical_formula_structural   Ba3Ta6(Si2O13)2
_chemical_formula_sum   'Ba3 Ta6 Si4 O26'
_cell_volume   565.92871292
_cell_formula_units_Z   1
loop_
 _symmetry_equiv_pos_site_id
 _symmetry_equiv_pos_as_xyz
  1  'x, y, z'
loop_
 _atom_site_type_symbol
 _atom_site_label
 _atom_site_symmetry_multiplicity
 _atom_site_fract_x
 _atom_site_fract_y
 _atom_site_fract_z
 _atom_site_occupancy
  Ba  Ba0  1  0.39851200  0.39851200  0.50000000  1
  Ba  Ba1  1  0.00000000  0.60148800  0.50000000  1
  Ba  Ba2  1  0.60148800  0.00000000  0.50000000  1
  Ta  Ta3  1  0.00000000  0.23828700  0.75519900  1
  Ta  Ta4  1  0.76171300  0.76171300  0.75519900  1
  Ta  Ta5  1  0.23828700  0.00000000  0.24480100  1
  Ta  Ta6  1  0.76171300  0.76171300  0.24480100  1
  Ta  Ta7  1  0.23828700  0.00000000  0.75519900  1
  Ta  Ta8  1  0.00000000  0.23828700  0.24480100  1
  Si  Si9  1  0.66666700  0.33333300  0.20556700  1
  Si  Si10  1  0.66666700  0.33333300  0.79443300  1
  Si  Si11  1  0.33333300  0.66666700  0.79443300  1
  Si  Si12  1  0.33333300  0.66666700  0.20556700  1
  O  O13  1  0.00000000  0.23118600  0.50000000  1
  O  O14  1  0.76881400  0.76881400  0.50000000  1
  O  O15  1  0.23118600  0.00000000  0.50000000  1
  O  O16  1  0.51223200  0.69499900  0.28284700  1
  O  O17  1  0.30500100  0.81723300  0.28284700  1
  O  O18  1  0.18276700  0.48776800  0.28284700  1
  O  O19  1  0.48776800  0.18276700  0.71715300  1
  O  O20  1  0.18276700  0.48776800  0.71715300  1
  O  O21  1  0.51223200  0.69499900  0.71715300  1
  O  O22  1  0.30500100  0.81723300  0.71715300  1
  O  O23  1  0.69499900  0.51223200  0.28284700  1
  O  O24  1  0.81723300  0.30500100  0.28284700  1
  O  O25  1  0.81723300  0.30500100  0.71715300  1
  O  O26  1  0.33333300  0.66666700  0.00000000  1
  O  O27  1  0.66666700  0.33333300  0.00000000  1
  O  O28  1  0.27441200  0.00000000  0.00000000  1
  O  O29  1  0.72558800  0.72558800  0.00000000  1
  O  O30  1  0.00000000  0.27441200  0.00000000  1
  O  O31  1  0.82287700  0.00000000  0.23679300  1
  O  O32  1  0.17712300  0.17712300  0.76320700  1
  O  O33  1  0.00000000  0.82287700  0.76320700  1
  O  O34  1  0.00000000  0.82287700  0.23679300  1
  O  O35  1  0.17712300  0.17712300  0.23679300  1
  O  O36  1  0.82287700  0.00000000  0.76320700  1
  O  O37  1  0.48776800  0.18276700  0.28284700  1
  O  O38  1  0.69499900  0.51223200  0.71715300  1
