# generated using pymatgen
data_Rb6LiNd11Se12(Cl4O9)4
_symmetry_space_group_name_H-M   'P 1'
_cell_length_a   16.92745731
_cell_length_b   16.92745731
_cell_length_c   16.92745731
_cell_angle_alpha   123.51907662
_cell_angle_beta   123.51907662
_cell_angle_gamma   84.00571902
_symmetry_Int_Tables_number   1
_chemical_formula_structural   Rb6LiNd11Se12(Cl4O9)4
_chemical_formula_sum   'Rb12 Li2 Nd22 Se24 Cl32 O72'
_cell_volume   3227.96673508
_cell_formula_units_Z   2
loop_
 _symmetry_equiv_pos_site_id
 _symmetry_equiv_pos_as_xyz
  1  'x, y, z'
loop_
 _atom_site_type_symbol
 _atom_site_label
 _atom_site_symmetry_multiplicity
 _atom_site_fract_x
 _atom_site_fract_y
 _atom_site_fract_z
 _atom_site_occupancy
  Rb  Rb0  1  0.62966600  0.62025800  0.24992400  1
  Rb  Rb1  1  0.37974200  0.62966600  0.00940700  1
  Rb  Rb2  1  0.87665500  0.37665500  0.25330900  1
  Rb  Rb3  1  0.12334500  0.62334500  0.74669100  1
  Rb  Rb4  1  0.62334500  0.87665500  0.50000000  1
  Rb  Rb5  1  0.87033400  0.12025800  0.99059300  1
  Rb  Rb6  1  0.62025800  0.37033400  0.99059300  1
  Rb  Rb7  1  0.12966600  0.87974200  0.00940700  1
  Rb  Rb8  1  0.12025800  0.12966600  0.24992400  1
  Rb  Rb9  1  0.37033400  0.37974200  0.75007600  1
  Rb  Rb10  1  0.87974200  0.87033400  0.75007600  1
  Rb  Rb11  1  0.37665500  0.12334500  0.50000000  1
  Li  Li12  1  0.75000000  0.25000000  0.50000000  1
  Li  Li13  1  0.25000000  0.75000000  0.50000000  1
  Nd  Nd14  1  0.99667900  0.25416000  0.50000000  1
  Nd  Nd15  1  0.25416000  0.75416000  0.25748000  1
  Nd  Nd16  1  0.25000000  0.50704800  0.25704800  1
  Nd  Nd17  1  0.25000000  0.25000000  0.00000000  1
  Nd  Nd18  1  0.00704800  0.75000000  0.25704800  1
  Nd  Nd19  1  0.50000000  0.00000000  0.00000000  1
  Nd  Nd20  1  0.50332100  0.00332100  0.25748000  1
  Nd  Nd21  1  0.00000000  0.00000000  0.50000000  1
  Nd  Nd22  1  0.24584000  0.50332100  0.50000000  1
  Nd  Nd23  1  0.75000000  0.49295200  0.74295200  1
  Nd  Nd24  1  0.99295200  0.25000000  0.74295200  1
  Nd  Nd25  1  0.25000000  0.99295200  0.74295200  1
  Nd  Nd26  1  0.74584000  0.24584000  0.74252000  1
  Nd  Nd27  1  0.75000000  0.75000000  0.00000000  1
  Nd  Nd28  1  0.50000000  0.50000000  0.50000000  1
  Nd  Nd29  1  0.75416000  0.49667900  0.50000000  1
  Nd  Nd30  1  0.75000000  0.00704800  0.25704800  1
  Nd  Nd31  1  0.00332100  0.74584000  0.50000000  1
  Nd  Nd32  1  0.00000000  0.50000000  0.00000000  1
  Nd  Nd33  1  0.49667900  0.99667900  0.74252000  1
  Nd  Nd34  1  0.49295200  0.75000000  0.74295200  1
  Nd  Nd35  1  0.50704800  0.25000000  0.25704800  1
  Se  Se36  1  0.77940600  0.06376900  0.50000000  1
  Se  Se37  1  0.01074100  0.28168300  0.97203000  1
  Se  Se38  1  0.27940600  0.77940600  0.71563700  1
  Se  Se39  1  0.93623100  0.43623100  0.71563700  1
  Se  Se40  1  0.96128900  0.98925900  0.27094300  1
  Se  Se41  1  0.80965300  0.78168300  0.27094300  1
  Se  Se42  1  0.21831700  0.48925900  0.02797000  1
  Se  Se43  1  0.46128900  0.19034700  0.97203000  1
  Se  Se44  1  0.72059400  0.22059400  0.28436300  1
  Se  Se45  1  0.03871100  0.01074100  0.72905700  1
  Se  Se46  1  0.19034700  0.21831700  0.72905700  1
  Se  Se47  1  0.98925900  0.71831700  0.02797000  1
  Se  Se48  1  0.43623100  0.72059400  0.50000000  1
  Se  Se49  1  0.51074100  0.53871100  0.72905700  1
  Se  Se50  1  0.48925900  0.46128900  0.27094300  1
  Se  Se51  1  0.22059400  0.93623100  0.50000000  1
  Se  Se52  1  0.30965300  0.03871100  0.02797000  1
  Se  Se53  1  0.69034700  0.96128900  0.97203000  1
  Se  Se54  1  0.53871100  0.80965300  0.02797000  1
  Se  Se55  1  0.28168300  0.30965300  0.27094300  1
  Se  Se56  1  0.71831700  0.69034700  0.72905700  1
  Se  Se57  1  0.78168300  0.51074100  0.97203000  1
  Se  Se58  1  0.56376900  0.27940600  0.50000000  1
  Se  Se59  1  0.06376900  0.56376900  0.28436300  1
  Cl  Cl60  1  0.81562400  0.31562400  0.97778600  1
  Cl  Cl61  1  0.42342200  0.92342200  0.50000000  1
  Cl  Cl62  1  0.42276100  0.42276100  0.00000000  1
  Cl  Cl63  1  0.83783800  0.81562400  0.50000000  1
  Cl  Cl64  1  0.57657800  0.07657800  0.50000000  1
  Cl  Cl65  1  0.69058500  0.43257900  0.27348900  1
  Cl  Cl66  1  0.43257900  0.15909000  0.74199300  1
  Cl  Cl67  1  0.16216200  0.18437600  0.50000000  1
  Cl  Cl68  1  0.57723900  0.57723900  0.00000000  1
  Cl  Cl69  1  0.92276100  0.92276100  0.00000000  1
  Cl  Cl70  1  0.66216200  0.16216200  0.97778600  1
  Cl  Cl71  1  0.07657800  0.57657800  0.50000000  1
  Cl  Cl72  1  0.18437600  0.68437600  0.02221400  1
  Cl  Cl73  1  0.41709700  0.69058500  0.25800700  1
  Cl  Cl74  1  0.91709700  0.65909000  0.72651100  1
  Cl  Cl75  1  0.07723900  0.07723900  0.00000000  1
  Cl  Cl76  1  0.56742100  0.84091000  0.25800700  1
  Cl  Cl77  1  0.84091000  0.58290300  0.27348900  1
  Cl  Cl78  1  0.58290300  0.30941500  0.74199300  1
  Cl  Cl79  1  0.34091000  0.06742100  0.25800700  1
  Cl  Cl80  1  0.19058500  0.91709700  0.25800700  1
  Cl  Cl81  1  0.65909000  0.93257900  0.74199300  1
  Cl  Cl82  1  0.31562400  0.33783800  0.50000000  1
  Cl  Cl83  1  0.93257900  0.19058500  0.27348900  1
  Cl  Cl84  1  0.08290300  0.34091000  0.27348900  1
  Cl  Cl85  1  0.92342200  0.42342200  0.50000000  1
  Cl  Cl86  1  0.33783800  0.83783800  0.02221400  1
  Cl  Cl87  1  0.80941500  0.08290300  0.74199300  1
  Cl  Cl88  1  0.30941500  0.56742100  0.72651100  1
  Cl  Cl89  1  0.06742100  0.80941500  0.72651100  1
  Cl  Cl90  1  0.15909000  0.41709700  0.72651100  1
  Cl  Cl91  1  0.68437600  0.66216200  0.50000000  1
  O  O92  1  0.92308400  0.59400500  0.91276500  1
  O  O93  1  0.44099200  0.06314300  0.86958600  1
  O  O94  1  0.06385700  0.68320900  0.37622900  1
  O  O95  1  0.07140500  0.69355700  0.13041400  1
  O  O96  1  0.48968200  0.81876000  0.91276500  1
  O  O97  1  0.68320900  0.30698000  0.61935200  1
  O  O98  1  0.33798200  0.17592500  0.91305500  1
  O  O99  1  0.40599500  0.31876000  0.32907900  1
  O  O100  1  0.57507400  0.66201800  0.83794300  1
  O  O101  1  0.17592500  0.26286900  0.83794300  1
  O  O102  1  0.31237200  0.93614300  0.61935200  1
  O  O103  1  0.40529200  0.62558200  0.50000000  1
  O  O104  1  0.80644300  0.42859500  0.86958600  1
  O  O105  1  0.06314300  0.19355700  0.62215200  1
  O  O106  1  0.55900800  0.93685700  0.13041400  1
  O  O107  1  0.90599500  0.57691600  0.08723500  1
  O  O108  1  0.26286900  0.42492600  0.08694500  1
  O  O109  1  0.18762800  0.80698000  0.62377100  1
  O  O110  1  0.23713100  0.32407500  0.16205700  1
  O  O111  1  0.62558200  0.12558200  0.22029000  1
  O  O112  1  0.66201800  0.82407500  0.08694500  1
  O  O113  1  0.59400500  0.68124000  0.67092100  1
  O  O114  1  0.07507400  0.23713100  0.91305500  1
  O  O115  1  0.43614300  0.81237200  0.61935200  1
  O  O116  1  0.73713100  0.57507400  0.91305500  1
  O  O117  1  0.51031800  0.18124000  0.08723500  1
  O  O118  1  0.31679100  0.69302000  0.38064800  1
  O  O119  1  0.87441800  0.09470800  0.50000000  1
  O  O120  1  0.83798200  0.92492600  0.16205700  1
  O  O121  1  0.07691600  0.40599500  0.08723500  1
  O  O122  1  0.57691600  0.48968200  0.67092100  1
  O  O123  1  0.69355700  0.56314300  0.62215200  1
  O  O124  1  0.59470800  0.37441800  0.50000000  1
  O  O125  1  0.92859500  0.30644300  0.86958600  1
  O  O126  1  0.09400500  0.42308400  0.91276500  1
  O  O127  1  0.30644300  0.43685700  0.37784800  1
  O  O128  1  0.69302000  0.31237200  0.37622900  1
  O  O129  1  0.42492600  0.33798200  0.16205700  1
  O  O130  1  0.93614300  0.31679100  0.62377100  1
  O  O131  1  0.67592500  0.83798200  0.91305500  1
  O  O132  1  0.09470800  0.59470800  0.22029000  1
  O  O133  1  0.43685700  0.05900800  0.13041400  1
  O  O134  1  0.19355700  0.57140500  0.13041400  1
  O  O135  1  0.90529200  0.40529200  0.77971000  1
  O  O136  1  0.31876000  0.98968200  0.91276500  1
  O  O137  1  0.68124000  0.01031800  0.08723500  1
  O  O138  1  0.81876000  0.90599500  0.32907900  1
  O  O139  1  0.93685700  0.80644300  0.37784800  1
  O  O140  1  0.76286900  0.67592500  0.83794300  1
  O  O141  1  0.68762800  0.06385700  0.38064800  1
  O  O142  1  0.81679100  0.43614300  0.62377100  1
  O  O143  1  0.32407500  0.16201800  0.08694500  1
  O  O144  1  0.56385700  0.18762800  0.38064800  1
  O  O145  1  0.30698000  0.68762800  0.62377100  1
  O  O146  1  0.18320900  0.56385700  0.37622900  1
  O  O147  1  0.94099200  0.07140500  0.37784800  1
  O  O148  1  0.56314300  0.94099200  0.86958600  1
  O  O149  1  0.57140500  0.44099200  0.37784800  1
  O  O150  1  0.82407500  0.73713100  0.16205700  1
  O  O151  1  0.12558200  0.90529200  0.50000000  1
  O  O152  1  0.81237200  0.19302000  0.37622900  1
  O  O153  1  0.19302000  0.81679100  0.38064800  1
  O  O154  1  0.80698000  0.18320900  0.61935200  1
  O  O155  1  0.37441800  0.87441800  0.77971000  1
  O  O156  1  0.01031800  0.92308400  0.32907900  1
  O  O157  1  0.42859500  0.55900800  0.62215200  1
  O  O158  1  0.18124000  0.09400500  0.67092100  1
  O  O159  1  0.05900800  0.92859500  0.62215200  1
  O  O160  1  0.98968200  0.07691600  0.67092100  1
  O  O161  1  0.92492600  0.76286900  0.08694500  1
  O  O162  1  0.16201800  0.07507400  0.83794300  1
  O  O163  1  0.42308400  0.51031800  0.32907900  1
