# generated using pymatgen
data_Bi(Mo2Cl5)3
_symmetry_space_group_name_H-M   'P 1'
_cell_length_a   9.34113644
_cell_length_b   9.34113644
_cell_length_c   26.49434626
_cell_angle_alpha   88.80192390
_cell_angle_beta   88.80192390
_cell_angle_gamma   91.46450764
_symmetry_Int_Tables_number   1
_chemical_formula_structural   Bi(Mo2Cl5)3
_chemical_formula_sum   'Bi4 Mo24 Cl60'
_cell_volume   2310.02042979
_cell_formula_units_Z   4
loop_
 _symmetry_equiv_pos_site_id
 _symmetry_equiv_pos_as_xyz
  1  'x, y, z'
loop_
 _atom_site_type_symbol
 _atom_site_label
 _atom_site_symmetry_multiplicity
 _atom_site_fract_x
 _atom_site_fract_y
 _atom_site_fract_z
 _atom_site_occupancy
  Bi  Bi0  1  0.66874900  0.75747500  0.39167100  1
  Bi  Bi1  1  0.75747500  0.66874900  0.89167100  1
  Bi  Bi2  1  0.33125100  0.24252500  0.60832900  1
  Bi  Bi3  1  0.24252500  0.33125100  0.10832900  1
  Mo  Mo4  1  0.67193900  0.79677300  0.06392100  1
  Mo  Mo5  1  0.18223800  0.22835000  0.30109400  1
  Mo  Mo6  1  0.44175700  0.29957200  0.85012900  1
  Mo  Mo7  1  0.82377500  0.63912100  0.12582600  1
  Mo  Mo8  1  0.91452800  0.88647900  0.61211200  1
  Mo  Mo9  1  0.97704900  0.62217200  0.63707100  1
  Mo  Mo10  1  0.81776200  0.77165000  0.69890600  1
  Mo  Mo11  1  0.37782800  0.02295100  0.86292900  1
  Mo  Mo12  1  0.63912100  0.82377500  0.62582600  1
  Mo  Mo13  1  0.32806100  0.20322700  0.93607900  1
  Mo  Mo14  1  0.88647900  0.91452800  0.11211200  1
  Mo  Mo15  1  0.22835000  0.18223800  0.80109400  1
  Mo  Mo16  1  0.55824300  0.70042800  0.14987100  1
  Mo  Mo17  1  0.79677300  0.67193900  0.56392100  1
  Mo  Mo18  1  0.02295100  0.37782800  0.36292900  1
  Mo  Mo19  1  0.29957200  0.44175700  0.35012900  1
  Mo  Mo20  1  0.70042800  0.55824300  0.64987100  1
  Mo  Mo21  1  0.62217200  0.97704900  0.13707100  1
  Mo  Mo22  1  0.20322700  0.32806100  0.43607900  1
  Mo  Mo23  1  0.08547200  0.11352100  0.38788800  1
  Mo  Mo24  1  0.36087900  0.17622500  0.37417400  1
  Mo  Mo25  1  0.77165000  0.81776200  0.19890600  1
  Mo  Mo26  1  0.17622500  0.36087900  0.87417400  1
  Mo  Mo27  1  0.11352100  0.08547200  0.88788800  1
  Cl  Cl28  1  0.92525700  0.16991800  0.31717600  1
  Cl  Cl29  1  0.89893000  0.94190800  0.91937000  1
  Cl  Cl30  1  0.42470600  0.85664400  0.09168400  1
  Cl  Cl31  1  0.21364200  0.51086800  0.64937100  1
  Cl  Cl32  1  0.05625800  0.73555300  0.55491900  1
  Cl  Cl33  1  0.76136600  0.02020400  0.67160500  1
  Cl  Cl34  1  0.51086800  0.21364200  0.14937100  1
  Cl  Cl35  1  0.53888400  0.61739400  0.57979300  1
  Cl  Cl36  1  0.87704600  0.51772400  0.71755400  1
  Cl  Cl37  1  0.82748600  0.83812900  0.78770700  1
  Cl  Cl38  1  0.16187100  0.17251400  0.71229300  1
  Cl  Cl39  1  0.59673300  0.04891300  0.37674200  1
  Cl  Cl40  1  0.97979600  0.23863400  0.82839500  1
  Cl  Cl41  1  0.45206200  0.66109800  0.32529600  1
  Cl  Cl42  1  0.78635800  0.48913200  0.35062900  1
  Cl  Cl43  1  0.07645000  0.26238700  0.95566500  1
  Cl  Cl44  1  0.14335600  0.57529400  0.40831600  1
  Cl  Cl45  1  0.40326700  0.95108700  0.62325800  1
  Cl  Cl46  1  0.12295400  0.48227600  0.28244600  1
  Cl  Cl47  1  0.53466600  0.23919000  0.54435300  1
  Cl  Cl48  1  0.38260600  0.46111600  0.92020700  1
  Cl  Cl49  1  0.04891300  0.59673300  0.87674200  1
  Cl  Cl50  1  0.26444700  0.94374200  0.94508100  1
  Cl  Cl51  1  0.48913200  0.78635800  0.85062900  1
  Cl  Cl52  1  0.21505000  0.40788300  0.52516700  1
  Cl  Cl53  1  0.23863400  0.97979600  0.32839500  1
  Cl  Cl54  1  0.85664400  0.42470600  0.59168400  1
  Cl  Cl55  1  0.57529400  0.14335600  0.90831600  1
  Cl  Cl56  1  0.44204700  0.29134100  0.29254900  1
  Cl  Cl57  1  0.48227600  0.12295400  0.78244600  1
  Cl  Cl58  1  0.55795300  0.70865900  0.70745100  1
  Cl  Cl59  1  0.73555300  0.05625800  0.05491900  1
  Cl  Cl60  1  0.26238700  0.07645000  0.45566500  1
  Cl  Cl61  1  0.16991800  0.92525700  0.81717600  1
  Cl  Cl62  1  0.66109800  0.45206200  0.82529600  1
  Cl  Cl63  1  0.78495000  0.59211700  0.47483300  1
  Cl  Cl64  1  0.54793800  0.33890200  0.67470400  1
  Cl  Cl65  1  0.40788300  0.21505000  0.02516700  1
  Cl  Cl66  1  0.07474300  0.83008200  0.68282400  1
  Cl  Cl67  1  0.83812900  0.82748600  0.28770700  1
  Cl  Cl68  1  0.46111600  0.38260600  0.42020700  1
  Cl  Cl69  1  0.70865900  0.55795300  0.20745100  1
  Cl  Cl70  1  0.46533400  0.76081000  0.45564700  1
  Cl  Cl71  1  0.05809200  0.10107000  0.58063000  1
  Cl  Cl72  1  0.17251400  0.16187100  0.21229300  1
  Cl  Cl73  1  0.33890200  0.54793800  0.17470400  1
  Cl  Cl74  1  0.59211700  0.78495000  0.97483300  1
  Cl  Cl75  1  0.94374200  0.26444700  0.44508100  1
  Cl  Cl76  1  0.94190800  0.89893000  0.41937000  1
  Cl  Cl77  1  0.10107000  0.05809200  0.08063000  1
  Cl  Cl78  1  0.23919000  0.53466600  0.04435300  1
  Cl  Cl79  1  0.02020400  0.76136600  0.17160500  1
  Cl  Cl80  1  0.95108700  0.40326700  0.12325800  1
  Cl  Cl81  1  0.83008200  0.07474300  0.18282400  1
  Cl  Cl82  1  0.61739400  0.53888400  0.07979300  1
  Cl  Cl83  1  0.29134100  0.44204700  0.79254900  1
  Cl  Cl84  1  0.76081000  0.46533400  0.95564700  1
  Cl  Cl85  1  0.73761300  0.92355000  0.54433500  1
  Cl  Cl86  1  0.51772400  0.87704600  0.21755400  1
  Cl  Cl87  1  0.92355000  0.73761300  0.04433500  1
