# generated using pymatgen
data_Gd(SiPt)2
_symmetry_space_group_name_H-M   'P 1'
_cell_length_a   4.22283670
_cell_length_b   4.22795778
_cell_length_c   9.88709247
_cell_angle_alpha   89.97113648
_cell_angle_beta   89.97993671
_cell_angle_gamma   89.84949665
_symmetry_Int_Tables_number   1
_chemical_formula_structural   Gd(SiPt)2
_chemical_formula_sum   'Gd2 Si4 Pt4'
_cell_volume   176.52326260
_cell_formula_units_Z   2
loop_
 _symmetry_equiv_pos_site_id
 _symmetry_equiv_pos_as_xyz
  1  'x, y, z'
loop_
 _atom_site_type_symbol
 _atom_site_label
 _atom_site_symmetry_multiplicity
 _atom_site_fract_x
 _atom_site_fract_y
 _atom_site_fract_z
 _atom_site_occupancy
  Gd  Gd0  1  0.25000200  0.25000200  0.74381500  1
  Gd  Gd1  1  0.75001200  0.75000800  0.25615200  1
  Si  Si2  1  0.24996700  0.24995900  0.13245400  1
  Si  Si3  1  0.74994200  0.25007700  0.50014000  1
  Si  Si4  1  0.75003700  0.75003100  0.86750500  1
  Si  Si5  1  0.25005000  0.74993800  0.49996900  1
  Pt  Pt6  1  0.25004200  0.25006400  0.37589800  1
  Pt  Pt7  1  0.24995800  0.75005400  0.99999900  1
  Pt  Pt8  1  0.74994600  0.74993500  0.62415400  1
  Pt  Pt9  1  0.75004400  0.24993200  0.99991500  1
