# generated using pymatgen
data_Na3Li3In2F12
_symmetry_space_group_name_H-M   'P 1'
_cell_length_a   11.16822204
_cell_length_b   11.16822204
_cell_length_c   11.16822204
_cell_angle_alpha   109.47122063
_cell_angle_beta   109.47122063
_cell_angle_gamma   109.47122063
_symmetry_Int_Tables_number   1
_chemical_formula_structural   Na3Li3In2F12
_chemical_formula_sum   'Na12 Li12 In8 F48'
_cell_volume   1072.33437552
_cell_formula_units_Z   4
loop_
 _symmetry_equiv_pos_site_id
 _symmetry_equiv_pos_as_xyz
  1  'x, y, z'
loop_
 _atom_site_type_symbol
 _atom_site_label
 _atom_site_symmetry_multiplicity
 _atom_site_fract_x
 _atom_site_fract_y
 _atom_site_fract_z
 _atom_site_occupancy
  Na  Na0  1  0.87500000  0.75000000  0.62500000  1
  Na  Na1  1  0.87500000  0.62500000  0.25000000  1
  Na  Na2  1  0.62500000  0.87500000  0.75000000  1
  Na  Na3  1  0.25000000  0.87500000  0.62500000  1
  Na  Na4  1  0.75000000  0.62500000  0.87500000  1
  Na  Na5  1  0.62500000  0.25000000  0.87500000  1
  Na  Na6  1  0.12500000  0.25000000  0.37500000  1
  Na  Na7  1  0.12500000  0.37500000  0.75000000  1
  Na  Na8  1  0.37500000  0.12500000  0.25000000  1
  Na  Na9  1  0.75000000  0.12500000  0.37500000  1
  Na  Na10  1  0.25000000  0.37500000  0.12500000  1
  Na  Na11  1  0.37500000  0.75000000  0.12500000  1
  Li  Li12  1  0.37500000  0.62500000  0.75000000  1
  Li  Li13  1  0.62500000  0.37500000  0.25000000  1
  Li  Li14  1  0.62500000  0.75000000  0.37500000  1
  Li  Li15  1  0.25000000  0.12500000  0.87500000  1
  Li  Li16  1  0.87500000  0.25000000  0.12500000  1
  Li  Li17  1  0.75000000  0.37500000  0.62500000  1
  Li  Li18  1  0.25000000  0.62500000  0.37500000  1
  Li  Li19  1  0.75000000  0.87500000  0.12500000  1
  Li  Li20  1  0.12500000  0.75000000  0.87500000  1
  Li  Li21  1  0.37500000  0.25000000  0.62500000  1
  Li  Li22  1  0.87500000  0.12500000  0.75000000  1
  Li  Li23  1  0.12500000  0.87500000  0.25000000  1
  In  In24  1  0.50000000  0.00000000  0.50000000  1
  In  In25  1  0.00000000  0.50000000  0.00000000  1
  In  In26  1  0.50000000  0.50000000  0.50000000  1
  In  In27  1  0.00000000  0.00000000  0.50000000  1
  In  In28  1  0.00000000  0.00000000  0.00000000  1
  In  In29  1  0.00000000  0.50000000  0.50000000  1
  In  In30  1  0.50000000  0.50000000  0.00000000  1
  In  In31  1  0.50000000  0.00000000  0.00000000  1
  F  F32  1  0.68156500  0.08251300  0.70469700  1
  F  F33  1  0.70469700  0.68156500  0.08251300  1
  F  F34  1  0.52313200  0.40094800  0.81843500  1
  F  F35  1  0.62218400  0.41748700  0.09905200  1
  F  F36  1  0.40094800  0.08251300  0.87781600  1
  F  F37  1  0.79530300  0.87781600  0.97686800  1
  F  F38  1  0.70469700  0.52313200  0.62218400  1
  F  F39  1  0.08251300  0.70469700  0.68156500  1
  F  F40  1  0.09905200  0.97686800  0.68156500  1
  F  F41  1  0.62218400  0.70469700  0.52313200  1
  F  F42  1  0.08251300  0.87781600  0.40094800  1
  F  F43  1  0.41748700  0.81843500  0.79530300  1
  F  F44  1  0.81843500  0.79530300  0.41748700  1
  F  F45  1  0.52313200  0.62218400  0.70469700  1
  F  F46  1  0.68156500  0.09905200  0.97686800  1
  F  F47  1  0.97686800  0.68156500  0.09905200  1
  F  F48  1  0.87781600  0.40094800  0.08251300  1
  F  F49  1  0.81843500  0.52313200  0.40094800  1
  F  F50  1  0.87781600  0.97686800  0.79530300  1
  F  F51  1  0.09905200  0.62218400  0.41748700  1
  F  F52  1  0.40094800  0.81843500  0.52313200  1
  F  F53  1  0.41748700  0.09905200  0.62218400  1
  F  F54  1  0.97686800  0.79530300  0.87781600  1
  F  F55  1  0.79530300  0.41748700  0.81843500  1
  F  F56  1  0.31843500  0.91748700  0.29530300  1
  F  F57  1  0.29530300  0.31843500  0.91748700  1
  F  F58  1  0.47686800  0.59905200  0.18156500  1
  F  F59  1  0.37781600  0.58251300  0.90094800  1
  F  F60  1  0.59905200  0.91748700  0.12218400  1
  F  F61  1  0.20469700  0.12218400  0.02313200  1
  F  F62  1  0.29530300  0.47686800  0.37781600  1
  F  F63  1  0.91748700  0.29530300  0.31843500  1
  F  F64  1  0.90094800  0.02313200  0.31843500  1
  F  F65  1  0.37781600  0.29530300  0.47686800  1
  F  F66  1  0.91748700  0.12218400  0.59905200  1
  F  F67  1  0.58251300  0.18156500  0.20469700  1
  F  F68  1  0.18156500  0.20469700  0.58251300  1
  F  F69  1  0.47686800  0.37781600  0.29530300  1
  F  F70  1  0.31843500  0.90094800  0.02313200  1
  F  F71  1  0.02313200  0.31843500  0.90094800  1
  F  F72  1  0.12218400  0.59905200  0.91748700  1
  F  F73  1  0.18156500  0.47686800  0.59905200  1
  F  F74  1  0.12218400  0.02313200  0.20469700  1
  F  F75  1  0.90094800  0.37781600  0.58251300  1
  F  F76  1  0.59905200  0.18156500  0.47686800  1
  F  F77  1  0.58251300  0.90094800  0.37781600  1
  F  F78  1  0.02313200  0.20469700  0.12218400  1
  F  F79  1  0.20469700  0.58251300  0.18156500  1
