# generated using pymatgen
data_Sr2AlH7
_symmetry_space_group_name_H-M   'P 1'
_cell_length_a   8.40234745
_cell_length_b   8.40234745
_cell_length_c   7.99084037
_cell_angle_alpha   69.67656886
_cell_angle_beta   69.67656886
_cell_angle_gamma   71.40483656
_symmetry_Int_Tables_number   1
_chemical_formula_structural   Sr2AlH7
_chemical_formula_sum   'Sr8 Al4 H28'
_cell_volume   483.32382360
_cell_formula_units_Z   4
loop_
 _symmetry_equiv_pos_site_id
 _symmetry_equiv_pos_as_xyz
  1  'x, y, z'
loop_
 _atom_site_type_symbol
 _atom_site_label
 _atom_site_symmetry_multiplicity
 _atom_site_fract_x
 _atom_site_fract_y
 _atom_site_fract_z
 _atom_site_occupancy
  Sr  Sr0  1  0.26558900  0.92396300  0.47796800  1
  Sr  Sr1  1  0.07603700  0.73441100  0.02203200  1
  Sr  Sr2  1  0.73441100  0.07603700  0.52203200  1
  Sr  Sr3  1  0.92396300  0.26558900  0.97796800  1
  Sr  Sr4  1  0.29479200  0.43091100  0.47700500  1
  Sr  Sr5  1  0.56908900  0.70520800  0.02299500  1
  Sr  Sr6  1  0.70520800  0.56908900  0.52299500  1
  Sr  Sr7  1  0.43091100  0.29479200  0.97700500  1
  Al  Al8  1  0.32281300  0.01965500  0.80917600  1
  Al  Al9  1  0.98034500  0.67718700  0.69082400  1
  Al  Al10  1  0.67718700  0.98034500  0.19082400  1
  Al  Al11  1  0.01965500  0.32281300  0.30917600  1
  H  H12  1  0.39536400  0.10809800  0.57403500  1
  H  H13  1  0.89190200  0.60463600  0.92596500  1
  H  H14  1  0.60463600  0.89190200  0.42596500  1
  H  H15  1  0.10809800  0.39536400  0.07403500  1
  H  H16  1  0.39010900  0.80421000  0.76831400  1
  H  H17  1  0.19579000  0.60989100  0.73168600  1
  H  H18  1  0.60989100  0.19579000  0.23168600  1
  H  H19  1  0.80421000  0.39010900  0.26831400  1
  H  H20  1  0.52737800  0.00210800  0.83236600  1
  H  H21  1  0.99789200  0.47262200  0.66763400  1
  H  H22  1  0.47262200  0.99789200  0.16763400  1
  H  H23  1  0.00210800  0.52737800  0.33236600  1
  H  H24  1  0.26505700  0.90577100  0.04252700  1
  H  H25  1  0.09422900  0.73494300  0.45747300  1
  H  H26  1  0.73494300  0.09422900  0.95747300  1
  H  H27  1  0.90577100  0.26505700  0.54252700  1
  H  H28  1  0.24511300  0.22789800  0.84057800  1
  H  H29  1  0.77210200  0.75488700  0.65942200  1
  H  H30  1  0.75488700  0.77210200  0.15942200  1
  H  H31  1  0.22789800  0.24511300  0.34057800  1
  H  H32  1  0.11790600  0.02951400  0.79434900  1
  H  H33  1  0.97048600  0.88209400  0.70565100  1
  H  H34  1  0.88209400  0.97048600  0.20565100  1
  H  H35  1  0.02951400  0.11790600  0.29434900  1
  H  H36  1  0.33920600  0.54083800  0.12867400  1
  H  H37  1  0.45916200  0.66079400  0.37132600  1
  H  H38  1  0.66079400  0.45916200  0.87132600  1
  H  H39  1  0.54083800  0.33920600  0.62867400  1
