# generated using pymatgen
data_KSn2F5
_symmetry_space_group_name_H-M   'P 1'
_cell_length_a   7.49331300
_cell_length_b   9.50097936
_cell_length_c   12.86592923
_cell_angle_alpha   90.06090771
_cell_angle_beta   90.40254111
_cell_angle_gamma   90.25536292
_symmetry_Int_Tables_number   1
_chemical_formula_structural   KSn2F5
_chemical_formula_sum   'K6 Sn12 F30'
_cell_volume   915.94229752
_cell_formula_units_Z   6
loop_
 _symmetry_equiv_pos_site_id
 _symmetry_equiv_pos_as_xyz
  1  'x, y, z'
loop_
 _atom_site_type_symbol
 _atom_site_label
 _atom_site_symmetry_multiplicity
 _atom_site_fract_x
 _atom_site_fract_y
 _atom_site_fract_z
 _atom_site_occupancy
  K  K0  1  0.49875800  0.00229500  0.50136300  1
  K  K1  1  0.49516100  0.02721100  0.16631500  1
  K  K2  1  0.00704600  0.00957500  0.66719100  1
  K  K3  1  0.00238900  0.99794500  0.99903400  1
  K  K4  1  0.00362800  0.97973900  0.33261600  1
  K  K5  1  0.49833500  0.98381200  0.83302300  1
  Sn  Sn6  1  0.65819500  0.66653400  0.34643900  1
  Sn  Sn7  1  0.67491700  0.66749300  0.99618100  1
  Sn  Sn8  1  0.34351500  0.33464200  0.33698200  1
  Sn  Sn9  1  0.14411800  0.66406200  0.16215700  1
  Sn  Sn10  1  0.17608400  0.66484200  0.82627600  1
  Sn  Sn11  1  0.17214100  0.66511700  0.50047500  1
  Sn  Sn12  1  0.84201700  0.33310800  0.48512600  1
  Sn  Sn13  1  0.83723200  0.33293800  0.16738600  1
  Sn  Sn14  1  0.84255100  0.33632300  0.84865300  1
  Sn  Sn15  1  0.68162000  0.66275900  0.66627000  1
  Sn  Sn16  1  0.34378200  0.33474100  0.99553000  1
  Sn  Sn17  1  0.33214500  0.33539900  0.66770700  1
  F  F18  1  0.98144000  0.29853500  0.99241200  1
  F  F19  1  0.67331600  0.88056800  0.01720100  1
  F  F20  1  0.63847500  0.87928800  0.32889000  1
  F  F21  1  0.61708800  0.28690000  0.05314600  1
  F  F22  1  0.61715600  0.28767900  0.28097400  1
  F  F23  1  0.49628300  0.30233400  0.49884400  1
  F  F24  1  0.31922100  0.11932600  0.34347300  1
  F  F25  1  0.28396200  0.29188600  0.16632000  1
  F  F26  1  0.21877500  0.70926300  0.33426500  1
  F  F27  1  0.18650500  0.87769400  0.15462300  1
  F  F28  1  0.17568300  0.88011100  0.51173400  1
  F  F29  1  0.14600500  0.87933600  0.83054800  1
  F  F30  1  0.10121400  0.28672700  0.55814800  1
  F  F31  1  0.09929300  0.28726600  0.77502800  1
  F  F32  1  0.99536000  0.69090700  0.66677900  1
  F  F33  1  0.98259000  0.30533700  0.34171100  1
  F  F34  1  0.88689500  0.71141800  0.22157500  1
  F  F35  1  0.88292600  0.70734300  0.44662200  1
  F  F36  1  0.85787000  0.11849300  0.16946100  1
  F  F37  1  0.82379600  0.11888800  0.49199100  1
  F  F38  1  0.81532600  0.12261800  0.83721300  1
  F  F39  1  0.73187100  0.71299400  0.83714600  1
  F  F40  1  0.68661000  0.87789600  0.65670900  1
  F  F41  1  0.49492300  0.30998000  0.83460600  1
  F  F42  1  0.51402900  0.69945500  0.49384500  1
  F  F43  1  0.39176700  0.71182000  0.71874900  1
  F  F44  1  0.39359300  0.71288400  0.94196400  1
  F  F45  1  0.35670000  0.12016400  0.66954800  1
  F  F46  1  0.32671500  0.11903800  0.98670000  1
  F  F47  1  0.98247900  0.69521400  0.00988300  1
