# generated using pymatgen
data_Mg2NiH4
_symmetry_space_group_name_H-M   'P 1'
_cell_length_a   7.88268337
_cell_length_b   7.88268337
_cell_length_c   6.50055632
_cell_angle_alpha   68.68079416
_cell_angle_beta   68.68079416
_cell_angle_gamma   48.00634659
_symmetry_Int_Tables_number   1
_chemical_formula_structural   Mg2NiH4
_chemical_formula_sum   'Mg8 Ni4 H16'
_cell_volume   275.40477916
_cell_formula_units_Z   4
loop_
 _symmetry_equiv_pos_site_id
 _symmetry_equiv_pos_as_xyz
  1  'x, y, z'
loop_
 _atom_site_type_symbol
 _atom_site_label
 _atom_site_symmetry_multiplicity
 _atom_site_fract_x
 _atom_site_fract_y
 _atom_site_fract_z
 _atom_site_occupancy
  Mg  Mg0  1  0.21823400  0.25017400  0.08888000  1
  Mg  Mg1  1  0.74982600  0.78176600  0.41112000  1
  Mg  Mg2  1  0.78176600  0.74982600  0.91112000  1
  Mg  Mg3  1  0.25017400  0.21823400  0.58888000  1
  Mg  Mg4  1  0.02866300  0.97133700  0.25000000  1
  Mg  Mg5  1  0.97133700  0.02866300  0.75000000  1
  Mg  Mg6  1  0.53129800  0.46870200  0.25000000  1
  Mg  Mg7  1  0.46870200  0.53129800  0.75000000  1
  Ni  Ni8  1  0.10731200  0.65166500  0.07689400  1
  Ni  Ni9  1  0.34833500  0.89268800  0.42310600  1
  Ni  Ni10  1  0.89268800  0.34833500  0.92310600  1
  Ni  Ni11  1  0.65166500  0.10731200  0.57689400  1
  H  H12  1  0.09227100  0.48952900  0.30024700  1
  H  H13  1  0.51047100  0.90772900  0.19975300  1
  H  H14  1  0.90772900  0.51047100  0.69975300  1
  H  H15  1  0.48952900  0.09227100  0.80024700  1
  H  H16  1  0.18383900  0.53767700  0.87711100  1
  H  H17  1  0.46232300  0.81616100  0.62288900  1
  H  H18  1  0.81616100  0.46232300  0.12288900  1
  H  H19  1  0.53767700  0.18383900  0.37711100  1
  H  H20  1  0.27925500  0.69466400  0.05900600  1
  H  H21  1  0.30533600  0.72074500  0.44099400  1
  H  H22  1  0.72074500  0.30533600  0.94099400  1
  H  H23  1  0.69466400  0.27925500  0.55900600  1
  H  H24  1  0.86301800  0.88817200  0.06674100  1
  H  H25  1  0.11182800  0.13698200  0.43325900  1
  H  H26  1  0.13698200  0.11182800  0.93325900  1
  H  H27  1  0.88817200  0.86301800  0.56674100  1
