# generated using pymatgen
data_UWC2
_symmetry_space_group_name_H-M   'P 1'
_cell_length_a   3.23041700
_cell_length_b   5.63138700
_cell_length_c   11.07393900
_cell_angle_alpha   90.00000000
_cell_angle_beta   90.00000000
_cell_angle_gamma   90.00000000
_symmetry_Int_Tables_number   1
_chemical_formula_structural   UWC2
_chemical_formula_sum   'U4 W4 C8'
_cell_volume   201.45408948
_cell_formula_units_Z   4
loop_
 _symmetry_equiv_pos_site_id
 _symmetry_equiv_pos_as_xyz
  1  'x, y, z'
loop_
 _atom_site_type_symbol
 _atom_site_label
 _atom_site_symmetry_multiplicity
 _atom_site_fract_x
 _atom_site_fract_y
 _atom_site_fract_z
 _atom_site_occupancy
  U  U0  1  0.25000000  0.08075300  0.85841800  1
  U  U1  1  0.25000000  0.58075300  0.64158200  1
  U  U2  1  0.75000000  0.91924700  0.14158200  1
  U  U3  1  0.75000000  0.41924700  0.35841800  1
  W  W4  1  0.25000000  0.41981800  0.10255600  1
  W  W5  1  0.25000000  0.91981800  0.39744400  1
  W  W6  1  0.75000000  0.58018200  0.89744400  1
  W  W7  1  0.75000000  0.08018200  0.60255600  1
  C  C8  1  0.25000000  0.16299000  0.24518300  1
  C  C9  1  0.25000000  0.66299000  0.25481700  1
  C  C10  1  0.75000000  0.83701000  0.75481700  1
  C  C11  1  0.75000000  0.33701000  0.74518300  1
  C  C12  1  0.25000000  0.74902500  0.99250900  1
  C  C13  1  0.25000000  0.24902500  0.50749100  1
  C  C14  1  0.75000000  0.25097500  0.00749100  1
  C  C15  1  0.75000000  0.75097500  0.49250900  1
