# generated using pymatgen
data_FeSeBr7
_symmetry_space_group_name_H-M   'P 1'
_cell_length_a   6.75377100
_cell_length_b   6.86173000
_cell_length_c   14.73510993
_cell_angle_alpha   78.37903757
_cell_angle_beta   90.00000000
_cell_angle_gamma   90.00000000
_symmetry_Int_Tables_number   1
_chemical_formula_structural   FeSeBr7
_chemical_formula_sum   'Fe2 Se2 Br14'
_cell_volume   668.86503458
_cell_formula_units_Z   2
loop_
 _symmetry_equiv_pos_site_id
 _symmetry_equiv_pos_as_xyz
  1  'x, y, z'
loop_
 _atom_site_type_symbol
 _atom_site_label
 _atom_site_symmetry_multiplicity
 _atom_site_fract_x
 _atom_site_fract_y
 _atom_site_fract_z
 _atom_site_occupancy
  Fe  Fe0  1  0.50149500  0.44640300  0.14018500  1
  Fe  Fe1  1  0.49850500  0.44640300  0.64018500  1
  Se  Se2  1  0.91504900  0.15336600  0.30359200  1
  Se  Se3  1  0.08495100  0.15336600  0.80359200  1
  Br  Br4  1  0.15488400  0.47220300  0.13327900  1
  Br  Br5  1  0.87458900  0.27822500  0.90740900  1
  Br  Br6  1  0.30917100  0.95848900  0.91016800  1
  Br  Br7  1  0.69082900  0.95848900  0.41016800  1
  Br  Br8  1  0.38844100  0.11934300  0.64114000  1
  Br  Br9  1  0.37684900  0.51624200  0.78106100  1
  Br  Br10  1  0.61155900  0.11934300  0.14114000  1
  Br  Br11  1  0.89126600  0.89405100  0.76338800  1
  Br  Br12  1  0.64267900  0.66497800  0.01257800  1
  Br  Br13  1  0.62315100  0.51624200  0.28106100  1
  Br  Br14  1  0.35732100  0.66497800  0.51257800  1
  Br  Br15  1  0.10873400  0.89405100  0.26338800  1
  Br  Br16  1  0.12541100  0.27822500  0.40740900  1
  Br  Br17  1  0.84511600  0.47220300  0.63327900  1
