# generated using pymatgen
data_RbGeSbO5
_symmetry_space_group_name_H-M   'P 1'
_cell_length_a   6.81386000
_cell_length_b   10.94035500
_cell_length_c   13.61865600
_cell_angle_alpha   90.00000000
_cell_angle_beta   90.00000000
_cell_angle_gamma   90.00000000
_symmetry_Int_Tables_number   1
_chemical_formula_structural   RbGeSbO5
_chemical_formula_sum   'Rb8 Ge8 Sb8 O40'
_cell_volume   1015.21697461
_cell_formula_units_Z   8
loop_
 _symmetry_equiv_pos_site_id
 _symmetry_equiv_pos_as_xyz
  1  'x, y, z'
loop_
 _atom_site_type_symbol
 _atom_site_label
 _atom_site_symmetry_multiplicity
 _atom_site_fract_x
 _atom_site_fract_y
 _atom_site_fract_z
 _atom_site_occupancy
  Rb  Rb0  1  0.19859500  0.56715500  0.39001400  1
  Rb  Rb1  1  0.80140500  0.06715500  0.60998600  1
  Rb  Rb2  1  0.30140500  0.56715500  0.89001400  1
  Rb  Rb3  1  0.69859500  0.06715500  0.10998600  1
  Rb  Rb4  1  0.27822400  0.82227500  0.11378900  1
  Rb  Rb5  1  0.72177600  0.32227500  0.88621100  1
  Rb  Rb6  1  0.22177600  0.82227500  0.61378900  1
  Rb  Rb7  1  0.77822400  0.32227500  0.38621100  1
  Ge  Ge8  1  0.00916000  0.99874900  0.32019900  1
  Ge  Ge9  1  0.99084000  0.49874900  0.67980100  1
  Ge  Ge10  1  0.49084000  0.99874900  0.82019900  1
  Ge  Ge11  1  0.50916000  0.49874900  0.17980100  1
  Ge  Ge12  1  0.82033100  0.74813000  0.00109100  1
  Ge  Ge13  1  0.17966900  0.24813000  0.99890900  1
  Ge  Ge14  1  0.67966900  0.74813000  0.50109100  1
  Ge  Ge15  1  0.32033100  0.24813000  0.49890900  1
  Sb  Sb16  1  0.75582700  0.74633000  0.25381700  1
  Sb  Sb17  1  0.24417300  0.24633000  0.74618300  1
  Sb  Sb18  1  0.74417300  0.74633000  0.75381700  1
  Sb  Sb19  1  0.25582700  0.24633000  0.24618300  1
  Sb  Sb20  1  0.00576800  0.49998100  0.11948900  1
  Sb  Sb21  1  0.99423200  0.99998100  0.88051100  1
  Sb  Sb22  1  0.49423200  0.49998100  0.61948900  1
  Sb  Sb23  1  0.50576800  0.99998100  0.38051100  1
  O  O24  1  0.54609800  0.87251900  0.27810600  1
  O  O25  1  0.45390200  0.37251900  0.72189400  1
  O  O26  1  0.95390200  0.87251900  0.77810600  1
  O  O27  1  0.04609800  0.37251900  0.22189400  1
  O  O28  1  0.46810300  0.12502900  0.27591200  1
  O  O29  1  0.53189700  0.62502900  0.72408800  1
  O  O30  1  0.03189700  0.12502900  0.77591200  1
  O  O31  1  0.96810300  0.62502900  0.22408800  1
  O  O32  1  0.95866000  0.87618500  0.23797400  1
  O  O33  1  0.04134000  0.37618500  0.76202600  1
  O  O34  1  0.54134000  0.87618500  0.73797400  1
  O  O35  1  0.45866000  0.37618500  0.26202600  1
  O  O36  1  0.05097000  0.11789900  0.23306600  1
  O  O37  1  0.94903000  0.61789900  0.76693400  1
  O  O38  1  0.44903000  0.11789900  0.73306600  1
  O  O39  1  0.66606200  0.72702700  0.89772000  1
  O  O40  1  0.55097000  0.61789900  0.26693400  1
  O  O41  1  0.78696900  0.46629900  0.60344500  1
  O  O42  1  0.28696900  0.96629900  0.89655500  1
  O  O43  1  0.71303100  0.46629900  0.10344500  1
  O  O44  1  0.80103400  0.03843500  0.39129500  1
  O  O45  1  0.19896600  0.53843500  0.60870500  1
  O  O46  1  0.69896600  0.03843500  0.89129500  1
  O  O47  1  0.30103400  0.53843500  0.10870500  1
  O  O48  1  0.49414000  0.12977300  0.48492500  1
  O  O49  1  0.50586000  0.62977300  0.51507500  1
  O  O50  1  0.00586000  0.12977300  0.98492500  1
  O  O51  1  0.99414000  0.62977300  0.01507500  1
  O  O52  1  0.46134300  0.38405800  0.50803100  1
  O  O53  1  0.53865700  0.88405800  0.49196900  1
  O  O54  1  0.03865700  0.38405800  0.00803100  1
  O  O55  1  0.96134300  0.88405800  0.99196900  1
  O  O56  1  0.17691400  0.26525700  0.39095000  1
  O  O57  1  0.82308600  0.76525700  0.60905000  1
  O  O58  1  0.32308600  0.26525700  0.89095000  1
  O  O59  1  0.67691400  0.76525700  0.10905000  1
  O  O60  1  0.16606200  0.22702700  0.60228000  1
  O  O61  1  0.83393800  0.72702700  0.39772000  1
  O  O62  1  0.33393800  0.22702700  0.10228000  1
  O  O63  1  0.21303100  0.96629900  0.39655500  1
