# generated using pymatgen
data_Na2Ti2Se9
_symmetry_space_group_name_H-M   'P 1'
_cell_length_a   15.23769500
_cell_length_b   13.11534900
_cell_length_c   14.02294190
_cell_angle_alpha   85.58910545
_cell_angle_beta   90.00000000
_cell_angle_gamma   90.00000000
_symmetry_Int_Tables_number   1
_chemical_formula_structural   Na2Ti2Se9
_chemical_formula_sum   'Na16 Ti16 Se72'
_cell_volume   2794.15206211
_cell_formula_units_Z   8
loop_
 _symmetry_equiv_pos_site_id
 _symmetry_equiv_pos_as_xyz
  1  'x, y, z'
loop_
 _atom_site_type_symbol
 _atom_site_label
 _atom_site_symmetry_multiplicity
 _atom_site_fract_x
 _atom_site_fract_y
 _atom_site_fract_z
 _atom_site_occupancy
  Na  Na0  1  0.96276700  0.21966300  0.39055200  1
  Na  Na1  1  0.73467400  0.30442300  0.58100300  1
  Na  Na2  1  0.43854500  0.08788600  0.36692000  1
  Na  Na3  1  0.26146000  0.35920000  0.62242400  1
  Na  Na4  1  0.76146000  0.64080000  0.37757600  1
  Na  Na5  1  0.52836700  0.88196700  0.12231300  1
  Na  Na6  1  0.49489300  0.17781500  0.94943300  1
  Na  Na7  1  0.23467400  0.69557700  0.41899700  1
  Na  Na8  1  0.93854500  0.91211400  0.63308000  1
  Na  Na9  1  0.46276700  0.78033700  0.60944800  1
  Na  Na10  1  0.02836700  0.11803300  0.87768700  1
  Na  Na11  1  0.25625200  0.36769000  0.12861100  1
  Na  Na12  1  0.75625200  0.63231000  0.87138900  1
  Na  Na13  1  0.66579400  0.32093300  0.15338700  1
  Na  Na14  1  0.16579400  0.67906700  0.84661300  1
  Na  Na15  1  0.99489300  0.82218500  0.05056700  1
  Ti  Ti16  1  0.23224500  0.98913300  0.51916100  1
  Ti  Ti17  1  0.73224500  0.01086700  0.48083900  1
  Ti  Ti18  1  0.96831700  0.50976700  0.73721500  1
  Ti  Ti19  1  0.72354900  0.00981800  0.97966800  1
  Ti  Ti20  1  0.73258400  0.01917100  0.73765100  1
  Ti  Ti21  1  0.96741800  0.48611300  0.49731200  1
  Ti  Ti22  1  0.97637900  0.50729700  0.99437300  1
  Ti  Ti23  1  0.46831700  0.49023300  0.26278500  1
  Ti  Ti24  1  0.47637900  0.49270300  0.00562700  1
  Ti  Ti25  1  0.22354900  0.99018200  0.02033200  1
  Ti  Ti26  1  0.22074600  0.98145600  0.76230500  1
  Ti  Ti27  1  0.23258400  0.98082900  0.26234900  1
  Ti  Ti28  1  0.46471400  0.50605000  0.76134100  1
  Ti  Ti29  1  0.96471400  0.49395000  0.23865900  1
  Ti  Ti30  1  0.46741800  0.51388700  0.50268800  1
  Ti  Ti31  1  0.72074600  0.01854400  0.23769500  1
  Se  Se32  1  0.90446900  0.67873400  0.21209400  1
  Se  Se33  1  0.57349200  0.66260000  0.48086100  1
  Se  Se34  1  0.56873700  0.43315500  0.63465600  1
  Se  Se35  1  0.07349200  0.33740000  0.51913900  1
  Se  Se36  1  0.33420000  0.04727200  0.88766400  1
  Se  Se37  1  0.35073200  0.04891900  0.14519600  1
  Se  Se38  1  0.64452600  0.49196000  0.99925100  1
  Se  Se39  1  0.95570300  0.64158900  0.85882800  1
  Se  Se40  1  0.36870700  0.89506100  0.98681500  1
  Se  Se41  1  0.45570300  0.35841100  0.14117200  1
  Se  Se42  1  0.07450100  0.59094400  0.61498800  1
  Se  Se43  1  0.86870700  0.10493900  0.01318500  1
  Se  Se44  1  0.12586400  0.90902600  0.90008200  1
  Se  Se45  1  0.06635700  0.60783500  0.10869400  1
  Se  Se46  1  0.60756100  0.95183200  0.86584900  1
  Se  Se47  1  0.45489400  0.65610600  0.36963800  1
  Se  Se48  1  0.08926600  0.36143800  0.25315100  1
  Se  Se49  1  0.63495200  0.52052500  0.25541400  1
  Se  Se50  1  0.20428800  0.83397700  0.64826200  1
  Se  Se51  1  0.97638000  0.68136000  0.44663800  1
  Se  Se52  1  0.23126100  0.83204600  0.14937200  1
  Se  Se53  1  0.30674900  0.54921800  0.26909900  1
  Se  Se54  1  0.82371200  0.17521400  0.24071700  1
  Se  Se55  1  0.57849000  0.08398200  0.51718100  1
  Se  Se56  1  0.58926600  0.63856200  0.74684900  1
  Se  Se57  1  0.85073200  0.95108100  0.85480400  1
  Se  Se58  1  0.79013000  0.83402000  0.74750200  1
  Se  Se59  1  0.82194500  0.10017600  0.59881300  1
  Se  Se60  1  0.14452600  0.50804000  0.00074900  1
  Se  Se61  1  0.61173000  0.15314000  0.74329200  1
  Se  Se62  1  0.35308600  0.42410500  0.39222200  1
  Se  Se63  1  0.34970800  0.61819700  0.03298300  1
  Se  Se64  1  0.86304900  0.43043700  0.37332300  1
  Se  Se65  1  0.36304900  0.56956300  0.62667700  1
  Se  Se66  1  0.16690300  0.17127400  0.01705200  1
  Se  Se67  1  0.32371200  0.82478600  0.75928300  1
  Se  Se68  1  0.56635700  0.39216500  0.89130600  1
  Se  Se69  1  0.80985900  0.84034500  0.48180100  1
  Se  Se70  1  0.29013000  0.16598000  0.25249800  1
  Se  Se71  1  0.97733500  0.34676800  0.13371900  1
  Se  Se72  1  0.84795600  0.55677800  0.10943900  1
  Se  Se73  1  0.35276700  0.02815600  0.63669800  1
  Se  Se74  1  0.98298000  0.36569900  0.87708600  1
  Se  Se75  1  0.47733500  0.65323200  0.86628100  1
  Se  Se76  1  0.95489400  0.34389400  0.63036200  1
  Se  Se77  1  0.62586400  0.09097400  0.09991800  1
  Se  Se78  1  0.73126100  0.16795400  0.85062800  1
  Se  Se79  1  0.47638000  0.31864000  0.55336200  1
  Se  Se80  1  0.57450100  0.40905600  0.38501200  1
  Se  Se81  1  0.68324100  0.82779500  0.24752700  1
  Se  Se82  1  0.61208700  0.93353400  0.35596400  1
  Se  Se83  1  0.85308600  0.57589500  0.60777800  1
  Se  Se84  1  0.13495200  0.47947500  0.74458600  1
  Se  Se85  1  0.06873700  0.56684500  0.36534400  1
  Se  Se86  1  0.40446900  0.32126600  0.78790600  1
  Se  Se87  1  0.83420000  0.95272800  0.11233600  1
  Se  Se88  1  0.34795600  0.44322200  0.89056100  1
  Se  Se89  1  0.11208700  0.06646600  0.64403600  1
  Se  Se90  1  0.18324100  0.17220500  0.75247300  1
  Se  Se91  1  0.11173000  0.84686000  0.25670800  1
  Se  Se92  1  0.66690300  0.82872600  0.98294800  1
  Se  Se93  1  0.48298000  0.63430100  0.12291400  1
  Se  Se94  1  0.80674900  0.45078200  0.73090100  1
  Se  Se95  1  0.30985900  0.15965500  0.51819900  1
  Se  Se96  1  0.32194500  0.89982400  0.40118700  1
  Se  Se97  1  0.12921200  0.06402500  0.38656100  1
  Se  Se98  1  0.62921200  0.93597500  0.61343900  1
  Se  Se99  1  0.07849000  0.91601800  0.48281900  1
  Se  Se100  1  0.10756100  0.04816800  0.13415100  1
  Se  Se101  1  0.70428800  0.16602300  0.35173800  1
  Se  Se102  1  0.85276700  0.97184400  0.36330200  1
  Se  Se103  1  0.84970800  0.38180300  0.96701700  1
