# generated using pymatgen
data_ThGeS
_symmetry_space_group_name_H-M   'P 1'
_cell_length_a   9.03060886
_cell_length_b   9.03060886
_cell_length_c   9.03060886
_cell_angle_alpha   154.61339856
_cell_angle_beta   154.61339856
_cell_angle_gamma   36.20864905
_symmetry_Int_Tables_number   1
_chemical_formula_structural   ThGeS
_chemical_formula_sum   'Th2 Ge2 S2'
_cell_volume   135.19070966
_cell_formula_units_Z   2
loop_
 _symmetry_equiv_pos_site_id
 _symmetry_equiv_pos_as_xyz
  1  'x, y, z'
loop_
 _atom_site_type_symbol
 _atom_site_label
 _atom_site_symmetry_multiplicity
 _atom_site_fract_x
 _atom_site_fract_y
 _atom_site_fract_z
 _atom_site_occupancy
  Th  Th0  1  0.85956800  0.85956800  0.00000000  1
  Th  Th1  1  0.14043200  0.14043200  0.00000000  1
  Ge  Ge2  1  0.00000000  0.50000000  0.50000000  1
  Ge  Ge3  1  0.50000000  0.00000000  0.50000000  1
  S  S4  1  0.68704800  0.68704800  0.00000000  1
  S  S5  1  0.31295200  0.31295200  0.00000000  1
