# generated using pymatgen
data_CeCoGeH
_symmetry_space_group_name_H-M   'P 1'
_cell_length_a   4.00099600
_cell_length_b   4.00099600
_cell_length_c   7.44878100
_cell_angle_alpha   90.00000000
_cell_angle_beta   90.00000000
_cell_angle_gamma   90.00000000
_symmetry_Int_Tables_number   1
_chemical_formula_structural   CeCoGeH
_chemical_formula_sum   'Ce2 Co2 Ge2 H2'
_cell_volume   119.23985528
_cell_formula_units_Z   2
loop_
 _symmetry_equiv_pos_site_id
 _symmetry_equiv_pos_as_xyz
  1  'x, y, z'
loop_
 _atom_site_type_symbol
 _atom_site_label
 _atom_site_symmetry_multiplicity
 _atom_site_fract_x
 _atom_site_fract_y
 _atom_site_fract_z
 _atom_site_occupancy
  Ce  Ce0  1  0.50000000  0.00000000  0.32464500  1
  Ce  Ce1  1  0.00000000  0.50000000  0.67535500  1
  Co  Co2  1  0.50000000  0.50000000  0.00000000  1
  Co  Co3  1  0.00000000  0.00000000  0.00000000  1
  Ge  Ge4  1  0.50000000  0.00000000  0.82877300  1
  Ge  Ge5  1  0.00000000  0.50000000  0.17122700  1
  H  H6  1  0.00000000  0.00000000  0.50000000  1
  H  H7  1  0.50000000  0.50000000  0.50000000  1
