# generated using pymatgen
data_Ca3BCNCl2
_symmetry_space_group_name_H-M   'P 1'
_cell_length_a   3.85115100
_cell_length_b   11.23645700
_cell_length_c   13.90299400
_cell_angle_alpha   90.00000000
_cell_angle_beta   90.00000000
_cell_angle_gamma   90.00000000
_symmetry_Int_Tables_number   1
_chemical_formula_structural   Ca3BCNCl2
_chemical_formula_sum   'Ca12 B4 C4 N4 Cl8'
_cell_volume   601.62832754
_cell_formula_units_Z   4
loop_
 _symmetry_equiv_pos_site_id
 _symmetry_equiv_pos_as_xyz
  1  'x, y, z'
loop_
 _atom_site_type_symbol
 _atom_site_label
 _atom_site_symmetry_multiplicity
 _atom_site_fract_x
 _atom_site_fract_y
 _atom_site_fract_z
 _atom_site_occupancy
  Ca  Ca0  1  0.75000000  0.06824400  0.36322500  1
  Ca  Ca1  1  0.75000000  0.79934800  0.81325800  1
  Ca  Ca2  1  0.25000000  0.20065200  0.18674200  1
  Ca  Ca3  1  0.25000000  0.29934800  0.68674200  1
  Ca  Ca4  1  0.75000000  0.70065200  0.31325800  1
  Ca  Ca5  1  0.25000000  0.56824400  0.13677500  1
  Ca  Ca6  1  0.25000000  0.13795400  0.89586800  1
  Ca  Ca7  1  0.25000000  0.93175600  0.63677500  1
  Ca  Ca8  1  0.75000000  0.43175600  0.86322500  1
  Ca  Ca9  1  0.75000000  0.86204600  0.10413200  1
  Ca  Ca10  1  0.25000000  0.36204600  0.39586800  1
  Ca  Ca11  1  0.75000000  0.63795400  0.60413200  1
  B  B12  1  0.25000000  0.89715000  0.24352900  1
  B  B13  1  0.75000000  0.39715000  0.25647100  1
  B  B14  1  0.25000000  0.60285000  0.74352900  1
  B  B15  1  0.75000000  0.10285000  0.75647100  1
  C  C16  1  0.75000000  0.27732700  0.29363200  1
  C  C17  1  0.75000000  0.22267300  0.79363200  1
  C  C18  1  0.25000000  0.77732700  0.20636800  1
  C  C19  1  0.25000000  0.72267300  0.70636800  1
  N  N20  1  0.25000000  0.48591400  0.77001900  1
  N  N21  1  0.75000000  0.98591400  0.72998100  1
  N  N22  1  0.25000000  0.01408600  0.27001900  1
  N  N23  1  0.75000000  0.51408600  0.22998100  1
  Cl  Cl24  1  0.25000000  0.60595900  0.44659900  1
  Cl  Cl25  1  0.75000000  0.10595900  0.05340100  1
  Cl  Cl26  1  0.25000000  0.36004500  0.01190900  1
  Cl  Cl27  1  0.25000000  0.89404100  0.94659900  1
  Cl  Cl28  1  0.75000000  0.63995500  0.98809100  1
  Cl  Cl29  1  0.75000000  0.86004500  0.48809100  1
  Cl  Cl30  1  0.75000000  0.39404100  0.55340100  1
  Cl  Cl31  1  0.25000000  0.13995500  0.51190900  1
