# generated using pymatgen
data_NaMoAsO6
_symmetry_space_group_name_H-M   'P 1'
_cell_length_a   6.65703300
_cell_length_b   10.29085000
_cell_length_c   15.04959600
_cell_angle_alpha   90.00000000
_cell_angle_beta   90.00000000
_cell_angle_gamma   90.00000000
_symmetry_Int_Tables_number   1
_chemical_formula_structural   NaMoAsO6
_chemical_formula_sum   'Na8 Mo8 As8 O48'
_cell_volume   1030.99557049
_cell_formula_units_Z   8
loop_
 _symmetry_equiv_pos_site_id
 _symmetry_equiv_pos_as_xyz
  1  'x, y, z'
loop_
 _atom_site_type_symbol
 _atom_site_label
 _atom_site_symmetry_multiplicity
 _atom_site_fract_x
 _atom_site_fract_y
 _atom_site_fract_z
 _atom_site_occupancy
  Na  Na0  1  0.76285200  0.31029200  0.56452600  1
  Na  Na1  1  0.23714800  0.81029200  0.43547400  1
  Na  Na2  1  0.76285200  0.81029200  0.93547400  1
  Na  Na3  1  0.27026800  0.33521600  0.68235300  1
  Na  Na4  1  0.72973200  0.33521600  0.18235300  1
  Na  Na5  1  0.72973200  0.83521600  0.31764700  1
  Na  Na6  1  0.27026800  0.83521600  0.81764700  1
  Na  Na7  1  0.23714800  0.31029200  0.06452600  1
  Mo  Mo8  1  0.00905200  0.50129200  0.84978000  1
  Mo  Mo9  1  0.48811700  0.14664000  0.40032500  1
  Mo  Mo10  1  0.99094800  0.50129200  0.34978000  1
  Mo  Mo11  1  0.99094800  0.00129200  0.15022000  1
  Mo  Mo12  1  0.51188300  0.64664000  0.59967500  1
  Mo  Mo13  1  0.51188300  0.14664000  0.90032500  1
  Mo  Mo14  1  0.00905200  0.00129200  0.65022000  1
  Mo  Mo15  1  0.48811700  0.64664000  0.09967500  1
  As  As16  1  0.49448900  0.98379400  0.10545800  1
  As  As17  1  0.01324700  0.16273300  0.85591900  1
  As  As18  1  0.49448900  0.48379400  0.39454200  1
  As  As19  1  0.98675300  0.16273300  0.35591900  1
  As  As20  1  0.01324700  0.66273300  0.64408100  1
  As  As21  1  0.98675300  0.66273300  0.14408100  1
  As  As22  1  0.50551100  0.48379400  0.89454200  1
  As  As23  1  0.50551100  0.98379400  0.60545800  1
  O  O24  1  0.69226400  0.98797900  0.18062700  1
  O  O25  1  0.98074200  0.29965300  0.29282400  1
  O  O26  1  0.50017400  0.34692200  0.45777200  1
  O  O27  1  0.21162500  0.15712800  0.93062500  1
  O  O28  1  0.21162500  0.65712800  0.56937500  1
  O  O29  1  0.49982600  0.34692200  0.95777200  1
  O  O30  1  0.01485000  0.66790300  0.87251500  1
  O  O31  1  0.49950000  0.62558700  0.45386800  1
  O  O32  1  0.51089100  0.71437600  0.20519400  1
  O  O33  1  0.01485000  0.16790300  0.62748500  1
  O  O34  1  0.80289900  0.66518800  0.57582400  1
  O  O35  1  0.80289900  0.16518800  0.92417600  1
  O  O36  1  0.51089100  0.21437600  0.29480600  1
  O  O37  1  0.49950000  0.12558700  0.04613200  1
  O  O38  1  0.71666400  0.98586600  0.67300800  1
  O  O39  1  0.19710100  0.16518800  0.42417600  1
  O  O40  1  0.01925800  0.79965300  0.70717600  1
  O  O41  1  0.78837500  0.65712800  0.06937500  1
  O  O42  1  0.97357000  0.93326500  0.04457200  1
  O  O43  1  0.01925800  0.29965300  0.79282400  1
  O  O44  1  0.69226400  0.48797900  0.31937300  1
  O  O45  1  0.19710100  0.66518800  0.07582400  1
  O  O46  1  0.48910900  0.71437600  0.70519400  1
  O  O47  1  0.50017400  0.84692200  0.04222800  1
  O  O48  1  0.97357000  0.43326500  0.45542800  1
  O  O49  1  0.28333600  0.98586600  0.17300800  1
  O  O50  1  0.01339900  0.02076600  0.79659800  1
  O  O51  1  0.01339900  0.52076600  0.70340200  1
  O  O52  1  0.98660100  0.02076600  0.29659800  1
  O  O53  1  0.48910900  0.21437600  0.79480600  1
  O  O54  1  0.98660100  0.52076600  0.20340200  1
  O  O55  1  0.71666400  0.48586600  0.82699200  1
  O  O56  1  0.49982600  0.84692200  0.54222800  1
  O  O57  1  0.78837500  0.15712800  0.43062500  1
  O  O58  1  0.02643000  0.93326500  0.54457200  1
  O  O59  1  0.98515000  0.16790300  0.12748500  1
  O  O60  1  0.28333600  0.48586600  0.32699200  1
  O  O61  1  0.50050000  0.12558700  0.54613200  1
  O  O62  1  0.51627800  0.97999900  0.87748600  1
  O  O63  1  0.51627800  0.47999900  0.62251400  1
  O  O64  1  0.02643000  0.43326500  0.95542800  1
  O  O65  1  0.30773600  0.98797900  0.68062700  1
  O  O66  1  0.50050000  0.62558700  0.95386800  1
  O  O67  1  0.98515000  0.66790300  0.37251500  1
  O  O68  1  0.30773600  0.48797900  0.81937300  1
  O  O69  1  0.48372200  0.47999900  0.12251400  1
  O  O70  1  0.98074200  0.79965300  0.20717600  1
  O  O71  1  0.48372200  0.97999900  0.37748600  1
