# generated using pymatgen
data_Rb2PO3F
_symmetry_space_group_name_H-M   'P 1'
_cell_length_a   6.23589300
_cell_length_b   8.06642500
_cell_length_c   10.69361000
_cell_angle_alpha   90.00000000
_cell_angle_beta   90.00000000
_cell_angle_gamma   90.00000000
_symmetry_Int_Tables_number   1
_chemical_formula_structural   Rb2PO3F
_chemical_formula_sum   'Rb8 P4 O12 F4'
_cell_volume   537.90316045
_cell_formula_units_Z   4
loop_
 _symmetry_equiv_pos_site_id
 _symmetry_equiv_pos_as_xyz
  1  'x, y, z'
loop_
 _atom_site_type_symbol
 _atom_site_label
 _atom_site_symmetry_multiplicity
 _atom_site_fract_x
 _atom_site_fract_y
 _atom_site_fract_z
 _atom_site_occupancy
  Rb  Rb0  1  0.25000000  0.17629500  0.92265000  1
  Rb  Rb1  1  0.75000000  0.82370500  0.07735000  1
  Rb  Rb2  1  0.25000000  0.67629500  0.57735000  1
  Rb  Rb3  1  0.75000000  0.32370500  0.42265000  1
  Rb  Rb4  1  0.25000000  0.00707800  0.28197100  1
  Rb  Rb5  1  0.75000000  0.99292200  0.71802900  1
  Rb  Rb6  1  0.25000000  0.50707800  0.21802900  1
  Rb  Rb7  1  0.75000000  0.49292200  0.78197100  1
  P  P8  1  0.25000000  0.24209600  0.58616100  1
  P  P9  1  0.75000000  0.75790400  0.41383900  1
  P  P10  1  0.25000000  0.74209600  0.91383900  1
  P  P11  1  0.75000000  0.25790400  0.08616100  1
  O  O12  1  0.75000000  0.68840900  0.54655200  1
  O  O13  1  0.25000000  0.31159100  0.45344800  1
  O  O14  1  0.25000000  0.81159100  0.04655200  1
  O  O15  1  0.75000000  0.18840900  0.95344800  1
  O  O16  1  0.54355100  0.73010000  0.34080000  1
  O  O17  1  0.04355100  0.26990000  0.65920000  1
  O  O18  1  0.95644900  0.23010000  0.15920000  1
  O  O19  1  0.45644900  0.76990000  0.84080000  1
  O  O20  1  0.45644900  0.26990000  0.65920000  1
  O  O21  1  0.95644900  0.73010000  0.34080000  1
  O  O22  1  0.04355100  0.76990000  0.84080000  1
  O  O23  1  0.54355100  0.23010000  0.15920000  1
  F  F24  1  0.75000000  0.46385500  0.06298500  1
  F  F25  1  0.25000000  0.53614500  0.93701500  1
  F  F26  1  0.25000000  0.03614500  0.56298500  1
  F  F27  1  0.75000000  0.96385500  0.43701500  1
