# generated using pymatgen
data_Y5(ReO6)2
_symmetry_space_group_name_H-M   'P 1'
_cell_length_a   6.86129013
_cell_length_b   6.86129013
_cell_length_c   7.56995884
_cell_angle_alpha   73.75952719
_cell_angle_beta   73.75952719
_cell_angle_gamma   48.99332571
_symmetry_Int_Tables_number   1
_chemical_formula_structural   Y5(ReO6)2
_chemical_formula_sum   'Y5 Re2 O12'
_cell_volume   255.91526601
_cell_formula_units_Z   1
loop_
 _symmetry_equiv_pos_site_id
 _symmetry_equiv_pos_as_xyz
  1  'x, y, z'
loop_
 _atom_site_type_symbol
 _atom_site_label
 _atom_site_symmetry_multiplicity
 _atom_site_fract_x
 _atom_site_fract_y
 _atom_site_fract_z
 _atom_site_occupancy
  Y  Y0  1  0.31377100  0.31377100  0.82525000  1
  Y  Y1  1  0.30344000  0.30344000  0.35913400  1
  Y  Y2  1  0.69656000  0.69656000  0.64086600  1
  Y  Y3  1  0.68622900  0.68622900  0.17475000  1
  Y  Y4  1  0.00000000  0.00000000  0.50000000  1
  Re  Re5  1  0.78566700  0.21433300  0.00000000  1
  Re  Re6  1  0.21433300  0.78566700  0.00000000  1
  O  O7  1  0.99929500  0.99929500  0.79393800  1
  O  O8  1  0.49905500  0.49905500  0.17683100  1
  O  O9  1  0.59404200  0.09820300  0.57391900  1
  O  O10  1  0.09820300  0.59404200  0.57391900  1
  O  O11  1  0.08915300  0.58137500  0.08377800  1
  O  O12  1  0.58137500  0.08915300  0.08377800  1
  O  O13  1  0.91084700  0.41862500  0.91622200  1
  O  O14  1  0.41862500  0.91084700  0.91622200  1
  O  O15  1  0.90179700  0.40595800  0.42608100  1
  O  O16  1  0.40595800  0.90179700  0.42608100  1
  O  O17  1  0.50094500  0.50094500  0.82316900  1
  O  O18  1  0.00070500  0.00070500  0.20606200  1
