# generated using pymatgen
data_CsH3O2
_symmetry_space_group_name_H-M   'P 1'
_cell_length_a   4.63087534
_cell_length_b   4.63087534
_cell_length_c   4.42664500
_cell_angle_alpha   90.00000000
_cell_angle_beta   90.00000000
_cell_angle_gamma   122.76161882
_symmetry_Int_Tables_number   1
_chemical_formula_structural   CsH3O2
_chemical_formula_sum   'Cs1 H3 O2'
_cell_volume   79.82893877
_cell_formula_units_Z   1
loop_
 _symmetry_equiv_pos_site_id
 _symmetry_equiv_pos_as_xyz
  1  'x, y, z'
loop_
 _atom_site_type_symbol
 _atom_site_label
 _atom_site_symmetry_multiplicity
 _atom_site_fract_x
 _atom_site_fract_y
 _atom_site_fract_z
 _atom_site_occupancy
  Cs  Cs0  1  0.00405600  0.99594400  0.00000000  1
  H  H1  1  0.44499600  0.55500400  0.50000000  1
  H  H2  1  0.54732100  0.06796900  0.50000000  1
  H  H3  1  0.93203100  0.45267900  0.50000000  1
  O  O4  1  0.32352700  0.67647300  0.50000000  1
  O  O5  1  0.66704100  0.33295900  0.50000000  1
