# generated using pymatgen
data_KPPbS4
_symmetry_space_group_name_H-M   'P 1'
_cell_length_a   6.56846500
_cell_length_b   6.70813400
_cell_length_c   17.11370500
_cell_angle_alpha   90.00000000
_cell_angle_beta   90.00000000
_cell_angle_gamma   90.00000000
_symmetry_Int_Tables_number   1
_chemical_formula_structural   KPPbS4
_chemical_formula_sum   'K4 P4 Pb4 S16'
_cell_volume   754.06652372
_cell_formula_units_Z   4
loop_
 _symmetry_equiv_pos_site_id
 _symmetry_equiv_pos_as_xyz
  1  'x, y, z'
loop_
 _atom_site_type_symbol
 _atom_site_label
 _atom_site_symmetry_multiplicity
 _atom_site_fract_x
 _atom_site_fract_y
 _atom_site_fract_z
 _atom_site_occupancy
  K  K0  1  0.99906200  0.25000000  0.20899800  1
  K  K1  1  0.50093800  0.25000000  0.70899800  1
  K  K2  1  0.00093800  0.75000000  0.79100200  1
  K  K3  1  0.49906200  0.75000000  0.29100200  1
  P  P4  1  0.71806600  0.75000000  0.59886500  1
  P  P5  1  0.78193400  0.75000000  0.09886500  1
  P  P6  1  0.21806600  0.25000000  0.90113500  1
  P  P7  1  0.28193400  0.25000000  0.40113500  1
  Pb  Pb8  1  0.21396600  0.75000000  0.52023500  1
  Pb  Pb9  1  0.78603400  0.25000000  0.47976500  1
  Pb  Pb10  1  0.28603400  0.75000000  0.02023500  1
  Pb  Pb11  1  0.71396600  0.25000000  0.97976500  1
  S  S12  1  0.15256000  0.25000000  0.01925100  1
  S  S13  1  0.45839700  0.75000000  0.66438000  1
  S  S14  1  0.34744000  0.25000000  0.51925100  1
  S  S15  1  0.10715700  0.49502200  0.37656000  1
  S  S16  1  0.39284300  0.49502200  0.87656000  1
  S  S17  1  0.60715700  0.99502200  0.12344000  1
  S  S18  1  0.10715700  0.00497800  0.37656000  1
  S  S19  1  0.89284300  0.50497800  0.62344000  1
  S  S20  1  0.65256000  0.75000000  0.48074900  1
  S  S21  1  0.60715700  0.50497800  0.12344000  1
  S  S22  1  0.84744000  0.75000000  0.98074900  1
  S  S23  1  0.95839700  0.25000000  0.83562000  1
  S  S24  1  0.54160300  0.25000000  0.33562000  1
  S  S25  1  0.39284300  0.00497800  0.87656000  1
  S  S26  1  0.89284300  0.99502200  0.62344000  1
  S  S27  1  0.04160300  0.75000000  0.16438000  1
