# generated using pymatgen
data_RbPO3
_symmetry_space_group_name_H-M   'P 1'
_cell_length_a   4.62081100
_cell_length_b   12.28849600
_cell_length_c   14.57146145
_cell_angle_alpha   64.53620458
_cell_angle_beta   90.00000000
_cell_angle_gamma   90.00000000
_symmetry_Int_Tables_number   1
_chemical_formula_structural   RbPO3
_chemical_formula_sum   'Rb8 P8 O24'
_cell_volume   747.03179420
_cell_formula_units_Z   8
loop_
 _symmetry_equiv_pos_site_id
 _symmetry_equiv_pos_as_xyz
  1  'x, y, z'
loop_
 _atom_site_type_symbol
 _atom_site_label
 _atom_site_symmetry_multiplicity
 _atom_site_fract_x
 _atom_site_fract_y
 _atom_site_fract_z
 _atom_site_occupancy
  Rb  Rb0  1  0.21417500  0.56829000  0.62064700  1
  Rb  Rb1  1  0.73213200  0.91228900  0.91798400  1
  Rb  Rb2  1  0.26786800  0.08771100  0.08201600  1
  Rb  Rb3  1  0.78582500  0.43171000  0.37935300  1
  Rb  Rb4  1  0.23213200  0.08771100  0.58201600  1
  Rb  Rb5  1  0.28582500  0.56829000  0.12064700  1
  Rb  Rb6  1  0.76786800  0.91228900  0.41798400  1
  Rb  Rb7  1  0.71417500  0.43171000  0.87935300  1
  P  P8  1  0.31986900  0.20431500  0.30955700  1
  P  P9  1  0.18228800  0.71318000  0.83574600  1
  P  P10  1  0.18013100  0.20431500  0.80955700  1
  P  P11  1  0.81771200  0.28682000  0.16425400  1
  P  P12  1  0.68013100  0.79568500  0.69044300  1
  P  P13  1  0.31771200  0.71318000  0.33574600  1
  P  P14  1  0.68228800  0.28682000  0.66425400  1
  P  P15  1  0.81986900  0.79568500  0.19044300  1
  O  O16  1  0.75184900  0.24365200  0.58458800  1
  O  O17  1  0.74815100  0.24365200  0.08458800  1
  O  O18  1  0.79629900  0.69952900  0.15352100  1
  O  O19  1  0.70370100  0.69952900  0.65352100  1
  O  O20  1  0.20370100  0.30047100  0.84647900  1
  O  O21  1  0.28739500  0.58277900  0.35868800  1
  O  O22  1  0.75487000  0.92360700  0.61988700  1
  O  O23  1  0.78739500  0.41722100  0.14131200  1
  O  O24  1  0.85268600  0.75808500  0.79802000  1
  O  O25  1  0.71260500  0.41722100  0.64131200  1
  O  O26  1  0.35321400  0.79953800  0.73105100  1
  O  O27  1  0.85321400  0.20046200  0.76894900  1
  O  O28  1  0.64678600  0.20046200  0.26894900  1
  O  O29  1  0.14731400  0.24191500  0.20198000  1
  O  O30  1  0.21260500  0.58277900  0.85868800  1
  O  O31  1  0.24815100  0.75634800  0.41541200  1
  O  O32  1  0.64731400  0.75808500  0.29802000  1
  O  O33  1  0.74513000  0.92360700  0.11988700  1
  O  O34  1  0.29629900  0.30047100  0.34647900  1
  O  O35  1  0.14678600  0.79953800  0.23105100  1
  O  O36  1  0.25487000  0.07639300  0.88011300  1
  O  O37  1  0.24513000  0.07639300  0.38011300  1
  O  O38  1  0.35268600  0.24191500  0.70198000  1
  O  O39  1  0.25184900  0.75634800  0.91541200  1
