# generated using pymatgen
data_La2GeO5
_symmetry_space_group_name_H-M   'P 1'
_cell_length_a   7.52882200
_cell_length_b   7.13828700
_cell_length_c   9.68499747
_cell_angle_alpha   72.54431465
_cell_angle_beta   90.00000000
_cell_angle_gamma   90.00000000
_symmetry_Int_Tables_number   1
_chemical_formula_structural   La2GeO5
_chemical_formula_sum   'La8 Ge4 O20'
_cell_volume   496.53036614
_cell_formula_units_Z   4
loop_
 _symmetry_equiv_pos_site_id
 _symmetry_equiv_pos_as_xyz
  1  'x, y, z'
loop_
 _atom_site_type_symbol
 _atom_site_label
 _atom_site_symmetry_multiplicity
 _atom_site_fract_x
 _atom_site_fract_y
 _atom_site_fract_z
 _atom_site_occupancy
  La  La0  1  0.35532400  0.91627500  0.38189700  1
  La  La1  1  0.14467600  0.41627500  0.38189700  1
  La  La2  1  0.62460100  0.23473300  0.97801700  1
  La  La3  1  0.64467600  0.08372500  0.61810300  1
  La  La4  1  0.87539900  0.73473300  0.97801700  1
  La  La5  1  0.37539900  0.76526700  0.02198300  1
  La  La6  1  0.85532400  0.58372500  0.61810300  1
  La  La7  1  0.12460100  0.26526700  0.02198300  1
  Ge  Ge8  1  0.58873500  0.45895900  0.29892400  1
  Ge  Ge9  1  0.91126500  0.95895900  0.29892400  1
  Ge  Ge10  1  0.08873500  0.04104100  0.70107600  1
  Ge  Ge11  1  0.41126500  0.54104100  0.70107600  1
  O  O12  1  0.22674100  0.55255800  0.59160400  1
  O  O13  1  0.86216300  0.00952700  0.10963100  1
  O  O14  1  0.13783700  0.99047300  0.89036900  1
  O  O15  1  0.87668500  0.44898000  0.88667800  1
  O  O16  1  0.77325900  0.44744200  0.40839600  1
  O  O17  1  0.63783700  0.50952700  0.10963100  1
  O  O18  1  0.95483100  0.25100700  0.62988200  1
  O  O19  1  0.12331500  0.55102000  0.11332200  1
  O  O20  1  0.45483100  0.24899300  0.37011800  1
  O  O21  1  0.07665000  0.14492200  0.29157700  1
  O  O22  1  0.72674100  0.94744200  0.40839600  1
  O  O23  1  0.62331500  0.94898000  0.88667800  1
  O  O24  1  0.54516900  0.75100700  0.62988200  1
  O  O25  1  0.27325900  0.05255800  0.59160400  1
  O  O26  1  0.04516900  0.74899300  0.37011800  1
  O  O27  1  0.37668500  0.05102000  0.11332200  1
  O  O28  1  0.92335000  0.85507800  0.70842300  1
  O  O29  1  0.57665000  0.35507800  0.70842300  1
  O  O30  1  0.36216300  0.49047300  0.89036900  1
  O  O31  1  0.42335000  0.64492200  0.29157700  1
