# generated using pymatgen
data_Sr3MgPtO6
_symmetry_space_group_name_H-M   'P 1'
_cell_length_a   6.75828766
_cell_length_b   6.75828766
_cell_length_c   6.75828782
_cell_angle_alpha   92.17215565
_cell_angle_beta   92.17215565
_cell_angle_gamma   92.17215932
_symmetry_Int_Tables_number   1
_chemical_formula_structural   Sr3MgPtO6
_chemical_formula_sum   'Sr6 Mg2 Pt2 O12'
_cell_volume   307.99836418
_cell_formula_units_Z   2
loop_
 _symmetry_equiv_pos_site_id
 _symmetry_equiv_pos_as_xyz
  1  'x, y, z'
loop_
 _atom_site_type_symbol
 _atom_site_label
 _atom_site_symmetry_multiplicity
 _atom_site_fract_x
 _atom_site_fract_y
 _atom_site_fract_z
 _atom_site_occupancy
  Sr  Sr0  1  0.61472000  0.25000000  0.88528000  1
  Sr  Sr1  1  0.88528000  0.61472000  0.25000000  1
  Sr  Sr2  1  0.75000000  0.11472000  0.38528000  1
  Sr  Sr3  1  0.38528000  0.75000000  0.11472000  1
  Sr  Sr4  1  0.11472000  0.38528000  0.75000000  1
  Sr  Sr5  1  0.25000000  0.88528000  0.61472000  1
  Mg  Mg6  1  0.25000000  0.25000000  0.25000000  1
  Mg  Mg7  1  0.75000000  0.75000000  0.75000000  1
  Pt  Pt8  1  0.00000000  0.00000000  0.00000000  1
  Pt  Pt9  1  0.50000000  0.50000000  0.50000000  1
  O  O10  1  0.59481600  0.78883300  0.46452500  1
  O  O11  1  0.46452500  0.59481600  0.78883300  1
  O  O12  1  0.78883300  0.46452500  0.59481600  1
  O  O13  1  0.90518400  0.03547500  0.71116700  1
  O  O14  1  0.71116700  0.90518400  0.03547500  1
  O  O15  1  0.03547500  0.71116700  0.90518400  1
  O  O16  1  0.40518400  0.21116700  0.53547500  1
  O  O17  1  0.53547500  0.40518400  0.21116700  1
  O  O18  1  0.21116700  0.53547500  0.40518400  1
  O  O19  1  0.09481600  0.96452500  0.28883300  1
  O  O20  1  0.96452500  0.28883300  0.09481600  1
  O  O21  1  0.28883300  0.09481600  0.96452500  1
