# generated using pymatgen
data_Nb5P3
_symmetry_space_group_name_H-M   'P 1'
_cell_length_a   3.45232400
_cell_length_b   11.56340400
_cell_length_c   25.59404900
_cell_angle_alpha   90.00000000
_cell_angle_beta   90.00000000
_cell_angle_gamma   90.00000000
_symmetry_Int_Tables_number   1
_chemical_formula_structural   Nb5P3
_chemical_formula_sum   'Nb40 P24'
_cell_volume   1021.73023147
_cell_formula_units_Z   8
loop_
 _symmetry_equiv_pos_site_id
 _symmetry_equiv_pos_as_xyz
  1  'x, y, z'
loop_
 _atom_site_type_symbol
 _atom_site_label
 _atom_site_symmetry_multiplicity
 _atom_site_fract_x
 _atom_site_fract_y
 _atom_site_fract_z
 _atom_site_occupancy
  Nb  Nb0  1  0.25000000  0.93157000  0.60134300  1
  Nb  Nb1  1  0.25000000  0.34480200  0.26003300  1
  Nb  Nb2  1  0.75000000  0.43157000  0.89865700  1
  Nb  Nb3  1  0.25000000  0.21116900  0.62430900  1
  Nb  Nb4  1  0.75000000  0.06843000  0.39865700  1
  Nb  Nb5  1  0.25000000  0.56843000  0.10134300  1
  Nb  Nb6  1  0.75000000  0.60833100  0.00075000  1
  Nb  Nb7  1  0.75000000  0.37954000  0.77419000  1
  Nb  Nb8  1  0.25000000  0.15519800  0.76003300  1
  Nb  Nb9  1  0.25000000  0.10833100  0.49925000  1
  Nb  Nb10  1  0.75000000  0.05719100  0.15175600  1
  Nb  Nb11  1  0.75000000  0.45916100  0.17710800  1
  Nb  Nb12  1  0.75000000  0.19417400  0.04542900  1
  Nb  Nb13  1  0.25000000  0.94280900  0.84824400  1
  Nb  Nb14  1  0.25000000  0.41572600  0.46417500  1
  Nb  Nb15  1  0.25000000  0.80582600  0.95457100  1
  Nb  Nb16  1  0.75000000  0.34360400  0.36262000  1
  Nb  Nb17  1  0.75000000  0.89166900  0.50075000  1
  Nb  Nb18  1  0.25000000  0.65639600  0.63738000  1
  Nb  Nb19  1  0.75000000  0.04083900  0.67710800  1
  Nb  Nb20  1  0.75000000  0.44280900  0.65175600  1
  Nb  Nb21  1  0.25000000  0.08427400  0.96417500  1
  Nb  Nb22  1  0.75000000  0.58427400  0.53582500  1
  Nb  Nb23  1  0.25000000  0.39166900  0.99925000  1
  Nb  Nb24  1  0.75000000  0.15639600  0.86262000  1
  Nb  Nb25  1  0.25000000  0.62046000  0.22581000  1
  Nb  Nb26  1  0.75000000  0.78883100  0.37569100  1
  Nb  Nb27  1  0.25000000  0.54083900  0.82289200  1
  Nb  Nb28  1  0.75000000  0.84480200  0.23996700  1
  Nb  Nb29  1  0.75000000  0.65519800  0.73996700  1
  Nb  Nb30  1  0.25000000  0.84360400  0.13738000  1
  Nb  Nb31  1  0.25000000  0.28883100  0.12430900  1
  Nb  Nb32  1  0.75000000  0.71116900  0.87569100  1
  Nb  Nb33  1  0.75000000  0.30582600  0.54542900  1
  Nb  Nb34  1  0.25000000  0.87954000  0.72581000  1
  Nb  Nb35  1  0.25000000  0.95916100  0.32289200  1
  Nb  Nb36  1  0.25000000  0.69417400  0.45457100  1
  Nb  Nb37  1  0.75000000  0.12046000  0.27419000  1
  Nb  Nb38  1  0.25000000  0.55719100  0.34824400  1
  Nb  Nb39  1  0.75000000  0.91572600  0.03582500  1
  P  P40  1  0.75000000  0.25066100  0.95097500  1
  P  P41  1  0.75000000  0.50035900  0.28024500  1
  P  P42  1  0.75000000  0.41911700  0.07280500  1
  P  P43  1  0.25000000  0.74640900  0.30289000  1
  P  P44  1  0.25000000  0.05240800  0.07704500  1
  P  P45  1  0.25000000  0.00035900  0.21975500  1
  P  P46  1  0.75000000  0.25359100  0.69711000  1
  P  P47  1  0.75000000  0.24640900  0.19711000  1
  P  P48  1  0.25000000  0.75066100  0.54902500  1
  P  P49  1  0.75000000  0.94759200  0.92295500  1
  P  P50  1  0.25000000  0.75359100  0.80289000  1
  P  P51  1  0.75000000  0.68842500  0.15826500  1
  P  P52  1  0.25000000  0.58088300  0.92719500  1
  P  P53  1  0.75000000  0.24933900  0.45097500  1
  P  P54  1  0.25000000  0.91911700  0.42719500  1
  P  P55  1  0.25000000  0.44759200  0.57704500  1
  P  P56  1  0.75000000  0.81157500  0.65826500  1
  P  P57  1  0.25000000  0.18842500  0.34173500  1
  P  P58  1  0.75000000  0.08088300  0.57280500  1
  P  P59  1  0.25000000  0.49964100  0.71975500  1
  P  P60  1  0.75000000  0.99964100  0.78024500  1
  P  P61  1  0.25000000  0.31157500  0.84173500  1
  P  P62  1  0.75000000  0.55240800  0.42295500  1
  P  P63  1  0.25000000  0.74933900  0.04902500  1
