# generated using pymatgen
data_Ce3(AgGe)4
_symmetry_space_group_name_H-M   'P 1'
_cell_length_a   8.51197640
_cell_length_b   8.51197640
_cell_length_c   8.51197640
_cell_angle_alpha   149.62612976
_cell_angle_beta   129.63991973
_cell_angle_gamma   59.95334451
_symmetry_Int_Tables_number   1
_chemical_formula_structural   Ce3(AgGe)4
_chemical_formula_sum   'Ce3 Ag4 Ge4'
_cell_volume   238.17538656
_cell_formula_units_Z   1
loop_
 _symmetry_equiv_pos_site_id
 _symmetry_equiv_pos_as_xyz
  1  'x, y, z'
loop_
 _atom_site_type_symbol
 _atom_site_label
 _atom_site_symmetry_multiplicity
 _atom_site_fract_x
 _atom_site_fract_y
 _atom_site_fract_z
 _atom_site_occupancy
  Ce  Ce0  1  0.12734200  0.12734200  0.00000000  1
  Ce  Ce1  1  0.87265800  0.87265800  0.00000000  1
  Ce  Ce2  1  0.50000000  0.00000000  0.50000000  1
  Ag  Ag3  1  0.14023200  0.33306900  0.80716300  1
  Ag  Ag4  1  0.85976800  0.66693100  0.19283700  1
  Ag  Ag5  1  0.47409400  0.66693100  0.80716300  1
  Ag  Ag6  1  0.52590600  0.33306900  0.19283700  1
  Ge  Ge7  1  0.18061300  0.50000000  0.68061300  1
  Ge  Ge8  1  0.28186000  0.78186000  0.50000000  1
  Ge  Ge9  1  0.81938700  0.50000000  0.31938700  1
  Ge  Ge10  1  0.71814000  0.21814000  0.50000000  1
