# generated using pymatgen
data_BaTi(SiO3)3
_symmetry_space_group_name_H-M   'P 1'
_cell_length_a   6.72417580
_cell_length_b   6.72417580
_cell_length_c   9.89997600
_cell_angle_alpha   90.00000000
_cell_angle_beta   90.00000000
_cell_angle_gamma   119.99999799
_symmetry_Int_Tables_number   1
_chemical_formula_structural   BaTi(SiO3)3
_chemical_formula_sum   'Ba2 Ti2 Si6 O18'
_cell_volume   387.65277782
_cell_formula_units_Z   2
loop_
 _symmetry_equiv_pos_site_id
 _symmetry_equiv_pos_as_xyz
  1  'x, y, z'
loop_
 _atom_site_type_symbol
 _atom_site_label
 _atom_site_symmetry_multiplicity
 _atom_site_fract_x
 _atom_site_fract_y
 _atom_site_fract_z
 _atom_site_occupancy
  Ba  Ba0  1  0.66666700  0.33333300  0.50000000  1
  Ba  Ba1  1  0.66666700  0.33333300  0.00000000  1
  Ti  Ti2  1  0.33333300  0.66666700  0.50000000  1
  Ti  Ti3  1  0.33333300  0.66666700  0.00000000  1
  Si  Si4  1  0.21784400  0.92911500  0.25000000  1
  Si  Si5  1  0.21784400  0.28872800  0.75000000  1
  Si  Si6  1  0.71127200  0.92911500  0.75000000  1
  Si  Si7  1  0.71127200  0.78215600  0.25000000  1
  Si  Si8  1  0.07088500  0.28872800  0.25000000  1
  Si  Si9  1  0.07088500  0.78215600  0.75000000  1
  O  O10  1  0.08823500  0.65844200  0.61308800  1
  O  O11  1  0.34155800  0.91176500  0.38691200  1
  O  O12  1  0.57020800  0.91176500  0.61308800  1
  O  O13  1  0.34155800  0.42979200  0.88691200  1
  O  O14  1  0.57020800  0.91176500  0.88691200  1
  O  O15  1  0.08823500  0.65844200  0.88691200  1
  O  O16  1  0.57020800  0.65844200  0.11308800  1
  O  O17  1  0.08823500  0.42979200  0.11308800  1
  O  O18  1  0.25443100  0.19278100  0.25000000  1
  O  O19  1  0.93835100  0.74556900  0.25000000  1
  O  O20  1  0.80721900  0.06164900  0.25000000  1
  O  O21  1  0.80721900  0.74556900  0.75000000  1
  O  O22  1  0.57020800  0.65844200  0.38691200  1
  O  O23  1  0.25443100  0.06164900  0.75000000  1
  O  O24  1  0.93835100  0.19278100  0.75000000  1
  O  O25  1  0.08823500  0.42979200  0.38691200  1
  O  O26  1  0.34155800  0.91176500  0.11308800  1
  O  O27  1  0.34155800  0.42979200  0.61308800  1
