# generated using pymatgen
data_Pr4MgRu
_symmetry_space_group_name_H-M   'P 1'
_cell_length_a   10.09098370
_cell_length_b   10.09098370
_cell_length_c   10.09098370
_cell_angle_alpha   60.00000000
_cell_angle_beta   60.00000000
_cell_angle_gamma   60.00000000
_symmetry_Int_Tables_number   1
_chemical_formula_structural   Pr4MgRu
_chemical_formula_sum   'Pr16 Mg4 Ru4'
_cell_volume   726.58347379
_cell_formula_units_Z   4
loop_
 _symmetry_equiv_pos_site_id
 _symmetry_equiv_pos_as_xyz
  1  'x, y, z'
loop_
 _atom_site_type_symbol
 _atom_site_label
 _atom_site_symmetry_multiplicity
 _atom_site_fract_x
 _atom_site_fract_y
 _atom_site_fract_z
 _atom_site_occupancy
  Pr  Pr0  1  0.06136200  0.43863800  0.43863800  1
  Pr  Pr1  1  0.18841100  0.81158900  0.18841100  1
  Pr  Pr2  1  0.65535700  0.65535700  0.65535700  1
  Pr  Pr3  1  0.43863800  0.43863800  0.06136200  1
  Pr  Pr4  1  0.06136200  0.43863800  0.06136200  1
  Pr  Pr5  1  0.43863800  0.06136200  0.06136200  1
  Pr  Pr6  1  0.06136200  0.06136200  0.43863800  1
  Pr  Pr7  1  0.65535700  0.65535700  0.03392800  1
  Pr  Pr8  1  0.65535700  0.03392800  0.65535700  1
  Pr  Pr9  1  0.18841100  0.81158900  0.81158900  1
  Pr  Pr10  1  0.43863800  0.06136200  0.43863800  1
  Pr  Pr11  1  0.18841100  0.18841100  0.81158900  1
  Pr  Pr12  1  0.03392800  0.65535700  0.65535700  1
  Pr  Pr13  1  0.81158900  0.81158900  0.18841100  1
  Pr  Pr14  1  0.81158900  0.18841100  0.18841100  1
  Pr  Pr15  1  0.81158900  0.18841100  0.81158900  1
  Mg  Mg16  1  0.42153800  0.42153800  0.42153800  1
  Mg  Mg17  1  0.42153800  0.73538700  0.42153800  1
  Mg  Mg18  1  0.73538700  0.42153800  0.42153800  1
  Mg  Mg19  1  0.42153800  0.42153800  0.73538700  1
  Ru  Ru20  1  0.86199100  0.86199100  0.86199100  1
  Ru  Ru21  1  0.41402700  0.86199100  0.86199100  1
  Ru  Ru22  1  0.86199100  0.41402700  0.86199100  1
  Ru  Ru23  1  0.86199100  0.86199100  0.41402700  1
