# generated using pymatgen
data_La(WO3)11
_symmetry_space_group_name_H-M   'P 1'
_cell_length_a   8.68541700
_cell_length_b   8.68910225
_cell_length_c   9.50860045
_cell_angle_alpha   90.00894389
_cell_angle_beta   100.48667247
_cell_angle_gamma   113.58887085
_symmetry_Int_Tables_number   1
_chemical_formula_structural   La(WO3)11
_chemical_formula_sum   'La1 W11 O33'
_cell_volume   644.52824236
_cell_formula_units_Z   1
loop_
 _symmetry_equiv_pos_site_id
 _symmetry_equiv_pos_as_xyz
  1  'x, y, z'
loop_
 _atom_site_type_symbol
 _atom_site_label
 _atom_site_symmetry_multiplicity
 _atom_site_fract_x
 _atom_site_fract_y
 _atom_site_fract_z
 _atom_site_occupancy
  La  La0  1  0.50000000  0.50000000  0.00000000  1
  W  W1  1  0.68480500  0.26907700  0.86027000  1
  W  W2  1  0.13223600  0.45704900  0.76692900  1
  W  W3  1  0.59635000  0.64186100  0.67625700  1
  W  W4  1  0.04861700  0.82120500  0.58828500  1
  W  W5  1  0.50000000  0.00000000  0.50000000  1
  W  W6  1  0.95138300  0.17879500  0.41171500  1
  W  W7  1  0.40365000  0.35813900  0.32374300  1
  W  W8  1  0.86776400  0.54295100  0.23307100  1
  W  W9  1  0.31519500  0.73092300  0.13973000  1
  W  W10  1  0.77735400  0.91537300  0.04888400  1
  W  W11  1  0.22264600  0.08462700  0.95111600  1
  O  O12  1  0.67721700  0.76550500  0.86730000  1
  O  O13  1  0.19061200  0.27907700  0.86731200  1
  O  O14  1  0.13601600  0.95400300  0.77317800  1
  O  O15  1  0.59142100  0.13649400  0.68222700  1
  O  O16  1  0.63244800  0.45563700  0.77890800  1
  O  O17  1  0.90938200  0.36303900  0.81736300  1
  O  O18  1  0.04502500  0.31869400  0.59126100  1
  O  O19  1  0.09061500  0.63654700  0.68155700  1
  O  O20  1  0.36804500  0.54389400  0.73414000  1
  O  O21  1  0.54561800  0.81786200  0.59086800  1
  O  O22  1  0.50000000  0.50000000  0.50000000  1
  O  O23  1  0.81862000  0.72761900  0.63565000  1
  O  O24  1  0.95497500  0.68130600  0.40873900  1
  O  O25  1  0.00000000  0.00000000  0.50000000  1
  O  O26  1  0.27327900  0.90948500  0.54538600  1
  O  O27  1  0.40857900  0.86350600  0.31777300  1
  O  O28  1  0.45438200  0.18213800  0.40913200  1
  O  O29  1  0.72672100  0.09051500  0.45461400  1
  O  O30  1  0.90938500  0.36345300  0.31844300  1
  O  O31  1  0.86398400  0.04599700  0.22682200  1
  O  O32  1  0.18138000  0.27238100  0.36435000  1
  O  O33  1  0.36755200  0.54436300  0.22109200  1
  O  O34  1  0.32278300  0.23449500  0.13270000  1
  O  O35  1  0.63195500  0.45610600  0.26586000  1
  O  O36  1  0.76553600  0.41155400  0.04404500  1
  O  O37  1  0.80938800  0.72092300  0.13268800  1
  O  O38  1  0.09061800  0.63696100  0.18263700  1
  O  O39  1  0.27268900  0.90915400  0.04549800  1
  O  O40  1  0.23446400  0.58844600  0.95595500  1
  O  O41  1  0.54455900  0.81045200  0.08894000  1
  O  O42  1  0.72731100  0.09084600  0.95450200  1
  O  O43  1  0.00000000  0.00000000  0.00000000  1
  O  O44  1  0.45544100  0.18954800  0.91106000  1
