# generated using pymatgen
data_GdSi
_symmetry_space_group_name_H-M   'P 1'
_cell_length_a   3.89651000
_cell_length_b   5.73066600
_cell_length_c   7.99082400
_cell_angle_alpha   90.00000000
_cell_angle_beta   90.00000000
_cell_angle_gamma   90.00000000
_symmetry_Int_Tables_number   1
_chemical_formula_structural   GdSi
_chemical_formula_sum   'Gd4 Si4'
_cell_volume   178.43188262
_cell_formula_units_Z   4
loop_
 _symmetry_equiv_pos_site_id
 _symmetry_equiv_pos_as_xyz
  1  'x, y, z'
loop_
 _atom_site_type_symbol
 _atom_site_label
 _atom_site_symmetry_multiplicity
 _atom_site_fract_x
 _atom_site_fract_y
 _atom_site_fract_z
 _atom_site_occupancy
  Gd  Gd0  1  0.25000000  0.11439200  0.68055400  1
  Gd  Gd1  1  0.75000000  0.61439200  0.81944600  1
  Gd  Gd2  1  0.75000000  0.88560800  0.31944600  1
  Gd  Gd3  1  0.25000000  0.38560800  0.18055400  1
  Si  Si4  1  0.25000000  0.62331900  0.53555100  1
  Si  Si5  1  0.25000000  0.87668100  0.03555100  1
  Si  Si6  1  0.75000000  0.37668100  0.46444900  1
  Si  Si7  1  0.75000000  0.12331900  0.96444900  1
