# generated using pymatgen
data_Hf(ClO4)4
_symmetry_space_group_name_H-M   'P 1'
_cell_length_a   7.67893645
_cell_length_b   7.67893645
_cell_length_c   13.35713459
_cell_angle_alpha   74.70514598
_cell_angle_beta   74.70514598
_cell_angle_gamma   63.47069058
_symmetry_Int_Tables_number   1
_chemical_formula_structural   Hf(ClO4)4
_chemical_formula_sum   'Hf2 Cl8 O32'
_cell_volume   669.93435469
_cell_formula_units_Z   2
loop_
 _symmetry_equiv_pos_site_id
 _symmetry_equiv_pos_as_xyz
  1  'x, y, z'
loop_
 _atom_site_type_symbol
 _atom_site_label
 _atom_site_symmetry_multiplicity
 _atom_site_fract_x
 _atom_site_fract_y
 _atom_site_fract_z
 _atom_site_occupancy
  Hf  Hf0  1  0.59628300  0.65250500  0.40490900  1
  Hf  Hf1  1  0.65250500  0.59628300  0.90490900  1
  Cl  Cl2  1  0.30093000  0.83146200  0.57279200  1
  Cl  Cl3  1  0.59004900  0.00274300  0.83649500  1
  Cl  Cl4  1  0.25760900  0.63013800  0.99960300  1
  Cl  Cl5  1  0.42224200  0.95351600  0.23576000  1
  Cl  Cl6  1  0.63013800  0.25760900  0.49960300  1
  Cl  Cl7  1  0.83146200  0.30093000  0.07279200  1
  Cl  Cl8  1  0.00274300  0.59004900  0.33649500  1
  Cl  Cl9  1  0.95351600  0.42224200  0.73576000  1
  O  O10  1  0.39664900  0.69186600  0.03198400  1
  O  O11  1  0.73596400  0.05476200  0.76136600  1
  O  O12  1  0.16390300  0.41953200  0.37145500  1
  O  O13  1  0.95791000  0.52394300  0.81981200  1
  O  O14  1  0.68138200  0.85414200  0.92929400  1
  O  O15  1  0.73915900  0.28934500  0.98660800  1
  O  O16  1  0.52566300  0.99164700  0.13339600  1
  O  O17  1  0.45370400  0.73525900  0.26506900  1
  O  O18  1  0.55364300  0.38976400  0.39879500  1
  O  O19  1  0.03496800  0.17319700  0.06301100  1
  O  O20  1  0.28934500  0.73915900  0.48660800  1
  O  O21  1  0.27356000  0.71841500  0.67367200  1
  O  O22  1  0.08285900  0.79639200  0.97612200  1
  O  O23  1  0.69186600  0.39664900  0.53198400  1
  O  O24  1  0.53272100  0.86969800  0.79432800  1
  O  O25  1  0.47436300  0.22541300  0.57610100  1
  O  O26  1  0.85414200  0.68138200  0.42929400  1
  O  O27  1  0.07857900  0.21816100  0.75286500  1
  O  O28  1  0.80454800  0.51681200  0.03846300  1
  O  O29  1  0.41953200  0.16390300  0.87145500  1
  O  O30  1  0.38976400  0.55364300  0.89879500  1
  O  O31  1  0.79639200  0.08285900  0.47612200  1
  O  O32  1  0.73525900  0.45370400  0.76506900  1
  O  O33  1  0.99164700  0.52566300  0.63339600  1
  O  O34  1  0.17319700  0.03496800  0.56301100  1
  O  O35  1  0.22541300  0.47436300  0.07610100  1
  O  O36  1  0.71841500  0.27356000  0.17367200  1
  O  O37  1  0.52394300  0.95791000  0.31981200  1
  O  O38  1  0.51681200  0.80454800  0.53846300  1
  O  O39  1  0.21816100  0.07857900  0.25286500  1
  O  O40  1  0.05476200  0.73596400  0.26136600  1
  O  O41  1  0.86969800  0.53272100  0.29432800  1
