# generated using pymatgen
data_KNd3Te8
_symmetry_space_group_name_H-M   'P 1'
_cell_length_a   12.95475600
_cell_length_b   9.04141800
_cell_length_c   14.49900303
_cell_angle_alpha   80.03602955
_cell_angle_beta   90.00000000
_cell_angle_gamma   90.00000000
_symmetry_Int_Tables_number   1
_chemical_formula_structural   KNd3Te8
_chemical_formula_sum   'K4 Nd12 Te32'
_cell_volume   1672.64374635
_cell_formula_units_Z   4
loop_
 _symmetry_equiv_pos_site_id
 _symmetry_equiv_pos_as_xyz
  1  'x, y, z'
loop_
 _atom_site_type_symbol
 _atom_site_label
 _atom_site_symmetry_multiplicity
 _atom_site_fract_x
 _atom_site_fract_y
 _atom_site_fract_z
 _atom_site_occupancy
  K  K0  1  0.58724000  0.75183100  0.53487600  1
  K  K1  1  0.41276000  0.24816900  0.46512400  1
  K  K2  1  0.08724000  0.74816900  0.46512400  1
  K  K3  1  0.91276000  0.25183100  0.53487600  1
  Nd  Nd4  1  0.58357900  0.41031300  0.85372900  1
  Nd  Nd5  1  0.75051700  0.08217700  0.15202600  1
  Nd  Nd6  1  0.25051700  0.41782300  0.84797400  1
  Nd  Nd7  1  0.91642100  0.91031300  0.85372900  1
  Nd  Nd8  1  0.91440000  0.42646500  0.85175300  1
  Nd  Nd9  1  0.24948300  0.91782300  0.84797400  1
  Nd  Nd10  1  0.08560000  0.57353500  0.14824700  1
  Nd  Nd11  1  0.41642100  0.58968700  0.14627100  1
  Nd  Nd12  1  0.08357900  0.08968700  0.14627100  1
  Nd  Nd13  1  0.58560000  0.92646500  0.85175300  1
  Nd  Nd14  1  0.74948300  0.58217700  0.15202600  1
  Nd  Nd15  1  0.41440000  0.07353500  0.14824700  1
  Te  Te16  1  0.09559400  0.28147800  0.32333100  1
  Te  Te17  1  0.08518300  0.64651800  0.91649600  1
  Te  Te18  1  0.42037300  0.65195700  0.91402600  1
  Te  Te19  1  0.07962700  0.15195700  0.91402600  1
  Te  Te20  1  0.24521000  0.85090900  0.07966100  1
  Te  Te21  1  0.90440600  0.71852200  0.67666900  1
  Te  Te22  1  0.25479000  0.35090900  0.07966100  1
  Te  Te23  1  0.75125800  0.96972000  0.67810500  1
  Te  Te24  1  0.57962700  0.34804300  0.08597400  1
  Te  Te25  1  0.23030400  0.21824400  0.66788700  1
  Te  Te26  1  0.41481700  0.14651800  0.91649600  1
  Te  Te27  1  0.41917200  0.47702500  0.67360700  1
  Te  Te28  1  0.08082800  0.97702500  0.67360700  1
  Te  Te29  1  0.26969600  0.71824400  0.66788700  1
  Te  Te30  1  0.74874200  0.46972000  0.67810500  1
  Te  Te31  1  0.07986800  0.45500100  0.67411300  1
  Te  Te32  1  0.76969600  0.78175600  0.33211300  1
  Te  Te33  1  0.25125800  0.53028000  0.32189500  1
  Te  Te34  1  0.59559400  0.21852200  0.67666900  1
  Te  Te35  1  0.92013200  0.54499900  0.32588700  1
  Te  Te36  1  0.74521000  0.64909100  0.92033900  1
  Te  Te37  1  0.58082800  0.52297500  0.32639300  1
  Te  Te38  1  0.73030400  0.28175600  0.33211300  1
  Te  Te39  1  0.58518300  0.85348200  0.08350400  1
  Te  Te40  1  0.24874200  0.03028000  0.32189500  1
  Te  Te41  1  0.57986800  0.04499900  0.32588700  1
  Te  Te42  1  0.75479000  0.14909100  0.92033900  1
  Te  Te43  1  0.91917200  0.02297500  0.32639300  1
  Te  Te44  1  0.42013200  0.95500100  0.67411300  1
  Te  Te45  1  0.40440600  0.78147800  0.32333100  1
  Te  Te46  1  0.92037300  0.84804300  0.08597400  1
  Te  Te47  1  0.91481700  0.35348200  0.08350400  1
