# generated using pymatgen
data_Li5H9Pt2
_symmetry_space_group_name_H-M   'P 1'
_cell_length_a   7.27885332
_cell_length_b   7.27885332
_cell_length_c   7.27885332
_cell_angle_alpha   109.98942455
_cell_angle_beta   109.98942455
_cell_angle_gamma   108.43971100
_symmetry_Int_Tables_number   1
_chemical_formula_structural   Li5H9Pt2
_chemical_formula_sum   'Li10 H18 Pt4'
_cell_volume   296.79847079
_cell_formula_units_Z   2
loop_
 _symmetry_equiv_pos_site_id
 _symmetry_equiv_pos_as_xyz
  1  'x, y, z'
loop_
 _atom_site_type_symbol
 _atom_site_label
 _atom_site_symmetry_multiplicity
 _atom_site_fract_x
 _atom_site_fract_y
 _atom_site_fract_z
 _atom_site_occupancy
  Li  Li0  1  0.69162500  0.19162500  0.20057800  1
  Li  Li1  1  0.99104700  0.49104700  0.79942200  1
  Li  Li2  1  0.19162500  0.99104700  0.50000000  1
  Li  Li3  1  0.49104700  0.69162500  0.50000000  1
  Li  Li4  1  0.30837500  0.80837500  0.79942200  1
  Li  Li5  1  0.00895300  0.50895300  0.20057800  1
  Li  Li6  1  0.80837500  0.00895300  0.50000000  1
  Li  Li7  1  0.50895300  0.30837500  0.50000000  1
  Li  Li8  1  0.50000000  0.50000000  0.00000000  1
  Li  Li9  1  0.00000000  0.00000000  0.00000000  1
  H  H10  1  0.43913800  0.13743600  0.84677700  1
  H  H11  1  0.29065800  0.59236100  0.15322300  1
  H  H12  1  0.93913800  0.09236100  0.30170200  1
  H  H13  1  0.79065800  0.63743600  0.69829800  1
  H  H14  1  0.59236100  0.43913800  0.30170200  1
  H  H15  1  0.13743600  0.29065800  0.69829800  1
  H  H16  1  0.63743600  0.93913800  0.84677700  1
  H  H17  1  0.09236100  0.79065800  0.15322300  1
  H  H18  1  0.56086200  0.86256400  0.15322300  1
  H  H19  1  0.70934200  0.40763900  0.84677700  1
  H  H20  1  0.06086200  0.90763900  0.69829800  1
  H  H21  1  0.20934200  0.36256400  0.30170200  1
  H  H22  1  0.40763900  0.56086200  0.69829800  1
  H  H23  1  0.86256400  0.70934200  0.30170200  1
  H  H24  1  0.36256400  0.06086200  0.15322300  1
  H  H25  1  0.90763900  0.20934200  0.84677700  1
  H  H26  1  0.50000000  0.00000000  0.50000000  1
  H  H27  1  0.00000000  0.50000000  0.50000000  1
  Pt  Pt28  1  0.65742900  0.15742900  0.81485900  1
  Pt  Pt29  1  0.34257100  0.84257100  0.18514100  1
  Pt  Pt30  1  0.15742900  0.34257100  0.50000000  1
  Pt  Pt31  1  0.84257100  0.65742900  0.50000000  1
