# generated using pymatgen
data_La4B14O27
_symmetry_space_group_name_H-M   'P 1'
_cell_length_a   6.51472217
_cell_length_b   6.51472217
_cell_length_c   25.61675891
_cell_angle_alpha   81.10980254
_cell_angle_beta   81.10980254
_cell_angle_gamma   59.66904594
_symmetry_Int_Tables_number   1
_chemical_formula_structural   La4B14O27
_chemical_formula_sum   'La8 B28 O54'
_cell_volume   923.38955019
_cell_formula_units_Z   2
loop_
 _symmetry_equiv_pos_site_id
 _symmetry_equiv_pos_as_xyz
  1  'x, y, z'
loop_
 _atom_site_type_symbol
 _atom_site_label
 _atom_site_symmetry_multiplicity
 _atom_site_fract_x
 _atom_site_fract_y
 _atom_site_fract_z
 _atom_site_occupancy
  La  La0  1  0.85015300  0.34725300  0.05560700  1
  La  La1  1  0.08585600  0.25560300  0.31544700  1
  La  La2  1  0.34725300  0.85015300  0.55560700  1
  La  La3  1  0.91414400  0.74439700  0.68455300  1
  La  La4  1  0.25560300  0.08585600  0.81544700  1
  La  La5  1  0.14984700  0.65274700  0.94439300  1
  La  La6  1  0.74439700  0.91414400  0.18455300  1
  La  La7  1  0.65274700  0.14984700  0.44439300  1
  B  B8  1  0.17558500  0.64329400  0.79452300  1
  B  B9  1  0.36605000  0.84496100  0.05476900  1
  B  B10  1  0.97357400  0.68959000  0.54633500  1
  B  B11  1  0.83346100  0.96819300  0.85042400  1
  B  B12  1  0.63395000  0.15503900  0.94523100  1
  B  B13  1  0.45169900  0.79129800  0.42154200  1
  B  B14  1  0.64329400  0.17558500  0.29452300  1
  B  B15  1  0.20539300  0.35761800  0.17550900  1
  B  B16  1  0.31041000  0.02642600  0.95366500  1
  B  B17  1  0.40564700  0.60364500  0.31293200  1
  B  B18  1  0.82441500  0.35670600  0.20547700  1
  B  B19  1  0.59435300  0.39635500  0.68706800  1
  B  B20  1  0.03180700  0.16653900  0.64957600  1
  B  B21  1  0.02642600  0.31041000  0.45366500  1
  B  B22  1  0.60364500  0.40564700  0.81293200  1
  B  B23  1  0.16653900  0.03180700  0.14957600  1
  B  B24  1  0.35761800  0.20539300  0.67550900  1
  B  B25  1  0.35670600  0.82441500  0.70547700  1
  B  B26  1  0.84496100  0.36605000  0.55476900  1
  B  B27  1  0.54830100  0.20870200  0.57845800  1
  B  B28  1  0.20870200  0.54830100  0.07845800  1
  B  B29  1  0.39635500  0.59435300  0.18706800  1
  B  B30  1  0.68959000  0.97357400  0.04633500  1
  B  B31  1  0.15503900  0.63395000  0.44523100  1
  B  B32  1  0.79460700  0.64238200  0.82449100  1
  B  B33  1  0.79129800  0.45169900  0.92154200  1
  B  B34  1  0.96819300  0.83346100  0.35042400  1
  B  B35  1  0.64238200  0.79460700  0.32449100  1
  O  O36  1  0.60302100  0.39920200  0.92616800  1
  O  O37  1  0.38005000  0.39977200  0.69123000  1
  O  O38  1  0.51380400  0.10134900  0.62755900  1
  O  O39  1  0.79841500  0.20158500  0.25000000  1
  O  O40  1  0.02011500  0.20627300  0.59162100  1
  O  O41  1  0.19149900  0.39022300  0.45110600  1
  O  O42  1  0.81134300  0.19451400  0.82135700  1
  O  O43  1  0.42863600  0.99910300  0.71698400  1
  O  O44  1  0.60545600  0.59033000  0.19319700  1
  O  O45  1  0.79372700  0.97988500  0.90837900  1
  O  O46  1  0.89865100  0.48619600  0.87244100  1
  O  O47  1  0.39454400  0.40967000  0.80680300  1
  O  O48  1  0.03265000  0.73318500  0.59029600  1
  O  O49  1  0.39920200  0.60302100  0.42616800  1
  O  O50  1  0.20627300  0.02011500  0.09162100  1
  O  O51  1  0.20158500  0.79841500  0.75000000  1
  O  O52  1  0.80850100  0.60977700  0.54889400  1
  O  O53  1  0.39977200  0.38005000  0.19123000  1
  O  O54  1  0.92389400  0.25794800  0.50256000  1
  O  O55  1  0.10113200  0.31701600  0.66972400  1
  O  O56  1  0.21675500  0.90866700  0.65820200  1
  O  O57  1  0.57136400  0.00089700  0.28301600  1
  O  O58  1  0.96735000  0.26681500  0.40970400  1
  O  O59  1  0.19451400  0.81134300  0.32135700  1
  O  O60  1  0.68298400  0.89886800  0.83027600  1
  O  O61  1  0.10134900  0.51380400  0.12755900  1
  O  O62  1  0.61995000  0.60022800  0.30877000  1
  O  O63  1  0.60079800  0.39697900  0.57383200  1
  O  O64  1  0.97988500  0.79372700  0.40837900  1
  O  O65  1  0.39697900  0.60079800  0.07383200  1
  O  O66  1  0.74205200  0.07610600  0.99744000  1
  O  O67  1  0.07610600  0.74205200  0.49744000  1
  O  O68  1  0.25794800  0.92389400  0.00256000  1
  O  O69  1  0.31701600  0.10113200  0.16972400  1
  O  O70  1  0.99910300  0.42863600  0.21698400  1
  O  O71  1  0.18865700  0.80548600  0.17864300  1
  O  O72  1  0.39022300  0.19149900  0.95110600  1
  O  O73  1  0.40967000  0.39454400  0.30680300  1
  O  O74  1  0.80548600  0.18865700  0.67864300  1
  O  O75  1  0.73318500  0.03265000  0.09029600  1
  O  O76  1  0.60977700  0.80850100  0.04889400  1
  O  O77  1  0.78324500  0.09133300  0.34179800  1
  O  O78  1  0.48619600  0.89865100  0.37244100  1
  O  O79  1  0.00089700  0.57136400  0.78301600  1
  O  O80  1  0.12242700  0.53328000  0.03538000  1
  O  O81  1  0.53328000  0.12242700  0.53538000  1
  O  O82  1  0.26681500  0.96735000  0.90970400  1
  O  O83  1  0.59033000  0.60545600  0.69319700  1
  O  O84  1  0.46672000  0.87757300  0.46462000  1
  O  O85  1  0.89886800  0.68298400  0.33027600  1
  O  O86  1  0.90866700  0.21675500  0.15820200  1
  O  O87  1  0.09133300  0.78324500  0.84179800  1
  O  O88  1  0.60022800  0.61995000  0.80877000  1
  O  O89  1  0.87757300  0.46672000  0.96462000  1
