# generated using pymatgen
data_K3As7
_symmetry_space_group_name_H-M   'P 1'
_cell_length_a   13.11793300
_cell_length_b   15.65126400
_cell_length_c   25.90901100
_cell_angle_alpha   90.00000000
_cell_angle_beta   90.00000000
_cell_angle_gamma   90.00000000
_symmetry_Int_Tables_number   1
_chemical_formula_structural   K3As7
_chemical_formula_sum   'K48 As112'
_cell_volume   5319.43689073
_cell_formula_units_Z   16
loop_
 _symmetry_equiv_pos_site_id
 _symmetry_equiv_pos_as_xyz
  1  'x, y, z'
loop_
 _atom_site_type_symbol
 _atom_site_label
 _atom_site_symmetry_multiplicity
 _atom_site_fract_x
 _atom_site_fract_y
 _atom_site_fract_z
 _atom_site_occupancy
  K  K0  1  0.54241900  0.53950000  0.82069300  1
  K  K1  1  0.95432100  0.64275400  0.55945700  1
  K  K2  1  0.38436000  0.91391700  0.92300100  1
  K  K3  1  0.13015800  0.39486400  0.87080100  1
  K  K4  1  0.88436000  0.58608300  0.92300100  1
  K  K5  1  0.13015800  0.89486400  0.62919900  1
  K  K6  1  0.61564000  0.58608300  0.42300100  1
  K  K7  1  0.27920100  0.66597000  0.72041300  1
  K  K8  1  0.95758100  0.03950000  0.17930700  1
  K  K9  1  0.13271500  0.75399300  0.91963500  1
  K  K10  1  0.04567900  0.85724600  0.05945700  1
  K  K11  1  0.13271500  0.25399300  0.58036500  1
  K  K12  1  0.86728500  0.24600700  0.08036500  1
  K  K13  1  0.61564000  0.08608300  0.07699900  1
  K  K14  1  0.95758100  0.53950000  0.32069300  1
  K  K15  1  0.45432100  0.85724600  0.55945700  1
  K  K16  1  0.36728500  0.75399300  0.41963500  1
  K  K17  1  0.86728500  0.74600700  0.41963500  1
  K  K18  1  0.36984200  0.39486400  0.37080100  1
  K  K19  1  0.36984200  0.89486400  0.12919900  1
  K  K20  1  0.45758100  0.46050000  0.17930700  1
  K  K21  1  0.77920100  0.83403000  0.72041300  1
  K  K22  1  0.04241900  0.46050000  0.67930700  1
  K  K23  1  0.88436000  0.08608300  0.57699900  1
  K  K24  1  0.72079900  0.83403000  0.22041300  1
  K  K25  1  0.04241900  0.96050000  0.82069300  1
  K  K26  1  0.54567900  0.64275400  0.05945700  1
  K  K27  1  0.22079900  0.66597000  0.22041300  1
  K  K28  1  0.86984200  0.60513600  0.12919900  1
  K  K29  1  0.95432100  0.14275400  0.94054300  1
  K  K30  1  0.63015800  0.10513600  0.87080100  1
  K  K31  1  0.45758100  0.96050000  0.32069300  1
  K  K32  1  0.36728500  0.25399300  0.08036500  1
  K  K33  1  0.54241900  0.03950000  0.67930700  1
  K  K34  1  0.04567900  0.35724600  0.44054300  1
  K  K35  1  0.63271500  0.74600700  0.91963500  1
  K  K36  1  0.11564000  0.91391700  0.42300100  1
  K  K37  1  0.45432100  0.35724600  0.94054300  1
  K  K38  1  0.63015800  0.60513600  0.62919900  1
  K  K39  1  0.86984200  0.10513600  0.37080100  1
  K  K40  1  0.11564000  0.41391700  0.07699900  1
  K  K41  1  0.38436000  0.41391700  0.57699900  1
  K  K42  1  0.27920100  0.16597000  0.77958700  1
  K  K43  1  0.72079900  0.33403000  0.27958700  1
  K  K44  1  0.54567900  0.14275400  0.44054300  1
  K  K45  1  0.77920100  0.33403000  0.77958700  1
  K  K46  1  0.22079900  0.16597000  0.27958700  1
  K  K47  1  0.63271500  0.24600700  0.58036500  1
  As  As48  1  0.62210100  0.86044500  0.04783200  1
  As  As49  1  0.12417300  0.86823000  0.18476300  1
  As  As50  1  0.87582700  0.63177000  0.68476300  1
  As  As51  1  0.20165900  0.93495600  0.26091000  1
  As  As52  1  0.21414700  0.23156700  0.95542600  1
  As  As53  1  0.12210100  0.13955500  0.45216800  1
  As  As54  1  0.06367300  0.61554500  0.80155800  1
  As  As55  1  0.79834100  0.06504400  0.73909000  1
  As  As56  1  0.31618200  0.54512100  0.96007600  1
  As  As57  1  0.94660300  0.24521200  0.68497900  1
  As  As58  1  0.36917400  0.69475700  0.96612400  1
  As  As59  1  0.62210100  0.36044500  0.45216800  1
  As  As60  1  0.56367300  0.38445500  0.69844200  1
  As  As61  1  0.20165900  0.43495600  0.23909000  1
  As  As62  1  0.72175100  0.18963300  0.18344400  1
  As  As63  1  0.55061400  0.99820100  0.19986500  1
  As  As64  1  0.81618200  0.45487900  0.53992400  1
  As  As65  1  0.21414700  0.73156700  0.54457400  1
  As  As66  1  0.43632700  0.61554500  0.30155800  1
  As  As67  1  0.28585300  0.73156700  0.04457400  1
  As  As68  1  0.01133900  0.70946000  0.72402700  1
  As  As69  1  0.77824900  0.18963300  0.68344300  1
  As  As70  1  0.71936000  0.40536300  0.90150400  1
  As  As71  1  0.13744500  0.99004400  0.95312800  1
  As  As72  1  0.05339700  0.25478800  0.18497900  1
  As  As73  1  0.27824900  0.31036700  0.68344300  1
  As  As74  1  0.86917400  0.80524300  0.96612400  1
  As  As75  1  0.05339700  0.75478800  0.31502100  1
  As  As76  1  0.13082600  0.69475700  0.46612400  1
  As  As77  1  0.68381800  0.45487900  0.03992400  1
  As  As78  1  0.70165900  0.06504400  0.23909000  1
  As  As79  1  0.87789900  0.86044500  0.54783200  1
  As  As80  1  0.71936000  0.90536300  0.59849600  1
  As  As81  1  0.48866100  0.70946000  0.22402700  1
  As  As82  1  0.21936000  0.09463700  0.90150400  1
  As  As83  1  0.36839800  0.55425200  0.47187100  1
  As  As84  1  0.13160200  0.05425200  0.52812900  1
  As  As85  1  0.98866100  0.29054000  0.27597300  1
  As  As86  1  0.28064000  0.09463700  0.40150400  1
  As  As87  1  0.63744500  0.50995600  0.95312800  1
  As  As88  1  0.44938600  0.50179900  0.69986500  1
  As  As89  1  0.06367300  0.11554500  0.69844200  1
  As  As90  1  0.44660300  0.75478800  0.81502100  1
  As  As91  1  0.48866100  0.20946000  0.27597300  1
  As  As92  1  0.79834100  0.56504400  0.76091000  1
  As  As93  1  0.43632700  0.11554500  0.19844200  1
  As  As94  1  0.37582700  0.36823000  0.81523700  1
  As  As95  1  0.36255500  0.99004400  0.45312800  1
  As  As96  1  0.29834100  0.43495600  0.73909000  1
  As  As97  1  0.13160200  0.55425200  0.97187100  1
  As  As98  1  0.28064000  0.59463700  0.09849600  1
  As  As99  1  0.55339700  0.24521200  0.18497900  1
  As  As100  1  0.44660300  0.25478800  0.68497900  1
  As  As101  1  0.51133900  0.29054000  0.77597300  1
  As  As102  1  0.37789900  0.13955500  0.95216800  1
  As  As103  1  0.87789900  0.36044500  0.95216800  1
  As  As104  1  0.22175100  0.81036700  0.31655700  1
  As  As105  1  0.51133900  0.79054000  0.72402700  1
  As  As106  1  0.63744500  0.00995600  0.54687200  1
  As  As107  1  0.37582700  0.86823000  0.68476300  1
  As  As108  1  0.63082600  0.80524300  0.46612400  1
  As  As109  1  0.87582700  0.13177000  0.81523700  1
  As  As110  1  0.63160200  0.94574800  0.97187100  1
  As  As111  1  0.05061400  0.00179900  0.30013500  1
  As  As112  1  0.36917400  0.19475700  0.53387600  1
  As  As113  1  0.28585300  0.23156700  0.45542600  1
  As  As114  1  0.27824900  0.81036700  0.81655700  1
  As  As115  1  0.13082600  0.19475700  0.03387600  1
  As  As116  1  0.86839800  0.94574800  0.47187100  1
  As  As117  1  0.86839800  0.44574800  0.02812900  1
  As  As118  1  0.18381800  0.04512100  0.03992400  1
  As  As119  1  0.70165900  0.56504400  0.26091000  1
  As  As120  1  0.94660300  0.74521200  0.81502100  1
  As  As121  1  0.55339700  0.74521200  0.31502100  1
  As  As122  1  0.78064000  0.40536300  0.40150400  1
  As  As123  1  0.71414700  0.76843300  0.54457400  1
  As  As124  1  0.12417300  0.36823000  0.31523700  1
  As  As125  1  0.31618200  0.04512100  0.53992400  1
  As  As126  1  0.78585300  0.26843300  0.45542600  1
  As  As127  1  0.12210100  0.63955500  0.04783200  1
  As  As128  1  0.13744500  0.49004400  0.54687200  1
  As  As129  1  0.93632700  0.38445500  0.19844200  1
  As  As130  1  0.62417300  0.63177000  0.18476300  1
  As  As131  1  0.21936000  0.59463700  0.59849600  1
  As  As132  1  0.81618200  0.95487900  0.96007600  1
  As  As133  1  0.01133900  0.20946000  0.77597300  1
  As  As134  1  0.86917400  0.30524300  0.53387600  1
  As  As135  1  0.94938600  0.99820100  0.69986500  1
  As  As136  1  0.93632700  0.88445500  0.30155800  1
  As  As137  1  0.22175100  0.31036700  0.18344400  1
  As  As138  1  0.62417300  0.13177000  0.31523700  1
  As  As139  1  0.86255500  0.50995600  0.45312800  1
  As  As140  1  0.71414700  0.26843300  0.95542600  1
  As  As141  1  0.68381800  0.95487900  0.46007600  1
  As  As142  1  0.29834100  0.93495600  0.76091000  1
  As  As143  1  0.36255500  0.49004400  0.04687200  1
  As  As144  1  0.98866100  0.79054000  0.22402700  1
  As  As145  1  0.18381800  0.54512100  0.46007600  1
  As  As146  1  0.63082600  0.30524300  0.03387600  1
  As  As147  1  0.56367300  0.88445500  0.80155800  1
  As  As148  1  0.05061400  0.50179900  0.19986500  1
  As  As149  1  0.78064000  0.90536300  0.09849600  1
  As  As150  1  0.63160200  0.44574800  0.52812900  1
  As  As151  1  0.55061400  0.49820100  0.30013500  1
  As  As152  1  0.86255500  0.00995600  0.04687200  1
  As  As153  1  0.94938600  0.49820100  0.80013500  1
  As  As154  1  0.37789900  0.63955500  0.54783200  1
  As  As155  1  0.72175100  0.68963300  0.31655700  1
  As  As156  1  0.78585300  0.76843300  0.04457400  1
  As  As157  1  0.77824900  0.68963300  0.81655700  1
  As  As158  1  0.44938600  0.00179900  0.80013500  1
  As  As159  1  0.36839800  0.05425200  0.02812900  1
