# generated using pymatgen
data_K23Na8(CdIn4)12
_symmetry_space_group_name_H-M   'P 1'
_cell_length_a   17.58381570
_cell_length_b   17.58381570
_cell_length_c   10.69192500
_cell_angle_alpha   90.00000000
_cell_angle_beta   90.00000000
_cell_angle_gamma   119.99999885
_symmetry_Int_Tables_number   1
_chemical_formula_structural   K23Na8(CdIn4)12
_chemical_formula_sum   'K23 Na8 Cd12 In48'
_cell_volume   2862.94356039
_cell_formula_units_Z   1
loop_
 _symmetry_equiv_pos_site_id
 _symmetry_equiv_pos_as_xyz
  1  'x, y, z'
loop_
 _atom_site_type_symbol
 _atom_site_label
 _atom_site_symmetry_multiplicity
 _atom_site_fract_x
 _atom_site_fract_y
 _atom_site_fract_z
 _atom_site_occupancy
  K  K0  1  0.79135000  0.20865000  0.69561200  1
  K  K1  1  0.00000000  0.36962800  0.50000000  1
  K  K2  1  0.58269900  0.79135000  0.69561200  1
  K  K3  1  0.79135000  0.58269900  0.69561200  1
  K  K4  1  0.63037200  0.00000000  0.50000000  1
  K  K5  1  0.66666700  0.33333300  0.19887200  1
  K  K6  1  0.20865000  0.79135000  0.30438800  1
  K  K7  1  0.63037200  0.63037200  0.50000000  1
  K  K8  1  0.33333300  0.66666700  0.80112800  1
  K  K9  1  0.20865000  0.41730100  0.69561200  1
  K  K10  1  0.79135000  0.58269900  0.30438800  1
  K  K11  1  0.20865000  0.79135000  0.69561200  1
  K  K12  1  0.36962800  0.36962800  0.50000000  1
  K  K13  1  0.66666700  0.33333300  0.80112800  1
  K  K14  1  0.41730100  0.20865000  0.69561200  1
  K  K15  1  0.33333300  0.66666700  0.19887200  1
  K  K16  1  0.58269900  0.79135000  0.30438800  1
  K  K17  1  0.79135000  0.20865000  0.30438800  1
  K  K18  1  0.36962800  0.00000000  0.50000000  1
  K  K19  1  0.00000000  0.63037200  0.50000000  1
  K  K20  1  0.20865000  0.41730100  0.30438800  1
  K  K21  1  0.00000000  0.00000000  0.00000000  1
  K  K22  1  0.41730100  0.20865000  0.30438800  1
  Na  Na23  1  0.86142600  0.72285300  0.00000000  1
  Na  Na24  1  0.00000000  0.00000000  0.65362100  1
  Na  Na25  1  0.13857400  0.27714700  0.00000000  1
  Na  Na26  1  0.86142600  0.13857400  0.00000000  1
  Na  Na27  1  0.72285300  0.86142600  0.00000000  1
  Na  Na28  1  0.00000000  0.00000000  0.34637900  1
  Na  Na29  1  0.13857400  0.86142600  0.00000000  1
  Na  Na30  1  0.27714700  0.13857400  0.00000000  1
  Cd  Cd31  1  0.81279700  0.00000000  0.25401400  1
  Cd  Cd32  1  0.18720300  0.00000000  0.74598600  1
  Cd  Cd33  1  0.81279700  0.00000000  0.74598600  1
  Cd  Cd34  1  0.81279700  0.81279700  0.25401400  1
  Cd  Cd35  1  0.18720300  0.00000000  0.25401400  1
  Cd  Cd36  1  0.00000000  0.18720300  0.25401400  1
  Cd  Cd37  1  0.18720300  0.18720300  0.25401400  1
  Cd  Cd38  1  0.00000000  0.81279700  0.74598600  1
  Cd  Cd39  1  0.00000000  0.18720300  0.74598600  1
  Cd  Cd40  1  0.18720300  0.18720300  0.74598600  1
  Cd  Cd41  1  0.81279700  0.81279700  0.74598600  1
  Cd  Cd42  1  0.00000000  0.81279700  0.25401400  1
  In  In43  1  0.00000000  0.35208300  0.85192700  1
  In  In44  1  0.33318800  0.49332100  0.00000000  1
  In  In45  1  0.64791700  0.00000000  0.85192700  1
  In  In46  1  0.44955600  0.55044400  0.25053800  1
  In  In47  1  0.83986700  0.33318800  0.00000000  1
  In  In48  1  0.10088700  0.55044400  0.25053800  1
  In  In49  1  0.55044400  0.10088700  0.25053800  1
  In  In50  1  0.89911300  0.44955600  0.25053800  1
  In  In51  1  0.89911300  0.44955600  0.74946200  1
  In  In52  1  0.35208300  0.00000000  0.14807300  1
  In  In53  1  0.49332100  0.33318800  0.00000000  1
  In  In54  1  0.00000000  0.64791700  0.14807300  1
  In  In55  1  0.66681200  0.16013300  0.00000000  1
  In  In56  1  0.49332100  0.16013300  0.00000000  1
  In  In57  1  0.44955600  0.89911300  0.74946200  1
  In  In58  1  0.21236600  0.60618300  0.50000000  1
  In  In59  1  0.89348300  0.78696500  0.50000000  1
  In  In60  1  0.44955600  0.55044400  0.74946200  1
  In  In61  1  0.64791700  0.64791700  0.85192700  1
  In  In62  1  0.00000000  0.35208300  0.14807300  1
  In  In63  1  0.35208300  0.35208300  0.85192700  1
  In  In64  1  0.64791700  0.00000000  0.14807300  1
  In  In65  1  0.33318800  0.83986700  0.00000000  1
  In  In66  1  0.78696500  0.89348300  0.50000000  1
  In  In67  1  0.64791700  0.64791700  0.14807300  1
  In  In68  1  0.10651700  0.21303500  0.50000000  1
  In  In69  1  0.60618300  0.39381700  0.50000000  1
  In  In70  1  0.00000000  0.64791700  0.85192700  1
  In  In71  1  0.21303500  0.10651700  0.50000000  1
  In  In72  1  0.50667900  0.66681200  0.00000000  1
  In  In73  1  0.55044400  0.44955600  0.25053800  1
  In  In74  1  0.16013300  0.66681200  0.00000000  1
  In  In75  1  0.35208300  0.00000000  0.85192700  1
  In  In76  1  0.44955600  0.89911300  0.25053800  1
  In  In77  1  0.89348300  0.10651700  0.50000000  1
  In  In78  1  0.50667900  0.83986700  0.00000000  1
  In  In79  1  0.83986700  0.50667900  0.00000000  1
  In  In80  1  0.55044400  0.10088700  0.74946200  1
  In  In81  1  0.39381700  0.60618300  0.50000000  1
  In  In82  1  0.66681200  0.50667900  0.00000000  1
  In  In83  1  0.10088700  0.55044400  0.74946200  1
  In  In84  1  0.16013300  0.49332100  0.00000000  1
  In  In85  1  0.60618300  0.21236600  0.50000000  1
  In  In86  1  0.35208300  0.35208300  0.14807300  1
  In  In87  1  0.10651700  0.89348300  0.50000000  1
  In  In88  1  0.55044400  0.44955600  0.74946200  1
  In  In89  1  0.78763400  0.39381700  0.50000000  1
  In  In90  1  0.39381700  0.78763400  0.50000000  1
