# generated using pymatgen
data_Rb2LiSn4
_symmetry_space_group_name_H-M   'P 1'
_cell_length_a   9.83237000
_cell_length_b   14.99100833
_cell_length_c   15.11135612
_cell_angle_alpha   97.39653321
_cell_angle_beta   103.56043515
_cell_angle_gamma   102.52266359
_symmetry_Int_Tables_number   1
_chemical_formula_structural   Rb2LiSn4
_chemical_formula_sum   'Rb16 Li8 Sn32'
_cell_volume   2075.57901706
_cell_formula_units_Z   8
loop_
 _symmetry_equiv_pos_site_id
 _symmetry_equiv_pos_as_xyz
  1  'x, y, z'
loop_
 _atom_site_type_symbol
 _atom_site_label
 _atom_site_symmetry_multiplicity
 _atom_site_fract_x
 _atom_site_fract_y
 _atom_site_fract_z
 _atom_site_occupancy
  Rb  Rb0  1  0.65834800  0.46304700  0.93621200  1
  Rb  Rb1  1  0.84148100  0.04246800  0.06565600  1
  Rb  Rb2  1  0.03072400  0.64890900  0.88355400  1
  Rb  Rb3  1  0.39262100  0.08981900  0.56586500  1
  Rb  Rb4  1  0.98904000  0.88403600  0.61466800  1
  Rb  Rb5  1  0.15851900  0.95753200  0.93434400  1
  Rb  Rb6  1  0.50700300  0.13335400  0.87173100  1
  Rb  Rb7  1  0.49299700  0.86664600  0.12826900  1
  Rb  Rb8  1  0.89495700  0.59240600  0.56370600  1
  Rb  Rb9  1  0.53675500  0.39721000  0.62763600  1
  Rb  Rb10  1  0.60737900  0.91018100  0.43413500  1
  Rb  Rb11  1  0.10504300  0.40759400  0.43629400  1
  Rb  Rb12  1  0.46324500  0.60279000  0.37236400  1
  Rb  Rb13  1  0.34165200  0.53695300  0.06378800  1
  Rb  Rb14  1  0.96927600  0.35109100  0.11644600  1
  Rb  Rb15  1  0.01096000  0.11596400  0.38533200  1
  Li  Li16  1  0.70751600  0.24618500  0.45515300  1
  Li  Li17  1  0.20224500  0.95315400  0.25103800  1
  Li  Li18  1  0.71169500  0.75304100  0.95264100  1
  Li  Li19  1  0.29248400  0.75381500  0.54484700  1
  Li  Li20  1  0.28830500  0.24695900  0.04735900  1
  Li  Li21  1  0.20988500  0.46041700  0.75277100  1
  Li  Li22  1  0.79011500  0.53958300  0.24722900  1
  Li  Li23  1  0.79775500  0.04684600  0.74896200  1
  Sn  Sn24  1  0.07996600  0.64833200  0.36069700  1
  Sn  Sn25  1  0.86877200  0.13875200  0.59914000  1
  Sn  Sn26  1  0.49465200  0.90274200  0.69331400  1
  Sn  Sn27  1  0.13122800  0.86124800  0.40086000  1
  Sn  Sn28  1  0.23938600  0.14802700  0.19614100  1
  Sn  Sn29  1  0.25908100  0.76646800  0.26053700  1
  Sn  Sn30  1  0.49340600  0.13246500  0.11314100  1
  Sn  Sn31  1  0.74912300  0.68746800  0.13879800  1
  Sn  Sn32  1  0.88827600  0.88536800  0.24170900  1
  Sn  Sn33  1  0.34874700  0.60179600  0.64367800  1
  Sn  Sn34  1  0.74091900  0.23353200  0.73946300  1
  Sn  Sn35  1  0.75417800  0.23854600  0.26913800  1
  Sn  Sn36  1  0.02442400  0.80001300  0.10118100  1
  Sn  Sn37  1  0.50659400  0.86753500  0.88685900  1
  Sn  Sn38  1  0.34448200  0.36180600  0.23206500  1
  Sn  Sn39  1  0.60301600  0.74179900  0.61052200  1
  Sn  Sn40  1  0.98736200  0.39289700  0.85383800  1
  Sn  Sn41  1  0.50534800  0.09725800  0.30668600  1
  Sn  Sn42  1  0.39698400  0.25820100  0.38947800  1
  Sn  Sn43  1  0.97557600  0.19998700  0.89881900  1
  Sn  Sn44  1  0.82479500  0.73566700  0.35257800  1
  Sn  Sn45  1  0.17520500  0.26433300  0.64742200  1
  Sn  Sn46  1  0.65551800  0.63819400  0.76793500  1
  Sn  Sn47  1  0.92003400  0.35166800  0.63930300  1
  Sn  Sn48  1  0.25087700  0.31253200  0.86120200  1
  Sn  Sn49  1  0.65125300  0.39820400  0.35632200  1
  Sn  Sn50  1  0.01263800  0.60710300  0.14616200  1
  Sn  Sn51  1  0.24582200  0.76145400  0.73086200  1
  Sn  Sn52  1  0.11172400  0.11463200  0.75829100  1
  Sn  Sn53  1  0.76061400  0.85197300  0.80385900  1
  Sn  Sn54  1  0.59034000  0.34689500  0.14458800  1
  Sn  Sn55  1  0.40966000  0.65310500  0.85541200  1
