# generated using pymatgen
data_ZnH3CNO3
_symmetry_space_group_name_H-M   'P 1'
_cell_length_a   5.58559200
_cell_length_b   7.72784700
_cell_length_c   9.29066400
_cell_angle_alpha   90.00000000
_cell_angle_beta   90.00000000
_cell_angle_gamma   90.00000000
_symmetry_Int_Tables_number   1
_chemical_formula_structural   ZnH3CNO3
_chemical_formula_sum   'Zn4 H12 C4 N4 O12'
_cell_volume   401.02779883
_cell_formula_units_Z   4
loop_
 _symmetry_equiv_pos_site_id
 _symmetry_equiv_pos_as_xyz
  1  'x, y, z'
loop_
 _atom_site_type_symbol
 _atom_site_label
 _atom_site_symmetry_multiplicity
 _atom_site_fract_x
 _atom_site_fract_y
 _atom_site_fract_z
 _atom_site_occupancy
  Zn  Zn0  1  0.70880200  0.66560100  0.35525800  1
  Zn  Zn1  1  0.70880200  0.83439900  0.85525800  1
  Zn  Zn2  1  0.20880200  0.33439900  0.64474200  1
  Zn  Zn3  1  0.20880200  0.16560100  0.14474200  1
  H  H4  1  0.78618400  0.22646200  0.57943300  1
  H  H5  1  0.44998900  0.55580600  0.87849900  1
  H  H6  1  0.44998900  0.94419400  0.37849900  1
  H  H7  1  0.48410400  0.85247300  0.53771500  1
  H  H8  1  0.98410400  0.35247300  0.96228500  1
  H  H9  1  0.78618400  0.27353800  0.07943300  1
  H  H10  1  0.94998900  0.05580600  0.62150100  1
  H  H11  1  0.28618400  0.72646200  0.92056700  1
  H  H12  1  0.28618400  0.77353800  0.42056700  1
  H  H13  1  0.94998900  0.44419400  0.12150100  1
  H  H14  1  0.98410400  0.14752700  0.46228500  1
  H  H15  1  0.48410400  0.64752700  0.03771500  1
  C  C16  1  0.44353300  0.14176400  0.87645700  1
  C  C17  1  0.44353300  0.35823600  0.37645700  1
  C  C18  1  0.94353300  0.85823600  0.12354300  1
  C  C19  1  0.94353300  0.64176400  0.62354300  1
  N  N20  1  0.95320600  0.32772900  0.06914600  1
  N  N21  1  0.45320600  0.82772900  0.43085400  1
  N  N22  1  0.45320600  0.67227100  0.93085400  1
  N  N23  1  0.95320600  0.17227100  0.56914600  1
  O  O24  1  0.46918500  0.10114500  0.01202000  1
  O  O25  1  0.96918500  0.60114500  0.48798000  1
  O  O26  1  0.82262100  0.77871000  0.65822500  1
  O  O27  1  0.32262100  0.22129000  0.34177500  1
  O  O28  1  0.54246600  0.45297300  0.27888300  1
  O  O29  1  0.04246600  0.54702700  0.72111700  1
  O  O30  1  0.32262100  0.27871000  0.84177500  1
  O  O31  1  0.46918500  0.39885500  0.51202000  1
  O  O32  1  0.82262100  0.72129000  0.15822500  1
  O  O33  1  0.54246600  0.04702700  0.77888300  1
  O  O34  1  0.96918500  0.89885500  0.98798000  1
  O  O35  1  0.04246600  0.95297300  0.22111700  1
