# generated using pymatgen
data_Ce(NiAs)2
_symmetry_space_group_name_H-M   'P 1'
_cell_length_a   4.14306700
_cell_length_b   4.14306700
_cell_length_c   9.12948800
_cell_angle_alpha   90.00000000
_cell_angle_beta   90.00000000
_cell_angle_gamma   90.00000000
_symmetry_Int_Tables_number   1
_chemical_formula_structural   Ce(NiAs)2
_chemical_formula_sum   'Ce2 Ni4 As4'
_cell_volume   156.70769956
_cell_formula_units_Z   2
loop_
 _symmetry_equiv_pos_site_id
 _symmetry_equiv_pos_as_xyz
  1  'x, y, z'
loop_
 _atom_site_type_symbol
 _atom_site_label
 _atom_site_symmetry_multiplicity
 _atom_site_fract_x
 _atom_site_fract_y
 _atom_site_fract_z
 _atom_site_occupancy
  Ce  Ce0  1  0.50000000  0.00000000  0.25257100  1
  Ce  Ce1  1  0.00000000  0.50000000  0.74742900  1
  Ni  Ni2  1  0.50000000  0.00000000  0.88280900  1
  Ni  Ni3  1  0.50000000  0.50000000  0.50000000  1
  Ni  Ni4  1  0.00000000  0.50000000  0.11719100  1
  Ni  Ni5  1  0.00000000  0.00000000  0.50000000  1
  As  As6  1  0.00000000  0.50000000  0.37029800  1
  As  As7  1  0.50000000  0.50000000  0.00000000  1
  As  As8  1  0.00000000  0.00000000  0.00000000  1
  As  As9  1  0.50000000  0.00000000  0.62970200  1
