# generated using pymatgen
data_GdFe5P3
_symmetry_space_group_name_H-M   'P 1'
_cell_length_a   3.66122800
_cell_length_b   10.29045500
_cell_length_c   11.81397400
_cell_angle_alpha   90.00000000
_cell_angle_beta   90.00000000
_cell_angle_gamma   90.00000000
_symmetry_Int_Tables_number   1
_chemical_formula_structural   GdFe5P3
_chemical_formula_sum   'Gd4 Fe20 P12'
_cell_volume   445.09976361
_cell_formula_units_Z   4
loop_
 _symmetry_equiv_pos_site_id
 _symmetry_equiv_pos_as_xyz
  1  'x, y, z'
loop_
 _atom_site_type_symbol
 _atom_site_label
 _atom_site_symmetry_multiplicity
 _atom_site_fract_x
 _atom_site_fract_y
 _atom_site_fract_z
 _atom_site_occupancy
  Gd  Gd0  1  0.25000000  0.91832800  0.20394800  1
  Gd  Gd1  1  0.75000000  0.41832800  0.29605200  1
  Gd  Gd2  1  0.25000000  0.58167200  0.70394800  1
  Gd  Gd3  1  0.75000000  0.08167200  0.79605200  1
  Fe  Fe4  1  0.25000000  0.87684700  0.69966500  1
  Fe  Fe5  1  0.25000000  0.09532400  0.99054200  1
  Fe  Fe6  1  0.75000000  0.78134000  0.82428600  1
  Fe  Fe7  1  0.75000000  0.90467600  0.00945800  1
  Fe  Fe8  1  0.75000000  0.59532400  0.50945800  1
  Fe  Fe9  1  0.75000000  0.29444500  0.01256600  1
  Fe  Fe10  1  0.75000000  0.53562100  0.06630600  1
  Fe  Fe11  1  0.75000000  0.71866000  0.32428600  1
  Fe  Fe12  1  0.25000000  0.28134000  0.67571400  1
  Fe  Fe13  1  0.25000000  0.62315300  0.19966500  1
  Fe  Fe14  1  0.25000000  0.40467600  0.49054200  1
  Fe  Fe15  1  0.25000000  0.70555500  0.98743400  1
  Fe  Fe16  1  0.75000000  0.20555500  0.51256600  1
  Fe  Fe17  1  0.25000000  0.21866000  0.17571400  1
  Fe  Fe18  1  0.25000000  0.79444500  0.48743400  1
  Fe  Fe19  1  0.25000000  0.03562100  0.43369400  1
  Fe  Fe20  1  0.75000000  0.96437900  0.56630600  1
  Fe  Fe21  1  0.75000000  0.12315300  0.30033500  1
  Fe  Fe22  1  0.75000000  0.37684700  0.80033500  1
  Fe  Fe23  1  0.25000000  0.46437900  0.93369400  1
  P  P24  1  0.25000000  0.23233700  0.37149300  1
  P  P25  1  0.75000000  0.57946300  0.88787300  1
  P  P26  1  0.75000000  0.73233700  0.12850700  1
  P  P27  1  0.75000000  0.10319600  0.10417800  1
  P  P28  1  0.25000000  0.42053700  0.11212700  1
  P  P29  1  0.25000000  0.60319600  0.39582200  1
  P  P30  1  0.75000000  0.76766300  0.62850700  1
  P  P31  1  0.25000000  0.89680400  0.89582200  1
  P  P32  1  0.75000000  0.92053700  0.38787300  1
  P  P33  1  0.25000000  0.26766300  0.87149300  1
  P  P34  1  0.75000000  0.39680400  0.60417800  1
  P  P35  1  0.25000000  0.07946300  0.61212700  1
