# generated using pymatgen
data_CsAs2Se3
_symmetry_space_group_name_H-M   'P 1'
_cell_length_a   7.65859400
_cell_length_b   13.67846800
_cell_length_c   15.07723800
_cell_angle_alpha   90.00000000
_cell_angle_beta   90.00000000
_cell_angle_gamma   90.00000000
_symmetry_Int_Tables_number   1
_chemical_formula_structural   CsAs2Se3
_chemical_formula_sum   'Cs8 As16 Se24'
_cell_volume   1579.45877981
_cell_formula_units_Z   8
loop_
 _symmetry_equiv_pos_site_id
 _symmetry_equiv_pos_as_xyz
  1  'x, y, z'
loop_
 _atom_site_type_symbol
 _atom_site_label
 _atom_site_symmetry_multiplicity
 _atom_site_fract_x
 _atom_site_fract_y
 _atom_site_fract_z
 _atom_site_occupancy
  Cs  Cs0  1  0.25000000  0.91575100  0.09405300  1
  Cs  Cs1  1  0.25000000  0.58424900  0.59405300  1
  Cs  Cs2  1  0.75000000  0.08424900  0.90594700  1
  Cs  Cs3  1  0.25000000  0.59531900  0.92197600  1
  Cs  Cs4  1  0.25000000  0.90468100  0.42197600  1
  Cs  Cs5  1  0.75000000  0.09531900  0.57802400  1
  Cs  Cs6  1  0.75000000  0.40468100  0.07802400  1
  Cs  Cs7  1  0.75000000  0.41575100  0.40594700  1
  As  As8  1  0.41662300  0.22884800  0.74308500  1
  As  As9  1  0.75000000  0.72338900  0.48517000  1
  As  As10  1  0.25000000  0.56560100  0.21167000  1
  As  As11  1  0.75000000  0.77661100  0.98517000  1
  As  As12  1  0.91662300  0.72884800  0.75691500  1
  As  As13  1  0.58337700  0.77115200  0.25691500  1
  As  As14  1  0.41662300  0.27115200  0.24308500  1
  As  As15  1  0.25000000  0.27661100  0.51483000  1
  As  As16  1  0.58337700  0.72884800  0.75691500  1
  As  As17  1  0.08337700  0.27115200  0.24308500  1
  As  As18  1  0.25000000  0.93439900  0.71167000  1
  As  As19  1  0.25000000  0.22338900  0.01483000  1
  As  As20  1  0.75000000  0.43439900  0.78833000  1
  As  As21  1  0.91662300  0.77115200  0.25691500  1
  As  As22  1  0.75000000  0.06560100  0.28833000  1
  As  As23  1  0.08337700  0.22884800  0.74308500  1
  Se  Se24  1  0.25000000  0.42991100  0.11207300  1
  Se  Se25  1  0.99206600  0.64410000  0.14343300  1
  Se  Se26  1  0.01367000  0.16587900  0.11371300  1
  Se  Se27  1  0.48633000  0.33412100  0.61371300  1
  Se  Se28  1  0.51367000  0.83412100  0.88628700  1
  Se  Se29  1  0.49206600  0.35590000  0.85656700  1
  Se  Se30  1  0.51367000  0.66587900  0.38628700  1
  Se  Se31  1  0.50793400  0.85590000  0.64343300  1
  Se  Se32  1  0.25000000  0.09894000  0.90451500  1
  Se  Se33  1  0.00793400  0.14410000  0.35656700  1
  Se  Se34  1  0.75000000  0.92991100  0.38792700  1
  Se  Se35  1  0.01367000  0.33412100  0.61371300  1
  Se  Se36  1  0.25000000  0.07008900  0.61207300  1
  Se  Se37  1  0.00793400  0.35590000  0.85656700  1
  Se  Se38  1  0.99206600  0.85590000  0.64343300  1
  Se  Se39  1  0.75000000  0.59894000  0.59548500  1
  Se  Se40  1  0.25000000  0.40106000  0.40451500  1
  Se  Se41  1  0.75000000  0.90106000  0.09548500  1
  Se  Se42  1  0.48633000  0.16587900  0.11371300  1
  Se  Se43  1  0.98633000  0.66587900  0.38628700  1
  Se  Se44  1  0.50793400  0.64410000  0.14343300  1
  Se  Se45  1  0.75000000  0.57008900  0.88792700  1
  Se  Se46  1  0.49206600  0.14410000  0.35656700  1
  Se  Se47  1  0.98633000  0.83412100  0.88628700  1
