# generated using pymatgen
data_Li4H6Ru
_symmetry_space_group_name_H-M   'P 1'
_cell_length_a   5.75328423
_cell_length_b   5.75328423
_cell_length_c   5.75328402
_cell_angle_alpha   90.07170535
_cell_angle_beta   90.07170535
_cell_angle_gamma   90.07170095
_symmetry_Int_Tables_number   1
_chemical_formula_structural   Li4H6Ru
_chemical_formula_sum   'Li8 H12 Ru2'
_cell_volume   190.43486133
_cell_formula_units_Z   2
loop_
 _symmetry_equiv_pos_site_id
 _symmetry_equiv_pos_as_xyz
  1  'x, y, z'
loop_
 _atom_site_type_symbol
 _atom_site_label
 _atom_site_symmetry_multiplicity
 _atom_site_fract_x
 _atom_site_fract_y
 _atom_site_fract_z
 _atom_site_occupancy
  Li  Li0  1  0.25000000  0.25000000  0.25000000  1
  Li  Li1  1  0.75000000  0.75000000  0.75000000  1
  Li  Li2  1  0.86484800  0.63515200  0.25000000  1
  Li  Li3  1  0.25000000  0.86484800  0.63515200  1
  Li  Li4  1  0.63515200  0.25000000  0.86484800  1
  Li  Li5  1  0.75000000  0.13515200  0.36484800  1
  Li  Li6  1  0.36484800  0.75000000  0.13515200  1
  Li  Li7  1  0.13515200  0.36484800  0.75000000  1
  H  H8  1  0.21134900  0.54760100  0.44014500  1
  H  H9  1  0.44014500  0.21134900  0.54760100  1
  H  H10  1  0.54760100  0.44014500  0.21134900  1
  H  H11  1  0.94014500  0.04760100  0.71134900  1
  H  H12  1  0.71134900  0.94014500  0.04760100  1
  H  H13  1  0.04760100  0.71134900  0.94014500  1
  H  H14  1  0.78865100  0.45239900  0.55985500  1
  H  H15  1  0.55985500  0.78865100  0.45239900  1
  H  H16  1  0.45239900  0.55985500  0.78865100  1
  H  H17  1  0.05985500  0.95239900  0.28865100  1
  H  H18  1  0.28865100  0.05985500  0.95239900  1
  H  H19  1  0.95239900  0.28865100  0.05985500  1
  Ru  Ru20  1  0.50000000  0.50000000  0.50000000  1
  Ru  Ru21  1  0.00000000  0.00000000  0.00000000  1
