# generated using pymatgen
data_ClF3
_symmetry_space_group_name_H-M   'P 1'
_cell_length_a   4.46776000
_cell_length_b   8.15960000
_cell_length_c   14.84646227
_cell_angle_alpha   83.79068857
_cell_angle_beta   90.00000000
_cell_angle_gamma   90.00000000
_symmetry_Int_Tables_number   1
_chemical_formula_structural   ClF3
_chemical_formula_sum   'Cl8 F24'
_cell_volume   538.05459970
_cell_formula_units_Z   8
loop_
 _symmetry_equiv_pos_site_id
 _symmetry_equiv_pos_as_xyz
  1  'x, y, z'
loop_
 _atom_site_type_symbol
 _atom_site_label
 _atom_site_symmetry_multiplicity
 _atom_site_fract_x
 _atom_site_fract_y
 _atom_site_fract_z
 _atom_site_occupancy
  Cl  Cl0  1  0.95936500  0.20598800  0.58988600  1
  Cl  Cl1  1  0.00536200  0.60855400  0.13340800  1
  Cl  Cl2  1  0.49463800  0.60855400  0.63340800  1
  Cl  Cl3  1  0.50536200  0.39144600  0.36659200  1
  Cl  Cl4  1  0.04063500  0.79401200  0.41011400  1
  Cl  Cl5  1  0.45936500  0.79401200  0.91011400  1
  Cl  Cl6  1  0.99463800  0.39144600  0.86659200  1
  Cl  Cl7  1  0.54063500  0.20598800  0.08988600  1
  F  F8  1  0.71167200  0.43097200  0.94704500  1
  F  F9  1  0.25819500  0.33919300  0.78927400  1
  F  F10  1  0.73975900  0.88334600  0.96977800  1
  F  F11  1  0.24180500  0.33919300  0.28927400  1
  F  F12  1  0.37111300  0.79765900  0.62589500  1
  F  F13  1  0.99855900  0.94192800  0.32772400  1
  F  F14  1  0.00144100  0.05807200  0.67227600  1
  F  F15  1  0.23975900  0.11665400  0.53022200  1
  F  F16  1  0.78832800  0.43097200  0.44704500  1
  F  F17  1  0.26024100  0.11665400  0.03022200  1
  F  F18  1  0.62888700  0.20234100  0.37410500  1
  F  F19  1  0.67934900  0.29005000  0.65714900  1
  F  F20  1  0.12888700  0.79765900  0.12589500  1
  F  F21  1  0.74180500  0.66080700  0.21072600  1
  F  F22  1  0.17934900  0.70995000  0.84285100  1
  F  F23  1  0.50144100  0.94192800  0.82772400  1
  F  F24  1  0.32065100  0.70995000  0.34285100  1
  F  F25  1  0.76024100  0.88334600  0.46977800  1
  F  F26  1  0.82065100  0.29005000  0.15714900  1
  F  F27  1  0.21167200  0.56902800  0.55295500  1
  F  F28  1  0.28832800  0.56902800  0.05295500  1
  F  F29  1  0.49855900  0.05807200  0.17227600  1
  F  F30  1  0.75819500  0.66080700  0.71072600  1
  F  F31  1  0.87111300  0.20234100  0.87410500  1
