# generated using pymatgen
data_Ca4GdB3O10
_symmetry_space_group_name_H-M   'P 1'
_cell_length_a   9.05739407
_cell_length_b   9.05739407
_cell_length_c   3.58311286
_cell_angle_alpha   84.95874547
_cell_angle_beta   84.95874547
_cell_angle_gamma   126.51919614
_symmetry_Int_Tables_number   1
_chemical_formula_structural   Ca4GdB3O10
_chemical_formula_sum   'Ca4 Gd1 B3 O10'
_cell_volume   231.68284913
_cell_formula_units_Z   1
loop_
 _symmetry_equiv_pos_site_id
 _symmetry_equiv_pos_as_xyz
  1  'x, y, z'
loop_
 _atom_site_type_symbol
 _atom_site_label
 _atom_site_symmetry_multiplicity
 _atom_site_fract_x
 _atom_site_fract_y
 _atom_site_fract_z
 _atom_site_occupancy
  Ca  Ca0  1  0.44550000  0.08175700  0.34248900  1
  Ca  Ca1  1  0.08175700  0.44550000  0.34248900  1
  Ca  Ca2  1  0.52871300  0.75441200  0.67259700  1
  Ca  Ca3  1  0.75441200  0.52871300  0.67259700  1
  Gd  Gd4  1  0.00112900  0.00112900  0.99789700  1
  B  B5  1  0.14388400  0.75406600  0.91966900  1
  B  B6  1  0.75406600  0.14388400  0.91966900  1
  B  B7  1  0.37527900  0.37527900  0.29881000  1
  O  O8  1  0.20108100  0.20108100  0.39301600  1
  O  O9  1  0.23688300  0.69751400  0.72841400  1
  O  O10  1  0.82813000  0.82813000  0.57823700  1
  O  O11  1  0.53543000  0.38650000  0.25201000  1
  O  O12  1  0.38650000  0.53543000  0.25201000  1
  O  O13  1  0.61942500  0.96424600  0.11690900  1
  O  O14  1  0.96424600  0.61942500  0.11690900  1
  O  O15  1  0.94336300  0.22958600  0.91833200  1
  O  O16  1  0.22958600  0.94336300  0.91833200  1
  O  O17  1  0.69751400  0.23688300  0.72841400  1
