# generated using pymatgen
data_Eu5Si(Cl3O2)2
_symmetry_space_group_name_H-M   'P 1'
_cell_length_a   8.34917235
_cell_length_b   8.34917235
_cell_length_c   11.11300829
_cell_angle_alpha   82.98687481
_cell_angle_beta   82.98687481
_cell_angle_gamma   114.29307084
_symmetry_Int_Tables_number   1
_chemical_formula_structural   Eu5Si(Cl3O2)2
_chemical_formula_sum   'Eu10 Si2 Cl12 O8'
_cell_volume   687.96265429
_cell_formula_units_Z   2
loop_
 _symmetry_equiv_pos_site_id
 _symmetry_equiv_pos_as_xyz
  1  'x, y, z'
loop_
 _atom_site_type_symbol
 _atom_site_label
 _atom_site_symmetry_multiplicity
 _atom_site_fract_x
 _atom_site_fract_y
 _atom_site_fract_z
 _atom_site_occupancy
  Eu  Eu0  1  0.26489600  0.42516900  0.63246600  1
  Eu  Eu1  1  0.73510400  0.57483100  0.36753400  1
  Eu  Eu2  1  0.57483100  0.73510400  0.86753400  1
  Eu  Eu3  1  0.42516900  0.26489600  0.13246600  1
  Eu  Eu4  1  0.69990700  0.30009300  0.75000000  1
  Eu  Eu5  1  0.81268100  0.07124100  0.48091200  1
  Eu  Eu6  1  0.92875900  0.18731900  0.01908800  1
  Eu  Eu7  1  0.07124100  0.81268100  0.98091200  1
  Eu  Eu8  1  0.18731900  0.92875900  0.51908800  1
  Eu  Eu9  1  0.30009300  0.69990700  0.25000000  1
  Si  Si10  1  0.92201600  0.07798400  0.75000000  1
  Si  Si11  1  0.07798400  0.92201600  0.25000000  1
  Cl  Cl12  1  0.51983000  0.22183000  0.54649000  1
  Cl  Cl13  1  0.48017000  0.77817000  0.45351000  1
  Cl  Cl14  1  0.74612400  0.25387600  0.25000000  1
  Cl  Cl15  1  0.70357200  0.64211400  0.64113100  1
  Cl  Cl16  1  0.25387600  0.74612400  0.75000000  1
  Cl  Cl17  1  0.64211400  0.70357200  0.14113100  1
  Cl  Cl18  1  0.77817000  0.48017000  0.95351000  1
  Cl  Cl19  1  0.22183000  0.51983000  0.04649000  1
  Cl  Cl20  1  0.50000000  0.00000000  0.00000000  1
  Cl  Cl21  1  0.35788600  0.29642800  0.85886900  1
  Cl  Cl22  1  0.29642800  0.35788600  0.35886900  1
  Cl  Cl23  1  0.00000000  0.50000000  0.50000000  1
  O  O24  1  0.06255700  0.10036900  0.62489400  1
  O  O25  1  0.10036900  0.06255700  0.12489400  1
  O  O26  1  0.97962700  0.27715200  0.78849100  1
  O  O27  1  0.89963100  0.93744300  0.87510600  1
  O  O28  1  0.02037300  0.72284800  0.21150900  1
  O  O29  1  0.72284800  0.02037300  0.71150900  1
  O  O30  1  0.27715200  0.97962700  0.28849100  1
  O  O31  1  0.93744300  0.89963100  0.37510600  1
