# generated using pymatgen
data_In2(PSe3)3
_symmetry_space_group_name_H-M   'P 1'
_cell_length_a   8.16913800
_cell_length_b   11.29002060
_cell_length_c   17.98692990
_cell_angle_alpha   96.06928143
_cell_angle_beta   88.60270482
_cell_angle_gamma   103.38733047
_symmetry_Int_Tables_number   1
_chemical_formula_structural   In2(PSe3)3
_chemical_formula_sum   'In8 P12 Se36'
_cell_volume   1604.80585532
_cell_formula_units_Z   4
loop_
 _symmetry_equiv_pos_site_id
 _symmetry_equiv_pos_as_xyz
  1  'x, y, z'
loop_
 _atom_site_type_symbol
 _atom_site_label
 _atom_site_symmetry_multiplicity
 _atom_site_fract_x
 _atom_site_fract_y
 _atom_site_fract_z
 _atom_site_occupancy
  In  In0  1  0.17722500  0.65492400  0.82409500  1
  In  In1  1  0.32804800  0.15620500  0.67695400  1
  In  In2  1  0.49677800  0.67960900  0.50949700  1
  In  In3  1  0.50322200  0.32039100  0.49050300  1
  In  In4  1  0.01650400  0.17999500  0.99324600  1
  In  In5  1  0.82277500  0.34507600  0.17590500  1
  In  In6  1  0.98349600  0.82000500  0.00675400  1
  In  In7  1  0.67195200  0.84379500  0.32304600  1
  P  P8  1  0.87213700  0.47769000  0.97111800  1
  P  P9  1  0.46900200  0.52335400  0.69164000  1
  P  P10  1  0.20539800  0.46566800  0.64153200  1
  P  P11  1  0.79460200  0.53433200  0.35846800  1
  P  P12  1  0.37229700  0.96792700  0.47112300  1
  P  P13  1  0.53099800  0.47664600  0.30836000  1
  P  P14  1  0.96376300  0.02727400  0.18973600  1
  P  P15  1  0.12786300  0.52231000  0.02888200  1
  P  P16  1  0.70051900  0.98053500  0.13962500  1
  P  P17  1  0.29948100  0.01946500  0.86037500  1
  P  P18  1  0.03623700  0.97272600  0.81026400  1
  P  P19  1  0.62770300  0.03207300  0.52887700  1
  Se  Se20  1  0.25447500  0.70009500  0.98553600  1
  Se  Se21  1  0.91147400  0.45580200  0.85007100  1
  Se  Se22  1  0.58697000  0.36750000  0.64976200  1
  Se  Se23  1  0.73518300  0.61468600  0.01881300  1
  Se  Se24  1  0.59556400  0.70169900  0.65525100  1
  Se  Se25  1  0.43903400  0.53387900  0.81323000  1
  Se  Se26  1  0.24827100  0.45904600  0.51705100  1
  Se  Se27  1  0.08022500  0.28754200  0.67761700  1
  Se  Se28  1  0.92394100  0.38777700  0.32420500  1
  Se  Se29  1  0.07605900  0.61222300  0.67579500  1
  Se  Se30  1  0.75880200  0.20017800  0.48150500  1
  Se  Se31  1  0.91977500  0.71245800  0.32238300  1
  Se  Se32  1  0.75172900  0.54095400  0.48294900  1
  Se  Se33  1  0.41097800  0.96466000  0.34988000  1
  Se  Se34  1  0.56096600  0.46612100  0.18677000  1
  Se  Se35  1  0.40443600  0.29830100  0.34474900  1
  Se  Se36  1  0.09127500  0.88062100  0.15153600  1
  Se  Se37  1  0.26481700  0.38531400  0.98118700  1
  Se  Se38  1  0.24116700  0.11549300  0.51452000  1
  Se  Se39  1  0.41303000  0.63250000  0.35023800  1
  Se  Se40  1  0.08437900  0.21123800  0.15151400  1
  Se  Se41  1  0.93437800  0.04783800  0.31133300  1
  Se  Se42  1  0.08852600  0.54419800  0.14992900  1
  Se  Se43  1  0.74547800  0.96540600  0.01538500  1
  Se  Se44  1  0.57341800  0.80149300  0.17395100  1
  Se  Se45  1  0.74552500  0.29990500  0.01446400  1
  Se  Se46  1  0.42312300  0.87106900  0.82202900  1
  Se  Se47  1  0.57687700  0.12893100  0.17797100  1
  Se  Se48  1  0.42658200  0.19850700  0.82604900  1
  Se  Se49  1  0.25452200  0.03459400  0.98461500  1
  Se  Se50  1  0.06562200  0.95216200  0.68866700  1
  Se  Se51  1  0.91562100  0.78876200  0.84848600  1
  Se  Se52  1  0.75883300  0.88450700  0.48548000  1
  Se  Se53  1  0.90872500  0.11937900  0.84846400  1
  Se  Se54  1  0.58902200  0.03534000  0.65012000  1
  Se  Se55  1  0.24119800  0.79982200  0.51849500  1
