# generated using pymatgen
data_Ho5NiSb2
_symmetry_space_group_name_H-M   'P 1'
_cell_length_a   7.88184100
_cell_length_b   8.81454300
_cell_length_c   12.02321000
_cell_angle_alpha   90.00000000
_cell_angle_beta   90.00000000
_cell_angle_gamma   90.00000000
_symmetry_Int_Tables_number   1
_chemical_formula_structural   Ho5NiSb2
_chemical_formula_sum   'Ho20 Ni4 Sb8'
_cell_volume   835.31042769
_cell_formula_units_Z   4
loop_
 _symmetry_equiv_pos_site_id
 _symmetry_equiv_pos_as_xyz
  1  'x, y, z'
loop_
 _atom_site_type_symbol
 _atom_site_label
 _atom_site_symmetry_multiplicity
 _atom_site_fract_x
 _atom_site_fract_y
 _atom_site_fract_z
 _atom_site_occupancy
  Ho  Ho0  1  0.32024700  0.54330400  0.43493000  1
  Ho  Ho1  1  0.87290300  0.25000000  0.80112600  1
  Ho  Ho2  1  0.17975300  0.54330400  0.93493000  1
  Ho  Ho3  1  0.32024700  0.95669600  0.43493000  1
  Ho  Ho4  1  0.12709700  0.75000000  0.19887400  1
  Ho  Ho5  1  0.84065500  0.75000000  0.79276900  1
  Ho  Ho6  1  0.37290300  0.75000000  0.69887400  1
  Ho  Ho7  1  0.95523600  0.75000000  0.50065500  1
  Ho  Ho8  1  0.45523600  0.25000000  0.99934500  1
  Ho  Ho9  1  0.67975300  0.45669600  0.56507000  1
  Ho  Ho10  1  0.82024700  0.04330400  0.06507000  1
  Ho  Ho11  1  0.65934500  0.75000000  0.29276900  1
  Ho  Ho12  1  0.54476400  0.75000000  0.00065500  1
  Ho  Ho13  1  0.04476400  0.25000000  0.49934500  1
  Ho  Ho14  1  0.67975300  0.04330400  0.56507000  1
  Ho  Ho15  1  0.17975300  0.95669600  0.93493000  1
  Ho  Ho16  1  0.62709700  0.25000000  0.30112600  1
  Ho  Ho17  1  0.34065500  0.25000000  0.70723100  1
  Ho  Ho18  1  0.82024700  0.45669600  0.06507000  1
  Ho  Ho19  1  0.15934500  0.25000000  0.20723100  1
  Ni  Ni20  1  0.91717700  0.75000000  0.01635500  1
  Ni  Ni21  1  0.58282300  0.75000000  0.51635500  1
  Ni  Ni22  1  0.08282300  0.25000000  0.98364500  1
  Ni  Ni23  1  0.41717700  0.25000000  0.48364500  1
  Sb  Sb24  1  0.92929200  0.49054200  0.32690300  1
  Sb  Sb25  1  0.42929200  0.50945800  0.17309700  1
  Sb  Sb26  1  0.42929200  0.99054200  0.17309700  1
  Sb  Sb27  1  0.57070800  0.49054200  0.82690300  1
  Sb  Sb28  1  0.07070800  0.50945800  0.67309700  1
  Sb  Sb29  1  0.57070800  0.00945800  0.82690300  1
  Sb  Sb30  1  0.92929200  0.00945800  0.32690300  1
  Sb  Sb31  1  0.07070800  0.99054200  0.67309700  1
