# generated using pymatgen
data_CaGa
_symmetry_space_group_name_H-M   'P 1'
_cell_length_a   6.13523343
_cell_length_b   6.13523343
_cell_length_c   4.43053200
_cell_angle_alpha   90.00000000
_cell_angle_beta   90.00000000
_cell_angle_gamma   141.05186924
_symmetry_Int_Tables_number   1
_chemical_formula_structural   CaGa
_chemical_formula_sum   'Ca2 Ga2'
_cell_volume   104.83442049
_cell_formula_units_Z   2
loop_
 _symmetry_equiv_pos_site_id
 _symmetry_equiv_pos_as_xyz
  1  'x, y, z'
loop_
 _atom_site_type_symbol
 _atom_site_label
 _atom_site_symmetry_multiplicity
 _atom_site_fract_x
 _atom_site_fract_y
 _atom_site_fract_z
 _atom_site_occupancy
  Ca  Ca0  1  0.64646300  0.35353700  0.25000000  1
  Ca  Ca1  1  0.35353700  0.64646300  0.75000000  1
  Ga  Ga2  1  0.93186800  0.06813200  0.25000000  1
  Ga  Ga3  1  0.06813200  0.93186800  0.75000000  1
