# generated using pymatgen
data_LuTa6Br13O3
_symmetry_space_group_name_H-M   'P 1'
_cell_length_a   9.51236456
_cell_length_b   9.51236450
_cell_length_c   28.45486199
_cell_angle_alpha   99.62205987
_cell_angle_beta   99.62205980
_cell_angle_gamma   89.99999833
_symmetry_Int_Tables_number   1
_chemical_formula_structural   LuTa6Br13O3
_chemical_formula_sum   'Lu4 Ta24 Br52 O12'
_cell_volume   2501.77188975
_cell_formula_units_Z   4
loop_
 _symmetry_equiv_pos_site_id
 _symmetry_equiv_pos_as_xyz
  1  'x, y, z'
loop_
 _atom_site_type_symbol
 _atom_site_label
 _atom_site_symmetry_multiplicity
 _atom_site_fract_x
 _atom_site_fract_y
 _atom_site_fract_z
 _atom_site_occupancy
  Lu  Lu0  1  0.15455547  0.65455547  0.30911094  1
  Lu  Lu1  1  0.34544453  0.84544453  0.69088906  1
  Lu  Lu2  1  0.59544453  0.59544453  0.19088906  1
  Lu  Lu3  1  0.40455547  0.40455547  0.80911094  1
  Ta  Ta4  1  0.42151006  0.36387644  0.57073128  1
  Ta  Ta5  1  0.50017200  0.80010762  0.37266450  1
  Ta  Ta6  1  0.87750750  0.44989238  0.12733550  1
  Ta  Ta7  1  0.18050516  0.47064887  0.17954007  1
  Ta  Ta8  1  0.32255688  0.75017200  0.87266450  1
  Ta  Ta9  1  0.42744312  0.12750750  0.62733550  1
  Ta  Ta10  1  0.87249250  0.57255688  0.37266450  1
  Ta  Ta11  1  0.19989238  0.49982800  0.62733550  1
  Ta  Ta12  1  0.14922122  0.20685483  0.57073128  1
  Ta  Ta13  1  0.32848994  0.04314517  0.92926872  1
  Ta  Ta14  1  0.79314517  0.85077878  0.42926872  1
  Ta  Ta15  1  0.45889120  0.43050516  0.67954007  1
  Ta  Ta16  1  0.63612356  0.57848994  0.42926872  1
  Ta  Ta17  1  0.52935113  0.81949484  0.82045993  1
  Ta  Ta18  1  0.95685483  0.67151006  0.07073128  1
  Ta  Ta19  1  0.75096510  0.77935113  0.32045993  1
  Ta  Ta20  1  0.24982800  0.67744312  0.12733550  1
  Ta  Ta21  1  0.99903490  0.70889120  0.17954007  1
  Ta  Ta22  1  0.29110880  0.00096510  0.82045993  1
  Ta  Ta23  1  0.11387644  0.39922122  0.07073128  1
  Ta  Ta24  1  0.55010762  0.12249250  0.87266450  1
  Ta  Ta25  1  0.22064887  0.24903490  0.67954007  1
  Ta  Ta26  1  0.60077878  0.88612356  0.92926872  1
  Ta  Ta27  1  0.56949484  0.54110880  0.32045993  1
  Br  Br28  1  0.11325636  0.13246191  0.87406687  1
  Br  Br29  1  0.12394995  0.43301528  0.35794577  1
  Br  Br30  1  0.99673253  0.49673253  0.99346506  1
  Br  Br31  1  0.23399582  0.92493049  0.35794577  1
  Br  Br32  1  0.82867510  0.82867510  1.00000000  1
  Br  Br33  1  0.67493049  0.37394995  0.85794577  1
  Br  Br34  1  0.89522055  0.22261429  0.06343307  1
  Br  Br35  1  0.04326210  0.74133389  0.44119704  1
  Br  Br36  1  0.88246191  0.01081051  0.37406687  1
  Br  Br37  1  0.25839504  0.23918949  0.12593313  1
  Br  Br38  1  0.04882491  0.46550898  0.69580047  1
  Br  Br39  1  0.18301528  0.48399582  0.85794577  1
  Br  Br40  1  0.11154904  0.12500000  0.75000000  1
  Br  Br41  1  0.44986316  0.29326210  0.94119704  1
  Br  Br42  1  0.76970851  0.35302444  0.30419953  1
  Br  Br43  1  0.35206506  0.50866611  0.05880296  1
  Br  Br44  1  0.15918122  0.83178748  0.93656693  1
  Br  Br45  1  0.50326747  0.00326747  0.00653494  1
  Br  Br46  1  0.86753809  0.88674364  0.12593313  1
  Br  Br47  1  0.16821252  0.84081878  0.06343307  1
  Br  Br48  1  0.98918949  0.11753809  0.62593313  1
  Br  Br49  1  0.62605005  0.32506951  0.14205423  1
  Br  Br50  1  0.70673790  0.55013684  0.05880296  1
  Br  Br51  1  0.30013684  0.60206506  0.55880296  1
  Br  Br52  1  0.87500000  0.88845096  0.25000000  1
  Br  Br53  1  0.59081878  0.14522055  0.56343307  1
  Br  Br54  1  0.17132490  0.17132490  0.00000000  1
  Br  Br55  1  0.53449102  0.95117509  0.30419953  1
  Br  Br56  1  0.25866611  0.95673790  0.55880296  1
  Br  Br57  1  0.92132490  0.07867510  0.50000000  1
  Br  Br58  1  0.37500000  0.36154904  0.25000000  1
  Br  Br59  1  0.63845096  0.62500000  0.75000000  1
  Br  Br60  1  0.51600418  0.81698472  0.14205423  1
  Br  Br61  1  0.70117509  0.01970851  0.80419953  1
  Br  Br62  1  0.64697556  0.23029149  0.69580047  1
  Br  Br63  1  0.24673253  0.24673253  0.49346506  1
  Br  Br64  1  0.58178748  0.02738571  0.43656693  1
  Br  Br65  1  0.49133389  0.64793494  0.94119704  1
  Br  Br66  1  0.98029149  0.29882491  0.19580047  1
  Br  Br67  1  0.49160496  0.36325636  0.37406687  1
  Br  Br68  1  0.77738571  0.10477945  0.93656693  1
  Br  Br69  1  0.63674364  0.50839504  0.62593313  1
  Br  Br70  1  0.97261429  0.41821252  0.56343307  1
  Br  Br71  1  0.39793494  0.69986316  0.44119704  1
  Br  Br72  1  0.85477945  0.40918122  0.43656693  1
  Br  Br73  1  0.57867510  0.42132490  0.50000000  1
  Br  Br74  1  0.75326747  0.75326747  0.50653494  1
  Br  Br75  1  0.10302444  0.78449102  0.80419953  1
  Br  Br76  1  0.21550898  0.89697556  0.19580047  1
  Br  Br77  1  0.07506951  0.76600418  0.64205423  1
  Br  Br78  1  0.56698472  0.87605005  0.64205423  1
  Br  Br79  1  0.76081051  0.74160496  0.87406687  1
  O  O80  1  0.39850671  0.18440781  0.82319325  1
  O  O81  1  0.36635705  0.36635705  0.73271410  1
  O  O82  1  0.35149329  0.61121456  0.67680675  1
  O  O83  1  0.63364295  0.63364295  0.26728590  1
  O  O84  1  0.38364295  0.88364295  0.76728590  1
  O  O85  1  0.38878544  0.64850671  0.32319325  1
  O  O86  1  0.81559219  0.60149329  0.17680675  1
  O  O87  1  0.42468654  0.63878544  0.82319325  1
  O  O88  1  0.32531346  0.06559219  0.67680675  1
  O  O89  1  0.36121456  0.57531346  0.17680675  1
  O  O90  1  0.93440781  0.67468654  0.32319325  1
  O  O91  1  0.11635705  0.61635705  0.23271410  1
