# generated using pymatgen
data_NaH9O5
_symmetry_space_group_name_H-M   'P 1'
_cell_length_a   8.01817763
_cell_length_b   8.01817763
_cell_length_c   9.43724522
_cell_angle_alpha   64.16513287
_cell_angle_beta   64.16513287
_cell_angle_gamma   29.53927345
_symmetry_Int_Tables_number   1
_chemical_formula_structural   NaH9O5
_chemical_formula_sum   'Na2 H18 O10'
_cell_volume   267.03132450
_cell_formula_units_Z   2
loop_
 _symmetry_equiv_pos_site_id
 _symmetry_equiv_pos_as_xyz
  1  'x, y, z'
loop_
 _atom_site_type_symbol
 _atom_site_label
 _atom_site_symmetry_multiplicity
 _atom_site_fract_x
 _atom_site_fract_y
 _atom_site_fract_z
 _atom_site_occupancy
  Na  Na0  1  0.45400800  0.45503300  0.85902000  1
  Na  Na1  1  0.54496700  0.54599200  0.14098000  1
  H  H2  1  0.19919900  0.19930900  0.60286200  1
  H  H3  1  0.80069100  0.80080100  0.39713800  1
  H  H4  1  0.44944800  0.07030400  0.97559300  1
  H  H5  1  0.26847200  0.26580100  0.82273300  1
  H  H6  1  0.92969600  0.55055200  0.02440700  1
  H  H7  1  0.73419900  0.73152800  0.17726700  1
  H  H8  1  0.84141300  0.45531900  0.79744500  1
  H  H9  1  0.45535300  0.84131500  0.79743100  1
  H  H10  1  0.54468100  0.15858700  0.20255500  1
  H  H11  1  0.15868500  0.54464700  0.20256900  1
  H  H12  1  0.04185800  0.04170200  0.61404600  1
  H  H13  1  0.92973700  0.93029700  0.66888400  1
  H  H14  1  0.95829800  0.95814200  0.38595400  1
  H  H15  1  0.06970300  0.07026300  0.33111600  1
  H  H16  1  0.00420700  0.61103800  0.61037700  1
  H  H17  1  0.61116900  0.00419700  0.61047400  1
  H  H18  1  0.38896200  0.99579300  0.38962300  1
  H  H19  1  0.99580300  0.38883100  0.38952600  1
  O  O20  1  0.22460400  0.22476000  0.68113100  1
  O  O21  1  0.77524000  0.77539600  0.31886900  1
  O  O22  1  0.28955400  0.29309100  0.90336700  1
  O  O23  1  0.70690900  0.71044600  0.09663300  1
  O  O24  1  0.60833200  0.60825900  0.85703500  1
  O  O25  1  0.39174100  0.39166800  0.14296500  1
  O  O26  1  0.97900000  0.97857800  0.71035000  1
  O  O27  1  0.02142200  0.02100000  0.28965000  1
  O  O28  1  0.85214600  0.85193600  0.57128900  1
  O  O29  1  0.14806400  0.14785400  0.42871100  1
