# generated using pymatgen
data_Cr2(MoO4)3
_symmetry_space_group_name_H-M   'P 1'
_cell_length_a   9.40277600
_cell_length_b   9.49202800
_cell_length_c   13.07108300
_cell_angle_alpha   90.00000000
_cell_angle_beta   90.00000000
_cell_angle_gamma   90.00000000
_symmetry_Int_Tables_number   1
_chemical_formula_structural   Cr2(MoO4)3
_chemical_formula_sum   'Cr8 Mo12 O48'
_cell_volume   1166.61262810
_cell_formula_units_Z   4
loop_
 _symmetry_equiv_pos_site_id
 _symmetry_equiv_pos_as_xyz
  1  'x, y, z'
loop_
 _atom_site_type_symbol
 _atom_site_label
 _atom_site_symmetry_multiplicity
 _atom_site_fract_x
 _atom_site_fract_y
 _atom_site_fract_z
 _atom_site_occupancy
  Cr  Cr0  1  0.25035500  0.53459900  0.61844400  1
  Cr  Cr1  1  0.74964500  0.03459900  0.61844400  1
  Cr  Cr2  1  0.24964500  0.03459900  0.88155600  1
  Cr  Cr3  1  0.24964500  0.46540100  0.11844400  1
  Cr  Cr4  1  0.75035500  0.53459900  0.88155600  1
  Cr  Cr5  1  0.75035500  0.96540100  0.11844400  1
  Cr  Cr6  1  0.25035500  0.96540100  0.38155600  1
  Cr  Cr7  1  0.74964500  0.46540100  0.38155600  1
  Mo  Mo8  1  0.10455300  0.61638600  0.35510100  1
  Mo  Mo9  1  0.02734900  0.75000000  0.00000000  1
  Mo  Mo10  1  0.97265100  0.25000000  0.00000000  1
  Mo  Mo11  1  0.89544700  0.11638600  0.35510100  1
  Mo  Mo12  1  0.89544700  0.38361400  0.64489900  1
  Mo  Mo13  1  0.60455300  0.88361400  0.85510100  1
  Mo  Mo14  1  0.47265100  0.25000000  0.50000000  1
  Mo  Mo15  1  0.39544700  0.11638600  0.14489900  1
  Mo  Mo16  1  0.52734900  0.75000000  0.50000000  1
  Mo  Mo17  1  0.10455300  0.88361400  0.64489900  1
  Mo  Mo18  1  0.39544700  0.38361400  0.85510100  1
  Mo  Mo19  1  0.60455300  0.61638600  0.14489900  1
  O  O20  1  0.81996300  0.43049500  0.52397000  1
  O  O21  1  0.91523900  0.90671600  0.64166300  1
  O  O22  1  0.68003700  0.93049500  0.97603000  1
  O  O23  1  0.08291000  0.16131000  0.90841300  1
  O  O24  1  0.68003700  0.56950500  0.02397000  1
  O  O25  1  0.41709000  0.66131000  0.59158700  1
  O  O26  1  0.08476100  0.40671600  0.64166300  1
  O  O27  1  0.31996300  0.06950500  0.02397000  1
  O  O28  1  0.35967600  0.29935300  0.16924000  1
  O  O29  1  0.14032400  0.79935300  0.33076000  1
  O  O30  1  0.41523900  0.90671600  0.85833700  1
  O  O31  1  0.08291000  0.33869000  0.09158700  1
  O  O32  1  0.13648800  0.87243900  0.93238400  1
  O  O33  1  0.85967600  0.29935300  0.33076000  1
  O  O34  1  0.64032400  0.70064700  0.83076000  1
  O  O35  1  0.91709000  0.83869000  0.09158700  1
  O  O36  1  0.86351200  0.12756100  0.06761600  1
  O  O37  1  0.35967600  0.20064700  0.83076000  1
  O  O38  1  0.58476100  0.09328400  0.14166300  1
  O  O39  1  0.08476100  0.09328400  0.35833700  1
  O  O40  1  0.18003700  0.56950500  0.47603000  1
  O  O41  1  0.81908300  0.00432000  0.25955800  1
  O  O42  1  0.41709000  0.83869000  0.40841300  1
  O  O43  1  0.36351200  0.12756100  0.43238400  1
  O  O44  1  0.31996300  0.43049500  0.97603000  1
  O  O45  1  0.85967600  0.20064700  0.66924000  1
  O  O46  1  0.91523900  0.59328400  0.35833700  1
  O  O47  1  0.14032400  0.70064700  0.66924000  1
  O  O48  1  0.86351200  0.37243900  0.93238400  1
  O  O49  1  0.36351200  0.37243900  0.56761600  1
  O  O50  1  0.41523900  0.59328400  0.14166300  1
  O  O51  1  0.18091700  0.50432000  0.25955800  1
  O  O52  1  0.64032400  0.79935300  0.16924000  1
  O  O53  1  0.18091700  0.99568000  0.74044200  1
  O  O54  1  0.81996300  0.06950500  0.47603000  1
  O  O55  1  0.58476100  0.40671600  0.85833700  1
  O  O56  1  0.18003700  0.93049500  0.52397000  1
  O  O57  1  0.31908300  0.49568000  0.75955800  1
  O  O58  1  0.58291000  0.33869000  0.40841300  1
  O  O59  1  0.81908300  0.49568000  0.74044200  1
  O  O60  1  0.68091700  0.50432000  0.24044200  1
  O  O61  1  0.91709000  0.66131000  0.90841300  1
  O  O62  1  0.63648800  0.62756100  0.43238400  1
  O  O63  1  0.31908300  0.00432000  0.24044200  1
  O  O64  1  0.63648800  0.87243900  0.56761600  1
  O  O65  1  0.13648800  0.62756100  0.06761600  1
  O  O66  1  0.58291000  0.16131000  0.59158700  1
  O  O67  1  0.68091700  0.99568000  0.75955800  1
