# generated using pymatgen
data_KICl2
_symmetry_space_group_name_H-M   'P 1'
_cell_length_a   11.93634400
_cell_length_b   8.52179400
_cell_length_c   12.81938008
_cell_angle_alpha   69.38134775
_cell_angle_beta   90.00000000
_cell_angle_gamma   90.00000000
_symmetry_Int_Tables_number   1
_chemical_formula_structural   KICl2
_chemical_formula_sum   'K8 I8 Cl16'
_cell_volume   1220.44914031
_cell_formula_units_Z   8
loop_
 _symmetry_equiv_pos_site_id
 _symmetry_equiv_pos_as_xyz
  1  'x, y, z'
loop_
 _atom_site_type_symbol
 _atom_site_label
 _atom_site_symmetry_multiplicity
 _atom_site_fract_x
 _atom_site_fract_y
 _atom_site_fract_z
 _atom_site_occupancy
  K  K0  1  0.67048000  0.89210900  0.42447500  1
  K  K1  1  0.03906400  0.46679900  0.31377800  1
  K  K2  1  0.17048000  0.10789100  0.07552500  1
  K  K3  1  0.46093600  0.46679900  0.81377800  1
  K  K4  1  0.32952000  0.10789100  0.57552500  1
  K  K5  1  0.96093600  0.53320100  0.68622200  1
  K  K6  1  0.82952000  0.89210900  0.92447500  1
  K  K7  1  0.53906400  0.53320100  0.18622200  1
  I  I8  1  0.12511800  0.69547800  0.92110100  1
  I  I9  1  0.52838800  0.10125000  0.12224900  1
  I  I10  1  0.97161200  0.10125000  0.62224900  1
  I  I11  1  0.62511800  0.30452200  0.57889900  1
  I  I12  1  0.47161200  0.89875000  0.87775100  1
  I  I13  1  0.37488200  0.69547800  0.42110100  1
  I  I14  1  0.87488200  0.30452200  0.07889900  1
  I  I15  1  0.02838800  0.89875000  0.37775100  1
  Cl  Cl16  1  0.20248700  0.63246100  0.75778200  1
  Cl  Cl17  1  0.67515500  0.86450700  0.17439600  1
  Cl  Cl18  1  0.79751300  0.36753900  0.24221800  1
  Cl  Cl19  1  0.38023100  0.34028900  0.06960900  1
  Cl  Cl20  1  0.11976900  0.34028900  0.56960900  1
  Cl  Cl21  1  0.53858500  0.22867900  0.41565100  1
  Cl  Cl22  1  0.88023100  0.65971100  0.43039100  1
  Cl  Cl23  1  0.70248700  0.36753900  0.74221800  1
  Cl  Cl24  1  0.46141500  0.77132100  0.58434900  1
  Cl  Cl25  1  0.29751300  0.63246100  0.25778200  1
  Cl  Cl26  1  0.96141500  0.22867900  0.91565100  1
  Cl  Cl27  1  0.03858500  0.77132100  0.08434900  1
  Cl  Cl28  1  0.61976900  0.65971100  0.93039100  1
  Cl  Cl29  1  0.32484500  0.13549300  0.82560400  1
  Cl  Cl30  1  0.17515500  0.13549300  0.32560400  1
  Cl  Cl31  1  0.82484500  0.86450700  0.67439600  1
