# generated using pymatgen
data_Pu2O3
_symmetry_space_group_name_H-M   'P 1'
_cell_length_a   9.42948847
_cell_length_b   9.43599083
_cell_length_c   9.43080670
_cell_angle_alpha   109.39779022
_cell_angle_beta   109.35794501
_cell_angle_gamma   109.45586288
_symmetry_Int_Tables_number   1
_chemical_formula_structural   Pu2O3
_chemical_formula_sum   'Pu16 O24'
_cell_volume   647.56097075
_cell_formula_units_Z   8
loop_
 _symmetry_equiv_pos_site_id
 _symmetry_equiv_pos_as_xyz
  1  'x, y, z'
loop_
 _atom_site_type_symbol
 _atom_site_label
 _atom_site_symmetry_multiplicity
 _atom_site_fract_x
 _atom_site_fract_y
 _atom_site_fract_z
 _atom_site_occupancy
  Pu  Pu0  1  0.22524900  0.75024900  0.97466300  1
  Pu  Pu1  1  0.97472400  0.22530200  0.75013700  1
  Pu  Pu2  1  0.77472900  0.24975100  0.02530300  1
  Pu  Pu3  1  0.24986500  0.02532000  0.77480500  1
  Pu  Pu4  1  0.72398200  0.74971600  0.47420200  1
  Pu  Pu5  1  0.75016000  0.97472700  0.22522500  1
  Pu  Pu6  1  0.25025600  0.52582100  0.27594700  1
  Pu  Pu7  1  0.74973600  0.47415600  0.72405900  1
  Pu  Pu8  1  0.99997800  0.49999400  0.49997700  1
  Pu  Pu9  1  0.27600400  0.25029800  0.52579800  1
  Pu  Pu10  1  0.52578200  0.27600000  0.25023200  1
  Pu  Pu11  1  0.47421800  0.72400600  0.74978000  1
  Pu  Pu12  1  0.02531700  0.77473700  0.24984800  1
  Pu  Pu13  1  0.99996600  0.00000100  0.99996900  1
  Pu  Pu14  1  0.50002300  0.00000700  0.50001200  1
  Pu  Pu15  1  0.50001300  0.49999900  0.00002100  1
  O  O16  1  0.25952000  0.99139400  0.52643600  1
  O  O17  1  0.75940100  0.23256400  0.26798600  1
  O  O18  1  0.23251100  0.26794800  0.75929900  1
  O  O19  1  0.50816200  0.76856700  0.53525100  1
  O  O20  1  0.76846100  0.53530300  0.50829200  1
  O  O21  1  0.26431800  0.02717700  0.03536900  1
  O  O22  1  0.03544800  0.26425200  0.02717100  1
  O  O23  1  0.47360700  0.74047700  0.00867900  1
  O  O24  1  0.73203100  0.24066700  0.76744600  1
  O  O25  1  0.46475000  0.49180300  0.23149200  1
  O  O26  1  0.02722500  0.03525800  0.26424800  1
  O  O27  1  0.76751200  0.73203200  0.24069100  1
  O  O28  1  0.99127400  0.52642200  0.25944300  1
  O  O29  1  0.73566500  0.97281900  0.96466600  1
  O  O30  1  0.23152700  0.46471100  0.49174900  1
  O  O31  1  0.53524300  0.50818400  0.76848700  1
  O  O32  1  0.00872100  0.47357100  0.74052400  1
  O  O33  1  0.97278400  0.96469200  0.73572700  1
  O  O34  1  0.74048100  0.00860500  0.47357300  1
  O  O35  1  0.96450400  0.73567500  0.97277600  1
  O  O36  1  0.26795300  0.75931900  0.23252000  1
  O  O37  1  0.49183600  0.23144400  0.46477900  1
  O  O38  1  0.52641600  0.25954900  0.99135800  1
  O  O39  1  0.24064800  0.76748500  0.73206200  1
