# generated using pymatgen
data_Pb13(Br3O5)2
_symmetry_space_group_name_H-M   'P 1'
_cell_length_a   9.17117595
_cell_length_b   9.17117595
_cell_length_c   24.50915063
_cell_angle_alpha   82.00616591
_cell_angle_beta   82.00616591
_cell_angle_gamma   47.39918422
_symmetry_Int_Tables_number   1
_chemical_formula_structural   Pb13(Br3O5)2
_chemical_formula_sum   'Pb26 Br12 O20'
_cell_volume   1499.82416213
_cell_formula_units_Z   2
loop_
 _symmetry_equiv_pos_site_id
 _symmetry_equiv_pos_as_xyz
  1  'x, y, z'
loop_
 _atom_site_type_symbol
 _atom_site_label
 _atom_site_symmetry_multiplicity
 _atom_site_fract_x
 _atom_site_fract_y
 _atom_site_fract_z
 _atom_site_occupancy
  Pb  Pb0  1  0.37051700  0.16029400  0.93913000  1
  Pb  Pb1  1  0.98884400  0.84312800  0.13251800  1
  Pb  Pb2  1  0.25702500  0.38850300  0.65063200  1
  Pb  Pb3  1  0.77675100  0.22324900  0.25000000  1
  Pb  Pb4  1  0.84312800  0.98884400  0.63251800  1
  Pb  Pb5  1  0.88991800  0.31760500  0.70768100  1
  Pb  Pb6  1  0.71410200  0.18743100  0.01180000  1
  Pb  Pb7  1  0.01115600  0.15687200  0.86748200  1
  Pb  Pb8  1  0.05675900  0.20905700  0.08266900  1
  Pb  Pb9  1  0.11008200  0.68239500  0.29231900  1
  Pb  Pb10  1  0.74297500  0.61149700  0.34936800  1
  Pb  Pb11  1  0.38850300  0.25702500  0.15063200  1
  Pb  Pb12  1  0.16029400  0.37051700  0.43913000  1
  Pb  Pb13  1  0.68239500  0.11008200  0.79231900  1
  Pb  Pb14  1  0.31760500  0.88991800  0.20768100  1
  Pb  Pb15  1  0.28589800  0.81256900  0.98820000  1
  Pb  Pb16  1  0.94324100  0.79094300  0.91733100  1
  Pb  Pb17  1  0.22324900  0.77675100  0.75000000  1
  Pb  Pb18  1  0.62948300  0.83970600  0.06087000  1
  Pb  Pb19  1  0.15687200  0.01115600  0.36748200  1
  Pb  Pb20  1  0.18743100  0.71410200  0.51180000  1
  Pb  Pb21  1  0.81256900  0.28589800  0.48820000  1
  Pb  Pb22  1  0.79094300  0.94324100  0.41733100  1
  Pb  Pb23  1  0.61149700  0.74297500  0.84936800  1
  Pb  Pb24  1  0.20905700  0.05675900  0.58266900  1
  Pb  Pb25  1  0.83970600  0.62948300  0.56087000  1
  Br  Br26  1  0.50640800  0.55397900  0.13257400  1
  Br  Br27  1  0.63051300  0.99431800  0.25302900  1
  Br  Br28  1  0.44602100  0.49359200  0.36742600  1
  Br  Br29  1  0.99431800  0.63051300  0.75302900  1
  Br  Br30  1  0.55397900  0.50640800  0.63257400  1
  Br  Br31  1  0.82002600  0.50056200  0.96022100  1
  Br  Br32  1  0.50056200  0.82002600  0.46022100  1
  Br  Br33  1  0.49943800  0.17997400  0.53977900  1
  Br  Br34  1  0.17997400  0.49943800  0.03977900  1
  Br  Br35  1  0.49359200  0.44602100  0.86742600  1
  Br  Br36  1  0.00568200  0.36948700  0.24697100  1
  Br  Br37  1  0.36948700  0.00568200  0.74697100  1
  O  O38  1  0.01700600  0.32438200  0.51934100  1
  O  O39  1  0.98299400  0.67561800  0.48065900  1
  O  O40  1  0.04936600  0.34085900  0.63588700  1
  O  O41  1  0.97104700  0.97944200  0.31684500  1
  O  O42  1  0.95063400  0.65914100  0.36411300  1
  O  O43  1  0.97944200  0.97104700  0.81684500  1
  O  O44  1  0.00312800  0.01502200  0.55881600  1
  O  O45  1  0.02895300  0.02055800  0.68315500  1
  O  O46  1  0.04622600  0.66940000  0.59903800  1
  O  O47  1  0.34085900  0.04936600  0.13588700  1
  O  O48  1  0.65914100  0.95063400  0.86411300  1
  O  O49  1  0.33060000  0.95377400  0.90096200  1
  O  O50  1  0.32438200  0.01700600  0.01934100  1
  O  O51  1  0.02055800  0.02895300  0.18315500  1
  O  O52  1  0.67561800  0.98299400  0.98065900  1
  O  O53  1  0.95377400  0.33060000  0.40096200  1
  O  O54  1  0.01502200  0.00312800  0.05881600  1
  O  O55  1  0.66940000  0.04622600  0.09903800  1
  O  O56  1  0.98497800  0.99687200  0.94118400  1
  O  O57  1  0.99687200  0.98497800  0.44118400  1
