# generated using pymatgen
data_NaCa2Al4H8C4ClO20
_symmetry_space_group_name_H-M   'P 1'
_cell_length_a   11.32833500
_cell_length_b   11.32833500
_cell_length_c   6.61888900
_cell_angle_alpha   90.00000000
_cell_angle_beta   90.00000000
_cell_angle_gamma   90.00000000
_symmetry_Int_Tables_number   1
_chemical_formula_structural   NaCa2Al4H8C4ClO20
_chemical_formula_sum   'Na2 Ca4 Al8 H16 C8 Cl2 O40'
_cell_volume   849.40979510
_cell_formula_units_Z   2
loop_
 _symmetry_equiv_pos_site_id
 _symmetry_equiv_pos_as_xyz
  1  'x, y, z'
loop_
 _atom_site_type_symbol
 _atom_site_label
 _atom_site_symmetry_multiplicity
 _atom_site_fract_x
 _atom_site_fract_y
 _atom_site_fract_z
 _atom_site_occupancy
  Na  Na0  1  0.50000000  0.00000000  0.06741700  1
  Na  Na1  1  0.00000000  0.50000000  0.93258300  1
  Ca  Ca2  1  0.25000000  0.75000000  0.00000000  1
  Ca  Ca3  1  0.25000000  0.25000000  0.00000000  1
  Ca  Ca4  1  0.75000000  0.75000000  0.00000000  1
  Ca  Ca5  1  0.75000000  0.25000000  0.00000000  1
  Al  Al6  1  0.65492900  0.34507100  0.50000000  1
  Al  Al7  1  0.65492900  0.65492900  0.50000000  1
  Al  Al8  1  0.34507100  0.34507100  0.50000000  1
  Al  Al9  1  0.34507100  0.65492900  0.50000000  1
  Al  Al10  1  0.84507100  0.15492900  0.50000000  1
  Al  Al11  1  0.84507100  0.84507100  0.50000000  1
  Al  Al12  1  0.15492900  0.15492900  0.50000000  1
  Al  Al13  1  0.15492900  0.84507100  0.50000000  1
  H  H14  1  0.50000000  0.68955300  0.26199100  1
  H  H15  1  0.50000000  0.31044700  0.26199100  1
  H  H16  1  0.18955300  0.00000000  0.26199100  1
  H  H17  1  0.81044700  0.00000000  0.26199100  1
  H  H18  1  0.00000000  0.81044700  0.73800900  1
  H  H19  1  0.00000000  0.18955300  0.73800900  1
  H  H20  1  0.31044700  0.50000000  0.73800900  1
  H  H21  1  0.68955300  0.50000000  0.73800900  1
  H  H22  1  0.62862400  0.12862400  0.42120700  1
  H  H23  1  0.62862400  0.87137600  0.42120700  1
  H  H24  1  0.37137600  0.12862400  0.42120700  1
  H  H25  1  0.37137600  0.87137600  0.42120700  1
  H  H26  1  0.87137600  0.37137600  0.57879300  1
  H  H27  1  0.87137600  0.62862400  0.57879300  1
  H  H28  1  0.12862400  0.37137600  0.57879300  1
  H  H29  1  0.12862400  0.62862400  0.57879300  1
  C  C30  1  0.50000000  0.26438100  0.84396000  1
  C  C31  1  0.50000000  0.73561900  0.84396000  1
  C  C32  1  0.76438100  0.00000000  0.84396000  1
  C  C33  1  0.23561900  0.00000000  0.84396000  1
  C  C34  1  0.00000000  0.23561900  0.15604000  1
  C  C35  1  0.00000000  0.76438100  0.15604000  1
  C  C36  1  0.73561900  0.50000000  0.15604000  1
  C  C37  1  0.26438100  0.50000000  0.15604000  1
  Cl  Cl38  1  0.50000000  0.00000000  0.52229900  1
  Cl  Cl39  1  0.00000000  0.50000000  0.47770100  1
  O  O40  1  0.50000000  0.65776900  0.40003000  1
  O  O41  1  0.50000000  0.34223100  0.40003000  1
  O  O42  1  0.15776900  0.00000000  0.40003000  1
  O  O43  1  0.84223100  0.00000000  0.40003000  1
  O  O44  1  0.00000000  0.84223100  0.59997000  1
  O  O45  1  0.00000000  0.15776900  0.59997000  1
  O  O46  1  0.34223100  0.50000000  0.59997000  1
  O  O47  1  0.65776900  0.50000000  0.59997000  1
  O  O48  1  0.68889500  0.18889500  0.39194700  1
  O  O49  1  0.68889500  0.81110500  0.39194700  1
  O  O50  1  0.31110500  0.18889500  0.39194700  1
  O  O51  1  0.31110500  0.81110500  0.39194700  1
  O  O52  1  0.81110500  0.31110500  0.60805300  1
  O  O53  1  0.81110500  0.68889500  0.60805300  1
  O  O54  1  0.18889500  0.31110500  0.60805300  1
  O  O55  1  0.18889500  0.68889500  0.60805300  1
  O  O56  1  0.71085000  0.39981500  0.24081300  1
  O  O57  1  0.71085000  0.60018500  0.24081300  1
  O  O58  1  0.28915000  0.39981500  0.24081300  1
  O  O59  1  0.28915000  0.60018500  0.24081300  1
  O  O60  1  0.89981500  0.21085000  0.24081300  1
  O  O61  1  0.89981500  0.78915000  0.24081300  1
  O  O62  1  0.10018500  0.21085000  0.24081300  1
  O  O63  1  0.10018500  0.78915000  0.24081300  1
  O  O64  1  0.78915000  0.10018500  0.75918700  1
  O  O65  1  0.78915000  0.89981500  0.75918700  1
  O  O66  1  0.21085000  0.10018500  0.75918700  1
  O  O67  1  0.21085000  0.89981500  0.75918700  1
  O  O68  1  0.60018500  0.28915000  0.75918700  1
  O  O69  1  0.60018500  0.71085000  0.75918700  1
  O  O70  1  0.39981500  0.28915000  0.75918700  1
  O  O71  1  0.39981500  0.71085000  0.75918700  1
  O  O72  1  0.50000000  0.21598100  0.01944600  1
  O  O73  1  0.50000000  0.78401900  0.01944600  1
  O  O74  1  0.71598100  0.00000000  0.01944600  1
  O  O75  1  0.28401900  0.00000000  0.01944600  1
  O  O76  1  0.00000000  0.28401900  0.98055400  1
  O  O77  1  0.00000000  0.71598100  0.98055400  1
  O  O78  1  0.78401900  0.50000000  0.98055400  1
  O  O79  1  0.21598100  0.50000000  0.98055400  1
