# generated using pymatgen
data_Ba11In6O3
_symmetry_space_group_name_H-M   'P 1'
_cell_length_a   12.41960695
_cell_length_b   12.41960695
_cell_length_c   12.41960695
_cell_angle_alpha   101.87081452
_cell_angle_beta   101.87081452
_cell_angle_gamma   126.05691154
_symmetry_Int_Tables_number   1
_chemical_formula_structural   Ba11In6O3
_chemical_formula_sum   'Ba22 In12 O6'
_cell_volume   1380.25132057
_cell_formula_units_Z   2
loop_
 _symmetry_equiv_pos_site_id
 _symmetry_equiv_pos_as_xyz
  1  'x, y, z'
loop_
 _atom_site_type_symbol
 _atom_site_label
 _atom_site_symmetry_multiplicity
 _atom_site_fract_x
 _atom_site_fract_y
 _atom_site_fract_z
 _atom_site_occupancy
  Ba  Ba0  1  0.57709800  0.32683600  0.50000000  1
  Ba  Ba1  1  0.82683600  0.07709800  0.50000000  1
  Ba  Ba2  1  0.77012100  0.72987900  0.50000000  1
  Ba  Ba3  1  0.22987900  0.27012100  0.50000000  1
  Ba  Ba4  1  0.62359100  0.87640900  0.00000000  1
  Ba  Ba5  1  0.87640900  0.87640900  0.25281800  1
  Ba  Ba6  1  0.12359100  0.12359100  0.74718200  1
  Ba  Ba7  1  0.92290200  0.42290200  0.74973900  1
  Ba  Ba8  1  0.72987900  0.22987900  0.95975700  1
  Ba  Ba9  1  0.37640900  0.12359100  0.00000000  1
  Ba  Ba10  1  0.27012100  0.77012100  0.04024300  1
  Ba  Ba11  1  0.07709800  0.57709800  0.25026100  1
  Ba  Ba12  1  0.62359100  0.62359100  0.74718200  1
  Ba  Ba13  1  0.12359100  0.37640900  0.00000000  1
  Ba  Ba14  1  0.42290200  0.67316400  0.50000000  1
  Ba  Ba15  1  0.50000000  0.50000000  0.00000000  1
  Ba  Ba16  1  0.87640900  0.62359100  0.00000000  1
  Ba  Ba17  1  0.32683600  0.82683600  0.74973900  1
  Ba  Ba18  1  0.17316400  0.92290200  0.50000000  1
  Ba  Ba19  1  0.00000000  0.00000000  0.00000000  1
  Ba  Ba20  1  0.37640900  0.37640900  0.25281800  1
  Ba  Ba21  1  0.67316400  0.17316400  0.25026100  1
  In  In22  1  0.24269900  0.99898400  0.24168300  1
  In  In23  1  0.50101600  0.25730100  0.75831700  1
  In  In24  1  0.56570800  0.06570800  0.63141600  1
  In  In25  1  0.93429200  0.56570800  0.50000000  1
  In  In26  1  0.74269900  0.50101600  0.24371500  1
  In  In27  1  0.25730100  0.49898400  0.75628500  1
  In  In28  1  0.43429200  0.93429200  0.36858400  1
  In  In29  1  0.99898400  0.75730100  0.75628500  1
  In  In30  1  0.00101600  0.24269900  0.24371500  1
  In  In31  1  0.75730100  0.00101600  0.75831700  1
  In  In32  1  0.49898400  0.74269900  0.24168300  1
  In  In33  1  0.06570800  0.43429200  0.50000000  1
  O  O34  1  0.00000000  0.00000000  0.50000000  1
  O  O35  1  0.75000000  0.75000000  0.00000000  1
  O  O36  1  0.50000000  0.00000000  0.00000000  1
  O  O37  1  0.25000000  0.25000000  0.00000000  1
  O  O38  1  0.50000000  0.50000000  0.50000000  1
  O  O39  1  0.00000000  0.50000000  0.00000000  1
