# generated using pymatgen
data_Ti20H2N17
_symmetry_space_group_name_H-M   'P 1'
_cell_length_a   7.95396714
_cell_length_b   7.95396714
_cell_length_c   16.93981894
_cell_angle_alpha   74.45691903
_cell_angle_beta   74.45691903
_cell_angle_gamma   21.80093985
_symmetry_Int_Tables_number   1
_chemical_formula_structural   Ti20H2N17
_chemical_formula_sum   'Ti20 H2 N17'
_cell_volume   382.90795585
_cell_formula_units_Z   1
loop_
 _symmetry_equiv_pos_site_id
 _symmetry_equiv_pos_as_xyz
  1  'x, y, z'
loop_
 _atom_site_type_symbol
 _atom_site_label
 _atom_site_symmetry_multiplicity
 _atom_site_fract_x
 _atom_site_fract_y
 _atom_site_fract_z
 _atom_site_occupancy
  Ti  Ti0  1  0.30020300  0.30020300  0.92347500  1
  Ti  Ti1  1  0.89541700  0.89541700  0.02632900  1
  Ti  Ti2  1  0.49949600  0.49949600  0.12935800  1
  Ti  Ti3  1  0.10053000  0.10053000  0.22116200  1
  Ti  Ti4  1  0.70371200  0.70371200  0.32388600  1
  Ti  Ti5  1  0.49632500  0.49632500  0.37623900  1
  Ti  Ti6  1  0.09913600  0.09913600  0.47689200  1
  Ti  Ti7  1  0.29886900  0.29886900  0.42665700  1
  Ti  Ti8  1  0.70113100  0.70113100  0.57334300  1
  Ti  Ti9  1  0.90086400  0.90086400  0.52310800  1
  Ti  Ti10  1  0.50367500  0.50367500  0.62376100  1
  Ti  Ti11  1  0.29628800  0.29628800  0.67611400  1
  Ti  Ti12  1  0.10003600  0.10003600  0.72655400  1
  Ti  Ti13  1  0.89947000  0.89947000  0.77883800  1
  Ti  Ti14  1  0.50050400  0.50050400  0.87064200  1
  Ti  Ti15  1  0.69959200  0.69959200  0.82526200  1
  Ti  Ti16  1  0.10458300  0.10458300  0.97367100  1
  Ti  Ti17  1  0.69979700  0.69979700  0.07652500  1
  Ti  Ti18  1  0.30040800  0.30040800  0.17473800  1
  Ti  Ti19  1  0.89996400  0.89996400  0.27344600  1
  H  H20  1  0.10026000  0.10026000  0.35014900  1
  H  H21  1  0.89974000  0.89974000  0.64985100  1
  N  N22  1  0.09921700  0.09921700  0.60016500  1
  N  N23  1  0.70064700  0.70064700  0.69921200  1
  N  N24  1  0.30067900  0.30067900  0.79887400  1
  N  N25  1  0.90079300  0.90079300  0.90083100  1
  N  N26  1  0.09920700  0.09920700  0.09916900  1
  N  N27  1  0.69932100  0.69932100  0.20112600  1
  N  N28  1  0.90103800  0.90103800  0.14862200  1
  N  N29  1  0.29935300  0.29935300  0.30078800  1
  N  N30  1  0.50007200  0.50007200  0.25092700  1
  N  N31  1  0.90078300  0.90078300  0.39983500  1
  N  N32  1  0.69976200  0.69976200  0.44958500  1
  N  N33  1  0.30023800  0.30023800  0.55041500  1
  N  N34  1  0.50000000  0.50000000  0.50000000  1
  N  N35  1  0.49992800  0.49992800  0.74907300  1
  N  N36  1  0.09896200  0.09896200  0.85137800  1
  N  N37  1  0.69818400  0.69818400  0.95104800  1
  N  N38  1  0.30181600  0.30181600  0.04895200  1
