# generated using pymatgen
data_BaCdGaF7
_symmetry_space_group_name_H-M   'P 1'
_cell_length_a   7.57635129
_cell_length_b   7.57635129
_cell_length_c   15.24153973
_cell_angle_alpha   88.50500671
_cell_angle_beta   88.50500671
_cell_angle_gamma   42.17540308
_symmetry_Int_Tables_number   1
_chemical_formula_structural   BaCdGaF7
_chemical_formula_sum   'Ba4 Cd4 Ga4 F28'
_cell_volume   587.16769551
_cell_formula_units_Z   4
loop_
 _symmetry_equiv_pos_site_id
 _symmetry_equiv_pos_as_xyz
  1  'x, y, z'
loop_
 _atom_site_type_symbol
 _atom_site_label
 _atom_site_symmetry_multiplicity
 _atom_site_fract_x
 _atom_site_fract_y
 _atom_site_fract_z
 _atom_site_occupancy
  Ba  Ba0  1  0.77356700  0.84457700  0.62315800  1
  Ba  Ba1  1  0.15542300  0.22643300  0.87684200  1
  Ba  Ba2  1  0.84457700  0.77356700  0.12315800  1
  Ba  Ba3  1  0.22643300  0.15542300  0.37684200  1
  Cd  Cd4  1  0.45570200  0.54429800  0.75000000  1
  Cd  Cd5  1  0.54429800  0.45570200  0.25000000  1
  Cd  Cd6  1  0.50000000  0.50000000  0.50000000  1
  Cd  Cd7  1  0.50000000  0.50000000  0.00000000  1
  Ga  Ga8  1  0.13317300  0.11217800  0.62517200  1
  Ga  Ga9  1  0.86682700  0.88782200  0.37482800  1
  Ga  Ga10  1  0.11217800  0.13317300  0.12517200  1
  Ga  Ga11  1  0.88782200  0.86682700  0.87482800  1
  F  F12  1  0.88949700  0.11819800  0.34668400  1
  F  F13  1  0.94558100  0.38045900  0.22203800  1
  F  F14  1  0.43898600  0.83376500  0.54953900  1
  F  F15  1  0.05441900  0.61954100  0.77796200  1
  F  F16  1  0.30501200  0.19722100  0.09283200  1
  F  F17  1  0.75422900  0.06988100  0.98013000  1
  F  F18  1  0.39099200  0.85443800  0.20024800  1
  F  F19  1  0.60900800  0.14556200  0.79975200  1
  F  F20  1  0.61954100  0.05441900  0.27796200  1
  F  F21  1  0.16623500  0.56101400  0.95046100  1
  F  F22  1  0.46110200  0.66424300  0.37130600  1
  F  F23  1  0.93011900  0.24577100  0.51987000  1
  F  F24  1  0.06988100  0.75422900  0.48013000  1
  F  F25  1  0.53889800  0.33575700  0.62869400  1
  F  F26  1  0.11050300  0.88180200  0.65331600  1
  F  F27  1  0.80277900  0.69498800  0.40716800  1
  F  F28  1  0.69498800  0.80277900  0.90716800  1
  F  F29  1  0.38045900  0.94558100  0.72203800  1
  F  F30  1  0.24577100  0.93011900  0.01987000  1
  F  F31  1  0.66424300  0.46110200  0.87130600  1
  F  F32  1  0.85443800  0.39099200  0.70024800  1
  F  F33  1  0.19722100  0.30501200  0.59283200  1
  F  F34  1  0.83376500  0.43898600  0.04953900  1
  F  F35  1  0.33575700  0.53889800  0.12869400  1
  F  F36  1  0.11819800  0.88949700  0.84668400  1
  F  F37  1  0.14556200  0.60900800  0.29975200  1
  F  F38  1  0.56101400  0.16623500  0.45046100  1
  F  F39  1  0.88180200  0.11050300  0.15331600  1
