# generated using pymatgen
data_Ca2Ta2O7
_symmetry_space_group_name_H-M   'P 1'
_cell_length_a   7.41973320
_cell_length_b   7.41973347
_cell_length_c   42.93632489
_cell_angle_alpha   90.04450980
_cell_angle_beta   94.95298583
_cell_angle_gamma   119.72804213
_symmetry_Int_Tables_number   1
_chemical_formula_structural   Ca2Ta2O7
_chemical_formula_sum   'Ca28 Ta28 O98'
_cell_volume   2042.39164480
_cell_formula_units_Z   14
loop_
 _symmetry_equiv_pos_site_id
 _symmetry_equiv_pos_as_xyz
  1  'x, y, z'
loop_
 _atom_site_type_symbol
 _atom_site_label
 _atom_site_symmetry_multiplicity
 _atom_site_fract_x
 _atom_site_fract_y
 _atom_site_fract_z
 _atom_site_occupancy
  Ca  Ca0  1  0.02338008  0.51529295  0.00238787  1
  Ca  Ca1  1  0.71772559  0.84075954  0.57258938  1
  Ca  Ca2  1  0.63838810  0.05953779  0.21247282  1
  Ca  Ca3  1  0.55468136  0.26390873  0.35620369  1
  Ca  Ca4  1  0.22499747  0.11148552  0.85797512  1
  Ca  Ca5  1  0.25351040  0.36702236  0.14202488  1
  Ca  Ca6  1  0.84144808  0.40832098  0.28558235  1
  Ca  Ca7  1  0.12704421  0.04252633  0.71079466  1
  Ca  Ca8  1  0.12273863  0.55586573  0.71441765  1
  Ca  Ca9  1  0.90770504  0.19847767  0.64379631  1
  Ca  Ca10  1  0.77565783  0.14105079  0.42841391  1
  Ca  Ca11  1  0.84706497  0.42591529  0.78752718  1
  Ca  Ca12  1  0.87781194  0.67569824  0.07317654  1
  Ca  Ca13  1  0.74688140  0.86145894  0.14078030  1
  Ca  Ca14  1  0.22390982  0.85656898  0.56930509  1
  Ca  Ca15  1  0.33173167  0.41624955  0.28920534  1
  Ca  Ca16  1  0.26015521  0.87132070  0.14141997  1
  Ca  Ca17  1  0.51208760  0.51208760  0.00000000  1
  Ca  Ca18  1  0.72990073  0.11873524  0.85858003  1
  Ca  Ca19  1  0.71263688  0.34724392  0.57158609  1
  Ca  Ca20  1  0.72067864  0.60610110  0.85921970  1
  Ca  Ca21  1  0.99250696  0.49250696  0.50000000  1
  Ca  Ca22  1  0.84061781  0.90555771  0.28793424  1
  Ca  Ca23  1  0.51290507  0.02099221  0.99761213  1
  Ca  Ca24  1  0.61762348  0.55268358  0.71206576  1
  Ca  Ca25  1  0.28726389  0.65460473  0.43069491  1
  Ca  Ca26  1  0.60252171  0.80463540  0.92682346  1
  Ca  Ca27  1  0.26817016  0.14513621  0.42741062  1
  Ta  Ta28  1  0.13044458  0.04193072  0.21120916  1
  Ta  Ta29  1  0.13556669  0.54744027  0.21603962  1
  Ta  Ta30  1  0.83072156  0.91923541  0.78879084  1
  Ta  Ta31  1  0.37904122  0.18923207  0.06928098  1
  Ta  Ta32  1  0.92005819  0.69979399  0.64196079  1
  Ta  Ta33  1  0.65078407  0.07798813  0.71597804  1
  Ta  Ta34  1  0.49442483  0.99442483  0.50000000  1
  Ta  Ta35  1  0.05783319  0.27809740  0.35803921  1
  Ta  Ta36  1  0.77291859  0.60680345  0.42837714  1
  Ta  Ta37  1  0.55861842  0.77377653  0.35885623  1
  Ta  Ta38  1  0.05854784  0.77412680  0.35608116  1
  Ta  Ta39  1  0.75369603  0.37602590  0.14419469  1
  Ta  Ta40  1  0.97132922  0.97132922  0.00000000  1
  Ta  Ta41  1  0.41804565  0.70246668  0.64391884  1
  Ta  Ta42  1  0.99174066  0.99105775  0.49810826  1
  Ta  Ta43  1  0.32857905  0.41531569  0.78147610  1
  Ta  Ta44  1  0.17842631  0.34454144  0.57162286  1
  Ta  Ta45  1  0.63383959  0.54710294  0.21852390  1
  Ta  Ta46  1  0.11995110  0.30976024  0.93071902  1
  Ta  Ta47  1  0.36201009  0.93480604  0.28402196  1
  Ta  Ta48  1  0.33140065  0.91952707  0.78396038  1
  Ta  Ta49  1  0.49294950  0.49363240  0.50189174  1
  Ta  Ta50  1  0.62059929  0.31219926  0.92937305  1
  Ta  Ta51  1  0.23183120  0.60950134  0.85580531  1
  Ta  Ta52  1  0.38282620  0.69122623  0.07062695  1
  Ta  Ta53  1  0.88245546  0.19026393  0.07175899  1
  Ta  Ta54  1  0.11850494  0.81069647  0.92824101  1
  Ta  Ta55  1  0.41492030  0.19976219  0.64114377  1
  O  O56  1  0.15088215  0.37684823  0.88484825  1
  O  O57  1  0.01139079  0.23409880  0.31091438  1
  O  O58  1  0.38682221  0.68911773  0.49360443  1
  O  O59  1  0.41145427  0.61096422  0.20545139  1
  O  O60  1  0.61706499  0.74341989  0.40402206  1
  O  O61  1  0.93022522  0.90233603  0.45337755  1
  O  O62  1  0.40551282  0.20600288  0.79454861  1
  O  O63  1  0.92736607  0.46159260  0.83942275  1
  O  O64  1  0.89222130  0.93244624  0.83401591  1
  O  O65  1  0.47951840  0.48850876  0.06288018  1
  O  O66  1  0.64117498  0.57778823  0.26354760  1
  O  O67  1  0.71237728  0.79578395  0.63705577  1
  O  O68  1  0.05440450  0.02993576  0.91554689  1
  O  O69  1  0.34426867  0.83899323  0.37180468  1
  O  O70  1  0.93100615  0.20013278  0.59311166  1
  O  O71  1  0.11438886  0.13885761  0.08445311  1
  O  O72  1  0.10274643  0.24827725  0.97517560  1
  O  O73  1  0.10452217  0.85808571  0.97372949  1
  O  O74  1  0.90548285  0.18257558  0.69533347  1
  O  O75  1  0.52863783  0.77117346  0.87526564  1
  O  O76  1  0.48724211  0.21014937  0.30466653  1
  O  O77  1  0.92568651  0.70701227  0.59568238  1
  O  O78  1  0.81451997  0.61299401  0.92081174  1
  O  O79  1  0.37662790  0.42696316  0.65699310  1
  O  O80  1  0.07049256  0.26150128  0.22543895  1
  O  O81  1  0.81787254  0.20949857  0.92185657  1
  O  O82  1  0.94054628  0.46956649  0.35100856  1
  O  O83  1  0.84391190  0.45549026  0.22607355  1
  O  O84  1  0.88435622  0.13079268  0.02627051  1
  O  O85  1  0.48650721  0.80850886  0.31434915  1
  O  O86  1  0.39063994  0.66709882  0.11744268  1
  O  O87  1  0.03606233  0.84505360  0.77456105  1
  O  O88  1  0.63384669  0.02078842  0.79627500  1
  O  O89  1  0.00584752  0.75014680  0.40150605  1
  O  O90  1  0.35686442  0.47328168  0.35115114  1
  O  O91  1  0.44452317  0.99600481  0.45334583  1
  O  O92  1  0.21582346  0.63361466  0.26146046  1
  O  O93  1  0.69790653  0.85280787  0.97761875  1
  O  O94  1  0.63764191  0.50177139  0.17042289  1
  O  O95  1  0.65310459  0.24446715  0.05750667  1
  O  O96  1  0.63680753  0.61238236  0.78778901  1
  O  O97  1  0.10727194  0.79843749  0.31181321  1
  O  O98  1  0.60702111  0.33789448  0.40688834  1
  O  O99  1  0.42568510  0.01401875  0.93679615  1
  O  O100  1  0.28764200  0.89601597  0.07814343  1
  O  O101  1  0.94217777  0.50349285  0.44943303  1
  O  O102  1  0.49199998  0.26603390  0.11515175  1
  O  O103  1  0.61335424  0.03151032  0.26361511  1
  O  O104  1  0.18696048  0.59559792  0.94249333  1
  O  O105  1  0.03395678  0.21178562  0.78376490  1
  O  O106  1  0.05405982  0.49274475  0.55056697  1
  O  O107  1  0.54265898  0.99117734  0.54665417  1
  O  O108  1  0.33939783  0.21304293  0.59597794  1
  O  O109  1  0.37215420  0.95436300  0.73853954  1
  O  O110  1  0.69218227  0.89370823  0.07918826  1
  O  O111  1  0.76997006  0.71963479  0.34300690  1
  O  O112  1  0.60255830  0.29981746  0.50719959  1
  O  O113  1  0.44895848  0.47684767  0.54662245  1
  O  O114  1  0.20848787  0.26814223  0.48648243  1
  O  O115  1  0.87518912  0.72028778  0.02238125  1
  O  O116  1  0.54464575  0.51594010  0.45614594  1
  O  O117  1  0.07722260  0.48888895  0.06320385  1
  O  O118  1  0.12213054  0.00571328  0.64884886  1
  O  O119  1  0.89590782  0.65337219  0.12473436  1
  O  O120  1  0.37497973  0.71805034  0.02435313  1
  O  O121  1  0.02410857  0.46416704  0.17119717  1
  O  O122  1  0.19551330  0.89321779  0.50639557  1
  O  O123  1  0.82459335  0.84901852  0.21221099  1
  O  O124  1  0.09843033  0.05820539  0.16598409  1
  O  O125  1  0.42802072  0.25019188  0.21623510  1
  O  O126  1  0.27310165  0.12757083  0.02482440  1
  O  O127  1  0.79261787  0.09535871  0.49280041  1
  O  O128  1  0.76789521  0.34973913  0.73638489  1
  O  O129  1  0.16240144  0.99101860  0.25838253  1
  O  O130  1  0.46718855  0.97246399  0.62819532  1
  O  O131  1  0.62216986  0.08794332  0.16057725  1
  O  O132  1  0.71099580  0.39629700  0.63454353  1
  O  O133  1  0.33134850  0.46721902  0.82957711  1
  O  O134  1  0.42562858  0.41663822  0.93711982  1
  O  O135  1  0.05979416  0.08849981  0.54385406  1
  O  O136  1  0.22941672  0.61783835  0.77392645  1
  O  O137  1  0.22451342  0.83757169  0.20372500  1
  O  O138  1  0.11855793  0.58953772  0.64899144  1
  O  O139  1  0.15872818  0.07532151  0.36294423  1
  O  O140  1  0.14994232  0.77359234  0.88459212  1
  O  O141  1  0.34864075  0.60434148  0.59849395  1
  O  O142  1  0.78165980  0.72200543  0.51351757  1
  O  O143  1  0.54965614  0.27319726  0.88255732  1
  O  O144  1  0.29296987  0.85291140  0.82880283  1
  O  O145  1  0.73263606  0.90401891  0.74161747  1
  O  O146  1  0.92318442  0.70047640  0.68908562  1
  O  O147  1  0.31424063  0.37762738  0.73645240  1
  O  O148  1  0.11132988  0.33000413  0.40431762  1
  O  O149  1  0.69369721  0.35062659  0.97564687  1
  O  O150  1  0.76175347  0.07645226  0.36545647  1
  O  O151  1  0.49415971  0.17215806  0.68565085  1
  O  O152  1  0.88900022  0.26535020  0.11540788  1
  O  O153  1  0.48662428  0.79545873  0.68818679  1
