# generated using pymatgen
data_Ba5Re3O16
_symmetry_space_group_name_H-M   'P 1'
_cell_length_a   11.07861832
_cell_length_b   11.07861832
_cell_length_c   7.96378900
_cell_angle_alpha   90.00000000
_cell_angle_beta   90.00000000
_cell_angle_gamma   120.00000193
_symmetry_Int_Tables_number   1
_chemical_formula_structural   Ba5Re3O16
_chemical_formula_sum   'Ba10 Re6 O32'
_cell_volume   846.48948765
_cell_formula_units_Z   2
loop_
 _symmetry_equiv_pos_site_id
 _symmetry_equiv_pos_as_xyz
  1  'x, y, z'
loop_
 _atom_site_type_symbol
 _atom_site_label
 _atom_site_symmetry_multiplicity
 _atom_site_fract_x
 _atom_site_fract_y
 _atom_site_fract_z
 _atom_site_occupancy
  Ba  Ba0  1  0.66666700  0.33333300  0.50293900  1
  Ba  Ba1  1  0.33333300  0.66666700  0.50293900  1
  Ba  Ba2  1  0.33333300  0.66666700  0.00293900  1
  Ba  Ba3  1  0.66666700  0.33333300  0.00293900  1
  Ba  Ba4  1  0.26023800  0.26023800  0.23957100  1
  Ba  Ba5  1  0.73976200  0.00000000  0.23957100  1
  Ba  Ba6  1  0.00000000  0.73976200  0.23957100  1
  Ba  Ba7  1  0.73976200  0.73976200  0.73957100  1
  Ba  Ba8  1  0.26023800  0.00000000  0.73957100  1
  Ba  Ba9  1  0.00000000  0.26023800  0.73957100  1
  Re  Re10  1  0.39001700  0.39001700  0.79490300  1
  Re  Re11  1  0.60998300  0.00000000  0.79490300  1
  Re  Re12  1  0.00000000  0.60998300  0.79490300  1
  Re  Re13  1  0.60998300  0.60998300  0.29490300  1
  Re  Re14  1  0.39001700  0.00000000  0.29490300  1
  Re  Re15  1  0.00000000  0.39001700  0.29490300  1
  O  O16  1  0.00000000  0.00000000  0.17935000  1
  O  O17  1  0.00000000  0.00000000  0.67935000  1
  O  O18  1  0.29694400  0.29694400  0.61567900  1
  O  O19  1  0.70305600  0.00000000  0.61567900  1
  O  O20  1  0.00000000  0.70305600  0.61567900  1
  O  O21  1  0.70305600  0.70305600  0.11567900  1
  O  O22  1  0.29694400  0.00000000  0.11567900  1
  O  O23  1  0.00000000  0.29694400  0.11567900  1
  O  O24  1  0.57690400  0.44624300  0.75913100  1
  O  O25  1  0.55375700  0.13066100  0.75913100  1
  O  O26  1  0.86933900  0.42309600  0.75913100  1
  O  O27  1  0.44624300  0.57690400  0.75913100  1
  O  O28  1  0.13066100  0.55375700  0.75913100  1
  O  O29  1  0.42309600  0.86933900  0.75913100  1
  O  O30  1  0.42309600  0.55375700  0.25913100  1
  O  O31  1  0.44624300  0.86933900  0.25913100  1
  O  O32  1  0.13066100  0.57690400  0.25913100  1
  O  O33  1  0.55375700  0.42309600  0.25913100  1
  O  O34  1  0.86933900  0.44624300  0.25913100  1
  O  O35  1  0.57690400  0.13066100  0.25913100  1
  O  O36  1  0.38580500  0.25444000  0.93542500  1
  O  O37  1  0.74556000  0.13136500  0.93542500  1
  O  O38  1  0.86863500  0.61419500  0.93542500  1
  O  O39  1  0.25444000  0.38580500  0.93542500  1
  O  O40  1  0.13136500  0.74556000  0.93542500  1
  O  O41  1  0.61419500  0.86863500  0.93542500  1
  O  O42  1  0.61419500  0.74556000  0.43542500  1
  O  O43  1  0.25444000  0.86863500  0.43542500  1
  O  O44  1  0.13136500  0.38580500  0.43542500  1
  O  O45  1  0.74556000  0.61419500  0.43542500  1
  O  O46  1  0.86863500  0.25444000  0.43542500  1
  O  O47  1  0.38580500  0.13136500  0.43542500  1
