# generated using pymatgen
data_Na4Al3Si3B(HO3)4
_symmetry_space_group_name_H-M   'P 1'
_cell_length_a   8.98724700
_cell_length_b   8.98724700
_cell_length_c   8.98724700
_cell_angle_alpha   90.00000000
_cell_angle_beta   90.00000000
_cell_angle_gamma   90.00000000
_symmetry_Int_Tables_number   1
_chemical_formula_structural   Na4Al3Si3B(HO3)4
_chemical_formula_sum   'Na8 Al6 Si6 B2 H8 O24'
_cell_volume   725.90541018
_cell_formula_units_Z   2
loop_
 _symmetry_equiv_pos_site_id
 _symmetry_equiv_pos_as_xyz
  1  'x, y, z'
loop_
 _atom_site_type_symbol
 _atom_site_label
 _atom_site_symmetry_multiplicity
 _atom_site_fract_x
 _atom_site_fract_y
 _atom_site_fract_z
 _atom_site_occupancy
  Na  Na0  1  0.82128700  0.82128700  0.17871300  1
  Na  Na1  1  0.82128700  0.17871300  0.82128700  1
  Na  Na2  1  0.17871300  0.82128700  0.82128700  1
  Na  Na3  1  0.17871300  0.17871300  0.17871300  1
  Na  Na4  1  0.32128700  0.32128700  0.67871300  1
  Na  Na5  1  0.32128700  0.67871300  0.32128700  1
  Na  Na6  1  0.67871300  0.32128700  0.32128700  1
  Na  Na7  1  0.67871300  0.67871300  0.67871300  1
  Al  Al8  1  0.75000000  0.00000000  0.50000000  1
  Al  Al9  1  0.00000000  0.50000000  0.75000000  1
  Al  Al10  1  0.25000000  0.00000000  0.50000000  1
  Al  Al11  1  0.50000000  0.75000000  0.00000000  1
  Al  Al12  1  0.50000000  0.25000000  0.00000000  1
  Al  Al13  1  0.00000000  0.50000000  0.25000000  1
  Si  Si14  1  0.75000000  0.50000000  0.00000000  1
  Si  Si15  1  0.00000000  0.75000000  0.50000000  1
  Si  Si16  1  0.25000000  0.50000000  0.00000000  1
  Si  Si17  1  0.50000000  0.00000000  0.75000000  1
  Si  Si18  1  0.50000000  0.00000000  0.25000000  1
  Si  Si19  1  0.00000000  0.25000000  0.50000000  1
  B  B20  1  0.00000000  0.00000000  0.00000000  1
  B  B21  1  0.50000000  0.50000000  0.50000000  1
  H  H22  1  0.57916000  0.57916000  0.42084000  1
  H  H23  1  0.57916000  0.42084000  0.57916000  1
  H  H24  1  0.07916000  0.07916000  0.92084000  1
  H  H25  1  0.07916000  0.92084000  0.07916000  1
  H  H26  1  0.42084000  0.57916000  0.57916000  1
  H  H27  1  0.42084000  0.42084000  0.42084000  1
  H  H28  1  0.92084000  0.92084000  0.92084000  1
  H  H29  1  0.92084000  0.07916000  0.07916000  1
  O  O30  1  0.56180300  0.86036100  0.14961700  1
  O  O31  1  0.56180300  0.13963900  0.85038300  1
  O  O32  1  0.85038300  0.56180300  0.13963900  1
  O  O33  1  0.85038300  0.43819700  0.86036100  1
  O  O34  1  0.86036100  0.14961700  0.56180300  1
  O  O35  1  0.86036100  0.85038300  0.43819700  1
  O  O36  1  0.06180300  0.35038300  0.63963900  1
  O  O37  1  0.06180300  0.64961700  0.36036100  1
  O  O38  1  0.13963900  0.85038300  0.56180300  1
  O  O39  1  0.13963900  0.14961700  0.43819700  1
  O  O40  1  0.14961700  0.56180300  0.86036100  1
  O  O41  1  0.14961700  0.43819700  0.13963900  1
  O  O42  1  0.35038300  0.36036100  0.93819700  1
  O  O43  1  0.35038300  0.63963900  0.06180300  1
  O  O44  1  0.36036100  0.06180300  0.64961700  1
  O  O45  1  0.36036100  0.93819700  0.35038300  1
  O  O46  1  0.43819700  0.86036100  0.85038300  1
  O  O47  1  0.43819700  0.13963900  0.14961700  1
  O  O48  1  0.63963900  0.06180300  0.35038300  1
  O  O49  1  0.63963900  0.93819700  0.64961700  1
  O  O50  1  0.64961700  0.36036100  0.06180300  1
  O  O51  1  0.64961700  0.63963900  0.93819700  1
  O  O52  1  0.93819700  0.35038300  0.36036100  1
  O  O53  1  0.93819700  0.64961700  0.63963900  1
