# generated using pymatgen
data_Nb12Br17F13
_symmetry_space_group_name_H-M   'P 1'
_cell_length_a   9.84505300
_cell_length_b   9.86370067
_cell_length_c   13.29839774
_cell_angle_alpha   90.26560560
_cell_angle_beta   111.45992190
_cell_angle_gamma   119.81299110
_symmetry_Int_Tables_number   1
_chemical_formula_structural   Nb12Br17F13
_chemical_formula_sum   'Nb12 Br17 F13'
_cell_volume   1014.59749322
_cell_formula_units_Z   1
loop_
 _symmetry_equiv_pos_site_id
 _symmetry_equiv_pos_as_xyz
  1  'x, y, z'
loop_
 _atom_site_type_symbol
 _atom_site_label
 _atom_site_symmetry_multiplicity
 _atom_site_fract_x
 _atom_site_fract_y
 _atom_site_fract_z
 _atom_site_occupancy
  Nb  Nb0  1  0.88309400  0.88224000  0.10124900  1
  Nb  Nb1  1  0.21485600  0.99697100  0.10113300  1
  Nb  Nb2  1  0.09763100  0.21159200  0.09904500  1
  Nb  Nb3  1  0.89959600  0.61592400  0.39903600  1
  Nb  Nb4  1  0.78368100  0.28395700  0.39898400  1
  Nb  Nb5  1  0.11561800  0.49898300  0.39833600  1
  Nb  Nb6  1  0.88459300  0.50100400  0.60121400  1
  Nb  Nb7  1  0.21654300  0.71604900  0.60089200  1
  Nb  Nb8  1  0.10065800  0.38439000  0.60117600  1
  Nb  Nb9  1  0.89952800  0.78266400  0.89924200  1
  Nb  Nb10  1  0.77962900  0.99567400  0.89948700  1
  Nb  Nb11  1  0.11246500  0.11491900  0.90218600  1
  Br  Br12  1  0.25258600  0.25566700  0.75526700  1
  Br  Br13  1  0.74780300  0.49775600  0.74986200  1
  Br  Br14  1  0.49945900  0.00158000  0.75012300  1
  Br  Br15  1  0.72947300  0.58511400  0.99973600  1
  Br  Br16  1  0.41292200  0.14892300  0.00174700  1
  Br  Br17  1  0.85859000  0.27060400  0.99954600  1
  Br  Br18  1  0.73023400  0.64475800  0.50080000  1
  Br  Br19  1  0.14362100  0.91334300  0.49987800  1
  Br  Br20  1  0.58632900  0.23124000  0.49997400  1
  Br  Br21  1  0.41364700  0.76858700  0.49960300  1
  Br  Br22  1  0.85682100  0.08687100  0.50038400  1
  Br  Br23  1  0.26990700  0.35522600  0.49926400  1
  Br  Br24  1  0.14454800  0.72863600  0.99871600  1
  Br  Br25  1  0.58324200  0.85280700  0.00025600  1
  Br  Br26  1  0.50028900  0.99792700  0.24983400  1
  Br  Br27  1  0.25237100  0.50057100  0.24593300  1
  Br  Br28  1  0.74690400  0.74916500  0.25030200  1
  F  F29  1  0.31615100  0.21529900  0.20559400  1
  F  F30  1  0.10480200  0.88927800  0.20875300  1
  F  F31  1  0.68304800  0.39835100  0.29242600  1
  F  F32  1  0.00793600  0.60903100  0.29193400  1
  F  F33  1  0.89468600  0.28456300  0.29168000  1
  F  F34  1  0.99214100  0.10248100  0.20788800  1
  F  F35  1  0.01009100  0.90151800  0.79342700  1
  F  F36  1  0.10533200  0.71560300  0.70809300  1
  F  F37  1  0.99197800  0.39100100  0.70796700  1
  F  F38  1  0.31721100  0.60194000  0.70749100  1
  F  F39  1  0.89513300  0.11184300  0.79530600  1
  F  F40  1  0.68263200  0.78306400  0.79153000  1
  F  F41  1  0.21935300  0.34138400  0.99980700  1
