# generated using pymatgen
data_Ba14Na14LiN6
_symmetry_space_group_name_H-M   'P 1'
_cell_length_a   12.64643083
_cell_length_b   12.64643083
_cell_length_c   12.64643083
_cell_angle_alpha   60.00000000
_cell_angle_beta   60.00000000
_cell_angle_gamma   60.00000000
_symmetry_Int_Tables_number   1
_chemical_formula_structural   Ba14Na14LiN6
_chemical_formula_sum   'Ba14 Na14 Li1 N6'
_cell_volume   1430.17414148
_cell_formula_units_Z   1
loop_
 _symmetry_equiv_pos_site_id
 _symmetry_equiv_pos_as_xyz
  1  'x, y, z'
loop_
 _atom_site_type_symbol
 _atom_site_label
 _atom_site_symmetry_multiplicity
 _atom_site_fract_x
 _atom_site_fract_y
 _atom_site_fract_z
 _atom_site_occupancy
  Ba  Ba0  1  0.89673100  0.30980600  0.89673100  1
  Ba  Ba1  1  0.89673100  0.89673100  0.89673100  1
  Ba  Ba2  1  0.71315200  0.28684800  0.71315200  1
  Ba  Ba3  1  0.28684800  0.28684800  0.71315200  1
  Ba  Ba4  1  0.71315200  0.28684800  0.28684800  1
  Ba  Ba5  1  0.89673100  0.89673100  0.30980600  1
  Ba  Ba6  1  0.28684800  0.71315200  0.71315200  1
  Ba  Ba7  1  0.30980600  0.89673100  0.89673100  1
  Ba  Ba8  1  0.28684800  0.71315200  0.28684800  1
  Ba  Ba9  1  0.10326900  0.10326900  0.10326900  1
  Ba  Ba10  1  0.71315200  0.71315200  0.28684800  1
  Ba  Ba11  1  0.10326900  0.69019400  0.10326900  1
  Ba  Ba12  1  0.69019400  0.10326900  0.10326900  1
  Ba  Ba13  1  0.10326900  0.10326900  0.69019400  1
  Na  Na14  1  0.67092000  0.67092000  0.98724100  1
  Na  Na15  1  0.01275900  0.32908000  0.32908000  1
  Na  Na16  1  0.50000000  0.50000000  0.00000000  1
  Na  Na17  1  0.32908000  0.32908000  0.01275900  1
  Na  Na18  1  0.67092000  0.67092000  0.67092000  1
  Na  Na19  1  0.67092000  0.98724100  0.67092000  1
  Na  Na20  1  0.98724100  0.67092000  0.67092000  1
  Na  Na21  1  0.32908000  0.01275900  0.32908000  1
  Na  Na22  1  0.50000000  0.00000000  0.50000000  1
  Na  Na23  1  0.32908000  0.32908000  0.32908000  1
  Na  Na24  1  0.00000000  0.50000000  0.50000000  1
  Na  Na25  1  0.00000000  0.00000000  0.50000000  1
  Na  Na26  1  0.00000000  0.50000000  0.00000000  1
  Na  Na27  1  0.50000000  0.00000000  0.00000000  1
  Li  Li28  1  0.00000000  0.00000000  0.00000000  1
  N  N29  1  0.14672100  0.85327900  0.14672100  1
  N  N30  1  0.14672100  0.85327900  0.85327900  1
  N  N31  1  0.85327900  0.85327900  0.14672100  1
  N  N32  1  0.85327900  0.14672100  0.85327900  1
  N  N33  1  0.85327900  0.14672100  0.14672100  1
  N  N34  1  0.14672100  0.14672100  0.85327900  1
