# generated using pymatgen
data_YbZn2
_symmetry_space_group_name_H-M   'P 1'
_cell_length_a   5.68922719
_cell_length_b   5.68922719
_cell_length_c   5.68922719
_cell_angle_alpha   132.85302416
_cell_angle_beta   100.98946715
_cell_angle_gamma   97.42633705
_symmetry_Int_Tables_number   1
_chemical_formula_structural   YbZn2
_chemical_formula_sum   'Yb2 Zn4'
_cell_volume   123.64844981
_cell_formula_units_Z   2
loop_
 _symmetry_equiv_pos_site_id
 _symmetry_equiv_pos_as_xyz
  1  'x, y, z'
loop_
 _atom_site_type_symbol
 _atom_site_label
 _atom_site_symmetry_multiplicity
 _atom_site_fract_x
 _atom_site_fract_y
 _atom_site_fract_z
 _atom_site_occupancy
  Yb  Yb0  1  0.70054400  0.45054400  0.25000000  1
  Yb  Yb1  1  0.29945600  0.54945600  0.75000000  1
  Zn  Zn2  1  0.72422300  0.16417900  0.56004400  1
  Zn  Zn3  1  0.27577700  0.83582100  0.43995600  1
  Zn  Zn4  1  0.10413500  0.16417900  0.93995600  1
  Zn  Zn5  1  0.89586500  0.83582100  0.06004400  1
