# generated using pymatgen
data_K2Ta2(OF2)3
_symmetry_space_group_name_H-M   'P 1'
_cell_length_a   5.68397300
_cell_length_b   10.42909200
_cell_length_c   14.77338900
_cell_angle_alpha   90.00000000
_cell_angle_beta   90.00000000
_cell_angle_gamma   90.00000000
_symmetry_Int_Tables_number   1
_chemical_formula_structural   K2Ta2(OF2)3
_chemical_formula_sum   'K8 Ta8 O12 F24'
_cell_volume   875.74695979
_cell_formula_units_Z   4
loop_
 _symmetry_equiv_pos_site_id
 _symmetry_equiv_pos_as_xyz
  1  'x, y, z'
loop_
 _atom_site_type_symbol
 _atom_site_label
 _atom_site_symmetry_multiplicity
 _atom_site_fract_x
 _atom_site_fract_y
 _atom_site_fract_z
 _atom_site_occupancy
  K  K0  1  0.25000000  0.24276400  0.20929600  1
  K  K1  1  0.75000000  0.75723600  0.79070400  1
  K  K2  1  0.25000000  0.74276400  0.29070400  1
  K  K3  1  0.75000000  0.25723600  0.70929600  1
  K  K4  1  0.25000000  0.44268600  0.89873500  1
  K  K5  1  0.75000000  0.55731400  0.10126500  1
  K  K6  1  0.25000000  0.94268600  0.60126500  1
  K  K7  1  0.75000000  0.05731400  0.39873500  1
  Ta  Ta8  1  0.25000000  0.28289400  0.49150900  1
  Ta  Ta9  1  0.75000000  0.71710600  0.50849100  1
  Ta  Ta10  1  0.25000000  0.78289400  0.00849100  1
  Ta  Ta11  1  0.75000000  0.21710600  0.99150900  1
  Ta  Ta12  1  0.25000000  0.06572300  0.85253700  1
  Ta  Ta13  1  0.75000000  0.93427700  0.14746300  1
  Ta  Ta14  1  0.25000000  0.56572300  0.64746300  1
  Ta  Ta15  1  0.75000000  0.43427700  0.35253700  1
  O  O16  1  0.50087600  0.86746300  0.07187100  1
  O  O17  1  0.00087600  0.13253700  0.92812900  1
  O  O18  1  0.99912400  0.36746300  0.42812900  1
  O  O19  1  0.49912400  0.63253700  0.57187100  1
  O  O20  1  0.49912400  0.13253700  0.92812900  1
  O  O21  1  0.99912400  0.86746300  0.07187100  1
  O  O22  1  0.00087600  0.63253700  0.57187100  1
  O  O23  1  0.50087600  0.36746300  0.42812900  1
  O  O24  1  0.25000000  0.39703700  0.59416300  1
  O  O25  1  0.75000000  0.60296300  0.40583700  1
  O  O26  1  0.25000000  0.89703700  0.90583700  1
  O  O27  1  0.75000000  0.10296300  0.09416300  1
  F  F28  1  0.25000000  0.14756000  0.39526400  1
  F  F29  1  0.75000000  0.85244000  0.60473600  1
  F  F30  1  0.25000000  0.64756000  0.10473600  1
  F  F31  1  0.75000000  0.35244000  0.89526400  1
  F  F32  1  0.75000000  0.26700800  0.28549300  1
  F  F33  1  0.25000000  0.73299200  0.71450700  1
  F  F34  1  0.75000000  0.76700800  0.21450700  1
  F  F35  1  0.25000000  0.23299200  0.78549300  1
  F  F36  1  0.51469600  0.48696800  0.26045200  1
  F  F37  1  0.01469600  0.51303200  0.73954800  1
  F  F38  1  0.98530400  0.98696800  0.23954800  1
  F  F39  1  0.48530400  0.01303200  0.76045200  1
  F  F40  1  0.48530400  0.51303200  0.73954800  1
  F  F41  1  0.98530400  0.48696800  0.26045200  1
  F  F42  1  0.01469600  0.01303200  0.76045200  1
  F  F43  1  0.51469600  0.98696800  0.23954800  1
  F  F44  1  0.51624800  0.33263800  0.05230800  1
  F  F45  1  0.01624800  0.66736200  0.94769200  1
  F  F46  1  0.98375200  0.83263800  0.44769200  1
  F  F47  1  0.48375200  0.16736200  0.55230800  1
  F  F48  1  0.48375200  0.66736200  0.94769200  1
  F  F49  1  0.98375200  0.33263800  0.05230800  1
  F  F50  1  0.01624800  0.16736200  0.55230800  1
  F  F51  1  0.51624800  0.83263800  0.44769200  1
