# generated using pymatgen
data_K2CoH4(SeO5)2
_symmetry_space_group_name_H-M   'P 1'
_cell_length_a   8.03382483
_cell_length_b   15.23730909
_cell_length_c   9.02110826
_cell_angle_alpha   92.49570060
_cell_angle_beta   110.33067127
_cell_angle_gamma   99.52481947
_symmetry_Int_Tables_number   1
_chemical_formula_structural   K2CoH4(SeO5)2
_chemical_formula_sum   'K8 Co4 H16 Se8 O40'
_cell_volume   1015.12477010
_cell_formula_units_Z   4
loop_
 _symmetry_equiv_pos_site_id
 _symmetry_equiv_pos_as_xyz
  1  'x, y, z'
loop_
 _atom_site_type_symbol
 _atom_site_label
 _atom_site_symmetry_multiplicity
 _atom_site_fract_x
 _atom_site_fract_y
 _atom_site_fract_z
 _atom_site_occupancy
  K  K0  1  0.66362100  0.17463100  0.92436300  1
  K  K1  1  0.16363400  0.42477600  0.42435600  1
  K  K2  1  0.66368100  0.67474700  0.92434700  1
  K  K3  1  0.16382600  0.92484300  0.42440100  1
  K  K4  1  0.83647900  0.07522800  0.57585000  1
  K  K5  1  0.33611400  0.32519800  0.07537200  1
  K  K6  1  0.83629700  0.57526700  0.57564900  1
  K  K7  1  0.33635400  0.82531100  0.07566700  1
  Co  Co8  1  0.00018900  0.50003200  0.00011200  1
  Co  Co9  1  0.49980500  0.74998900  0.49990600  1
  Co  Co10  1  0.99996700  0.00005800  0.00003400  1
  Co  Co11  1  0.50002600  0.24991200  0.49993500  1
  H  H12  1  0.69507900  0.26878200  0.31162700  1
  H  H13  1  0.19472000  0.51874000  0.81181400  1
  H  H14  1  0.69467900  0.76874300  0.31173300  1
  H  H15  1  0.19518700  0.01876700  0.81159800  1
  H  H16  1  0.80488600  0.98123400  0.18841900  1
  H  H17  1  0.30484100  0.23121000  0.68835700  1
  H  H18  1  0.80530900  0.48125800  0.18827000  1
  H  H19  1  0.30531000  0.73127000  0.68819100  1
  H  H20  1  0.23406500  0.10344300  0.92856100  1
  H  H21  1  0.73405300  0.35348700  0.42863900  1
  H  H22  1  0.23414400  0.60354400  0.92895700  1
  H  H23  1  0.73391800  0.85355800  0.42877800  1
  H  H24  1  0.26583700  0.14649400  0.57140200  1
  H  H25  1  0.76606300  0.39645100  0.07119800  1
  H  H26  1  0.26586300  0.64645800  0.57104600  1
  H  H27  1  0.76605500  0.89656800  0.07142600  1
  Se  Se28  1  0.44978600  0.07130800  0.22321500  1
  Se  Se29  1  0.94972800  0.32142400  0.72320900  1
  Se  Se30  1  0.44961300  0.57146000  0.22311500  1
  Se  Se31  1  0.94942500  0.82151700  0.72301100  1
  Se  Se32  1  0.05024400  0.17859800  0.27680900  1
  Se  Se33  1  0.55055500  0.42854200  0.77700700  1
  Se  Se34  1  0.05039300  0.67854600  0.27689300  1
  Se  Se35  1  0.55025200  0.92861100  0.77673900  1
  O  O36  1  0.25735900  0.99238100  0.17004800  1
  O  O37  1  0.75714900  0.24250300  0.66981600  1
  O  O38  1  0.25676500  0.49267000  0.16901200  1
  O  O39  1  0.75654200  0.74279800  0.66904800  1
  O  O40  1  0.24267200  0.25753200  0.33013700  1
  O  O41  1  0.74347200  0.50723900  0.83102700  1
  O  O42  1  0.24326400  0.75732600  0.33100700  1
  O  O43  1  0.74277000  0.00754600  0.82988700  1
  O  O44  1  0.49054700  0.11879200  0.40845400  1
  O  O45  1  0.99067400  0.36869400  0.90840400  1
  O  O46  1  0.49070100  0.61860500  0.40838600  1
  O  O47  1  0.99027600  0.86895600  0.90833400  1
  O  O48  1  0.00949300  0.13108000  0.09157000  1
  O  O49  1  0.50972000  0.38118100  0.59164600  1
  O  O50  1  0.00930400  0.63140500  0.09162700  1
  O  O51  1  0.50928300  0.88128400  0.59157700  1
  O  O52  1  0.42675900  0.14772500  0.09255400  1
  O  O53  1  0.92677100  0.39781700  0.59241400  1
  O  O54  1  0.42694800  0.64788500  0.09240200  1
  O  O55  1  0.92681500  0.89790200  0.59229400  1
  O  O56  1  0.07316700  0.10221100  0.40751700  1
  O  O57  1  0.57315600  0.35209300  0.90762700  1
  O  O58  1  0.07307600  0.60212400  0.40762100  1
  O  O59  1  0.57331800  0.85224600  0.90757300  1
  O  O60  1  0.61806600  0.01880800  0.23373100  1
  O  O61  1  0.11782500  0.26876600  0.73355100  1
  O  O62  1  0.61747000  0.51861000  0.23355700  1
  O  O63  1  0.11728300  0.76870700  0.73359900  1
  O  O64  1  0.88203300  0.23117300  0.26614900  1
  O  O65  1  0.38267900  0.48132200  0.76651500  1
  O  O66  1  0.88254200  0.73138700  0.26647300  1
  O  O67  1  0.38209900  0.98122500  0.76643000  1
  O  O68  1  0.13166900  0.05992000  0.84915000  1
  O  O69  1  0.63162000  0.30989200  0.34930800  1
  O  O70  1  0.13165600  0.55988600  0.84985200  1
  O  O71  1  0.63150700  0.80982000  0.34977900  1
  O  O72  1  0.36828500  0.19010800  0.65063300  1
  O  O73  1  0.86846900  0.44016600  0.15024600  1
  O  O74  1  0.36835600  0.69011300  0.65013500  1
  O  O75  1  0.86844100  0.94010000  0.15090200  1
