# generated using pymatgen
data_Na2Co5Mo4(ClO4)4
_symmetry_space_group_name_H-M   'P 1'
_cell_length_a   8.94095647
_cell_length_b   10.86885746
_cell_length_c   11.25590852
_cell_angle_alpha   81.24328696
_cell_angle_beta   113.48185376
_cell_angle_gamma   90.02340090
_symmetry_Int_Tables_number   1
_chemical_formula_structural   Na2Co5Mo4(ClO4)4
_chemical_formula_sum   'Na4 Co10 Mo8 Cl8 O32'
_cell_volume   989.35582510
_cell_formula_units_Z   2
loop_
 _symmetry_equiv_pos_site_id
 _symmetry_equiv_pos_as_xyz
  1  'x, y, z'
loop_
 _atom_site_type_symbol
 _atom_site_label
 _atom_site_symmetry_multiplicity
 _atom_site_fract_x
 _atom_site_fract_y
 _atom_site_fract_z
 _atom_site_occupancy
  Na  Na0  1  0.74332000  0.58420000  0.48852500  1
  Na  Na1  1  0.24573800  0.08359300  0.48921300  1
  Na  Na2  1  0.75445300  0.91583400  0.51136800  1
  Na  Na3  1  0.25619400  0.41648100  0.51063400  1
  Co  Co4  1  0.74766600  0.25015900  0.50010200  1
  Co  Co5  1  0.11137600  0.33113000  0.86378600  1
  Co  Co6  1  0.25234700  0.83088300  0.86419900  1
  Co  Co7  1  0.88843200  0.66915400  0.13548200  1
  Co  Co8  1  0.74771900  0.16901200  0.13613700  1
  Co  Co9  1  0.25059600  0.75015800  0.50011600  1
  Co  Co10  1  0.61137000  0.82968900  0.86588800  1
  Co  Co11  1  0.75411400  0.32925200  0.86562700  1
  Co  Co12  1  0.38887000  0.17076200  0.13454300  1
  Co  Co13  1  0.24593700  0.67062700  0.13471900  1
  Mo  Mo14  1  0.59671900  0.44488500  0.19425200  1
  Mo  Mo15  1  0.09845900  0.94481100  0.19421500  1
  Mo  Mo16  1  0.90184300  0.05509400  0.80585000  1
  Mo  Mo17  1  0.40381700  0.55537600  0.80568000  1
  Mo  Mo18  1  0.57585500  0.87224300  0.15215000  1
  Mo  Mo19  1  0.07654300  0.37194400  0.15227700  1
  Mo  Mo20  1  0.92326200  0.62776700  0.84757500  1
  Mo  Mo21  1  0.42370600  0.12794400  0.84782800  1
  Cl  Cl22  1  0.38346100  0.65028700  0.37502900  1
  Cl  Cl23  1  0.88240600  0.15125900  0.37436200  1
  Cl  Cl24  1  0.11796800  0.84827500  0.62611600  1
  Cl  Cl25  1  0.61664600  0.34807200  0.62562400  1
  Cl  Cl26  1  0.50864800  0.84867500  0.62504400  1
  Cl  Cl27  1  0.00761400  0.34891000  0.62538400  1
  Cl  Cl28  1  0.99210700  0.65179000  0.37375100  1
  Cl  Cl29  1  0.49172700  0.15152100  0.37479600  1
  O  O30  1  0.68673300  0.41375400  0.37078400  1
  O  O31  1  0.18534000  0.91357700  0.37072400  1
  O  O32  1  0.81382100  0.08619000  0.62937600  1
  O  O33  1  0.31306200  0.58635100  0.62920200  1
  O  O34  1  0.56520900  0.29613800  0.13072400  1
  O  O35  1  0.06545500  0.79623900  0.13041200  1
  O  O36  1  0.93431100  0.20383400  0.86928300  1
  O  O37  1  0.43468900  0.70418200  0.86917800  1
  O  O38  1  0.56361000  0.04443400  0.12725500  1
  O  O39  1  0.06415300  0.54413600  0.12724700  1
  O  O40  1  0.93632200  0.45554000  0.87264100  1
  O  O41  1  0.43614200  0.95577200  0.87298500  1
  O  O42  1  0.66092300  0.81914200  0.32150900  1
  O  O43  1  0.16080500  0.31877400  0.32162500  1
  O  O44  1  0.83891700  0.68092300  0.67820500  1
  O  O45  1  0.33848200  0.18099700  0.67845600  1
  O  O46  1  0.37626600  0.81000500  0.08259400  1
  O  O47  1  0.87726700  0.30965700  0.08261600  1
  O  O48  1  0.79345500  0.68957400  0.91721700  1
  O  O49  1  0.29427800  0.19047400  0.91725200  1
  O  O50  1  0.70567300  0.81010000  0.08288900  1
  O  O51  1  0.20651400  0.31014300  0.08278900  1
  O  O52  1  0.12235900  0.69025000  0.91711400  1
  O  O53  1  0.62350100  0.18975300  0.91732100  1
  O  O54  1  0.23656100  0.03390700  0.14442200  1
  O  O55  1  0.73183600  0.53567500  0.14203700  1
  O  O56  1  0.91143900  0.03581300  0.14225100  1
  O  O57  1  0.40904100  0.53427500  0.14434200  1
  O  O58  1  0.26914900  0.46436100  0.85801600  1
  O  O59  1  0.76481400  0.96538300  0.85658600  1
  O  O60  1  0.59172300  0.46623400  0.85530000  1
  O  O61  1  0.08924100  0.96462400  0.85737600  1
