# generated using pymatgen
data_Ca3Cu3(PO4)4
_symmetry_space_group_name_H-M   'P 1'
_cell_length_a   4.96732400
_cell_length_b   9.02639000
_cell_length_c   16.66487343
_cell_angle_alpha   62.22498612
_cell_angle_beta   90.00000000
_cell_angle_gamma   90.00000000
_symmetry_Int_Tables_number   1
_chemical_formula_structural   Ca3Cu3(PO4)4
_chemical_formula_sum   'Ca6 Cu6 P8 O32'
_cell_volume   661.11345893
_cell_formula_units_Z   2
loop_
 _symmetry_equiv_pos_site_id
 _symmetry_equiv_pos_as_xyz
  1  'x, y, z'
loop_
 _atom_site_type_symbol
 _atom_site_label
 _atom_site_symmetry_multiplicity
 _atom_site_fract_x
 _atom_site_fract_y
 _atom_site_fract_z
 _atom_site_occupancy
  Ca  Ca0  1  0.46971900  0.19920800  0.26532800  1
  Ca  Ca1  1  0.96971900  0.80079200  0.23467200  1
  Ca  Ca2  1  0.53028100  0.80079200  0.73467200  1
  Ca  Ca3  1  0.03028100  0.19920800  0.76532800  1
  Ca  Ca4  1  0.00000000  0.50000000  0.50000000  1
  Ca  Ca5  1  0.50000000  0.50000000  0.00000000  1
  Cu  Cu6  1  0.46954300  0.70798100  0.12007300  1
  Cu  Cu7  1  0.96954300  0.29201900  0.37992700  1
  Cu  Cu8  1  0.53045700  0.29201900  0.87992700  1
  Cu  Cu9  1  0.03045700  0.70798100  0.62007300  1
  Cu  Cu10  1  0.00000000  0.00000000  0.00000000  1
  Cu  Cu11  1  0.50000000  0.00000000  0.50000000  1
  P  P12  1  0.01252200  0.53758800  0.84010400  1
  P  P13  1  0.51252200  0.46241200  0.65989600  1
  P  P14  1  0.98747800  0.46241200  0.15989600  1
  P  P15  1  0.48747800  0.53758800  0.34010400  1
  P  P16  1  0.99122700  0.06364800  0.59365300  1
  P  P17  1  0.49122700  0.93635200  0.90634700  1
  P  P18  1  0.00877300  0.93635200  0.40634700  1
  P  P19  1  0.50877300  0.06364800  0.09365300  1
  O  O20  1  0.95904400  0.67957900  0.74009900  1
  O  O21  1  0.45904400  0.32042100  0.75990100  1
  O  O22  1  0.04095600  0.32042100  0.25990100  1
  O  O23  1  0.54095600  0.67957900  0.24009900  1
  O  O24  1  0.17882200  0.53440800  0.35713700  1
  O  O25  1  0.67882200  0.46559200  0.14286300  1
  O  O26  1  0.82117800  0.46559200  0.64286300  1
  O  O27  1  0.32117800  0.53440800  0.85713700  1
  O  O28  1  0.92301500  0.36386300  0.84999900  1
  O  O29  1  0.42301500  0.63613700  0.65000100  1
  O  O30  1  0.07698500  0.63613700  0.15000100  1
  O  O31  1  0.57698500  0.36386300  0.34999900  1
  O  O32  1  0.85141500  0.59198100  0.89962200  1
  O  O33  1  0.35141500  0.40801900  0.60037800  1
  O  O34  1  0.14858500  0.40801900  0.10037800  1
  O  O35  1  0.64858500  0.59198100  0.39962200  1
  O  O36  1  0.80826200  0.92862800  0.58225900  1
  O  O37  1  0.30826200  0.07137200  0.91774100  1
  O  O38  1  0.19173800  0.07137200  0.41774100  1
  O  O39  1  0.69173800  0.92862800  0.08225900  1
  O  O40  1  0.59349900  0.06711100  0.18040400  1
  O  O41  1  0.09349900  0.93288900  0.31959600  1
  O  O42  1  0.40650100  0.93288900  0.81959600  1
  O  O43  1  0.90650100  0.06711100  0.68040400  1
  O  O44  1  0.94455100  0.23524400  0.50907600  1
  O  O45  1  0.44455100  0.76475600  0.99092400  1
  O  O46  1  0.05544900  0.76475600  0.49092400  1
  O  O47  1  0.55544900  0.23524400  0.00907600  1
  O  O48  1  0.21105600  0.00227400  0.10041900  1
  O  O49  1  0.71105600  0.99772600  0.39958100  1
  O  O50  1  0.78894400  0.99772600  0.89958100  1
  O  O51  1  0.28894400  0.00227400  0.60041900  1
