# generated using pymatgen
data_TbCuPbSe3
_symmetry_space_group_name_H-M   'P 1'
_cell_length_a   4.06965800
_cell_length_b   10.67910300
_cell_length_c   13.64011200
_cell_angle_alpha   90.00000000
_cell_angle_beta   90.00000000
_cell_angle_gamma   90.00000000
_symmetry_Int_Tables_number   1
_chemical_formula_structural   TbCuPbSe3
_chemical_formula_sum   'Tb4 Cu4 Pb4 Se12'
_cell_volume   592.80331804
_cell_formula_units_Z   4
loop_
 _symmetry_equiv_pos_site_id
 _symmetry_equiv_pos_as_xyz
  1  'x, y, z'
loop_
 _atom_site_type_symbol
 _atom_site_label
 _atom_site_symmetry_multiplicity
 _atom_site_fract_x
 _atom_site_fract_y
 _atom_site_fract_z
 _atom_site_occupancy
  Tb  Tb0  1  0.25000000  0.48629700  0.74172000  1
  Tb  Tb1  1  0.75000000  0.01370300  0.24172000  1
  Tb  Tb2  1  0.25000000  0.98629700  0.75828000  1
  Tb  Tb3  1  0.75000000  0.51370300  0.25828000  1
  Cu  Cu4  1  0.75000000  0.74177400  0.78060900  1
  Cu  Cu5  1  0.25000000  0.75822600  0.28060900  1
  Cu  Cu6  1  0.75000000  0.24177400  0.71939100  1
  Cu  Cu7  1  0.25000000  0.25822600  0.21939100  1
  Pb  Pb8  1  0.25000000  0.72488800  0.99591900  1
  Pb  Pb9  1  0.75000000  0.27511200  0.00408100  1
  Pb  Pb10  1  0.75000000  0.77511200  0.49591900  1
  Pb  Pb11  1  0.25000000  0.22488800  0.50408100  1
  Se  Se12  1  0.25000000  0.44843400  0.11442600  1
  Se  Se13  1  0.75000000  0.41668900  0.60426600  1
  Se  Se14  1  0.25000000  0.08331100  0.10426600  1
  Se  Se15  1  0.75000000  0.55156600  0.88557400  1
  Se  Se16  1  0.25000000  0.94843400  0.38557400  1
  Se  Se17  1  0.25000000  0.58331100  0.39573400  1
  Se  Se18  1  0.75000000  0.76020400  0.17163200  1
  Se  Se19  1  0.75000000  0.05156600  0.61442600  1
  Se  Se20  1  0.75000000  0.91668900  0.89573400  1
  Se  Se21  1  0.75000000  0.26020400  0.32836800  1
  Se  Se22  1  0.25000000  0.23979600  0.82836800  1
  Se  Se23  1  0.25000000  0.73979600  0.67163200  1
