# generated using pymatgen
data_Ta3Ge
_symmetry_space_group_name_H-M   'P 1'
_cell_length_a   10.34020900
_cell_length_b   10.34020900
_cell_length_c   5.24800600
_cell_angle_alpha   90.00000000
_cell_angle_beta   90.00000000
_cell_angle_gamma   90.00000000
_symmetry_Int_Tables_number   1
_chemical_formula_structural   Ta3Ge
_chemical_formula_sum   'Ta24 Ge8'
_cell_volume   561.11639303
_cell_formula_units_Z   8
loop_
 _symmetry_equiv_pos_site_id
 _symmetry_equiv_pos_as_xyz
  1  'x, y, z'
loop_
 _atom_site_type_symbol
 _atom_site_label
 _atom_site_symmetry_multiplicity
 _atom_site_fract_x
 _atom_site_fract_y
 _atom_site_fract_z
 _atom_site_occupancy
  Ta  Ta0  1  0.51622200  0.64899300  0.72683000  1
  Ta  Ta1  1  0.14899300  0.98377800  0.22683000  1
  Ta  Ta2  1  0.09752000  0.41434700  0.52744200  1
  Ta  Ta3  1  0.41434700  0.90248000  0.47255800  1
  Ta  Ta4  1  0.71247100  0.81073600  0.48860300  1
  Ta  Ta5  1  0.68926400  0.21247100  0.98860300  1
  Ta  Ta6  1  0.98377800  0.85100700  0.77317000  1
  Ta  Ta7  1  0.18926400  0.71247100  0.51139700  1
  Ta  Ta8  1  0.08565300  0.59752000  0.02744200  1
  Ta  Ta9  1  0.01622200  0.14899300  0.77317000  1
  Ta  Ta10  1  0.48377800  0.35100700  0.72683000  1
  Ta  Ta11  1  0.31073600  0.78752900  0.98860300  1
  Ta  Ta12  1  0.64899300  0.48377800  0.27317000  1
  Ta  Ta13  1  0.40248000  0.08565300  0.97255800  1
  Ta  Ta14  1  0.21247100  0.31073600  0.01139700  1
  Ta  Ta15  1  0.35100700  0.51622200  0.27317000  1
  Ta  Ta16  1  0.85100700  0.01622200  0.22683000  1
  Ta  Ta17  1  0.91434700  0.40248000  0.02744200  1
  Ta  Ta18  1  0.78752900  0.68926400  0.01139700  1
  Ta  Ta19  1  0.59752000  0.91434700  0.97255800  1
  Ta  Ta20  1  0.58565300  0.09752000  0.47255800  1
  Ta  Ta21  1  0.81073600  0.28752900  0.51139700  1
  Ta  Ta22  1  0.28752900  0.18926400  0.48860300  1
  Ta  Ta23  1  0.90248000  0.58565300  0.52744200  1
  Ge  Ge24  1  0.97387100  0.79557500  0.27627600  1
  Ge  Ge25  1  0.29557500  0.52612900  0.77627600  1
  Ge  Ge26  1  0.79557500  0.02612900  0.72372400  1
  Ge  Ge27  1  0.70442500  0.47387100  0.77627600  1
  Ge  Ge28  1  0.20442500  0.97387100  0.72372400  1
  Ge  Ge29  1  0.47387100  0.29557500  0.22372400  1
  Ge  Ge30  1  0.02612900  0.20442500  0.27627600  1
  Ge  Ge31  1  0.52612900  0.70442500  0.22372400  1
