# generated using pymatgen
data_Ce2Si2O7
_symmetry_space_group_name_H-M   'P 1'
_cell_length_a   8.82494100
_cell_length_b   5.46591400
_cell_length_c   14.36105501
_cell_angle_alpha   67.75449860
_cell_angle_beta   90.00000000
_cell_angle_gamma   90.00000000
_symmetry_Int_Tables_number   1
_chemical_formula_structural   Ce2Si2O7
_chemical_formula_sum   'Ce8 Si8 O28'
_cell_volume   641.16576991
_cell_formula_units_Z   4
loop_
 _symmetry_equiv_pos_site_id
 _symmetry_equiv_pos_as_xyz
  1  'x, y, z'
loop_
 _atom_site_type_symbol
 _atom_site_label
 _atom_site_symmetry_multiplicity
 _atom_site_fract_x
 _atom_site_fract_y
 _atom_site_fract_z
 _atom_site_occupancy
  Ce  Ce0  1  0.89266500  0.34726900  0.91085100  1
  Ce  Ce1  1  0.69344700  0.02321200  0.73264700  1
  Ce  Ce2  1  0.60733500  0.34726900  0.41085100  1
  Ce  Ce3  1  0.30655300  0.97678800  0.26735300  1
  Ce  Ce4  1  0.10733500  0.65273100  0.08914900  1
  Ce  Ce5  1  0.39266500  0.65273100  0.58914900  1
  Ce  Ce6  1  0.19344700  0.97678800  0.76735300  1
  Ce  Ce7  1  0.80655300  0.02321200  0.23264700  1
  Si  Si8  1  0.49342800  0.41198600  0.82033700  1
  Si  Si9  1  0.25517400  0.29349200  0.47310000  1
  Si  Si10  1  0.00657200  0.41198600  0.32033700  1
  Si  Si11  1  0.75517400  0.70650800  0.02690000  1
  Si  Si12  1  0.99342800  0.58801400  0.67966300  1
  Si  Si13  1  0.50657200  0.58801400  0.17966300  1
  Si  Si14  1  0.74482600  0.70650800  0.52690000  1
  Si  Si15  1  0.24482600  0.29349200  0.97310000  1
  O  O16  1  0.07803100  0.32950400  0.43447100  1
  O  O17  1  0.58212000  0.75782300  0.24155600  1
  O  O18  1  0.35464200  0.57311500  0.42067300  1
  O  O19  1  0.64535800  0.42688500  0.57932700  1
  O  O20  1  0.76690300  0.77219800  0.90599900  1
  O  O21  1  0.08212000  0.24217700  0.25844400  1
  O  O22  1  0.14535800  0.57311500  0.92067300  1
  O  O23  1  0.96578400  0.26989400  0.74655000  1
  O  O24  1  0.57803100  0.67049600  0.06552900  1
  O  O25  1  0.41788000  0.24217700  0.75844400  1
  O  O26  1  0.23309700  0.22780200  0.09400100  1
  O  O27  1  0.67349000  0.33423400  0.82693400  1
  O  O28  1  0.65391500  0.92847500  0.55894500  1
  O  O29  1  0.85464200  0.42688500  0.07932700  1
  O  O30  1  0.46578400  0.73010600  0.75345000  1
  O  O31  1  0.53421600  0.26989400  0.24655000  1
  O  O32  1  0.15391500  0.07152500  0.94105500  1
  O  O33  1  0.34608500  0.07152500  0.44105500  1
  O  O34  1  0.92196900  0.67049600  0.56552900  1
  O  O35  1  0.73309700  0.77219800  0.40600000  1
  O  O36  1  0.32651000  0.66576600  0.17306600  1
  O  O37  1  0.17349000  0.66576600  0.67306600  1
  O  O38  1  0.42196900  0.32950400  0.93447100  1
  O  O39  1  0.26690300  0.22780200  0.59400100  1
  O  O40  1  0.82651000  0.33423400  0.32693400  1
  O  O41  1  0.91788000  0.75782300  0.74155600  1
  O  O42  1  0.84608500  0.92847500  0.05894500  1
  O  O43  1  0.03421600  0.73010600  0.25345000  1
