# generated using pymatgen
data_CeMg2H7
_symmetry_space_group_name_H-M   'P 1'
_cell_length_a   6.27724900
_cell_length_b   6.27724900
_cell_length_c   9.37159300
_cell_angle_alpha   90.00000000
_cell_angle_beta   90.00000000
_cell_angle_gamma   90.00000000
_symmetry_Int_Tables_number   1
_chemical_formula_structural   CeMg2H7
_chemical_formula_sum   'Ce4 Mg8 H28'
_cell_volume   369.27689177
_cell_formula_units_Z   4
loop_
 _symmetry_equiv_pos_site_id
 _symmetry_equiv_pos_as_xyz
  1  'x, y, z'
loop_
 _atom_site_type_symbol
 _atom_site_label
 _atom_site_symmetry_multiplicity
 _atom_site_fract_x
 _atom_site_fract_y
 _atom_site_fract_z
 _atom_site_occupancy
  Ce  Ce0  1  0.76890300  0.23109700  0.75000000  1
  Ce  Ce1  1  0.23109700  0.76890300  0.25000000  1
  Ce  Ce2  1  0.73109700  0.73109700  0.50000000  1
  Ce  Ce3  1  0.26890300  0.26890300  0.00000000  1
  Mg  Mg4  1  0.52725300  0.23770100  0.39825200  1
  Mg  Mg5  1  0.47274700  0.76229900  0.89825200  1
  Mg  Mg6  1  0.73770100  0.97274700  0.14825200  1
  Mg  Mg7  1  0.26229900  0.02725300  0.64825200  1
  Mg  Mg8  1  0.76229900  0.47274700  0.10174800  1
  Mg  Mg9  1  0.23770100  0.52725300  0.60174800  1
  Mg  Mg10  1  0.97274700  0.73770100  0.85174800  1
  Mg  Mg11  1  0.02725300  0.26229900  0.35174800  1
  H  H12  1  0.53911400  0.46931900  0.62173800  1
  H  H13  1  0.46088600  0.53068100  0.12173800  1
  H  H14  1  0.96931900  0.96088600  0.37173800  1
  H  H15  1  0.03068100  0.03911400  0.87173800  1
  H  H16  1  0.53068100  0.46088600  0.87826200  1
  H  H17  1  0.46931900  0.53911400  0.37826200  1
  H  H18  1  0.96088600  0.96931900  0.62826200  1
  H  H19  1  0.03911400  0.03068100  0.12826200  1
  H  H20  1  0.57903800  0.06379600  0.56992400  1
  H  H21  1  0.42096200  0.93620400  0.06992400  1
  H  H22  1  0.56379600  0.92096200  0.31992400  1
  H  H23  1  0.43620400  0.07903800  0.81992400  1
  H  H24  1  0.93620400  0.42096200  0.93007600  1
  H  H25  1  0.06379600  0.57903800  0.43007600  1
  H  H26  1  0.92096200  0.56379600  0.68007600  1
  H  H27  1  0.07903800  0.43620400  0.18007600  1
  H  H28  1  0.80640900  0.34501100  0.49815400  1
  H  H29  1  0.19359100  0.65498900  0.99815400  1
  H  H30  1  0.84501100  0.69359100  0.24815400  1
  H  H31  1  0.15498900  0.30640900  0.74815400  1
  H  H32  1  0.65498900  0.19359100  0.00184600  1
  H  H33  1  0.34501100  0.80640900  0.50184600  1
  H  H34  1  0.69359100  0.84501100  0.75184600  1
  H  H35  1  0.30640900  0.15498900  0.25184600  1
  H  H36  1  0.25523000  0.74477000  0.75000000  1
  H  H37  1  0.74477000  0.25523000  0.25000000  1
  H  H38  1  0.24477000  0.24477000  0.50000000  1
  H  H39  1  0.75523000  0.75523000  0.00000000  1
