# generated using pymatgen
data_Ba2MgH6
_symmetry_space_group_name_H-M   'P 1'
_cell_length_a   5.73581791
_cell_length_b   5.73581791
_cell_length_c   4.54289400
_cell_angle_alpha   90.00000000
_cell_angle_beta   90.00000000
_cell_angle_gamma   119.99999901
_symmetry_Int_Tables_number   1
_chemical_formula_structural   Ba2MgH6
_chemical_formula_sum   'Ba2 Mg1 H6'
_cell_volume   129.43566268
_cell_formula_units_Z   1
loop_
 _symmetry_equiv_pos_site_id
 _symmetry_equiv_pos_as_xyz
  1  'x, y, z'
loop_
 _atom_site_type_symbol
 _atom_site_label
 _atom_site_symmetry_multiplicity
 _atom_site_fract_x
 _atom_site_fract_y
 _atom_site_fract_z
 _atom_site_occupancy
  Ba  Ba0  1  0.66666700  0.33333300  0.26609600  1
  Ba  Ba1  1  0.33333300  0.66666700  0.73390400  1
  Mg  Mg2  1  0.00000000  0.00000000  0.00000000  1
  H  H3  1  0.82867800  0.65735600  0.77589900  1
  H  H4  1  0.82867800  0.17132200  0.77589900  1
  H  H5  1  0.34264400  0.17132200  0.77589900  1
  H  H6  1  0.17132200  0.34264400  0.22410100  1
  H  H7  1  0.17132200  0.82867800  0.22410100  1
  H  H8  1  0.65735600  0.82867800  0.22410100  1
