# generated using pymatgen
data_CsRe6Se8I3
_symmetry_space_group_name_H-M   'P 1'
_cell_length_a   20.04158000
_cell_length_b   6.67504500
_cell_length_c   16.66041821
_cell_angle_alpha   73.41775442
_cell_angle_beta   90.00000000
_cell_angle_gamma   90.00000000
_symmetry_Int_Tables_number   1
_chemical_formula_structural   CsRe6Se8I3
_chemical_formula_sum   'Cs4 Re24 Se32 I12'
_cell_volume   2136.11125394
_cell_formula_units_Z   4
loop_
 _symmetry_equiv_pos_site_id
 _symmetry_equiv_pos_as_xyz
  1  'x, y, z'
loop_
 _atom_site_type_symbol
 _atom_site_label
 _atom_site_symmetry_multiplicity
 _atom_site_fract_x
 _atom_site_fract_y
 _atom_site_fract_z
 _atom_site_occupancy
  Cs  Cs0  1  0.01926800  0.03377100  0.74792800  1
  Cs  Cs1  1  0.48073200  0.03377100  0.24792800  1
  Cs  Cs2  1  0.98073200  0.96622900  0.25207200  1
  Cs  Cs3  1  0.51926800  0.96622900  0.75207200  1
  Re  Re4  1  0.73796400  0.17589600  0.54174100  1
  Re  Re5  1  0.83579500  0.50385000  0.04663200  1
  Re  Re6  1  0.33579500  0.49615000  0.45336800  1
  Re  Re7  1  0.16420500  0.49615000  0.95336800  1
  Re  Re8  1  0.26203600  0.82410400  0.45825900  1
  Re  Re9  1  0.75801500  0.75444800  0.46080200  1
  Re  Re10  1  0.23796400  0.82410400  0.95825900  1
  Re  Re11  1  0.20862600  0.53169200  0.39834300  1
  Re  Re12  1  0.16809200  0.57349800  0.54397600  1
  Re  Re13  1  0.83190800  0.42650200  0.45602400  1
  Re  Re14  1  0.29509300  0.53780600  0.59915500  1
  Re  Re15  1  0.79509300  0.46219400  0.90084500  1
  Re  Re16  1  0.70862600  0.46830800  0.10165700  1
  Re  Re17  1  0.29137400  0.53169200  0.89834300  1
  Re  Re18  1  0.33190800  0.57349800  0.04397600  1
  Re  Re19  1  0.76203600  0.17589600  0.04174100  1
  Re  Re20  1  0.74198500  0.75444800  0.96080200  1
  Re  Re21  1  0.70490700  0.46219400  0.40084500  1
  Re  Re22  1  0.25801500  0.24555200  0.03919800  1
  Re  Re23  1  0.79137400  0.46830800  0.60165700  1
  Re  Re24  1  0.24198500  0.24555200  0.53919800  1
  Re  Re25  1  0.66809200  0.42650200  0.95602400  1
  Re  Re26  1  0.20490700  0.53780600  0.09915500  1
  Re  Re27  1  0.66420500  0.50385000  0.54663200  1
  Se  Se28  1  0.77852900  0.15980800  0.39224500  1
  Se  Se29  1  0.80063700  0.22735700  0.17993300  1
  Se  Se30  1  0.85809200  0.15181100  0.59348300  1
  Se  Se31  1  0.78246200  0.77033700  0.11032200  1
  Se  Se32  1  0.63786700  0.77785800  0.40911500  1
  Se  Se33  1  0.61825700  0.21843000  0.48951800  1
  Se  Se34  1  0.87765300  0.71256700  0.51280700  1
  Se  Se35  1  0.86213300  0.77785800  0.90911500  1
  Se  Se36  1  0.72147100  0.15980800  0.89224500  1
  Se  Se37  1  0.71753800  0.77033700  0.61032200  1
  Se  Se38  1  0.27852900  0.84019200  0.10775500  1
  Se  Se39  1  0.35809200  0.84818900  0.90651700  1
  Se  Se40  1  0.79698700  0.70304400  0.32281500  1
  Se  Se41  1  0.38174300  0.78157000  0.51048200  1
  Se  Se42  1  0.30063700  0.77264300  0.32006700  1
  Se  Se43  1  0.13786700  0.22214200  0.09088500  1
  Se  Se44  1  0.21753800  0.22966300  0.88967800  1
  Se  Se45  1  0.20301300  0.29695600  0.67718500  1
  Se  Se46  1  0.37765300  0.28743300  0.98719300  1
  Se  Se47  1  0.62234700  0.71256700  0.01280700  1
  Se  Se48  1  0.70301300  0.70304400  0.82281500  1
  Se  Se49  1  0.29698700  0.29695600  0.17718500  1
  Se  Se50  1  0.22147100  0.84019200  0.60775500  1
  Se  Se51  1  0.69936300  0.22735700  0.67993300  1
  Se  Se52  1  0.36213300  0.22214200  0.59088500  1
  Se  Se53  1  0.19936300  0.77264300  0.82006700  1
  Se  Se54  1  0.64190800  0.15181100  0.09348300  1
  Se  Se55  1  0.28246200  0.22966300  0.38967800  1
  Se  Se56  1  0.14190800  0.84818900  0.40651700  1
  Se  Se57  1  0.11825700  0.78157000  0.01048200  1
  Se  Se58  1  0.12234700  0.28743300  0.48719300  1
  Se  Se59  1  0.88174300  0.21843000  0.98951800  1
  I  I60  1  0.63488400  0.46981800  0.24965900  1
  I  I61  1  0.45572100  0.62919500  0.11114400  1
  I  I62  1  0.04427900  0.62919500  0.61114400  1
  I  I63  1  0.95572100  0.37080500  0.38885600  1
  I  I64  1  0.36511600  0.53018200  0.75034100  1
  I  I65  1  0.54427900  0.37080500  0.88885600  1
  I  I66  1  0.04074800  0.43970100  0.88492600  1
  I  I67  1  0.45925200  0.43970100  0.38492600  1
  I  I68  1  0.95925200  0.56029900  0.11507400  1
  I  I69  1  0.13488400  0.53018200  0.25034100  1
  I  I70  1  0.54074800  0.56029900  0.61507400  1
  I  I71  1  0.86511600  0.46981800  0.74965900  1
