# generated using pymatgen
data_CaN6
_symmetry_space_group_name_H-M   'P 1'
_cell_length_a   8.01757915
_cell_length_b   6.49727330
_cell_length_c   6.32318891
_cell_angle_alpha   77.40604967
_cell_angle_beta   52.26787805
_cell_angle_gamma   50.32607228
_symmetry_Int_Tables_number   1
_chemical_formula_structural   CaN6
_chemical_formula_sum   'Ca2 N12'
_cell_volume   192.27663791
_cell_formula_units_Z   2
loop_
 _symmetry_equiv_pos_site_id
 _symmetry_equiv_pos_as_xyz
  1  'x, y, z'
loop_
 _atom_site_type_symbol
 _atom_site_label
 _atom_site_symmetry_multiplicity
 _atom_site_fract_x
 _atom_site_fract_y
 _atom_site_fract_z
 _atom_site_occupancy
  Ca  Ca0  1  0.00000000  0.00000000  0.00000000  1
  Ca  Ca1  1  0.25000000  0.25000000  0.25000000  1
  N  N2  1  0.78699600  0.96262500  0.84575900  1
  N  N3  1  0.40462000  0.84575900  0.96262500  1
  N  N4  1  0.62362800  0.62362800  0.87637200  1
  N  N5  1  0.87637200  0.87637200  0.62362800  1
  N  N6  1  0.62637200  0.62637200  0.37362800  1
  N  N7  1  0.37362800  0.37362800  0.62637200  1
  N  N8  1  0.28737500  0.46300400  0.84538000  1
  N  N9  1  0.40424100  0.84538000  0.46300400  1
  N  N10  1  0.84538000  0.40424100  0.28737500  1
  N  N11  1  0.46300400  0.28737500  0.40424100  1
  N  N12  1  0.96262500  0.78699600  0.40462000  1
  N  N13  1  0.84575900  0.40462000  0.78699600  1
