# generated using pymatgen
data_Na2CaTi2(GeO4)3
_symmetry_space_group_name_H-M   'P 1'
_cell_length_a   10.73252876
_cell_length_b   10.73252876
_cell_length_c   10.73252876
_cell_angle_alpha   109.67146215
_cell_angle_beta   109.67146215
_cell_angle_gamma   109.07147563
_symmetry_Int_Tables_number   1
_chemical_formula_structural   Na2CaTi2(GeO4)3
_chemical_formula_sum   'Na8 Ca4 Ti8 Ge12 O48'
_cell_volume   951.63071304
_cell_formula_units_Z   4
loop_
 _symmetry_equiv_pos_site_id
 _symmetry_equiv_pos_as_xyz
  1  'x, y, z'
loop_
 _atom_site_type_symbol
 _atom_site_label
 _atom_site_symmetry_multiplicity
 _atom_site_fract_x
 _atom_site_fract_y
 _atom_site_fract_z
 _atom_site_occupancy
  Na  Na0  1  0.25097400  0.37500000  0.37597400  1
  Na  Na1  1  0.12500000  0.74902600  0.12402600  1
  Na  Na2  1  0.75097400  0.37500000  0.87597400  1
  Na  Na3  1  0.62500000  0.00097400  0.87597400  1
  Na  Na4  1  0.12500000  0.24902600  0.62402600  1
  Na  Na5  1  0.99902600  0.87500000  0.62402600  1
  Na  Na6  1  0.62500000  0.50097400  0.37597400  1
  Na  Na7  1  0.49902600  0.87500000  0.12402600  1
  Ca  Ca8  1  0.50000000  0.00000000  0.50000000  1
  Ca  Ca9  1  0.00000000  0.50000000  0.50000000  1
  Ca  Ca10  1  0.75000000  0.75000000  0.00000000  1
  Ca  Ca11  1  0.25000000  0.25000000  0.00000000  1
  Ti  Ti12  1  0.87500000  0.12500000  0.75000000  1
  Ti  Ti13  1  0.87500000  0.62500000  0.75000000  1
  Ti  Ti14  1  0.87500000  0.62500000  0.25000000  1
  Ti  Ti15  1  0.87500000  0.12500000  0.25000000  1
  Ti  Ti16  1  0.37500000  0.12500000  0.75000000  1
  Ti  Ti17  1  0.37500000  0.62500000  0.75000000  1
  Ti  Ti18  1  0.37500000  0.62500000  0.25000000  1
  Ti  Ti19  1  0.37500000  0.12500000  0.25000000  1
  Ge  Ge20  1  0.62500000  0.74997200  0.62497200  1
  Ge  Ge21  1  0.00000000  0.00000000  0.00000000  1
  Ge  Ge22  1  0.99997200  0.37500000  0.12497200  1
  Ge  Ge23  1  0.25000000  0.75000000  0.50000000  1
  Ge  Ge24  1  0.49997200  0.37500000  0.62497200  1
  Ge  Ge25  1  0.12500000  0.00002800  0.37502800  1
  Ge  Ge26  1  0.62500000  0.24997200  0.12497200  1
  Ge  Ge27  1  0.75002800  0.87500000  0.37502800  1
  Ge  Ge28  1  0.50000000  0.50000000  0.00000000  1
  Ge  Ge29  1  0.25002800  0.87500000  0.87502800  1
  Ge  Ge30  1  0.75000000  0.25000000  0.50000000  1
  Ge  Ge31  1  0.12500000  0.50002800  0.87502800  1
  O  O32  1  0.45865100  0.31903300  0.43361800  1
  O  O33  1  0.67716200  0.94107200  0.66498000  1
  O  O34  1  0.75809200  0.20534300  0.64673800  1
  O  O35  1  0.47496600  0.61458500  0.43361800  1
  O  O36  1  0.19139500  0.13864600  0.14673800  1
  O  O37  1  0.19107200  0.42716200  0.16498000  1
  O  O38  1  0.29465700  0.74190800  0.35326200  1
  O  O39  1  0.25809200  0.61135400  0.55274900  1
  O  O40  1  0.48781800  0.22390800  0.66498000  1
  O  O41  1  0.38864600  0.94139500  0.64673800  1
  O  O42  1  0.97496600  0.54134900  0.86038200  1
  O  O43  1  0.86135400  0.00809200  0.05274900  1
  O  O44  1  0.27609200  0.01218200  0.33502000  1
  O  O45  1  0.86458500  0.22496600  0.93361800  1
  O  O46  1  0.98781800  0.32283800  0.26391000  1
  O  O47  1  0.57283800  0.73781800  0.76391000  1
  O  O48  1  0.95865100  0.52503400  0.13961800  1
  O  O49  1  0.95534300  0.80860500  0.94725100  1
  O  O50  1  0.05860500  0.70534300  0.44725100  1
  O  O51  1  0.36458500  0.43096700  0.63961800  1
  O  O52  1  0.18096700  0.04134900  0.56638200  1
  O  O53  1  0.97390800  0.80892800  0.23609000  1
  O  O54  1  0.69107200  0.52609200  0.76391000  1
  O  O55  1  0.68096700  0.11458500  0.13961800  1
  O  O56  1  0.06903300  0.13541500  0.36038200  1
  O  O57  1  0.05892800  0.72390800  0.73609000  1
  O  O58  1  0.77609200  0.44107200  0.26391000  1
  O  O59  1  0.56903300  0.20865100  0.93361800  1
  O  O60  1  0.38541500  0.81903300  0.86038200  1
  O  O61  1  0.69139500  0.54465700  0.05274900  1
  O  O62  1  0.79465700  0.44139500  0.55274900  1
  O  O63  1  0.79134900  0.72496600  0.36038200  1
  O  O64  1  0.17716200  0.51218200  0.73609000  1
  O  O65  1  0.76218200  0.92716200  0.23609000  1
  O  O66  1  0.88541500  0.02503400  0.56638200  1
  O  O67  1  0.47390800  0.23781800  0.16498000  1
  O  O68  1  0.77503400  0.70865100  0.63961800  1
  O  O69  1  0.88864600  0.24190800  0.44725100  1
  O  O70  1  0.36135400  0.30860500  0.85326200  1
  O  O71  1  0.26218200  0.02609200  0.83502000  1
  O  O72  1  0.49190800  0.63864600  0.94725100  1
  O  O73  1  0.45534300  0.50809200  0.14673800  1
  O  O74  1  0.55892800  0.82283800  0.33502000  1
  O  O75  1  0.55860500  0.11135400  0.35326200  1
  O  O76  1  0.27503400  0.63541500  0.06638200  1
  O  O77  1  0.99190800  0.04465700  0.85326200  1
  O  O78  1  0.07283800  0.30892800  0.83502000  1
  O  O79  1  0.29134900  0.93096700  0.06638200  1
