# generated using pymatgen
data_U(GaFe)6
_symmetry_space_group_name_H-M   'P 1'
_cell_length_a   6.56692799
_cell_length_b   6.56692799
_cell_length_c   6.56692799
_cell_angle_alpha   135.10024712
_cell_angle_beta   99.92006637
_cell_angle_gamma   96.85649619
_symmetry_Int_Tables_number   1
_chemical_formula_structural   U(GaFe)6
_chemical_formula_sum   'U1 Ga6 Fe6'
_cell_volume   184.66085890
_cell_formula_units_Z   1
loop_
 _symmetry_equiv_pos_site_id
 _symmetry_equiv_pos_as_xyz
  1  'x, y, z'
loop_
 _atom_site_type_symbol
 _atom_site_label
 _atom_site_symmetry_multiplicity
 _atom_site_fract_x
 _atom_site_fract_y
 _atom_site_fract_z
 _atom_site_occupancy
  U  U0  1  0.00000000  0.00000000  0.00000000  1
  Ga  Ga1  1  0.34771700  0.34771700  0.00000000  1
  Ga  Ga2  1  0.19411100  0.69411100  0.50000000  1
  Ga  Ga3  1  0.65710900  0.00000000  0.65710900  1
  Ga  Ga4  1  0.80588900  0.30588900  0.50000000  1
  Ga  Ga5  1  0.65228300  0.65228300  0.00000000  1
  Ga  Ga6  1  0.34289100  0.00000000  0.34289100  1
  Fe  Fe7  1  0.00000000  0.50000000  0.00000000  1
  Fe  Fe8  1  0.76602300  0.50000000  0.26602300  1
  Fe  Fe9  1  0.23397700  0.50000000  0.73397700  1
  Fe  Fe10  1  0.50000000  0.50000000  0.50000000  1
  Fe  Fe11  1  0.50000000  0.00000000  0.00000000  1
  Fe  Fe12  1  0.00000000  0.00000000  0.50000000  1
