# generated using pymatgen
data_Na27Ca3Al5(P2O7)12
_symmetry_space_group_name_H-M   'P 1'
_cell_length_a   9.38216600
_cell_length_b   15.16375266
_cell_length_c   15.16655560
_cell_angle_alpha   115.86012649
_cell_angle_beta   101.89388372
_cell_angle_gamma   101.89023353
_symmetry_Int_Tables_number   1
_chemical_formula_structural   Na27Ca3Al5(P2O7)12
_chemical_formula_sum   'Na27 Ca3 Al5 P24 O84'
_cell_volume   1789.45622420
_cell_formula_units_Z   1
loop_
 _symmetry_equiv_pos_site_id
 _symmetry_equiv_pos_as_xyz
  1  'x, y, z'
loop_
 _atom_site_type_symbol
 _atom_site_label
 _atom_site_symmetry_multiplicity
 _atom_site_fract_x
 _atom_site_fract_y
 _atom_site_fract_z
 _atom_site_occupancy
  Na  Na0  1  0.35228400  0.42667000  0.18473700  1
  Na  Na1  1  0.17244700  0.28932500  0.71319500  1
  Na  Na2  1  0.53574000  0.71118100  0.42186600  1
  Na  Na3  1  0.10673900  0.45439700  0.95214300  1
  Na  Na4  1  0.06957500  0.24134600  0.42414100  1
  Na  Na5  1  0.84478100  0.95032700  0.49704500  1
  Na  Na6  1  0.34941700  0.50560600  0.45270000  1
  Na  Na7  1  0.43573400  0.80591400  0.07066700  1
  Na  Na8  1  0.05074000  0.72757900  0.95525400  1
  Na  Na9  1  0.90394900  0.95489300  0.22743300  1
  Na  Na10  1  0.83211100  0.18238500  0.75875800  1
  Na  Na11  1  0.37056700  0.73622600  0.80566200  1
  Na  Na12  1  0.67585800  0.77297800  0.72582100  1
  Na  Na13  1  0.12180300  0.57829300  0.29083200  1
  Na  Na14  1  0.63471100  0.06938700  0.26345100  1
  Na  Na15  1  0.36592500  0.92894200  0.73522400  1
  Na  Na16  1  0.32147500  0.22811900  0.27204100  1
  Na  Na17  1  0.62993900  0.26436500  0.19345500  1
  Na  Na18  1  0.17232900  0.81504400  0.24128800  1
  Na  Na19  1  0.09430800  0.04604900  0.77236700  1
  Na  Na20  1  0.95157100  0.27374300  0.04628700  1
  Na  Na21  1  0.56408400  0.19373600  0.93027800  1
  Na  Na22  1  0.64943800  0.49774300  0.54414600  1
  Na  Na23  1  0.15246700  0.04915700  0.50474500  1
  Na  Na24  1  0.92751700  0.75887400  0.57458400  1
  Na  Na25  1  0.89795300  0.54566000  0.05103800  1
  Na  Na26  1  0.64507400  0.57661900  0.81739200  1
  Ca  Ca27  1  0.88631700  0.42272100  0.71095600  1
  Ca  Ca28  1  0.45293400  0.28652400  0.57750400  1
  Ca  Ca29  1  0.82960900  0.70920100  0.28936900  1
  Al  Al30  1  0.00082400  0.50157200  0.49844000  1
  Al  Al31  1  0.50046400  0.99814300  0.50003800  1
  Al  Al32  1  0.99972400  0.00064700  0.99983700  1
  Al  Al33  1  0.50067800  0.00065400  0.99995400  1
  Al  Al34  1  0.49684300  0.49925600  0.00083200  1
  P  P35  1  0.22445400  0.28791100  0.92225400  1
  P  P36  1  0.32240500  0.62580400  0.15700400  1
  P  P37  1  0.69822400  0.92238500  0.63446800  1
  P  P38  1  0.29343000  0.55311600  0.84702600  1
  P  P39  1  0.30334700  0.46929800  0.62600100  1
  P  P40  1  0.55348400  0.84624200  0.29325000  1
  P  P41  1  0.06376000  0.36544100  0.28809100  1
  P  P42  1  0.69506900  0.83465600  0.97536100  1
  P  P43  1  0.83375600  0.15639800  0.53016300  1
  P  P44  1  0.26025800  0.70539000  0.55250200  1
  P  P45  1  0.28024000  0.97535400  0.14058700  1
  P  P46  1  0.13971000  0.85941700  0.83480600  1
  P  P47  1  0.86070900  0.14158200  0.16589600  1
  P  P48  1  0.71912700  0.02432400  0.85844100  1
  P  P49  1  0.74074100  0.29328800  0.44685300  1
  P  P50  1  0.16640500  0.84316600  0.46953200  1
  P  P51  1  0.30511800  0.16576700  0.02426800  1
  P  P52  1  0.93755500  0.63503200  0.71193500  1
  P  P53  1  0.44660700  0.15285100  0.70555600  1
  P  P54  1  0.69647900  0.52982900  0.37350300  1
  P  P55  1  0.70669800  0.44725700  0.15343400  1
  P  P56  1  0.30240800  0.07652800  0.36480900  1
  P  P57  1  0.67665800  0.37340500  0.84368900  1
  P  P58  1  0.77452600  0.71170800  0.07657200  1
  O  O59  1  0.10210600  0.21391600  0.81581600  1
  O  O60  1  0.16136800  0.33942000  0.00908000  1
  O  O61  1  0.34418800  0.36665100  0.91274100  1
  O  O62  1  0.36976500  0.60867400  0.24828900  1
  O  O63  1  0.71466200  0.81608800  0.60243000  1
  O  O64  1  0.35589000  0.55430600  0.06017800  1
  O  O65  1  0.24444200  0.35890300  0.60829200  1
  O  O66  1  0.43895800  0.53379300  0.89215000  1
  O  O67  1  0.14281900  0.46305300  0.80799800  1
  O  O68  1  0.15367000  0.61986700  0.12352700  1
  O  O69  1  0.66600700  0.80844800  0.34518100  1
  O  O70  1  0.17787000  0.32992000  0.33980600  1
  O  O71  1  0.46691600  0.49150500  0.61915400  1
  O  O72  1  0.56931100  0.91319400  0.54646800  1
  O  O73  1  0.42466300  0.74360300  0.18804500  1
  O  O74  1  0.84771800  0.00942800  0.66981200  1
  O  O75  1  0.31851000  0.55464700  0.74286100  1
  O  O76  1  0.28373200  0.65958400  0.91164000  1
  O  O77  1  0.19798100  0.49269600  0.55405000  1
  O  O78  1  0.67941900  0.78005900  0.04780300  1
  O  O79  1  0.45421700  0.89298100  0.35848200  1
  O  O80  1  0.62812200  0.91214900  0.25245600  1
  O  O81  1  0.11155600  0.39723800  0.21361900  1
  O  O82  1  0.64664800  0.74938600  0.86326500  1
  O  O83  1  0.02245100  0.45321700  0.36682000  1
  O  O84  1  0.70483000  0.06140000  0.50765500  1
  O  O85  1  0.97140900  0.12544800  0.50547600  1
  O  O86  1  0.21659100  0.86335000  0.11381900  1
  O  O87  1  0.86237200  0.90892900  0.02659800  1
  O  O88  1  0.10047500  0.73204200  0.78033900  1
  O  O89  1  0.57418200  0.88949800  0.99374000  1
  O  O90  1  0.09469600  0.64237500  0.53567400  1
  O  O91  1  0.31649800  0.65282400  0.46240600  1
  O  O92  1  0.37453300  0.74802000  0.66017700  1
  O  O93  1  0.87812300  0.25043800  0.63882700  1
  O  O94  1  0.36844700  0.04802800  0.26781000  1
  O  O95  1  0.89678200  0.11352900  0.25040700  1
  O  O96  1  0.41955100  0.99377600  0.10423100  1
  O  O97  1  0.76235800  0.18775800  0.44432000  1
  O  O98  1  0.31525900  0.89564300  0.88988100  1
  O  O99  1  0.04689000  0.88232700  0.90927500  1
  O  O100  1  0.83535900  0.97343900  0.88267800  1
  O  O101  1  0.16420600  0.02663800  0.11762200  1
  O  O102  1  0.95292200  0.11726000  0.09102700  1
  O  O103  1  0.68463800  0.10392800  0.11056000  1
  O  O104  1  0.23566600  0.81197900  0.55486500  1
  O  O105  1  0.58058700  0.00616600  0.89593300  1
  O  O106  1  0.10318800  0.88633900  0.74966100  1
  O  O107  1  0.63127300  0.95255600  0.73261100  1
  O  O108  1  0.11414500  0.75136500  0.35885700  1
  O  O109  1  0.62328200  0.25316100  0.34157600  1
  O  O110  1  0.68349300  0.34591500  0.53975300  1
  O  O111  1  0.90528100  0.35896900  0.46791100  1
  O  O112  1  0.42554200  0.11014600  0.00614600  1
  O  O113  1  0.89851500  0.26730500  0.22013500  1
  O  O114  1  0.13811700  0.09069900  0.97346900  1
  O  O115  1  0.78290500  0.13688100  0.88658300  1
  O  O116  1  0.02614600  0.87389700  0.49211100  1
  O  O117  1  0.29468900  0.93946700  0.49282600  1
  O  O118  1  0.97543300  0.54347600  0.63398100  1
  O  O119  1  0.35380200  0.25011400  0.13679200  1
  O  O120  1  0.88777400  0.59920600  0.78478000  1
  O  O121  1  0.37137500  0.08842000  0.74714000  1
  O  O122  1  0.54796100  0.10851800  0.64165900  1
  O  O123  1  0.32121900  0.21980100  0.95237300  1
  O  O124  1  0.80273800  0.50749800  0.44689500  1
  O  O125  1  0.71682600  0.34114700  0.08801700  1
  O  O126  1  0.68149100  0.44424600  0.25655800  1
  O  O127  1  0.15211800  0.99117800  0.33016300  1
  O  O128  1  0.57548700  0.25716800  0.81218500  1
  O  O129  1  0.43181200  0.09004000  0.45617100  1
  O  O130  1  0.53504500  0.50481500  0.38095100  1
  O  O131  1  0.82189300  0.66959500  0.66115800  1
  O  O132  1  0.34010200  0.19281300  0.65227400  1
  O  O133  1  0.84724700  0.38169700  0.87202500  1
  O  O134  1  0.85261700  0.54029400  0.19231900  1
  O  O135  1  0.56070000  0.46620300  0.10783300  1
  O  O136  1  0.76055700  0.63888400  0.38932100  1
  O  O137  1  0.64433000  0.44708300  0.93849900  1
  O  O138  1  0.28858900  0.18519900  0.40043200  1
  O  O139  1  0.63403900  0.38963400  0.74910600  1
  O  O140  1  0.65814700  0.63359800  0.08937000  1
  O  O141  1  0.83867900  0.66079200  0.99072500  1
  O  O142  1  0.89698200  0.78494000  0.18487100  1
