# generated using pymatgen
data_Be3Zn4Si3SO12
_symmetry_space_group_name_H-M   'P 1'
_cell_length_a   8.19780300
_cell_length_b   8.19780300
_cell_length_c   8.19780300
_cell_angle_alpha   90.00000000
_cell_angle_beta   90.00000000
_cell_angle_gamma   90.00000000
_symmetry_Int_Tables_number   1
_chemical_formula_structural   Be3Zn4Si3SO12
_chemical_formula_sum   'Be6 Zn8 Si6 S2 O24'
_cell_volume   550.92493989
_cell_formula_units_Z   2
loop_
 _symmetry_equiv_pos_site_id
 _symmetry_equiv_pos_as_xyz
  1  'x, y, z'
loop_
 _atom_site_type_symbol
 _atom_site_label
 _atom_site_symmetry_multiplicity
 _atom_site_fract_x
 _atom_site_fract_y
 _atom_site_fract_z
 _atom_site_occupancy
  Be  Be0  1  0.50000000  0.75000000  0.00000000  1
  Be  Be1  1  0.50000000  0.25000000  0.00000000  1
  Be  Be2  1  0.00000000  0.50000000  0.25000000  1
  Be  Be3  1  0.00000000  0.50000000  0.75000000  1
  Be  Be4  1  0.25000000  0.00000000  0.50000000  1
  Be  Be5  1  0.75000000  0.00000000  0.50000000  1
  Zn  Zn6  1  0.66581900  0.66581900  0.66581900  1
  Zn  Zn7  1  0.83418100  0.16581900  0.83418100  1
  Zn  Zn8  1  0.16581900  0.83418100  0.83418100  1
  Zn  Zn9  1  0.83418100  0.83418100  0.16581900  1
  Zn  Zn10  1  0.66581900  0.33418100  0.33418100  1
  Zn  Zn11  1  0.33418100  0.33418100  0.66581900  1
  Zn  Zn12  1  0.33418100  0.66581900  0.33418100  1
  Zn  Zn13  1  0.16581900  0.16581900  0.16581900  1
  Si  Si14  1  0.50000000  0.00000000  0.25000000  1
  Si  Si15  1  0.50000000  0.00000000  0.75000000  1
  Si  Si16  1  0.00000000  0.25000000  0.50000000  1
  Si  Si17  1  0.25000000  0.50000000  0.00000000  1
  Si  Si18  1  0.00000000  0.75000000  0.50000000  1
  Si  Si19  1  0.75000000  0.50000000  0.00000000  1
  S  S20  1  0.00000000  0.00000000  0.00000000  1
  S  S21  1  0.50000000  0.50000000  0.50000000  1
  O  O22  1  0.36221400  0.63809800  0.09298500  1
  O  O23  1  0.13809800  0.86221400  0.59298500  1
  O  O24  1  0.13809800  0.13778600  0.40701500  1
  O  O25  1  0.36190200  0.90701500  0.36221400  1
  O  O26  1  0.36190200  0.09298500  0.63778600  1
  O  O27  1  0.09298500  0.36221400  0.63809800  1
  O  O28  1  0.90701500  0.36221400  0.36190200  1
  O  O29  1  0.63778600  0.36190200  0.09298500  1
  O  O30  1  0.40701500  0.86190200  0.86221400  1
  O  O31  1  0.40701500  0.13809800  0.13778600  1
  O  O32  1  0.13778600  0.40701500  0.13809800  1
  O  O33  1  0.86221400  0.59298500  0.13809800  1
  O  O34  1  0.63809800  0.90701500  0.63778600  1
  O  O35  1  0.86221400  0.40701500  0.86190200  1
  O  O36  1  0.59298500  0.86190200  0.13778600  1
  O  O37  1  0.59298500  0.13809800  0.86221400  1
  O  O38  1  0.90701500  0.63778600  0.63809800  1
  O  O39  1  0.13778600  0.59298500  0.86190200  1
  O  O40  1  0.86190200  0.13778600  0.59298500  1
  O  O41  1  0.86190200  0.86221400  0.40701500  1
  O  O42  1  0.36221400  0.36190200  0.90701500  1
  O  O43  1  0.63778600  0.63809800  0.90701500  1
  O  O44  1  0.09298500  0.63778600  0.36190200  1
  O  O45  1  0.63809800  0.09298500  0.36221400  1
