# generated using pymatgen
data_NaSr3NbO6
_symmetry_space_group_name_H-M   'P 1'
_cell_length_a   6.91993542
_cell_length_b   6.91993542
_cell_length_c   6.91993529
_cell_angle_alpha   91.24169572
_cell_angle_beta   91.24169572
_cell_angle_gamma   91.24169178
_symmetry_Int_Tables_number   1
_chemical_formula_structural   NaSr3NbO6
_chemical_formula_sum   'Na2 Sr6 Nb2 O12'
_cell_volume   331.12774097
_cell_formula_units_Z   2
loop_
 _symmetry_equiv_pos_site_id
 _symmetry_equiv_pos_as_xyz
  1  'x, y, z'
loop_
 _atom_site_type_symbol
 _atom_site_label
 _atom_site_symmetry_multiplicity
 _atom_site_fract_x
 _atom_site_fract_y
 _atom_site_fract_z
 _atom_site_occupancy
  Na  Na0  1  0.75000000  0.75000000  0.75000000  1
  Na  Na1  1  0.25000000  0.25000000  0.25000000  1
  Sr  Sr2  1  0.75000000  0.10079700  0.39920300  1
  Sr  Sr3  1  0.39920300  0.75000000  0.10079700  1
  Sr  Sr4  1  0.10079700  0.39920300  0.75000000  1
  Sr  Sr5  1  0.25000000  0.89920300  0.60079700  1
  Sr  Sr6  1  0.60079700  0.25000000  0.89920300  1
  Sr  Sr7  1  0.89920300  0.60079700  0.25000000  1
  Nb  Nb8  1  0.00000000  0.00000000  0.00000000  1
  Nb  Nb9  1  0.50000000  0.50000000  0.50000000  1
  O  O10  1  0.92763400  0.05384000  0.71942100  1
  O  O11  1  0.71942100  0.92763400  0.05384000  1
  O  O12  1  0.05384000  0.71942100  0.92763400  1
  O  O13  1  0.57236600  0.78057900  0.44616000  1
  O  O14  1  0.44616000  0.57236600  0.78057900  1
  O  O15  1  0.78057900  0.44616000  0.57236600  1
  O  O16  1  0.07236600  0.94616000  0.28057900  1
  O  O17  1  0.28057900  0.07236600  0.94616000  1
  O  O18  1  0.94616000  0.28057900  0.07236600  1
  O  O19  1  0.42763400  0.21942100  0.55384000  1
  O  O20  1  0.21942100  0.55384000  0.42763400  1
  O  O21  1  0.55384000  0.42763400  0.21942100  1
