# generated using pymatgen
data_CaGd2Zr(GaO3)4
_symmetry_space_group_name_H-M   'P 1'
_cell_length_a   10.93046400
_cell_length_b   10.96941796
_cell_length_c   10.97880227
_cell_angle_alpha   109.45689431
_cell_angle_beta   109.41059925
_cell_angle_gamma   109.33431308
_symmetry_Int_Tables_number   1
_chemical_formula_structural   CaGd2Zr(GaO3)4
_chemical_formula_sum   'Ca4 Gd8 Zr4 Ga16 O48'
_cell_volume   1015.98009161
_cell_formula_units_Z   4
loop_
 _symmetry_equiv_pos_site_id
 _symmetry_equiv_pos_as_xyz
  1  'x, y, z'
loop_
 _atom_site_type_symbol
 _atom_site_label
 _atom_site_symmetry_multiplicity
 _atom_site_fract_x
 _atom_site_fract_y
 _atom_site_fract_z
 _atom_site_occupancy
  Ca  Ca0  1  0.62316700  0.24237100  0.37424000  1
  Ca  Ca1  1  0.87460700  0.12255200  0.24565000  1
  Ca  Ca2  1  0.12539300  0.87744800  0.75435000  1
  Ca  Ca3  1  0.37683300  0.75762900  0.62576000  1
  Gd  Gd4  1  0.24983800  0.62352000  0.87702100  1
  Gd  Gd5  1  0.62864200  0.37032300  0.75055000  1
  Gd  Gd6  1  0.12611600  0.25190200  0.88089300  1
  Gd  Gd7  1  0.24969400  0.12262200  0.36908700  1
  Gd  Gd8  1  0.87388400  0.74809800  0.11910700  1
  Gd  Gd9  1  0.75030600  0.87737800  0.63091300  1
  Gd  Gd10  1  0.37135800  0.62967700  0.24945000  1
  Gd  Gd11  1  0.75016200  0.37648000  0.12297900  1
  Zr  Zr12  1  0.00000000  0.00000000  0.50000000  1
  Zr  Zr13  1  0.50000000  0.00000000  0.00000000  1
  Zr  Zr14  1  0.00000000  0.50000000  0.50000000  1
  Zr  Zr15  1  0.50000000  0.50000000  0.50000000  1
  Ga  Ga16  1  0.88124100  0.63381500  0.76026900  1
  Ga  Ga17  1  0.62667500  0.75026900  0.87644100  1
  Ga  Ga18  1  0.86947300  0.25234900  0.62880400  1
  Ga  Ga19  1  0.24722400  0.87170100  0.12793600  1
  Ga  Ga20  1  0.25361500  0.37525400  0.63190500  1
  Ga  Ga21  1  0.50000000  0.50000000  0.00000000  1
  Ga  Ga22  1  0.00000000  0.00000000  0.00000000  1
  Ga  Ga23  1  0.62326600  0.87363000  0.24954700  1
  Ga  Ga24  1  0.37673400  0.12637000  0.75045300  1
  Ga  Ga25  1  0.50000000  0.00000000  0.50000000  1
  Ga  Ga26  1  0.75277600  0.12829900  0.87206300  1
  Ga  Ga27  1  0.74638500  0.62474600  0.36809500  1
  Ga  Ga28  1  0.13052700  0.74765100  0.37119600  1
  Ga  Ga29  1  0.00000000  0.50000000  0.00000000  1
  Ga  Ga30  1  0.37332500  0.24973100  0.12355900  1
  Ga  Ga31  1  0.11875900  0.36618500  0.23973100  1
  O  O32  1  0.29179700  0.87344200  0.97797400  1
  O  O33  1  0.41241300  0.28952700  0.31686300  1
  O  O34  1  0.68690100  0.47928900  0.60497700  1
  O  O35  1  0.02798300  0.62274800  0.71249500  1
  O  O36  1  0.47308200  0.78835800  0.87821500  1
  O  O37  1  0.20965600  0.52405500  0.62684000  1
  O  O38  1  0.87907300  0.29257500  0.47929700  1
  O  O39  1  0.02533700  0.40367900  0.82260900  1
  O  O40  1  0.67432400  0.20359900  0.58609800  1
  O  O41  1  0.39910600  0.02183800  0.32207500  1
  O  O42  1  0.62221600  0.02330600  0.20734200  1
  O  O43  1  0.62158000  0.59502600  0.91706900  1
  O  O44  1  0.08508000  0.17622500  0.20284000  1
  O  O45  1  0.40417000  0.37464500  0.58645700  1
  O  O46  1  0.29645700  0.41807700  0.82528300  1
  O  O47  1  0.10273700  0.18381700  0.47639000  1
  O  O48  1  0.87885200  0.58244900  0.90675900  1
  O  O49  1  0.82261300  0.90042200  0.02323800  1
  O  O50  1  0.91442400  0.09903900  0.62683900  1
  O  O51  1  0.20263900  0.67569700  0.08146700  1
  O  O52  1  0.58315000  0.87757000  0.40411800  1
  O  O53  1  0.81627300  0.90958200  0.28918300  1
  O  O54  1  0.52764700  0.32273200  0.90366600  1
  O  O55  1  0.09426600  0.91647600  0.12165500  1
  O  O56  1  0.90573400  0.08352400  0.87834500  1
  O  O57  1  0.47235300  0.67726800  0.09633400  1
  O  O58  1  0.18372700  0.09041800  0.71081700  1
  O  O59  1  0.41685000  0.12243000  0.59588200  1
  O  O60  1  0.79736100  0.32430300  0.91853300  1
  O  O61  1  0.08557600  0.90096100  0.37316100  1
  O  O62  1  0.17738700  0.09957800  0.97676200  1
  O  O63  1  0.12114800  0.41755100  0.09324100  1
  O  O64  1  0.89726300  0.81618300  0.52361000  1
  O  O65  1  0.70354300  0.58192300  0.17471700  1
  O  O66  1  0.59583000  0.62535500  0.41354300  1
  O  O67  1  0.91492000  0.82377500  0.79716000  1
  O  O68  1  0.37842000  0.40497400  0.08293100  1
  O  O69  1  0.37778400  0.97669400  0.79265800  1
  O  O70  1  0.60089400  0.97816200  0.67792500  1
  O  O71  1  0.32567600  0.79640100  0.41390200  1
  O  O72  1  0.97466300  0.59632100  0.17739100  1
  O  O73  1  0.12092700  0.70742500  0.52070300  1
  O  O74  1  0.79034400  0.47594500  0.37316000  1
  O  O75  1  0.52691800  0.21164200  0.12178500  1
  O  O76  1  0.97201700  0.37725200  0.28750500  1
  O  O77  1  0.31309900  0.52071100  0.39502300  1
  O  O78  1  0.58758700  0.71047300  0.68313700  1
  O  O79  1  0.70820300  0.12655800  0.02202600  1
