# generated using pymatgen
data_K2RbBiSe3
_symmetry_space_group_name_H-M   'P 1'
_cell_length_a   10.09221000
_cell_length_b   10.09221000
_cell_length_c   10.09221000
_cell_angle_alpha   90.00000000
_cell_angle_beta   90.00000000
_cell_angle_gamma   90.00000000
_symmetry_Int_Tables_number   1
_chemical_formula_structural   K2RbBiSe3
_chemical_formula_sum   'K8 Rb4 Bi4 Se12'
_cell_volume   1027.91886456
_cell_formula_units_Z   4
loop_
 _symmetry_equiv_pos_site_id
 _symmetry_equiv_pos_as_xyz
  1  'x, y, z'
loop_
 _atom_site_type_symbol
 _atom_site_label
 _atom_site_symmetry_multiplicity
 _atom_site_fract_x
 _atom_site_fract_y
 _atom_site_fract_z
 _atom_site_occupancy
  K  K0  1  0.18073500  0.68073500  0.81926500  1
  K  K1  1  0.68073500  0.81926500  0.18073500  1
  K  K2  1  0.81926500  0.18073500  0.68073500  1
  K  K3  1  0.31926500  0.31926500  0.31926500  1
  K  K4  1  0.68648100  0.18648100  0.31351900  1
  K  K5  1  0.18648100  0.31351900  0.68648100  1
  K  K6  1  0.31351900  0.68648100  0.18648100  1
  K  K7  1  0.81351900  0.81351900  0.81351900  1
  Rb  Rb8  1  0.92823500  0.42823500  0.07176500  1
  Rb  Rb9  1  0.42823500  0.07176500  0.92823500  1
  Rb  Rb10  1  0.07176500  0.92823500  0.42823500  1
  Rb  Rb11  1  0.57176500  0.57176500  0.57176500  1
  Bi  Bi12  1  0.46810000  0.96810000  0.53190000  1
  Bi  Bi13  1  0.96810000  0.53190000  0.46810000  1
  Bi  Bi14  1  0.53190000  0.46810000  0.96810000  1
  Bi  Bi15  1  0.03190000  0.03190000  0.03190000  1
  Se  Se16  1  0.00276000  0.77683000  0.10575200  1
  Se  Se17  1  0.89424800  0.50276000  0.72317000  1
  Se  Se18  1  0.27683000  0.39424800  0.99724000  1
  Se  Se19  1  0.50276000  0.72317000  0.89424800  1
  Se  Se20  1  0.39424800  0.99724000  0.27683000  1
  Se  Se21  1  0.77683000  0.10575200  0.00276000  1
  Se  Se22  1  0.99724000  0.27683000  0.39424800  1
  Se  Se23  1  0.10575200  0.00276000  0.77683000  1
  Se  Se24  1  0.72317000  0.89424800  0.50276000  1
  Se  Se25  1  0.49724000  0.22317000  0.60575200  1
  Se  Se26  1  0.60575200  0.49724000  0.22317000  1
  Se  Se27  1  0.22317000  0.60575200  0.49724000  1
