# generated using pymatgen
data_K2Mn2Be3F12
_symmetry_space_group_name_H-M   'P 1'
_cell_length_a   10.26593800
_cell_length_b   10.23496700
_cell_length_c   20.42782530
_cell_angle_alpha   89.95157808
_cell_angle_beta   90.00000000
_cell_angle_gamma   90.00000000
_symmetry_Int_Tables_number   1
_chemical_formula_structural   K2Mn2Be3F12
_chemical_formula_sum   'K16 Mn16 Be24 F96'
_cell_volume   2146.38222775
_cell_formula_units_Z   8
loop_
 _symmetry_equiv_pos_site_id
 _symmetry_equiv_pos_as_xyz
  1  'x, y, z'
loop_
 _atom_site_type_symbol
 _atom_site_label
 _atom_site_symmetry_multiplicity
 _atom_site_fract_x
 _atom_site_fract_y
 _atom_site_fract_z
 _atom_site_occupancy
  K  K0  1  0.56388000  0.19797800  0.96911200  1
  K  K1  1  0.30259300  0.03951500  0.65637500  1
  K  K2  1  0.78527600  0.93495400  0.85137700  1
  K  K3  1  0.93521000  0.31475800  0.71697100  1
  K  K4  1  0.28527600  0.06504600  0.14862300  1
  K  K5  1  0.69989700  0.53983000  0.09944300  1
  K  K6  1  0.68713100  0.54532700  0.60372500  1
  K  K7  1  0.06388000  0.80202200  0.03088800  1
  K  K8  1  0.55385100  0.17140500  0.47671200  1
  K  K9  1  0.43521000  0.68524200  0.28302900  1
  K  K10  1  0.92776700  0.32254400  0.22058800  1
  K  K11  1  0.42776700  0.67745600  0.77941200  1
  K  K12  1  0.19989700  0.46017000  0.90055700  1
  K  K13  1  0.05385100  0.82859500  0.52328800  1
  K  K14  1  0.80259300  0.96048500  0.34362500  1
  K  K15  1  0.18713100  0.45467300  0.39627500  1
  Mn  Mn16  1  0.15601900  0.09950600  0.33326600  1
  Mn  Mn17  1  0.84896100  0.58599000  0.92376600  1
  Mn  Mn18  1  0.08394200  0.68393200  0.70067500  1
  Mn  Mn19  1  0.42546400  0.84481700  0.95016800  1
  Mn  Mn20  1  0.89622000  0.19165600  0.54096300  1
  Mn  Mn21  1  0.57551400  0.32546800  0.78881300  1
  Mn  Mn22  1  0.63318100  0.89988600  0.16802900  1
  Mn  Mn23  1  0.58394200  0.31606800  0.29932500  1
  Mn  Mn24  1  0.92546400  0.15518300  0.04983200  1
  Mn  Mn25  1  0.34896100  0.41401000  0.07623400  1
  Mn  Mn26  1  0.33829400  0.38857600  0.58472600  1
  Mn  Mn27  1  0.65601900  0.90049400  0.66673400  1
  Mn  Mn28  1  0.83829400  0.61142400  0.41527400  1
  Mn  Mn29  1  0.39622000  0.80834400  0.45903700  1
  Mn  Mn30  1  0.07551400  0.67453200  0.21118700  1
  Mn  Mn31  1  0.13318100  0.10011400  0.83197100  1
  Be  Be32  1  0.24709100  0.38103900  0.73903500  1
  Be  Be33  1  0.62268100  0.21584700  0.13339700  1
  Be  Be34  1  0.45530700  0.01242300  0.80586500  1
  Be  Be35  1  0.73190900  0.86974300  0.01471700  1
  Be  Be36  1  0.95530700  0.98757700  0.19413500  1
  Be  Be37  1  0.95906200  0.99282500  0.68643300  1
  Be  Be38  1  0.86264500  0.27012000  0.88868200  1
  Be  Be39  1  0.12209200  0.78586400  0.36149400  1
  Be  Be40  1  0.03440900  0.48199800  0.06545900  1
  Be  Be41  1  0.53440900  0.51800200  0.93454100  1
  Be  Be42  1  0.62209200  0.21413600  0.63850600  1
  Be  Be43  1  0.87258900  0.28924400  0.38303300  1
  Be  Be44  1  0.54166600  0.50356400  0.44772400  1
  Be  Be45  1  0.23190900  0.13025700  0.98528300  1
  Be  Be46  1  0.04166600  0.49643600  0.55227600  1
  Be  Be47  1  0.36264500  0.72988000  0.11131800  1
  Be  Be48  1  0.76346100  0.61630700  0.75794400  1
  Be  Be49  1  0.12268100  0.78415300  0.86660300  1
  Be  Be50  1  0.72817700  0.88314800  0.50959400  1
  Be  Be51  1  0.26346100  0.38369300  0.24205600  1
  Be  Be52  1  0.22817700  0.11685200  0.49040600  1
  Be  Be53  1  0.37258900  0.71075600  0.61696700  1
  Be  Be54  1  0.74709100  0.61896100  0.26096500  1
  Be  Be55  1  0.45906200  0.00717500  0.31356700  1
  F  F56  1  0.30510800  0.01586400  0.79405700  1
  F  F57  1  0.18116900  0.51869700  0.74706500  1
  F  F58  1  0.50130300  0.14799000  0.83180800  1
  F  F59  1  0.67598900  0.49158900  0.96081400  1
  F  F60  1  0.72301500  0.27248800  0.58923600  1
  F  F61  1  0.59122600  0.07064900  0.61740800  1
  F  F62  1  0.56067300  0.40154300  0.39204700  1
  F  F63  1  0.68753800  0.80005400  0.07871200  1
  F  F64  1  0.93318400  0.40618900  0.88990700  1
  F  F65  1  0.58149700  0.88759900  0.48839700  1
  F  F66  1  0.80001400  0.77306800  0.96562800  1
  F  F67  1  0.89740100  0.59703700  0.72259400  1
  F  F68  1  0.46225800  0.62246800  0.42168600  1
  F  F69  1  0.11999500  0.76822300  0.79169200  1
  F  F70  1  0.49594200  0.90234700  0.85494400  1
  F  F71  1  0.61999500  0.23177700  0.20830800  1
  F  F72  1  0.67327000  0.22410600  0.71054000  1
  F  F73  1  0.28521400  0.97418200  0.49414300  1
  F  F74  1  0.43242700  0.44884000  0.98056600  1
  F  F75  1  0.80510800  0.98413600  0.20594300  1
  F  F76  1  0.51375100  0.66681300  0.93084900  1
  F  F77  1  0.78521400  0.02581800  0.50585700  1
  F  F78  1  0.49518900  0.79684800  0.62680900  1
  F  F79  1  0.31772300  0.72905000  0.54678600  1
  F  F80  1  0.49508200  0.29503900  0.63315400  1
  F  F81  1  0.11360400  0.06489800  0.02094500  1
  F  F82  1  0.89381400  0.60494400  0.24503400  1
  F  F83  1  0.39381400  0.39505600  0.75496600  1
  F  F84  1  0.07201900  0.92488000  0.88342800  1
  F  F85  1  0.09122600  0.92935100  0.38259200  1
  F  F86  1  0.67890900  0.72234600  0.72222300  1
  F  F87  1  0.68116900  0.48130300  0.25293500  1
  F  F88  1  0.68701900  0.48508100  0.74809000  1
  F  F89  1  0.51082800  0.45942400  0.86529600  1
  F  F90  1  0.06067300  0.59845700  0.60795300  1
  F  F91  1  0.82612000  0.95860200  0.72064600  1
  F  F92  1  0.72415800  0.67423600  0.33139300  1
  F  F93  1  0.52027900  0.13313700  0.34383700  1
  F  F94  1  0.17741300  0.28994200  0.79013800  1
  F  F95  1  0.76363200  0.24144400  0.10603700  1
  F  F96  1  0.18701900  0.51491900  0.25191000  1
  F  F97  1  0.27269200  0.75711200  0.67052200  1
  F  F98  1  0.01082800  0.54057600  0.13470400  1
  F  F99  1  0.27926900  0.34365500  0.16872800  1
  F  F100  1  0.32612000  0.04139800  0.27935400  1
  F  F101  1  0.25066500  0.17553600  0.42033600  1
  F  F102  1  0.93365000  0.09815800  0.63223900  1
  F  F103  1  0.17890900  0.27765400  0.27777700  1
  F  F104  1  0.31112500  0.19650600  0.54154300  1
  F  F105  1  0.05688700  0.05616600  0.73558100  1
  F  F106  1  0.96225800  0.37753200  0.57831400  1
  F  F107  1  0.39740100  0.40296300  0.27740600  1
  F  F108  1  0.00130300  0.85201000  0.16819200  1
  F  F109  1  0.17758300  0.44835000  0.52680000  1
  F  F110  1  0.33912400  0.02817600  0.96620700  1
  F  F111  1  0.77926900  0.65634500  0.83127200  1
  F  F112  1  0.03441500  0.67891100  0.90186800  1
  F  F113  1  0.75066500  0.82446400  0.57966400  1
  F  F114  1  0.22301500  0.72751200  0.41076400  1
  F  F115  1  0.02027900  0.86686300  0.65616300  1
  F  F116  1  0.93880600  0.16959800  0.84540800  1
  F  F117  1  0.61360400  0.93510200  0.97905500  1
  F  F118  1  0.81112500  0.80349400  0.45845700  1
  F  F119  1  0.93242700  0.55116000  0.01943400  1
  F  F120  1  0.83912400  0.97182400  0.03379300  1
  F  F121  1  0.01375100  0.33318700  0.06915100  1
  F  F122  1  0.17598900  0.50841100  0.03918600  1
  F  F123  1  0.22658500  0.71711100  0.14384200  1
  F  F124  1  0.01993400  0.02662200  0.26062400  1
  F  F125  1  0.26363200  0.75855600  0.89396300  1
  F  F126  1  0.99594200  0.09765300  0.14505600  1
  F  F127  1  0.67758300  0.55165000  0.47320000  1
  F  F128  1  0.43318400  0.59381100  0.11009300  1
  F  F129  1  0.99508200  0.70496100  0.36684600  1
  F  F130  1  0.99518900  0.20315200  0.37319100  1
  F  F131  1  0.53441500  0.32108900  0.09813200  1
  F  F132  1  0.22415800  0.32576400  0.66860700  1
  F  F133  1  0.55688700  0.94383400  0.26441900  1
  F  F134  1  0.57201900  0.07512000  0.11657200  1
  F  F135  1  0.84119500  0.21202000  0.95891400  1
  F  F136  1  0.43880600  0.83040200  0.15459200  1
  F  F137  1  0.51993400  0.97337800  0.73937600  1
  F  F138  1  0.72658500  0.28288900  0.85615800  1
  F  F139  1  0.77269200  0.24288800  0.32947800  1
  F  F140  1  0.47030800  0.43136700  0.50516000  1
  F  F141  1  0.17327000  0.77589400  0.28946000  1
  F  F142  1  0.67741300  0.71005800  0.20986200  1
  F  F143  1  0.90961200  0.43546300  0.37085800  1
  F  F144  1  0.30001400  0.22693200  0.03437200  1
  F  F145  1  0.97030800  0.56863300  0.49484000  1
  F  F146  1  0.08149700  0.11240100  0.51160300  1
  F  F147  1  0.18753800  0.19994600  0.92128800  1
  F  F148  1  0.43365000  0.90184200  0.36776100  1
  F  F149  1  0.40961200  0.56453700  0.62914200  1
  F  F150  1  0.34119500  0.78798000  0.04108600  1
  F  F151  1  0.81772300  0.27095000  0.45321400  1
