# generated using pymatgen
data_Ba3Pb5
_symmetry_space_group_name_H-M   'P 1'
_cell_length_a   7.32961800
_cell_length_b   7.32961800
_cell_length_c   11.60385600
_cell_angle_alpha   90.00000000
_cell_angle_beta   90.00000000
_cell_angle_gamma   101.77475011
_symmetry_Int_Tables_number   1
_chemical_formula_structural   Ba3Pb5
_chemical_formula_sum   'Ba6 Pb10'
_cell_volume   610.27954352
_cell_formula_units_Z   2
loop_
 _symmetry_equiv_pos_site_id
 _symmetry_equiv_pos_as_xyz
  1  'x, y, z'
loop_
 _atom_site_type_symbol
 _atom_site_label
 _atom_site_symmetry_multiplicity
 _atom_site_fract_x
 _atom_site_fract_y
 _atom_site_fract_z
 _atom_site_occupancy
  Ba  Ba0  1  0.86433300  0.86433300  0.75000000  1
  Ba  Ba1  1  0.29334300  0.70665700  0.50000000  1
  Ba  Ba2  1  0.70665700  0.29334300  0.50000000  1
  Ba  Ba3  1  0.70665700  0.29334300  0.00000000  1
  Ba  Ba4  1  0.13566700  0.13566700  0.25000000  1
  Ba  Ba5  1  0.29334300  0.70665700  0.00000000  1
  Pb  Pb6  1  0.01388300  0.41574500  0.75000000  1
  Pb  Pb7  1  0.58425500  0.98611700  0.25000000  1
  Pb  Pb8  1  0.19552800  0.19552800  0.55423000  1
  Pb  Pb9  1  0.19552800  0.19552800  0.94577000  1
  Pb  Pb10  1  0.53785300  0.53785300  0.25000000  1
  Pb  Pb11  1  0.80447200  0.80447200  0.44577000  1
  Pb  Pb12  1  0.46214700  0.46214700  0.75000000  1
  Pb  Pb13  1  0.98611700  0.58425500  0.25000000  1
  Pb  Pb14  1  0.41574500  0.01388300  0.75000000  1
  Pb  Pb15  1  0.80447200  0.80447200  0.05423000  1
