# generated using pymatgen
data_Eu3(AsPd)4
_symmetry_space_group_name_H-M   'P 1'
_cell_length_a   4.17886300
_cell_length_b   4.36141300
_cell_length_c   12.91248900
_cell_angle_alpha   90.00000000
_cell_angle_beta   90.00000000
_cell_angle_gamma   90.00000000
_symmetry_Int_Tables_number   1
_chemical_formula_structural   Eu3(AsPd)4
_chemical_formula_sum   'Eu3 As4 Pd4'
_cell_volume   235.33976299
_cell_formula_units_Z   1
loop_
 _symmetry_equiv_pos_site_id
 _symmetry_equiv_pos_as_xyz
  1  'x, y, z'
loop_
 _atom_site_type_symbol
 _atom_site_label
 _atom_site_symmetry_multiplicity
 _atom_site_fract_x
 _atom_site_fract_y
 _atom_site_fract_z
 _atom_site_occupancy
  Eu  Eu0  1  0.50000000  0.50000000  0.29895700  1
  Eu  Eu1  1  0.50000000  0.50000000  0.70104300  1
  Eu  Eu2  1  0.50000000  0.00000000  0.00000000  1
  As  As3  1  0.00000000  0.00000000  0.38230100  1
  As  As4  1  0.00000000  0.50000000  0.10012700  1
  As  As5  1  0.00000000  0.00000000  0.61769900  1
  As  As6  1  0.00000000  0.50000000  0.89987300  1
  Pd  Pd7  1  0.00000000  0.00000000  0.81074600  1
  Pd  Pd8  1  0.00000000  0.00000000  0.18925400  1
  Pd  Pd9  1  0.50000000  0.00000000  0.50000000  1
  Pd  Pd10  1  0.00000000  0.50000000  0.50000000  1
