# generated using pymatgen
data_Ca10P6SO24
_symmetry_space_group_name_H-M   'P 1'
_cell_length_a   6.79669000
_cell_length_b   9.70756400
_cell_length_c   16.76480401
_cell_angle_alpha   89.72222819
_cell_angle_beta   90.00000000
_cell_angle_gamma   90.00000000
_symmetry_Int_Tables_number   1
_chemical_formula_structural   Ca10P6SO24
_chemical_formula_sum   'Ca20 P12 S2 O48'
_cell_volume   1106.11708766
_cell_formula_units_Z   2
loop_
 _symmetry_equiv_pos_site_id
 _symmetry_equiv_pos_as_xyz
  1  'x, y, z'
loop_
 _atom_site_type_symbol
 _atom_site_label
 _atom_site_symmetry_multiplicity
 _atom_site_fract_x
 _atom_site_fract_y
 _atom_site_fract_z
 _atom_site_occupancy
  Ca  Ca0  1  0.73403800  0.00079600  0.74522400  1
  Ca  Ca1  1  0.75748100  0.87470700  0.12455600  1
  Ca  Ca2  1  0.98240800  0.76042800  0.92280200  1
  Ca  Ca3  1  0.49039800  0.74591000  0.90977800  1
  Ca  Ca4  1  0.22249600  0.62639600  0.11997800  1
  Ca  Ca5  1  0.74817700  0.49098400  0.24911700  1
  Ca  Ca6  1  0.72249600  0.37360400  0.88002200  1
  Ca  Ca7  1  0.72480700  0.38738600  0.62510000  1
  Ca  Ca8  1  0.99039800  0.25409000  0.09022200  1
  Ca  Ca9  1  0.48240800  0.23957200  0.07719800  1
  Ca  Ca10  1  0.99532900  0.24061300  0.40929000  1
  Ca  Ca11  1  0.50251300  0.25519100  0.42229500  1
  Ca  Ca12  1  0.25748100  0.12529300  0.87544400  1
  Ca  Ca13  1  0.26014600  0.12794900  0.62351300  1
  Ca  Ca14  1  0.23403800  0.99920400  0.25477600  1
  Ca  Ca15  1  0.76014600  0.87205100  0.37648700  1
  Ca  Ca16  1  0.00251300  0.74480900  0.57770500  1
  Ca  Ca17  1  0.49532900  0.75938700  0.59071000  1
  Ca  Ca18  1  0.22480700  0.61261400  0.37490000  1
  Ca  Ca19  1  0.24817700  0.50901600  0.75088300  1
  P  P20  1  0.24584500  0.91892800  0.04614500  1
  P  P21  1  0.23618200  0.86635500  0.76514000  1
  P  P22  1  0.73172200  0.53397900  0.06675300  1
  P  P23  1  0.23172200  0.46602100  0.93324700  1
  P  P24  1  0.23607600  0.41982500  0.55075900  1
  P  P25  1  0.24761400  0.35730300  0.26518200  1
  P  P26  1  0.73618200  0.13364500  0.23486000  1
  P  P27  1  0.74584500  0.08107200  0.95385500  1
  P  P28  1  0.75087700  0.03190300  0.56268200  1
  P  P29  1  0.25087700  0.96809700  0.43731800  1
  P  P30  1  0.74761400  0.64269700  0.73481800  1
  P  P31  1  0.73607600  0.58017500  0.44924100  1
  S  S32  1  0.99681000  0.74658500  0.24944200  1
  S  S33  1  0.49681000  0.25341500  0.75055800  1
  O  O34  1  0.07690200  0.97640400  0.78617500  1
  O  O35  1  0.74149300  0.93395000  0.91902900  1
  O  O36  1  0.26523500  0.92191900  0.95324900  1
  O  O37  1  0.43706800  0.92111500  0.79631000  1
  O  O38  1  0.05303900  0.83743400  0.06295100  1
  O  O39  1  0.41732200  0.83277700  0.08203500  1
  O  O40  1  0.19925600  0.72946400  0.81248200  1
  O  O41  1  0.74131900  0.65789600  0.00826900  1
  O  O42  1  0.74654100  0.66351600  0.82619900  1
  O  O43  1  0.20297600  0.60302800  0.98030600  1
  O  O44  1  0.56511900  0.55802200  0.12889700  1
  O  O45  1  0.92393500  0.50923700  0.11555100  1
  O  O46  1  0.42393500  0.49076300  0.88444900  1
  O  O47  1  0.04828000  0.41497600  0.29622800  1
  O  O48  1  0.06511900  0.44197800  0.87110300  1
  O  O49  1  0.74402900  0.43037700  0.41837200  1
  O  O50  1  0.20780500  0.41675400  0.45813100  1
  O  O51  1  0.41093300  0.46025100  0.29093300  1
  O  O52  1  0.70297600  0.39697200  0.01969400  1
  O  O53  1  0.06944900  0.33877200  0.59432600  1
  O  O54  1  0.24654100  0.33648400  0.17380100  1
  O  O55  1  0.24131900  0.34210400  0.99173100  1
  O  O56  1  0.43043700  0.33902900  0.56527600  1
  O  O57  1  0.69925600  0.27053600  0.18751800  1
  O  O58  1  0.27978400  0.21893500  0.31144200  1
  O  O59  1  0.91732200  0.16722300  0.91796500  1
  O  O60  1  0.74661800  0.15508900  0.50426900  1
  O  O61  1  0.73918900  0.16107500  0.32560600  1
  O  O62  1  0.55303900  0.16256600  0.93704900  1
  O  O63  1  0.27012600  0.10720700  0.48323700  1
  O  O64  1  0.93706800  0.07888500  0.20369000  1
  O  O65  1  0.76523500  0.07808100  0.04675100  1
  O  O66  1  0.24149300  0.06605000  0.08097100  1
  O  O67  1  0.55911300  0.01552200  0.61321100  1
  O  O68  1  0.57690200  0.02359600  0.21382500  1
  O  O69  1  0.92241100  0.04811200  0.62321800  1
  O  O70  1  0.42241100  0.95188800  0.37678200  1
  O  O71  1  0.05911300  0.98447800  0.38678900  1
  O  O72  1  0.77012600  0.89279300  0.51676300  1
  O  O73  1  0.23918900  0.83892500  0.67439400  1
  O  O74  1  0.24661800  0.84491100  0.49573100  1
  O  O75  1  0.77978400  0.78106500  0.68855800  1
  O  O76  1  0.93043700  0.66097100  0.43472400  1
  O  O77  1  0.56944900  0.66122800  0.40567400  1
  O  O78  1  0.91093300  0.53974900  0.70906700  1
  O  O79  1  0.70780500  0.58324600  0.54186900  1
  O  O80  1  0.24402900  0.56962300  0.58162800  1
  O  O81  1  0.54828000  0.58502400  0.70377200  1
