# generated using pymatgen
data_ZnCu2GeS4
_symmetry_space_group_name_H-M   'P 1'
_cell_length_a   6.54921957
_cell_length_b   6.54921957
_cell_length_c   6.54921957
_cell_angle_alpha   131.94124357
_cell_angle_beta   131.94124357
_cell_angle_gamma   70.32184212
_symmetry_Int_Tables_number   1
_chemical_formula_structural   ZnCu2GeS4
_chemical_formula_sum   'Zn1 Cu2 Ge1 S4'
_cell_volume   152.32203753
_cell_formula_units_Z   1
loop_
 _symmetry_equiv_pos_site_id
 _symmetry_equiv_pos_as_xyz
  1  'x, y, z'
loop_
 _atom_site_type_symbol
 _atom_site_label
 _atom_site_symmetry_multiplicity
 _atom_site_fract_x
 _atom_site_fract_y
 _atom_site_fract_z
 _atom_site_occupancy
  Zn  Zn0  1  0.00000000  0.00000000  0.00000000  1
  Cu  Cu1  1  0.75000000  0.25000000  0.50000000  1
  Cu  Cu2  1  0.25000000  0.75000000  0.50000000  1
  Ge  Ge3  1  0.50000000  0.50000000  0.00000000  1
  S  S4  1  0.87018100  0.38521700  0.00000000  1
  S  S5  1  0.61478300  0.61478300  0.48496400  1
  S  S6  1  0.38521700  0.87018100  0.00000000  1
  S  S7  1  0.12981900  0.12981900  0.51503600  1
