# generated using pymatgen
data_K2ZnH4
_symmetry_space_group_name_H-M   'P 1'
_cell_length_a   5.85562400
_cell_length_b   7.79665600
_cell_length_c   10.30951100
_cell_angle_alpha   90.00000000
_cell_angle_beta   90.00000000
_cell_angle_gamma   90.00000000
_symmetry_Int_Tables_number   1
_chemical_formula_structural   K2ZnH4
_chemical_formula_sum   'K8 Zn4 H16'
_cell_volume   470.67336365
_cell_formula_units_Z   4
loop_
 _symmetry_equiv_pos_site_id
 _symmetry_equiv_pos_as_xyz
  1  'x, y, z'
loop_
 _atom_site_type_symbol
 _atom_site_label
 _atom_site_symmetry_multiplicity
 _atom_site_fract_x
 _atom_site_fract_y
 _atom_site_fract_z
 _atom_site_occupancy
  K  K0  1  0.25000000  0.16075800  0.59051300  1
  K  K1  1  0.25000000  0.66075800  0.90948700  1
  K  K2  1  0.75000000  0.83924200  0.40948700  1
  K  K3  1  0.75000000  0.33924200  0.09051300  1
  K  K4  1  0.25000000  0.48791800  0.31305900  1
  K  K5  1  0.25000000  0.98791800  0.18694100  1
  K  K6  1  0.75000000  0.51208200  0.68694100  1
  K  K7  1  0.75000000  0.01208200  0.81305900  1
  Zn  Zn8  1  0.25000000  0.23516600  0.91845000  1
  Zn  Zn9  1  0.25000000  0.73516600  0.58155000  1
  Zn  Zn10  1  0.75000000  0.76483400  0.08155000  1
  Zn  Zn11  1  0.75000000  0.26483400  0.41845000  1
  H  H12  1  0.01845700  0.31215400  0.84581800  1
  H  H13  1  0.48154300  0.81215400  0.65418200  1
  H  H14  1  0.51845700  0.68784600  0.15418200  1
  H  H15  1  0.98154300  0.18784600  0.34581800  1
  H  H16  1  0.98154300  0.68784600  0.15418200  1
  H  H17  1  0.51845700  0.18784600  0.34581800  1
  H  H18  1  0.48154300  0.31215400  0.84581800  1
  H  H19  1  0.01845700  0.81215400  0.65418200  1
  H  H20  1  0.25000000  0.02327500  0.91333800  1
  H  H21  1  0.25000000  0.52327500  0.58666200  1
  H  H22  1  0.75000000  0.97672500  0.08666200  1
  H  H23  1  0.75000000  0.47672500  0.41333800  1
  H  H24  1  0.25000000  0.80679400  0.42865000  1
  H  H25  1  0.25000000  0.30679400  0.07135000  1
  H  H26  1  0.75000000  0.19320600  0.57135000  1
  H  H27  1  0.75000000  0.69320600  0.92865000  1
