# generated using pymatgen
data_BaSeO3
_symmetry_space_group_name_H-M   'P 1'
_cell_length_a   5.77056900
_cell_length_b   4.76147800
_cell_length_c   7.06238906
_cell_angle_alpha   72.08345991
_cell_angle_beta   90.00000000
_cell_angle_gamma   90.00000000
_symmetry_Int_Tables_number   1
_chemical_formula_structural   BaSeO3
_chemical_formula_sum   'Ba2 Se2 O6'
_cell_volume   184.63899372
_cell_formula_units_Z   2
loop_
 _symmetry_equiv_pos_site_id
 _symmetry_equiv_pos_as_xyz
  1  'x, y, z'
loop_
 _atom_site_type_symbol
 _atom_site_label
 _atom_site_symmetry_multiplicity
 _atom_site_fract_x
 _atom_site_fract_y
 _atom_site_fract_z
 _atom_site_occupancy
  Ba  Ba0  1  0.25000000  0.65407100  0.70527300  1
  Ba  Ba1  1  0.75000000  0.34592900  0.29472700  1
  Se  Se2  1  0.75000000  0.06474100  0.83643800  1
  Se  Se3  1  0.25000000  0.93525900  0.16356200  1
  O  O4  1  0.01745900  0.82710300  0.32451000  1
  O  O5  1  0.51745900  0.17289700  0.67549000  1
  O  O6  1  0.98254100  0.17289700  0.67549000  1
  O  O7  1  0.48254100  0.82710300  0.32451000  1
  O  O8  1  0.25000000  0.31371000  0.11385200  1
  O  O9  1  0.75000000  0.68629000  0.88614800  1
