# generated using pymatgen
data_In4Te3
_symmetry_space_group_name_H-M   'P 1'
_cell_length_a   4.51586500
_cell_length_b   12.99524200
_cell_length_c   16.00012900
_cell_angle_alpha   90.00000000
_cell_angle_beta   90.00000000
_cell_angle_gamma   90.00000000
_symmetry_Int_Tables_number   1
_chemical_formula_structural   In4Te3
_chemical_formula_sum   'In16 Te12'
_cell_volume   938.96370656
_cell_formula_units_Z   4
loop_
 _symmetry_equiv_pos_site_id
 _symmetry_equiv_pos_as_xyz
  1  'x, y, z'
loop_
 _atom_site_type_symbol
 _atom_site_label
 _atom_site_symmetry_multiplicity
 _atom_site_fract_x
 _atom_site_fract_y
 _atom_site_fract_z
 _atom_site_occupancy
  In  In0  1  0.00000000  0.65517800  0.28516700  1
  In  In1  1  0.00000000  0.34482200  0.71483300  1
  In  In2  1  0.00000000  0.47451700  0.18304800  1
  In  In3  1  0.00000000  0.60312200  0.57250700  1
  In  In4  1  0.50000000  0.15517800  0.21483300  1
  In  In5  1  0.50000000  0.89687800  0.07250700  1
  In  In6  1  0.00000000  0.35362100  0.03564600  1
  In  In7  1  0.50000000  0.84482200  0.78516700  1
  In  In8  1  0.50000000  0.14637900  0.53564600  1
  In  In9  1  0.00000000  0.52548300  0.81695200  1
  In  In10  1  0.50000000  0.85362100  0.46435400  1
  In  In11  1  0.00000000  0.64637900  0.96435400  1
  In  In12  1  0.50000000  0.10312200  0.92749300  1
  In  In13  1  0.50000000  0.97451700  0.31695200  1
  In  In14  1  0.50000000  0.02548300  0.68304800  1
  In  In15  1  0.00000000  0.39687800  0.42749300  1
  Te  Te16  1  0.50000000  0.35166500  0.92258500  1
  Te  Te17  1  0.00000000  0.86384100  0.22552800  1
  Te  Te18  1  0.00000000  0.85166500  0.57741500  1
  Te  Te19  1  0.00000000  0.13942400  0.09599600  1
  Te  Te20  1  0.00000000  0.13615900  0.77447200  1
  Te  Te21  1  0.50000000  0.64833500  0.07741500  1
  Te  Te22  1  0.50000000  0.36384100  0.27447200  1
  Te  Te23  1  0.50000000  0.63942400  0.40400400  1
  Te  Te24  1  0.00000000  0.86057600  0.90400300  1
  Te  Te25  1  0.00000000  0.14833500  0.42258500  1
  Te  Te26  1  0.50000000  0.36057600  0.59599700  1
  Te  Te27  1  0.50000000  0.63615900  0.72552800  1
