# generated using pymatgen
data_NaLa(PO3)4
_symmetry_space_group_name_H-M   'P 1'
_cell_length_a   13.42166600
_cell_length_b   7.36023100
_cell_length_c   12.53471168
_cell_angle_alpha   54.33528883
_cell_angle_beta   90.00000000
_cell_angle_gamma   90.00000000
_symmetry_Int_Tables_number   1
_chemical_formula_structural   NaLa(PO3)4
_chemical_formula_sum   'Na4 La4 P16 O48'
_cell_volume   1006.01626943
_cell_formula_units_Z   4
loop_
 _symmetry_equiv_pos_site_id
 _symmetry_equiv_pos_as_xyz
  1  'x, y, z'
loop_
 _atom_site_type_symbol
 _atom_site_label
 _atom_site_symmetry_multiplicity
 _atom_site_fract_x
 _atom_site_fract_y
 _atom_site_fract_z
 _atom_site_occupancy
  Na  Na0  1  0.27896500  0.93498500  0.56471400  1
  Na  Na1  1  0.77896500  0.06501500  0.93528600  1
  Na  Na2  1  0.72103500  0.06501500  0.43528600  1
  Na  Na3  1  0.22103500  0.93498500  0.06471400  1
  La  La4  1  0.22045100  0.53542400  0.97775300  1
  La  La5  1  0.72045100  0.46457600  0.52224700  1
  La  La6  1  0.77954900  0.46457600  0.02224700  1
  La  La7  1  0.27954900  0.53542400  0.47775300  1
  P  P8  1  0.40985400  0.57110000  0.20024200  1
  P  P9  1  0.90985400  0.42890000  0.29975800  1
  P  P10  1  0.59014600  0.42890000  0.79975800  1
  P  P11  1  0.09014600  0.57110000  0.70024200  1
  P  P12  1  0.37405800  0.33653100  0.80504500  1
  P  P13  1  0.87405800  0.66346900  0.69495500  1
  P  P14  1  0.62594200  0.66346900  0.19495500  1
  P  P15  1  0.12594200  0.33653100  0.30504500  1
  P  P16  1  0.38629200  0.11608400  0.26622000  1
  P  P17  1  0.88629200  0.88391600  0.23378000  1
  P  P18  1  0.61370800  0.88391600  0.73378000  1
  P  P19  1  0.11370800  0.11608400  0.76622000  1
  P  P20  1  0.40016600  0.00636100  0.74170300  1
  P  P21  1  0.90016700  0.99363900  0.75829700  1
  P  P22  1  0.59983400  0.99363900  0.25829700  1
  P  P23  1  0.09983400  0.00636100  0.24170300  1
  O  O24  1  0.38888100  0.63357100  0.29271400  1
  O  O25  1  0.88888100  0.36642900  0.20728600  1
  O  O26  1  0.61111900  0.36642900  0.70728600  1
  O  O27  1  0.11111900  0.63357100  0.79271400  1
  O  O28  1  0.35467600  0.91367000  0.39814000  1
  O  O29  1  0.85467600  0.08633000  0.10186000  1
  O  O30  1  0.64532400  0.08633000  0.60186000  1
  O  O31  1  0.14532400  0.91367000  0.89814000  1
  O  O32  1  0.39052700  0.18725200  0.59678000  1
  O  O33  1  0.89052700  0.81274800  0.90322000  1
  O  O34  1  0.60947300  0.81274800  0.40322000  1
  O  O35  1  0.10947300  0.18725200  0.09678000  1
  O  O36  1  0.37914800  0.09493800  0.83020800  1
  O  O37  1  0.87914800  0.90506200  0.66979200  1
  O  O38  1  0.62085200  0.90506200  0.16979200  1
  O  O39  1  0.12085200  0.09493800  0.33020800  1
  O  O40  1  0.13437800  0.51862700  0.16079800  1
  O  O41  1  0.33692800  0.80094300  0.79439600  1
  O  O42  1  0.63437800  0.48137300  0.33920200  1
  O  O43  1  0.36562200  0.51862700  0.66079800  1
  O  O44  1  0.47979200  0.34891100  0.86203400  1
  O  O45  1  0.97979200  0.65108900  0.63796600  1
  O  O46  1  0.52020800  0.65108900  0.13796600  1
  O  O47  1  0.02020800  0.34891100  0.36203400  1
  O  O48  1  0.98637600  0.92919900  0.28410700  1
  O  O49  1  0.48637600  0.07080100  0.21589300  1
  O  O50  1  0.01362400  0.07080100  0.71589300  1
  O  O51  1  0.51362400  0.92919900  0.78410700  1
  O  O52  1  0.16001600  0.65701700  0.58658800  1
  O  O53  1  0.66001600  0.34298300  0.91341200  1
  O  O54  1  0.83998400  0.34298300  0.41341200  1
  O  O55  1  0.33998400  0.65701700  0.08658800  1
  O  O56  1  0.18598400  0.21335300  0.65461300  1
  O  O57  1  0.68598400  0.78664700  0.84538700  1
  O  O58  1  0.81401600  0.78664700  0.34538700  1
  O  O59  1  0.31401600  0.21335300  0.15461300  1
  O  O60  1  0.20478600  0.31198600  0.39787400  1
  O  O61  1  0.70478600  0.68801400  0.10212600  1
  O  O62  1  0.79521400  0.68801400  0.60212600  1
  O  O63  1  0.29521400  0.31198600  0.89787400  1
  O  O64  1  0.07965700  0.30175200  0.78869700  1
  O  O65  1  0.57965700  0.69824800  0.71130300  1
  O  O66  1  0.92034300  0.69824800  0.21130300  1
  O  O67  1  0.42034300  0.30175200  0.28869700  1
  O  O68  1  0.16307200  0.80094300  0.29439600  1
  O  O69  1  0.66307200  0.19905700  0.20560400  1
  O  O70  1  0.83692800  0.19905700  0.70560400  1
  O  O71  1  0.86562200  0.48137300  0.83920200  1
