# generated using pymatgen
data_Cs2AgBr3
_symmetry_space_group_name_H-M   'P 1'
_cell_length_a   4.82043800
_cell_length_b   14.08974200
_cell_length_c   14.65688500
_cell_angle_alpha   90.00000000
_cell_angle_beta   90.00000000
_cell_angle_gamma   90.00000000
_symmetry_Int_Tables_number   1
_chemical_formula_structural   Cs2AgBr3
_chemical_formula_sum   'Cs8 Ag4 Br12'
_cell_volume   995.47698193
_cell_formula_units_Z   4
loop_
 _symmetry_equiv_pos_site_id
 _symmetry_equiv_pos_as_xyz
  1  'x, y, z'
loop_
 _atom_site_type_symbol
 _atom_site_label
 _atom_site_symmetry_multiplicity
 _atom_site_fract_x
 _atom_site_fract_y
 _atom_site_fract_z
 _atom_site_occupancy
  Cs  Cs0  1  0.75000000  0.98857400  0.82594500  1
  Cs  Cs1  1  0.25000000  0.17244600  0.51906500  1
  Cs  Cs2  1  0.75000000  0.82755400  0.48093500  1
  Cs  Cs3  1  0.75000000  0.48857400  0.67405500  1
  Cs  Cs4  1  0.25000000  0.51142600  0.32594500  1
  Cs  Cs5  1  0.25000000  0.01142600  0.17405500  1
  Cs  Cs6  1  0.75000000  0.32755400  0.01906500  1
  Cs  Cs7  1  0.25000000  0.67244600  0.98093500  1
  Ag  Ag8  1  0.25000000  0.25515800  0.80423800  1
  Ag  Ag9  1  0.75000000  0.24484200  0.30423800  1
  Ag  Ag10  1  0.25000000  0.75515800  0.69576200  1
  Ag  Ag11  1  0.75000000  0.74484200  0.19576200  1
  Br  Br12  1  0.25000000  0.13785500  0.95087400  1
  Br  Br13  1  0.75000000  0.22483200  0.71206800  1
  Br  Br14  1  0.75000000  0.86214500  0.04912600  1
  Br  Br15  1  0.25000000  0.44030600  0.85966800  1
  Br  Br16  1  0.25000000  0.77516800  0.28793200  1
  Br  Br17  1  0.75000000  0.72483200  0.78793200  1
  Br  Br18  1  0.25000000  0.27516800  0.21206800  1
  Br  Br19  1  0.25000000  0.63785500  0.54912600  1
  Br  Br20  1  0.75000000  0.05969400  0.35966800  1
  Br  Br21  1  0.75000000  0.55969400  0.14033200  1
  Br  Br22  1  0.75000000  0.36214500  0.45087400  1
  Br  Br23  1  0.25000000  0.94030600  0.64033200  1
