# generated using pymatgen
data_SiH6(NF2)2
_symmetry_space_group_name_H-M   'P 1'
_cell_length_a   7.21941200
_cell_length_b   5.11857300
_cell_length_c   6.89955564
_cell_angle_alpha   87.88490348
_cell_angle_beta   90.00000000
_cell_angle_gamma   90.00000000
_symmetry_Int_Tables_number   1
_chemical_formula_structural   SiH6(NF2)2
_chemical_formula_sum   'Si2 H12 N4 F8'
_cell_volume   254.78617901
_cell_formula_units_Z   2
loop_
 _symmetry_equiv_pos_site_id
 _symmetry_equiv_pos_as_xyz
  1  'x, y, z'
loop_
 _atom_site_type_symbol
 _atom_site_label
 _atom_site_symmetry_multiplicity
 _atom_site_fract_x
 _atom_site_fract_y
 _atom_site_fract_z
 _atom_site_occupancy
  Si  Si0  1  0.50000000  0.00000000  0.50000000  1
  Si  Si1  1  0.00000000  0.00000000  0.00000000  1
  H  H2  1  0.48628500  0.58491600  0.69660500  1
  H  H3  1  0.98628500  0.41508400  0.80339500  1
  H  H4  1  0.51371500  0.41508400  0.30339500  1
  H  H5  1  0.01371500  0.58491600  0.19660500  1
  H  H6  1  0.56866600  0.82125100  0.82994000  1
  H  H7  1  0.06866600  0.17874900  0.67006000  1
  H  H8  1  0.43133400  0.17874900  0.17006000  1
  H  H9  1  0.93133400  0.82125100  0.32994000  1
  H  H10  1  0.34105500  0.80046200  0.78967700  1
  H  H11  1  0.84105500  0.19953800  0.71032300  1
  H  H12  1  0.65894500  0.19953800  0.21032300  1
  H  H13  1  0.15894500  0.80046200  0.28967700  1
  N  N14  1  0.46965800  0.77893900  0.72808700  1
  N  N15  1  0.96965800  0.22106100  0.77191300  1
  N  N16  1  0.53034200  0.22106100  0.27191300  1
  N  N17  1  0.03034200  0.77893900  0.22808700  1
  F  F18  1  0.72223900  0.89087500  0.48335300  1
  F  F19  1  0.22223900  0.10912500  0.01664700  1
  F  F20  1  0.27776100  0.10912500  0.51664700  1
  F  F21  1  0.77776100  0.89087500  0.98335300  1
  F  F22  1  0.57509500  0.24785600  0.64175400  1
  F  F23  1  0.07509500  0.75214400  0.85824600  1
  F  F24  1  0.42490500  0.75214400  0.35824600  1
  F  F25  1  0.92490500  0.24785600  0.14175400  1
