# generated using pymatgen
data_Cu7S4
_symmetry_space_group_name_H-M   'P 1'
_cell_length_a   7.82934900
_cell_length_b   7.87305500
_cell_length_c   10.88931600
_cell_angle_alpha   90.00000000
_cell_angle_beta   90.00000000
_cell_angle_gamma   90.00000000
_symmetry_Int_Tables_number   1
_chemical_formula_structural   Cu7S4
_chemical_formula_sum   'Cu28 S16'
_cell_volume   671.22718735
_cell_formula_units_Z   4
loop_
 _symmetry_equiv_pos_site_id
 _symmetry_equiv_pos_as_xyz
  1  'x, y, z'
loop_
 _atom_site_type_symbol
 _atom_site_label
 _atom_site_symmetry_multiplicity
 _atom_site_fract_x
 _atom_site_fract_y
 _atom_site_fract_z
 _atom_site_occupancy
  Cu  Cu0  1  0.52085100  0.75000000  0.15233700  1
  Cu  Cu1  1  0.97914900  0.25000000  0.65233700  1
  Cu  Cu2  1  0.41934800  0.75000000  0.82955700  1
  Cu  Cu3  1  0.51801700  0.75000000  0.40852800  1
  Cu  Cu4  1  0.26493500  0.08541700  0.15955700  1
  Cu  Cu5  1  0.02085100  0.75000000  0.34766300  1
  Cu  Cu6  1  0.32698200  0.02322200  0.42602500  1
  Cu  Cu7  1  0.82698200  0.47677800  0.07397500  1
  Cu  Cu8  1  0.73506500  0.91458300  0.84044300  1
  Cu  Cu9  1  0.23506500  0.58541700  0.65955700  1
  Cu  Cu10  1  0.48198300  0.25000000  0.59147200  1
  Cu  Cu11  1  0.67301800  0.52322200  0.57397500  1
  Cu  Cu12  1  0.73506500  0.58541700  0.84044300  1
  Cu  Cu13  1  0.01801700  0.75000000  0.09147200  1
  Cu  Cu14  1  0.17301800  0.97677800  0.92602500  1
  Cu  Cu15  1  0.23506500  0.91458300  0.65955700  1
  Cu  Cu16  1  0.91934800  0.75000000  0.67044300  1
  Cu  Cu17  1  0.32698200  0.47677800  0.42602500  1
  Cu  Cu18  1  0.82698200  0.02322200  0.07397500  1
  Cu  Cu19  1  0.47914900  0.25000000  0.84766300  1
  Cu  Cu20  1  0.58065200  0.25000000  0.17044300  1
  Cu  Cu21  1  0.76493500  0.08541700  0.34044300  1
  Cu  Cu22  1  0.26493500  0.41458300  0.15955700  1
  Cu  Cu23  1  0.76493500  0.41458300  0.34044300  1
  Cu  Cu24  1  0.67301800  0.97677800  0.57397500  1
  Cu  Cu25  1  0.98198300  0.25000000  0.90852800  1
  Cu  Cu26  1  0.17301800  0.52322200  0.92602500  1
  Cu  Cu27  1  0.08065200  0.25000000  0.32955700  1
  S  S28  1  0.21200100  0.25000000  0.51567500  1
  S  S29  1  0.00134000  0.99791700  0.23773200  1
  S  S30  1  0.78799900  0.75000000  0.48432500  1
  S  S31  1  0.50134000  0.50208300  0.26226800  1
  S  S32  1  0.49866000  0.49791700  0.73773200  1
  S  S33  1  0.74465300  0.75000000  0.01586900  1
  S  S34  1  0.99866000  0.00208300  0.76226800  1
  S  S35  1  0.24465300  0.75000000  0.48413100  1
  S  S36  1  0.99866000  0.49791700  0.76226800  1
  S  S37  1  0.50134000  0.99791700  0.26226800  1
  S  S38  1  0.25534700  0.25000000  0.98413100  1
  S  S39  1  0.00134000  0.50208300  0.23773200  1
  S  S40  1  0.28799900  0.75000000  0.01567500  1
  S  S41  1  0.49866000  0.00208300  0.73773200  1
  S  S42  1  0.75534700  0.25000000  0.51586900  1
  S  S43  1  0.71200100  0.25000000  0.98432500  1
