# generated using pymatgen
data_Na3Sc2V3O12
_symmetry_space_group_name_H-M   'P 1'
_cell_length_a   11.07100376
_cell_length_b   11.07100376
_cell_length_c   11.07100376
_cell_angle_alpha   109.47122063
_cell_angle_beta   109.47122063
_cell_angle_gamma   109.47122063
_symmetry_Int_Tables_number   1
_chemical_formula_structural   Na3Sc2V3O12
_chemical_formula_sum   'Na12 Sc8 V12 O48'
_cell_volume   1044.57374028
_cell_formula_units_Z   4
loop_
 _symmetry_equiv_pos_site_id
 _symmetry_equiv_pos_as_xyz
  1  'x, y, z'
loop_
 _atom_site_type_symbol
 _atom_site_label
 _atom_site_symmetry_multiplicity
 _atom_site_fract_x
 _atom_site_fract_y
 _atom_site_fract_z
 _atom_site_occupancy
  Na  Na0  1  0.37500000  0.12500000  0.25000000  1
  Na  Na1  1  0.75000000  0.12500000  0.37500000  1
  Na  Na2  1  0.25000000  0.37500000  0.12500000  1
  Na  Na3  1  0.12500000  0.25000000  0.37500000  1
  Na  Na4  1  0.37500000  0.75000000  0.12500000  1
  Na  Na5  1  0.12500000  0.37500000  0.75000000  1
  Na  Na6  1  0.62500000  0.87500000  0.75000000  1
  Na  Na7  1  0.25000000  0.87500000  0.62500000  1
  Na  Na8  1  0.75000000  0.62500000  0.87500000  1
  Na  Na9  1  0.87500000  0.75000000  0.62500000  1
  Na  Na10  1  0.62500000  0.25000000  0.87500000  1
  Na  Na11  1  0.87500000  0.62500000  0.25000000  1
  Sc  Sc12  1  0.00000000  0.00000000  0.00000000  1
  Sc  Sc13  1  0.50000000  0.00000000  0.00000000  1
  Sc  Sc14  1  0.00000000  0.50000000  0.00000000  1
  Sc  Sc15  1  0.00000000  0.00000000  0.50000000  1
  Sc  Sc16  1  0.50000000  0.50000000  0.00000000  1
  Sc  Sc17  1  0.00000000  0.50000000  0.50000000  1
  Sc  Sc18  1  0.50000000  0.00000000  0.50000000  1
  Sc  Sc19  1  0.50000000  0.50000000  0.50000000  1
  V  V20  1  0.62500000  0.37500000  0.25000000  1
  V  V21  1  0.75000000  0.37500000  0.62500000  1
  V  V22  1  0.25000000  0.12500000  0.87500000  1
  V  V23  1  0.87500000  0.25000000  0.12500000  1
  V  V24  1  0.62500000  0.75000000  0.37500000  1
  V  V25  1  0.37500000  0.62500000  0.75000000  1
  V  V26  1  0.12500000  0.75000000  0.87500000  1
  V  V27  1  0.75000000  0.87500000  0.12500000  1
  V  V28  1  0.37500000  0.25000000  0.62500000  1
  V  V29  1  0.25000000  0.62500000  0.37500000  1
  V  V30  1  0.87500000  0.12500000  0.75000000  1
  V  V31  1  0.12500000  0.87500000  0.25000000  1
  O  O32  1  0.41208400  0.80607900  0.79915700  1
  O  O33  1  0.88707300  0.39399500  0.08791600  1
  O  O34  1  0.10600500  0.99307700  0.69392100  1
  O  O35  1  0.50692300  0.61292700  0.70084300  1
  O  O36  1  0.69392100  0.08791600  0.70084300  1
  O  O37  1  0.61292700  0.70084300  0.50692300  1
  O  O38  1  0.61292700  0.41208400  0.10600500  1
  O  O39  1  0.70084300  0.50692300  0.61292700  1
  O  O40  1  0.80607900  0.50692300  0.39399500  1
  O  O41  1  0.99307700  0.79915700  0.88707300  1
  O  O42  1  0.79915700  0.88707300  0.99307700  1
  O  O43  1  0.70084300  0.69392100  0.08791600  1
  O  O44  1  0.41208400  0.10600500  0.61292700  1
  O  O45  1  0.39399500  0.80607900  0.50692300  1
  O  O46  1  0.08791600  0.70084300  0.69392100  1
  O  O47  1  0.10600500  0.61292700  0.41208400  1
  O  O48  1  0.50692300  0.39399500  0.80607900  1
  O  O49  1  0.08791600  0.88707300  0.39399500  1
  O  O50  1  0.99307700  0.69392100  0.10600500  1
  O  O51  1  0.19392100  0.49307700  0.60600500  1
  O  O52  1  0.69392100  0.10600500  0.99307700  1
  O  O53  1  0.79915700  0.41208400  0.80607900  1
  O  O54  1  0.39399500  0.08791600  0.88707300  1
  O  O55  1  0.88707300  0.99307700  0.79915700  1
  O  O56  1  0.58791600  0.19392100  0.20084300  1
  O  O57  1  0.11292700  0.60600500  0.91208400  1
  O  O58  1  0.89399500  0.00692300  0.30607900  1
  O  O59  1  0.49307700  0.38707300  0.29915700  1
  O  O60  1  0.30607900  0.91208400  0.29915700  1
  O  O61  1  0.38707300  0.29915700  0.49307700  1
  O  O62  1  0.38707300  0.58791600  0.89399500  1
  O  O63  1  0.29915700  0.49307700  0.38707300  1
  O  O64  1  0.11292700  0.00692300  0.20084300  1
  O  O65  1  0.60600500  0.91208400  0.11292700  1
  O  O66  1  0.20084300  0.58791600  0.19392100  1
  O  O67  1  0.19392100  0.20084300  0.58791600  1
  O  O68  1  0.30607900  0.89399500  0.00692300  1
  O  O69  1  0.00692300  0.30607900  0.89399500  1
  O  O70  1  0.91208400  0.11292700  0.60600500  1
  O  O71  1  0.49307700  0.60600500  0.19392100  1
  O  O72  1  0.89399500  0.38707300  0.58791600  1
  O  O73  1  0.91208400  0.29915700  0.30607900  1
  O  O74  1  0.60600500  0.19392100  0.49307700  1
  O  O75  1  0.58791600  0.89399500  0.38707300  1
  O  O76  1  0.29915700  0.30607900  0.91208400  1
  O  O77  1  0.20084300  0.11292700  0.00692300  1
  O  O78  1  0.00692300  0.20084300  0.11292700  1
  O  O79  1  0.80607900  0.79915700  0.41208400  1
