# generated using pymatgen
data_TiH12C2(NF)6
_symmetry_space_group_name_H-M   'P 1'
_cell_length_a   7.47913446
_cell_length_b   7.47913446
_cell_length_c   6.31030373
_cell_angle_alpha   69.12771349
_cell_angle_beta   69.12771349
_cell_angle_gamma   59.71137007
_symmetry_Int_Tables_number   1
_chemical_formula_structural   TiH12C2(NF)6
_chemical_formula_sum   'Ti1 H12 C2 N6 F6'
_cell_volume   277.89168768
_cell_formula_units_Z   1
loop_
 _symmetry_equiv_pos_site_id
 _symmetry_equiv_pos_as_xyz
  1  'x, y, z'
loop_
 _atom_site_type_symbol
 _atom_site_label
 _atom_site_symmetry_multiplicity
 _atom_site_fract_x
 _atom_site_fract_y
 _atom_site_fract_z
 _atom_site_occupancy
  Ti  Ti0  1  0.93359900  0.93359900  0.58145900  1
  H  H1  1  0.94930200  0.62659800  0.30753600  1
  H  H2  1  0.62659800  0.94930200  0.30753600  1
  H  H3  1  0.94070000  0.39304800  0.32340100  1
  H  H4  1  0.39304800  0.94070000  0.32340100  1
  H  H5  1  0.62930900  0.39378200  0.33065800  1
  H  H6  1  0.39378200  0.62930900  0.33065800  1
  H  H7  1  0.23351800  0.46761600  0.86288600  1
  H  H8  1  0.46761600  0.23351800  0.86288600  1
  H  H9  1  0.91796700  0.46870900  0.85625600  1
  H  H10  1  0.46870900  0.91796700  0.85625600  1
  H  H11  1  0.92384200  0.23411100  0.84959500  1
  H  H12  1  0.23411100  0.92384200  0.84959500  1
  C  C13  1  0.20657000  0.20657000  0.86438900  1
  C  C14  1  0.65948600  0.65948600  0.30472000  1
  N  N15  1  0.86808600  0.55506600  0.29760200  1
  N  N16  1  0.55506600  0.86808600  0.29760200  1
  N  N17  1  0.55502900  0.55502900  0.31022400  1
  N  N18  1  0.30724800  0.30724800  0.87704200  1
  N  N19  1  0.99998100  0.31034200  0.86174500  1
  N  N20  1  0.31034200  0.99998100  0.86174500  1
  F  F21  1  0.77514700  0.77514700  0.75607800  1
  F  F22  1  0.09240000  0.09240000  0.40294000  1
  F  F23  1  0.73829300  0.09959800  0.38345900  1
  F  F24  1  0.09959800  0.73829300  0.38345900  1
  F  F25  1  0.77176700  0.12888500  0.77958600  1
  F  F26  1  0.12888500  0.77176700  0.77958600  1
