# generated using pymatgen
data_CeSnRu
_symmetry_space_group_name_H-M   'P 1'
_cell_length_a   6.31305652
_cell_length_b   6.31305652
_cell_length_c   10.01358769
_cell_angle_alpha   78.06192889
_cell_angle_beta   78.06192889
_cell_angle_gamma   45.10493250
_symmetry_Int_Tables_number   1
_chemical_formula_structural   CeSnRu
_chemical_formula_sum   'Ce4 Sn4 Ru4'
_cell_volume   275.53155197
_cell_formula_units_Z   4
loop_
 _symmetry_equiv_pos_site_id
 _symmetry_equiv_pos_as_xyz
  1  'x, y, z'
loop_
 _atom_site_type_symbol
 _atom_site_label
 _atom_site_symmetry_multiplicity
 _atom_site_fract_x
 _atom_site_fract_y
 _atom_site_fract_z
 _atom_site_occupancy
  Ce  Ce0  1  0.13103400  0.13103400  0.58882200  1
  Ce  Ce1  1  0.86896600  0.86896600  0.41117800  1
  Ce  Ce2  1  0.86384700  0.86384700  0.91220600  1
  Ce  Ce3  1  0.13615300  0.13615300  0.08779400  1
  Sn  Sn4  1  0.41799200  0.41799200  0.15321700  1
  Sn  Sn5  1  0.41030800  0.41030800  0.65115300  1
  Sn  Sn6  1  0.58200800  0.58200800  0.84678300  1
  Sn  Sn7  1  0.58969200  0.58969200  0.34884700  1
  Ru  Ru8  1  0.81504200  0.81504200  0.16338700  1
  Ru  Ru9  1  0.19049000  0.19049000  0.32946200  1
  Ru  Ru10  1  0.18495800  0.18495800  0.83661300  1
  Ru  Ru11  1  0.80951000  0.80951000  0.67053800  1
