# generated using pymatgen
data_SnRh2
_symmetry_space_group_name_H-M   'P 1'
_cell_length_a   4.31259800
_cell_length_b   5.60174200
_cell_length_c   8.11444000
_cell_angle_alpha   90.00000000
_cell_angle_beta   90.00000000
_cell_angle_gamma   90.00000000
_symmetry_Int_Tables_number   1
_chemical_formula_structural   SnRh2
_chemical_formula_sum   'Sn4 Rh8'
_cell_volume   196.02913931
_cell_formula_units_Z   4
loop_
 _symmetry_equiv_pos_site_id
 _symmetry_equiv_pos_as_xyz
  1  'x, y, z'
loop_
 _atom_site_type_symbol
 _atom_site_label
 _atom_site_symmetry_multiplicity
 _atom_site_fract_x
 _atom_site_fract_y
 _atom_site_fract_z
 _atom_site_occupancy
  Sn  Sn0  1  0.75000000  0.30415100  0.60292300  1
  Sn  Sn1  1  0.75000000  0.80415100  0.89707700  1
  Sn  Sn2  1  0.25000000  0.69584900  0.39707700  1
  Sn  Sn3  1  0.25000000  0.19584900  0.10292300  1
  Rh  Rh4  1  0.25000000  0.67383200  0.06707900  1
  Rh  Rh5  1  0.75000000  0.95945300  0.22308500  1
  Rh  Rh6  1  0.75000000  0.45945300  0.27691500  1
  Rh  Rh7  1  0.75000000  0.32616800  0.93292100  1
  Rh  Rh8  1  0.75000000  0.82616800  0.56707900  1
  Rh  Rh9  1  0.25000000  0.17383200  0.43292100  1
  Rh  Rh10  1  0.25000000  0.54054700  0.72308500  1
  Rh  Rh11  1  0.25000000  0.04054700  0.77691500  1
