# generated using pymatgen
data_Sr3BCNCl2
_symmetry_space_group_name_H-M   'P 1'
_cell_length_a   4.08981200
_cell_length_b   11.78330900
_cell_length_c   14.68718700
_cell_angle_alpha   90.00000000
_cell_angle_beta   90.00000000
_cell_angle_gamma   90.00000000
_symmetry_Int_Tables_number   1
_chemical_formula_structural   Sr3BCNCl2
_chemical_formula_sum   'Sr12 B4 C4 N4 Cl8'
_cell_volume   707.79784473
_cell_formula_units_Z   4
loop_
 _symmetry_equiv_pos_site_id
 _symmetry_equiv_pos_as_xyz
  1  'x, y, z'
loop_
 _atom_site_type_symbol
 _atom_site_label
 _atom_site_symmetry_multiplicity
 _atom_site_fract_x
 _atom_site_fract_y
 _atom_site_fract_z
 _atom_site_occupancy
  Sr  Sr0  1  0.75000000  0.69138200  0.32671600  1
  Sr  Sr1  1  0.25000000  0.13076900  0.88329900  1
  Sr  Sr2  1  0.75000000  0.86923100  0.11670100  1
  Sr  Sr3  1  0.25000000  0.36923100  0.38329900  1
  Sr  Sr4  1  0.75000000  0.05838600  0.35450800  1
  Sr  Sr5  1  0.25000000  0.55838600  0.14549200  1
  Sr  Sr6  1  0.75000000  0.44161400  0.85450800  1
  Sr  Sr7  1  0.25000000  0.94161400  0.64549200  1
  Sr  Sr8  1  0.75000000  0.80861800  0.82671600  1
  Sr  Sr9  1  0.75000000  0.63076900  0.61670100  1
  Sr  Sr10  1  0.25000000  0.19138200  0.17328400  1
  Sr  Sr11  1  0.25000000  0.30861800  0.67328400  1
  B  B12  1  0.25000000  0.61652900  0.74533500  1
  B  B13  1  0.75000000  0.11652900  0.75466500  1
  B  B14  1  0.75000000  0.38347100  0.25466500  1
  B  B15  1  0.25000000  0.88347100  0.24533500  1
  C  C16  1  0.75000000  0.23469200  0.78068700  1
  C  C17  1  0.25000000  0.76530800  0.21931300  1
  C  C18  1  0.25000000  0.73469200  0.71931300  1
  C  C19  1  0.75000000  0.26530800  0.28068700  1
  N  N20  1  0.25000000  0.99912500  0.25214500  1
  N  N21  1  0.75000000  0.49912500  0.24785500  1
  N  N22  1  0.25000000  0.50087500  0.75214500  1
  N  N23  1  0.75000000  0.00087500  0.74785500  1
  Cl  Cl24  1  0.25000000  0.89098700  0.96213100  1
  Cl  Cl25  1  0.25000000  0.13899900  0.49957300  1
  Cl  Cl26  1  0.25000000  0.36100100  0.99957300  1
  Cl  Cl27  1  0.75000000  0.10901300  0.03786900  1
  Cl  Cl28  1  0.75000000  0.39098700  0.53786900  1
  Cl  Cl29  1  0.75000000  0.86100100  0.50042700  1
  Cl  Cl30  1  0.25000000  0.60901300  0.46213100  1
  Cl  Cl31  1  0.75000000  0.63899900  0.00042700  1
