# generated using pymatgen
data_USe2
_symmetry_space_group_name_H-M   'P 1'
_cell_length_a   10.67968800
_cell_length_b   10.67968800
_cell_length_c   6.57377000
_cell_angle_alpha   90.00000000
_cell_angle_beta   90.00000000
_cell_angle_gamma   90.00000000
_symmetry_Int_Tables_number   1
_chemical_formula_structural   USe2
_chemical_formula_sum   'U10 Se20'
_cell_volume   749.77617418
_cell_formula_units_Z   10
loop_
 _symmetry_equiv_pos_site_id
 _symmetry_equiv_pos_as_xyz
  1  'x, y, z'
loop_
 _atom_site_type_symbol
 _atom_site_label
 _atom_site_symmetry_multiplicity
 _atom_site_fract_x
 _atom_site_fract_y
 _atom_site_fract_z
 _atom_site_occupancy
  U  U0  1  0.84043600  0.15456800  0.24995800  1
  U  U1  1  0.65456800  0.65956400  0.24995800  1
  U  U2  1  0.34543200  0.34043600  0.24995800  1
  U  U3  1  0.15956400  0.84543200  0.24995800  1
  U  U4  1  0.50000000  0.00000000  0.85800700  1
  U  U5  1  0.34043600  0.65456800  0.75004200  1
  U  U6  1  0.15456800  0.15956400  0.75004200  1
  U  U7  1  0.84543200  0.84043600  0.75004200  1
  U  U8  1  0.65956400  0.34543200  0.75004200  1
  U  U9  1  0.00000000  0.50000000  0.14199300  1
  Se  Se10  1  0.70946500  0.08743100  0.61861700  1
  Se  Se11  1  0.58743100  0.79053500  0.61861700  1
  Se  Se12  1  0.41256900  0.20946500  0.61861700  1
  Se  Se13  1  0.29053500  0.91256900  0.61861700  1
  Se  Se14  1  0.70789700  0.91366500  0.11466700  1
  Se  Se15  1  0.58633500  0.20789700  0.11466700  1
  Se  Se16  1  0.41366500  0.79210300  0.11466700  1
  Se  Se17  1  0.29210300  0.08633500  0.11466700  1
  Se  Se18  1  0.50000000  0.50000000  0.00000000  1
  Se  Se19  1  0.00000000  0.00000000  0.00000000  1
  Se  Se20  1  0.20789700  0.41366500  0.88533300  1
  Se  Se21  1  0.08633500  0.70789700  0.88533300  1
  Se  Se22  1  0.91366500  0.29210300  0.88533300  1
  Se  Se23  1  0.79210300  0.58633500  0.88533300  1
  Se  Se24  1  0.50000000  0.50000000  0.50000000  1
  Se  Se25  1  0.00000000  0.00000000  0.50000000  1
  Se  Se26  1  0.20946500  0.58743100  0.38138300  1
  Se  Se27  1  0.08743100  0.29053500  0.38138300  1
  Se  Se28  1  0.91256900  0.70946500  0.38138300  1
  Se  Se29  1  0.79053500  0.41256900  0.38138300  1
