# generated using pymatgen
data_NdOsO4
_symmetry_space_group_name_H-M   'P 1'
_cell_length_a   5.49579000
_cell_length_b   7.60315900
_cell_length_c   15.21070200
_cell_angle_alpha   90.00000000
_cell_angle_beta   90.00000000
_cell_angle_gamma   90.00000000
_symmetry_Int_Tables_number   1
_chemical_formula_structural   NdOsO4
_chemical_formula_sum   'Nd8 Os8 O32'
_cell_volume   635.58473803
_cell_formula_units_Z   8
loop_
 _symmetry_equiv_pos_site_id
 _symmetry_equiv_pos_as_xyz
  1  'x, y, z'
loop_
 _atom_site_type_symbol
 _atom_site_label
 _atom_site_symmetry_multiplicity
 _atom_site_fract_x
 _atom_site_fract_y
 _atom_site_fract_z
 _atom_site_occupancy
  Nd  Nd0  1  0.74575400  0.12202400  0.90411700  1
  Nd  Nd1  1  0.80856500  0.87648400  0.44063800  1
  Nd  Nd2  1  0.74575400  0.37797600  0.40411700  1
  Nd  Nd3  1  0.30856500  0.37648400  0.05936200  1
  Nd  Nd4  1  0.30856500  0.12351600  0.55936200  1
  Nd  Nd5  1  0.80856500  0.62351600  0.94063800  1
  Nd  Nd6  1  0.24575400  0.87797600  0.09588300  1
  Nd  Nd7  1  0.24575400  0.62202400  0.59588300  1
  Os  Os8  1  0.23631800  0.12301700  0.32985500  1
  Os  Os9  1  0.74068500  0.12386300  0.16598000  1
  Os  Os10  1  0.24068500  0.62386300  0.33402000  1
  Os  Os11  1  0.23631800  0.37698300  0.82985500  1
  Os  Os12  1  0.24068500  0.87613700  0.83402000  1
  Os  Os13  1  0.73631800  0.62301700  0.17014500  1
  Os  Os14  1  0.73631800  0.87698300  0.67014500  1
  Os  Os15  1  0.74068500  0.37613700  0.66598000  1
  O  O16  1  0.54040100  0.65767000  0.39401200  1
  O  O17  1  0.04040100  0.34233000  0.60598800  1
  O  O18  1  0.51763700  0.10280600  0.41787700  1
  O  O19  1  0.04040100  0.15767000  0.10598800  1
  O  O20  1  0.54011400  0.84507000  0.56027000  1
  O  O21  1  0.55649400  0.09965500  0.05018700  1
  O  O22  1  0.33253100  0.12632300  0.83141600  1
  O  O23  1  0.44442400  0.08084500  0.23105300  1
  O  O24  1  0.01763700  0.89719400  0.58212300  1
  O  O25  1  0.65820000  0.37450600  0.16148300  1
  O  O26  1  0.41703100  0.67855400  0.22270100  1
  O  O27  1  0.83253100  0.62632300  0.66858400  1
  O  O28  1  0.54011400  0.65493000  0.06027000  1
  O  O29  1  0.83253100  0.87367700  0.16858400  1
  O  O30  1  0.05649400  0.59965500  0.44981300  1
  O  O31  1  0.15820000  0.87450600  0.33851700  1
  O  O32  1  0.04011400  0.34507000  0.93973000  1
  O  O33  1  0.65820000  0.12549400  0.66148300  1
  O  O34  1  0.54040100  0.84233000  0.89401200  1
  O  O35  1  0.41703100  0.82144600  0.72270100  1
  O  O36  1  0.91703100  0.17855400  0.27729900  1
  O  O37  1  0.94442400  0.58084500  0.26894700  1
  O  O38  1  0.51763700  0.39719400  0.91787700  1
  O  O39  1  0.15820000  0.62549400  0.83851700  1
  O  O40  1  0.91703100  0.32144600  0.77729900  1
  O  O41  1  0.55649400  0.40034500  0.55018700  1
  O  O42  1  0.33253100  0.37367700  0.33141600  1
  O  O43  1  0.05649400  0.90034500  0.94981300  1
  O  O44  1  0.94442400  0.91915500  0.76894700  1
  O  O45  1  0.04011400  0.15493000  0.43973000  1
  O  O46  1  0.01763700  0.60280600  0.08212300  1
  O  O47  1  0.44442400  0.41915500  0.73105300  1
