# generated using pymatgen
data_Ba3Gd2(PS4)4
_symmetry_space_group_name_H-M   'P 1'
_cell_length_a   10.42432259
_cell_length_b   12.82180540
_cell_length_c   19.38684507
_cell_angle_alpha   89.97932013
_cell_angle_beta   90.06328337
_cell_angle_gamma   89.96651940
_symmetry_Int_Tables_number   1
_chemical_formula_structural   Ba3Gd2(PS4)4
_chemical_formula_sum   'Ba12 Gd8 P16 S64'
_cell_volume   2591.21706927
_cell_formula_units_Z   4
loop_
 _symmetry_equiv_pos_site_id
 _symmetry_equiv_pos_as_xyz
  1  'x, y, z'
loop_
 _atom_site_type_symbol
 _atom_site_label
 _atom_site_symmetry_multiplicity
 _atom_site_fract_x
 _atom_site_fract_y
 _atom_site_fract_z
 _atom_site_occupancy
  Ba  Ba0  1  0.21088243  0.61039578  0.22788578  1
  Ba  Ba1  1  0.71087869  0.61040987  0.27212853  1
  Ba  Ba2  1  0.28900794  0.11040323  0.27210337  1
  Ba  Ba3  1  0.71094609  0.88957568  0.72790096  1
  Ba  Ba4  1  0.88096278  0.74995891  -0.00003037  1
  Ba  Ba5  1  0.61908259  0.24998586  0.50001655  1
  Ba  Ba6  1  0.38091019  0.75003206  0.49997713  1
  Ba  Ba7  1  0.11910596  0.24999681  -0.00000236  1
  Ba  Ba8  1  0.78908266  0.11036466  0.22790768  1
  Ba  Ba9  1  0.28912026  0.38964993  0.72789199  1
  Ba  Ba10  1  0.21091719  0.88956663  0.77210820  1
  Ba  Ba11  1  0.78910719  0.38965621  0.77212154  1
  Gd  Gd12  1  0.37096212  0.88735224  0.07393378  1
  Gd  Gd13  1  0.87097904  0.88733200  0.42611287  1
  Gd  Gd14  1  0.37112077  0.61271532  0.92614408  1
  Gd  Gd15  1  0.62898669  0.11266707  0.92605456  1
  Gd  Gd16  1  0.87106399  0.61271676  0.57389478  1
  Gd  Gd17  1  0.12907250  0.11268886  0.57387960  1
  Gd  Gd18  1  0.62901942  0.38729213  0.07387922  1
  Gd  Gd19  1  0.12890093  0.38726661  0.42615425  1
  P  P20  1  0.99561290  0.36076954  0.60297917  1
  P  P21  1  0.49552109  0.13920349  0.10303138  1
  P  P22  1  0.00439953  0.63924277  0.39704515  1
  P  P23  1  0.50424791  0.63923207  0.10308273  1
  P  P24  1  0.99572162  0.13932480  0.39692826  1
  P  P25  1  0.93943619  0.45160205  0.13092821  1
  P  P26  1  0.06041594  0.54842912  0.86895868  1
  P  P27  1  0.43936663  0.45163895  0.36899540  1
  P  P28  1  0.43944958  0.04835041  0.63099391  1
  P  P29  1  0.49577596  0.36079358  0.89691046  1
  P  P30  1  0.56053720  0.54837899  0.63104087  1
  P  P31  1  0.06067524  0.95157239  0.13102226  1
  P  P32  1  0.50442288  0.86077810  0.89697032  1
  P  P33  1  0.56059707  0.95162417  0.36903345  1
  P  P34  1  0.00432942  0.86063955  0.60307870  1
  P  P35  1  0.93933846  0.04839580  0.86889029  1
  S  S36  1  0.56697251  0.76911430  0.15267800  1
  S  S37  1  0.29488947  0.38676048  0.30737635  1
  S  S38  1  0.38811156  0.10013564  0.01714296  1
  S  S39  1  0.81918290  0.66811007  0.43055228  1
  S  S40  1  0.93300840  0.26918303  0.34728562  1
  S  S41  1  0.70489861  0.88675239  0.30730072  1
  S  S42  1  0.38808268  0.39986049  0.98282639  1
  S  S43  1  0.31915403  0.83192861  0.93059037  1
  S  S44  1  0.93162284  0.61204348  0.14648714  1
  S  S45  1  0.79515157  0.38676358  0.19271547  1
  S  S46  1  0.20502135  0.88672472  0.19269171  1
  S  S47  1  0.68072815  0.33186993  0.93058786  1
  S  S48  1  0.88174021  0.60534506  0.84960986  1
  S  S49  1  0.88164609  0.89465665  0.15035427  1
  S  S50  1  0.18084794  0.33191731  0.56943817  1
  S  S51  1  0.50600685  0.48550942  0.83127015  1
  S  S52  1  0.06678594  0.76910108  0.34732459  1
  S  S53  1  0.61187448  0.60013374  0.01717619  1
  S  S54  1  0.11191100  0.60004405  0.48287801  1
  S  S55  1  0.99386683  0.98550185  0.66867462  1
  S  S56  1  0.43165397  0.61200132  0.35356073  1
  S  S57  1  0.11715484  0.58593354  0.96780528  1
  S  S58  1  0.11845429  0.39462425  0.15044642  1
  S  S59  1  0.50613846  0.01453022  0.16878052  1
  S  S60  1  0.43168595  0.88797442  0.64646792  1
  S  S61  1  0.11834277  0.10531092  0.84966720  1
  S  S62  1  0.88312121  0.08598669  0.96785112  1
  S  S63  1  0.61700757  0.91404924  0.46777155  1
  S  S64  1  0.93180944  0.88798676  0.85356762  1
  S  S65  1  0.61829030  0.39460927  0.34969485  1
  S  S66  1  0.61187543  0.89984996  0.98288079  1
  S  S67  1  0.43315369  0.26914026  0.15266211  1
  S  S68  1  0.99386187  0.51454982  0.33123029  1
  S  S69  1  0.20494136  0.61323447  0.80729173  1
  S  S70  1  0.81923961  0.83193657  0.56938286  1
  S  S71  1  0.88808108  0.39994463  0.51709839  1
  S  S72  1  0.56833403  0.38797224  0.64644018  1
  S  S73  1  0.93321265  0.23086370  0.65264894  1
  S  S74  1  0.79498591  0.11326110  0.80730967  1
  S  S75  1  0.56680188  0.73082958  0.84735377  1
  S  S76  1  0.11187774  0.89986274  0.51716268  1
  S  S77  1  0.38161865  0.89466425  0.34957896  1
  S  S78  1  0.29509413  0.11326250  0.69268149  1
  S  S79  1  0.61693011  0.58596527  0.53211626  1
  S  S80  1  0.00615171  0.48538770  0.66876387  1
  S  S81  1  0.43298462  0.23091402  0.84729733  1
  S  S82  1  0.38305834  0.41400875  0.46785967  1
  S  S83  1  0.88300184  0.41413250  0.03226997  1
  S  S84  1  0.31921453  0.66815926  0.06940307  1
  S  S85  1  0.68080968  0.16802486  0.06943897  1
  S  S86  1  0.06697595  0.73086671  0.65269593  1
  S  S87  1  0.18076242  0.16807198  0.43059301  1
  S  S88  1  0.56828873  0.11204843  0.35351790  1
  S  S89  1  0.38170823  0.60537008  0.65029184  1
  S  S90  1  0.06843462  0.38796201  0.85352130  1
  S  S91  1  0.70503169  0.61321423  0.69264133  1
  S  S92  1  0.88814774  0.10016242  0.48282697  1
  S  S93  1  0.00614873  0.01453102  0.33131549  1
  S  S94  1  0.49380474  0.98542822  0.83124942  1
  S  S95  1  0.06817621  0.11203621  0.14644967  1
  S  S96  1  0.61835450  0.10533539  0.65039605  1
  S  S97  1  0.49396177  0.51451322  0.16873854  1
  S  S98  1  0.11685030  0.91406999  0.03219080  1
  S  S99  1  0.38300627  0.08596099  0.53217541  1
