# generated using pymatgen
data_La3Si2Rh3
_symmetry_space_group_name_H-M   'P 1'
_cell_length_a   5.91337700
_cell_length_b   7.85116300
_cell_length_c   15.09253600
_cell_angle_alpha   90.00000000
_cell_angle_beta   90.00000000
_cell_angle_gamma   90.00000000
_symmetry_Int_Tables_number   1
_chemical_formula_structural   La3Si2Rh3
_chemical_formula_sum   'La12 Si8 Rh12'
_cell_volume   700.69945900
_cell_formula_units_Z   4
loop_
 _symmetry_equiv_pos_site_id
 _symmetry_equiv_pos_as_xyz
  1  'x, y, z'
loop_
 _atom_site_type_symbol
 _atom_site_label
 _atom_site_symmetry_multiplicity
 _atom_site_fract_x
 _atom_site_fract_y
 _atom_site_fract_z
 _atom_site_occupancy
  La  La0  1  0.14334400  0.47678000  0.89174400  1
  La  La1  1  0.35665600  0.97678000  0.89174400  1
  La  La2  1  0.61687900  0.33924100  0.75000000  1
  La  La3  1  0.38312100  0.66075900  0.25000000  1
  La  La4  1  0.64334400  0.02322000  0.39174400  1
  La  La5  1  0.85665600  0.52322000  0.10825600  1
  La  La6  1  0.85665600  0.52322000  0.39174400  1
  La  La7  1  0.35665600  0.97678000  0.60825600  1
  La  La8  1  0.88312100  0.83924100  0.75000000  1
  La  La9  1  0.14334400  0.47678000  0.60825600  1
  La  La10  1  0.64334400  0.02322000  0.10825600  1
  La  La11  1  0.11687900  0.16075900  0.25000000  1
  Si  Si12  1  0.36266400  0.36952500  0.09532600  1
  Si  Si13  1  0.63733600  0.63047500  0.90467400  1
  Si  Si14  1  0.86266400  0.13047500  0.90467400  1
  Si  Si15  1  0.36266400  0.36952500  0.40467400  1
  Si  Si16  1  0.86266400  0.13047500  0.59532600  1
  Si  Si17  1  0.63733600  0.63047500  0.59532600  1
  Si  Si18  1  0.13733600  0.86952500  0.40467400  1
  Si  Si19  1  0.13733600  0.86952500  0.09532600  1
  Rh  Rh20  1  0.60297300  0.34160700  0.96280100  1
  Rh  Rh21  1  0.39702700  0.65839300  0.03719900  1
  Rh  Rh22  1  0.56294900  0.31634700  0.25000000  1
  Rh  Rh23  1  0.39702700  0.65839300  0.46280100  1
  Rh  Rh24  1  0.06294900  0.18365300  0.75000000  1
  Rh  Rh25  1  0.10297300  0.15839300  0.46280100  1
  Rh  Rh26  1  0.43705100  0.68365300  0.75000000  1
  Rh  Rh27  1  0.93705100  0.81634700  0.25000000  1
  Rh  Rh28  1  0.10297300  0.15839300  0.03719900  1
  Rh  Rh29  1  0.60297300  0.34160700  0.53719900  1
  Rh  Rh30  1  0.89702700  0.84160700  0.53719900  1
  Rh  Rh31  1  0.89702700  0.84160700  0.96280100  1
