# generated using pymatgen
data_LaSc3(BO3)4
_symmetry_space_group_name_H-M   'P 1'
_cell_length_a   6.32119381
_cell_length_b   6.32119381
_cell_length_c   12.18826859
_cell_angle_alpha   80.49239179
_cell_angle_beta   80.49239179
_cell_angle_gamma   103.68720137
_symmetry_Int_Tables_number   1
_chemical_formula_structural   LaSc3(BO3)4
_chemical_formula_sum   'La2 Sc6 B8 O24'
_cell_volume   455.95687621
_cell_formula_units_Z   2
loop_
 _symmetry_equiv_pos_site_id
 _symmetry_equiv_pos_as_xyz
  1  'x, y, z'
loop_
 _atom_site_type_symbol
 _atom_site_label
 _atom_site_symmetry_multiplicity
 _atom_site_fract_x
 _atom_site_fract_y
 _atom_site_fract_z
 _atom_site_occupancy
  La  La0  1  0.03491800  0.96508200  0.75000000  1
  La  La1  1  0.96508200  0.03491800  0.25000000  1
  Sc  Sc2  1  0.29822100  0.79772100  0.47488500  1
  Sc  Sc3  1  0.20227900  0.70177900  0.02511500  1
  Sc  Sc4  1  0.70177900  0.20227900  0.52511500  1
  Sc  Sc5  1  0.79772100  0.29822100  0.97488500  1
  Sc  Sc6  1  0.57495100  0.42504900  0.75000000  1
  Sc  Sc7  1  0.42504900  0.57495100  0.25000000  1
  B  B8  1  0.27093800  0.22152000  0.99953600  1
  B  B9  1  0.77848000  0.72906200  0.50046400  1
  B  B10  1  0.72906200  0.77848000  0.00046400  1
  B  B11  1  0.22152000  0.27093800  0.49953600  1
  B  B12  1  0.50639500  0.89703000  0.77399300  1
  B  B13  1  0.10297000  0.49360500  0.72600700  1
  B  B14  1  0.49360500  0.10297000  0.22600700  1
  B  B15  1  0.89703000  0.50639500  0.27399300  1
  O  O16  1  0.10937500  0.56726500  0.20546100  1
  O  O17  1  0.43273500  0.89062500  0.29453900  1
  O  O18  1  0.89062500  0.43273500  0.79453900  1
  O  O19  1  0.56726500  0.10937500  0.70546100  1
  O  O20  1  0.99186600  0.81030800  0.43324300  1
  O  O21  1  0.18969200  0.00813400  0.06675700  1
  O  O22  1  0.00813400  0.18969200  0.56675700  1
  O  O23  1  0.81030800  0.99186600  0.93324300  1
  O  O24  1  0.64429000  0.75944300  0.75932400  1
  O  O25  1  0.24055700  0.35571000  0.74067600  1
  O  O26  1  0.35571000  0.24055700  0.24067600  1
  O  O27  1  0.75944300  0.64429000  0.25932400  1
  O  O28  1  0.13155500  0.36153900  0.00529300  1
  O  O29  1  0.63846100  0.86844500  0.49470700  1
  O  O30  1  0.86844500  0.63846100  0.99470700  1
  O  O31  1  0.36153900  0.13155500  0.50529300  1
  O  O32  1  0.83259300  0.30676800  0.35231200  1
  O  O33  1  0.69323200  0.16740700  0.14768800  1
  O  O34  1  0.16740700  0.69323200  0.64768800  1
  O  O35  1  0.30676800  0.83259300  0.85231200  1
  O  O36  1  0.29490900  0.48400400  0.43152800  1
  O  O37  1  0.51599600  0.70509100  0.06847200  1
  O  O38  1  0.70509100  0.51599600  0.56847200  1
  O  O39  1  0.48400500  0.29490900  0.93152800  1
