# generated using pymatgen
data_NaHS
_symmetry_space_group_name_H-M   'P 1'
_cell_length_a   4.49884600
_cell_length_b   3.96797400
_cell_length_c   6.02848108
_cell_angle_alpha   79.97682522
_cell_angle_beta   90.00000000
_cell_angle_gamma   90.00000000
_symmetry_Int_Tables_number   1
_chemical_formula_structural   NaHS
_chemical_formula_sum   'Na2 H2 S2'
_cell_volume   105.97374826
_cell_formula_units_Z   2
loop_
 _symmetry_equiv_pos_site_id
 _symmetry_equiv_pos_as_xyz
  1  'x, y, z'
loop_
 _atom_site_type_symbol
 _atom_site_label
 _atom_site_symmetry_multiplicity
 _atom_site_fract_x
 _atom_site_fract_y
 _atom_site_fract_z
 _atom_site_occupancy
  Na  Na0  1  0.75000000  0.77229400  0.76827900  1
  Na  Na1  1  0.25000000  0.22770600  0.23172100  1
  H  H2  1  0.75000000  0.46000100  0.39462200  1
  H  H3  1  0.25000000  0.53999900  0.60537800  1
  S  S4  1  0.75000000  0.75925200  0.24840900  1
  S  S5  1  0.25000000  0.24074800  0.75159100  1
