# generated using pymatgen
data_Sr6B(PO4)5
_symmetry_space_group_name_H-M   'P 1'
_cell_length_a   11.89450207
_cell_length_b   11.89450207
_cell_length_c   11.89450207
_cell_angle_alpha   130.84581953
_cell_angle_beta   130.84581953
_cell_angle_gamma   72.05815417
_symmetry_Int_Tables_number   1
_chemical_formula_structural   Sr6B(PO4)5
_chemical_formula_sum   'Sr12 B2 P10 O40'
_cell_volume   941.69438532
_cell_formula_units_Z   2
loop_
 _symmetry_equiv_pos_site_id
 _symmetry_equiv_pos_as_xyz
  1  'x, y, z'
loop_
 _atom_site_type_symbol
 _atom_site_label
 _atom_site_symmetry_multiplicity
 _atom_site_fract_x
 _atom_site_fract_y
 _atom_site_fract_z
 _atom_site_occupancy
  Sr  Sr0  1  0.72281100  0.22281100  0.94562200  1
  Sr  Sr1  1  0.22281100  0.27718900  0.50000000  1
  Sr  Sr2  1  0.27718900  0.77718900  0.05437800  1
  Sr  Sr3  1  0.77718900  0.72281100  0.50000000  1
  Sr  Sr4  1  0.33086700  0.53523600  0.19505300  1
  Sr  Sr5  1  0.34018300  0.13581500  0.80494700  1
  Sr  Sr6  1  0.84018300  0.03523600  0.20436800  1
  Sr  Sr7  1  0.46476400  0.65981700  0.79563200  1
  Sr  Sr8  1  0.86418500  0.66913300  0.20436800  1
  Sr  Sr9  1  0.96476400  0.16913300  0.80494700  1
  Sr  Sr10  1  0.36418500  0.15981700  0.19505300  1
  Sr  Sr11  1  0.83086700  0.63581500  0.79563200  1
  B  B12  1  0.75000000  0.25000000  0.50000000  1
  B  B13  1  0.25000000  0.75000000  0.50000000  1
  P  P14  1  0.12868100  0.44652300  0.27304000  1
  P  P15  1  0.17348300  0.85564100  0.72696000  1
  P  P16  1  0.67348300  0.94652300  0.31784300  1
  P  P17  1  0.55347700  0.82651700  0.68215700  1
  P  P18  1  0.14435900  0.87131900  0.31784300  1
  P  P19  1  0.05347700  0.37131900  0.72696000  1
  P  P20  1  0.64435900  0.32651700  0.27304000  1
  P  P21  1  0.62868100  0.35564100  0.68215700  1
  P  P22  1  0.50000000  0.50000000  0.00000000  1
  P  P23  1  0.00000000  0.00000000  0.00000000  1
  O  O24  1  0.97152200  0.79806300  0.15567800  1
  O  O25  1  0.53022200  0.98575500  0.74477700  1
  O  O26  1  0.24097800  0.78544500  0.25522300  1
  O  O27  1  0.03022200  0.28544500  0.54446700  1
  O  O28  1  0.74097800  0.48575500  0.45553300  1
  O  O29  1  0.71455500  0.25902200  0.74477700  1
  O  O30  1  0.95837900  0.38162400  0.12812800  1
  O  O31  1  0.25349600  0.83025100  0.87187200  1
  O  O32  1  0.75349600  0.88162400  0.42324500  1
  O  O33  1  0.61837600  0.74650400  0.57675500  1
  O  O34  1  0.16974900  0.04162100  0.42324500  1
  O  O35  1  0.11837600  0.54162100  0.87187200  1
  O  O36  1  0.66974900  0.24650400  0.12812800  1
  O  O37  1  0.47152200  0.31584300  0.17345900  1
  O  O38  1  0.20193700  0.35761600  0.17345900  1
  O  O39  1  0.18415700  0.02847800  0.82654100  1
  O  O40  1  0.68415700  0.85761600  0.15567800  1
  O  O41  1  0.64238400  0.81584300  0.84432200  1
  O  O42  1  0.51424500  0.96977800  0.25522300  1
  O  O43  1  0.14238400  0.29806300  0.82654100  1
  O  O44  1  0.21455500  0.46977800  0.45553300  1
  O  O45  1  0.01424500  0.75902200  0.54446700  1
  O  O46  1  0.63169900  0.30766500  0.52102600  1
  O  O47  1  0.69233500  0.21336100  0.32403300  1
  O  O48  1  0.88932700  0.36830100  0.67596700  1
  O  O49  1  0.19233500  0.86830100  0.47897400  1
  O  O50  1  0.38932700  0.71336100  0.52102600  1
  O  O51  1  0.78663900  0.11067300  0.47897400  1
  O  O52  1  0.28663900  0.80766500  0.67596700  1
  O  O53  1  0.13169900  0.61067300  0.32403300  1
  O  O54  1  0.98329600  0.82629600  0.89771900  1
  O  O55  1  0.17370400  0.07142300  0.15700000  1
  O  O56  1  0.91442300  0.01670400  0.84300000  1
  O  O57  1  0.67370400  0.51670400  0.10228100  1
  O  O58  1  0.41442300  0.57142300  0.89771900  1
  O  O59  1  0.92857700  0.08557700  0.10228100  1
  O  O60  1  0.42857700  0.32629600  0.84300000  1
  O  O61  1  0.48329600  0.58557700  0.15700000  1
  O  O62  1  0.70193700  0.52847800  0.84432200  1
  O  O63  1  0.45837900  0.33025100  0.57675500  1
