# generated using pymatgen
data_U5Re3C8
_symmetry_space_group_name_H-M   'P 1'
_cell_length_a   11.37451700
_cell_length_b   11.37451700
_cell_length_c   3.25941900
_cell_angle_alpha   90.00000000
_cell_angle_beta   90.00000000
_cell_angle_gamma   90.00000000
_symmetry_Int_Tables_number   1
_chemical_formula_structural   U5Re3C8
_chemical_formula_sum   'U10 Re6 C16'
_cell_volume   421.70244700
_cell_formula_units_Z   2
loop_
 _symmetry_equiv_pos_site_id
 _symmetry_equiv_pos_as_xyz
  1  'x, y, z'
loop_
 _atom_site_type_symbol
 _atom_site_label
 _atom_site_symmetry_multiplicity
 _atom_site_fract_x
 _atom_site_fract_y
 _atom_site_fract_z
 _atom_site_occupancy
  U  U0  1  0.00000000  0.50000000  0.00000000  1
  U  U1  1  0.27210400  0.54312300  0.50000000  1
  U  U2  1  0.72789600  0.45687700  0.50000000  1
  U  U3  1  0.54312300  0.72789600  0.50000000  1
  U  U4  1  0.77210400  0.95687700  0.50000000  1
  U  U5  1  0.22789600  0.04312300  0.50000000  1
  U  U6  1  0.95687700  0.22789600  0.50000000  1
  U  U7  1  0.45687700  0.27210400  0.50000000  1
  U  U8  1  0.50000000  0.00000000  0.00000000  1
  U  U9  1  0.04312300  0.77210400  0.50000000  1
  Re  Re10  1  0.20304100  0.29695900  0.00000000  1
  Re  Re11  1  0.70304100  0.20304100  0.00000000  1
  Re  Re12  1  0.29695900  0.79695900  0.00000000  1
  Re  Re13  1  0.50000000  0.50000000  0.00000000  1
  Re  Re14  1  0.79695900  0.70304100  0.00000000  1
  Re  Re15  1  0.00000000  0.00000000  0.00000000  1
  C  C16  1  0.34756900  0.40264200  0.00000000  1
  C  C17  1  0.61627600  0.11627600  0.50000000  1
  C  C18  1  0.90264200  0.84756900  0.00000000  1
  C  C19  1  0.65337700  0.84662300  0.00000000  1
  C  C20  1  0.34662300  0.15337700  0.00000000  1
  C  C21  1  0.11627600  0.38372400  0.50000000  1
  C  C22  1  0.15243100  0.90264200  0.00000000  1
  C  C23  1  0.84662300  0.34662300  0.00000000  1
  C  C24  1  0.65243100  0.59735800  0.00000000  1
  C  C25  1  0.59735800  0.34756900  0.00000000  1
  C  C26  1  0.88372400  0.61627600  0.50000000  1
  C  C27  1  0.84756900  0.09735800  0.00000000  1
  C  C28  1  0.38372400  0.88372400  0.50000000  1
  C  C29  1  0.15337700  0.65337700  0.00000000  1
  C  C30  1  0.09735800  0.15243100  0.00000000  1
  C  C31  1  0.40264200  0.65243100  0.00000000  1
