# generated using pymatgen
data_Ca4Mg4Fe3H22
_symmetry_space_group_name_H-M   'P 1'
_cell_length_a   6.68528900
_cell_length_b   6.68528900
_cell_length_c   6.68528900
_cell_angle_alpha   90.00000000
_cell_angle_beta   90.00000000
_cell_angle_gamma   90.00000000
_symmetry_Int_Tables_number   1
_chemical_formula_structural   Ca4Mg4Fe3H22
_chemical_formula_sum   'Ca4 Mg4 Fe3 H22'
_cell_volume   298.78621636
_cell_formula_units_Z   1
loop_
 _symmetry_equiv_pos_site_id
 _symmetry_equiv_pos_as_xyz
  1  'x, y, z'
loop_
 _atom_site_type_symbol
 _atom_site_label
 _atom_site_symmetry_multiplicity
 _atom_site_fract_x
 _atom_site_fract_y
 _atom_site_fract_z
 _atom_site_occupancy
  Ca  Ca0  1  0.29113900  0.29113900  0.70886100  1
  Ca  Ca1  1  0.29113900  0.70886100  0.29113900  1
  Ca  Ca2  1  0.70886100  0.29113900  0.29113900  1
  Ca  Ca3  1  0.70886100  0.70886100  0.70886100  1
  Mg  Mg4  1  0.78753900  0.78753900  0.21246100  1
  Mg  Mg5  1  0.78753900  0.21246100  0.78753900  1
  Mg  Mg6  1  0.21246100  0.78753900  0.78753900  1
  Mg  Mg7  1  0.21246100  0.21246100  0.21246100  1
  Fe  Fe8  1  0.00000000  0.00000000  0.50000000  1
  Fe  Fe9  1  0.00000000  0.50000000  0.00000000  1
  Fe  Fe10  1  0.50000000  0.00000000  0.00000000  1
  H  H11  1  0.00000000  0.50000000  0.23656800  1
  H  H12  1  0.50000000  0.76343200  0.00000000  1
  H  H13  1  0.76343200  0.00000000  0.50000000  1
  H  H14  1  0.00000000  0.76343200  0.50000000  1
  H  H15  1  0.50000000  0.00000000  0.23656800  1
  H  H16  1  0.76343200  0.50000000  0.00000000  1
  H  H17  1  0.00000000  0.50000000  0.76343200  1
  H  H18  1  0.50000000  0.23656800  0.00000000  1
  H  H19  1  0.00000000  0.23656800  0.50000000  1
  H  H20  1  0.50000000  0.00000000  0.76343200  1
  H  H21  1  0.23656800  0.00000000  0.50000000  1
  H  H22  1  0.23656800  0.50000000  0.00000000  1
  H  H23  1  0.00000000  0.00000000  0.26381100  1
  H  H24  1  0.00000000  0.73618900  0.00000000  1
  H  H25  1  0.73618900  0.00000000  0.00000000  1
  H  H26  1  0.00000000  0.00000000  0.73618900  1
  H  H27  1  0.00000000  0.26381100  0.00000000  1
  H  H28  1  0.26381100  0.00000000  0.00000000  1
  H  H29  1  0.62731700  0.62731700  0.37268300  1
  H  H30  1  0.62731700  0.37268300  0.62731700  1
  H  H31  1  0.37268300  0.62731700  0.62731700  1
  H  H32  1  0.37268300  0.37268300  0.37268300  1
