# generated using pymatgen
data_Sr3InP3
_symmetry_space_group_name_H-M   'P 1'
_cell_length_a   4.35851300
_cell_length_b   12.94484000
_cell_length_c   13.97890800
_cell_angle_alpha   90.00000000
_cell_angle_beta   90.00000000
_cell_angle_gamma   90.00000000
_symmetry_Int_Tables_number   1
_chemical_formula_structural   Sr3InP3
_chemical_formula_sum   'Sr12 In4 P12'
_cell_volume   788.69353194
_cell_formula_units_Z   4
loop_
 _symmetry_equiv_pos_site_id
 _symmetry_equiv_pos_as_xyz
  1  'x, y, z'
loop_
 _atom_site_type_symbol
 _atom_site_label
 _atom_site_symmetry_multiplicity
 _atom_site_fract_x
 _atom_site_fract_y
 _atom_site_fract_z
 _atom_site_occupancy
  Sr  Sr0  1  0.75000000  0.14393700  0.99651800  1
  Sr  Sr1  1  0.25000000  0.27403900  0.20700300  1
  Sr  Sr2  1  0.25000000  0.35606300  0.49651800  1
  Sr  Sr3  1  0.75000000  0.64393700  0.50348200  1
  Sr  Sr4  1  0.75000000  0.42758400  0.89516900  1
  Sr  Sr5  1  0.25000000  0.85606300  0.00348200  1
  Sr  Sr6  1  0.75000000  0.22596100  0.70700300  1
  Sr  Sr7  1  0.75000000  0.92758400  0.60483100  1
  Sr  Sr8  1  0.25000000  0.07241600  0.39516900  1
  Sr  Sr9  1  0.25000000  0.57241600  0.10483100  1
  Sr  Sr10  1  0.25000000  0.77403900  0.29299700  1
  Sr  Sr11  1  0.75000000  0.72596100  0.79299700  1
  In  In12  1  0.75000000  0.94739800  0.20193300  1
  In  In13  1  0.75000000  0.44739800  0.29806700  1
  In  In14  1  0.25000000  0.55260200  0.70193300  1
  In  In15  1  0.25000000  0.05260200  0.79806700  1
  P  P16  1  0.75000000  0.75861000  0.12767800  1
  P  P17  1  0.25000000  0.09586200  0.61488800  1
  P  P18  1  0.25000000  0.59586200  0.88511200  1
  P  P19  1  0.75000000  0.90413800  0.38511200  1
  P  P20  1  0.25000000  0.74139000  0.62767800  1
  P  P21  1  0.25000000  0.04703000  0.14439600  1
  P  P22  1  0.75000000  0.95297000  0.85560400  1
  P  P23  1  0.75000000  0.45297000  0.64439600  1
  P  P24  1  0.25000000  0.54703000  0.35560400  1
  P  P25  1  0.75000000  0.25861000  0.37232200  1
  P  P26  1  0.75000000  0.40413800  0.11488800  1
  P  P27  1  0.25000000  0.24139000  0.87232200  1
