# generated using pymatgen
data_Tb(GaFe)6
_symmetry_space_group_name_H-M   'P 1'
_cell_length_a   6.68838595
_cell_length_b   6.68838595
_cell_length_c   6.68838595
_cell_angle_alpha   134.73391518
_cell_angle_beta   99.60529655
_cell_angle_gamma   97.43057581
_symmetry_Int_Tables_number   1
_chemical_formula_structural   Tb(GaFe)6
_chemical_formula_sum   'Tb1 Ga6 Fe6'
_cell_volume   196.13151353
_cell_formula_units_Z   1
loop_
 _symmetry_equiv_pos_site_id
 _symmetry_equiv_pos_as_xyz
  1  'x, y, z'
loop_
 _atom_site_type_symbol
 _atom_site_label
 _atom_site_symmetry_multiplicity
 _atom_site_fract_x
 _atom_site_fract_y
 _atom_site_fract_z
 _atom_site_occupancy
  Tb  Tb0  1  0.00000000  0.00000000  0.00000000  1
  Ga  Ga1  1  0.81264500  0.31264500  0.50000000  1
  Ga  Ga2  1  0.65613600  0.65613600  0.00000000  1
  Ga  Ga3  1  0.34386400  0.34386400  0.00000000  1
  Ga  Ga4  1  0.33407100  0.00000000  0.33407100  1
  Ga  Ga5  1  0.18735500  0.68735500  0.50000000  1
  Ga  Ga6  1  0.66592900  0.00000000  0.66592900  1
  Fe  Fe7  1  0.75648700  0.50000000  0.25648700  1
  Fe  Fe8  1  0.24351300  0.50000000  0.74351300  1
  Fe  Fe9  1  0.00000000  0.00000000  0.50000000  1
  Fe  Fe10  1  0.50000000  0.00000000  0.00000000  1
  Fe  Fe11  1  0.00000000  0.50000000  0.00000000  1
  Fe  Fe12  1  0.50000000  0.50000000  0.50000000  1
