# generated using pymatgen
data_PtI4
_symmetry_space_group_name_H-M   'P 1'
_cell_length_a   6.99014000
_cell_length_b   13.42838600
_cell_length_c   16.00809000
_cell_angle_alpha   90.00000000
_cell_angle_beta   90.00000000
_cell_angle_gamma   90.00000000
_symmetry_Int_Tables_number   1
_chemical_formula_structural   PtI4
_chemical_formula_sum   'Pt8 I32'
_cell_volume   1502.62014818
_cell_formula_units_Z   8
loop_
 _symmetry_equiv_pos_site_id
 _symmetry_equiv_pos_as_xyz
  1  'x, y, z'
loop_
 _atom_site_type_symbol
 _atom_site_label
 _atom_site_symmetry_multiplicity
 _atom_site_fract_x
 _atom_site_fract_y
 _atom_site_fract_z
 _atom_site_occupancy
  Pt  Pt0  1  0.59471200  0.66156900  0.68864100  1
  Pt  Pt1  1  0.09471200  0.83843100  0.31135900  1
  Pt  Pt2  1  0.90528800  0.16156900  0.68864100  1
  Pt  Pt3  1  0.40528800  0.33843100  0.31135900  1
  Pt  Pt4  1  0.40528800  0.16156900  0.81135900  1
  Pt  Pt5  1  0.59471200  0.83843100  0.18864100  1
  Pt  Pt6  1  0.90528800  0.33843100  0.18864100  1
  Pt  Pt7  1  0.09471200  0.66156900  0.81135900  1
  I  I8  1  0.21833000  0.45294500  0.18704100  1
  I  I9  1  0.74665900  0.45161100  0.06857500  1
  I  I10  1  0.58574100  0.27167200  0.69285100  1
  I  I11  1  0.75334100  0.54838900  0.56857500  1
  I  I12  1  0.28167000  0.95294500  0.18704100  1
  I  I13  1  0.05856600  0.21697300  0.07023900  1
  I  I14  1  0.44143400  0.78302700  0.57023900  1
  I  I15  1  0.25334100  0.54838900  0.93142500  1
  I  I16  1  0.05856600  0.28302700  0.57023900  1
  I  I17  1  0.91425900  0.72832800  0.19285100  1
  I  I18  1  0.55856600  0.28302700  0.92976100  1
  I  I19  1  0.44143400  0.71697300  0.07023900  1
  I  I20  1  0.24665900  0.45161100  0.43142500  1
  I  I21  1  0.41425900  0.72832800  0.30714900  1
  I  I22  1  0.24665900  0.04838900  0.93142500  1
  I  I23  1  0.91425900  0.77167200  0.69285100  1
  I  I24  1  0.58574100  0.22832800  0.19285100  1
  I  I25  1  0.55856600  0.21697300  0.42976100  1
  I  I26  1  0.08574100  0.22832800  0.30714900  1
  I  I27  1  0.21833000  0.04705500  0.68704100  1
  I  I28  1  0.71833000  0.45294500  0.31295900  1
  I  I29  1  0.74665900  0.04838900  0.56857500  1
  I  I30  1  0.78167000  0.54705500  0.81295900  1
  I  I31  1  0.94143400  0.78302700  0.92976100  1
  I  I32  1  0.28167000  0.54705500  0.68704100  1
  I  I33  1  0.25334100  0.95161100  0.43142500  1
  I  I34  1  0.41425900  0.77167200  0.80714900  1
  I  I35  1  0.71833000  0.04705500  0.81295900  1
  I  I36  1  0.94143400  0.71697300  0.42976100  1
  I  I37  1  0.08574100  0.27167200  0.80714900  1
  I  I38  1  0.75334100  0.95161100  0.06857500  1
  I  I39  1  0.78167000  0.95294500  0.31295900  1
