# generated using pymatgen
data_K2H4Pd
_symmetry_space_group_name_H-M   'P 1'
_cell_length_a   5.67789081
_cell_length_b   5.67789081
_cell_length_c   5.67789081
_cell_angle_alpha   117.41489851
_cell_angle_beta   117.41489851
_cell_angle_gamma   94.53906266
_symmetry_Int_Tables_number   1
_chemical_formula_structural   K2H4Pd
_chemical_formula_sum   'K2 H4 Pd1'
_cell_volume   134.03570343
_cell_formula_units_Z   1
loop_
 _symmetry_equiv_pos_site_id
 _symmetry_equiv_pos_as_xyz
  1  'x, y, z'
loop_
 _atom_site_type_symbol
 _atom_site_label
 _atom_site_symmetry_multiplicity
 _atom_site_fract_x
 _atom_site_fract_y
 _atom_site_fract_z
 _atom_site_occupancy
  K  K0  1  0.25000000  0.75000000  0.50000000  1
  K  K1  1  0.75000000  0.25000000  0.50000000  1
  H  H2  1  0.19924400  0.19924400  0.39848700  1
  H  H3  1  0.80075600  0.80075600  0.60151300  1
  H  H4  1  0.19924400  0.80075600  0.00000000  1
  H  H5  1  0.80075600  0.19924400  0.00000000  1
  Pd  Pd6  1  0.00000000  0.00000000  0.00000000  1
