# generated using pymatgen
data_NaSn2(PO4)3
_symmetry_space_group_name_H-M   'P 1'
_cell_length_a   9.08191017
_cell_length_b   9.08191017
_cell_length_c   9.08191058
_cell_angle_alpha   57.12453150
_cell_angle_beta   57.12453150
_cell_angle_gamma   57.12453014
_symmetry_Int_Tables_number   1
_chemical_formula_structural   NaSn2(PO4)3
_chemical_formula_sum   'Na2 Sn4 P6 O24'
_cell_volume   494.58653756
_cell_formula_units_Z   2
loop_
 _symmetry_equiv_pos_site_id
 _symmetry_equiv_pos_as_xyz
  1  'x, y, z'
loop_
 _atom_site_type_symbol
 _atom_site_label
 _atom_site_symmetry_multiplicity
 _atom_site_fract_x
 _atom_site_fract_y
 _atom_site_fract_z
 _atom_site_occupancy
  Na  Na0  1  0.00000000  0.00000000  0.00000000  1
  Na  Na1  1  0.50000000  0.50000000  0.50000000  1
  Sn  Sn2  1  0.14717300  0.14717300  0.14717300  1
  Sn  Sn3  1  0.85282700  0.85282700  0.85282700  1
  Sn  Sn4  1  0.35434800  0.35434800  0.35434800  1
  Sn  Sn5  1  0.64565200  0.64565200  0.64565200  1
  P  P6  1  0.95707800  0.25089300  0.54184600  1
  P  P7  1  0.25089300  0.54184600  0.95707800  1
  P  P8  1  0.04292200  0.74910700  0.45815400  1
  P  P9  1  0.74910700  0.45815400  0.04292200  1
  P  P10  1  0.54184600  0.95707800  0.25089300  1
  P  P11  1  0.45815400  0.04292200  0.74910700  1
  O  O12  1  0.40157700  0.59490700  0.76221100  1
  O  O13  1  0.59490700  0.76221100  0.40157700  1
  O  O14  1  0.76221100  0.40157700  0.59490700  1
  O  O15  1  0.59842300  0.40509300  0.23778900  1
  O  O16  1  0.40509300  0.23778900  0.59842300  1
  O  O17  1  0.23778900  0.59842300  0.40509300  1
  O  O18  1  0.29117700  0.03571500  0.93801300  1
  O  O19  1  0.03571500  0.93801300  0.29117700  1
  O  O20  1  0.93801300  0.29117700  0.03571500  1
  O  O21  1  0.70882300  0.96428500  0.06198700  1
  O  O22  1  0.96428500  0.06198700  0.70882300  1
  O  O23  1  0.06198700  0.70882300  0.96428500  1
  O  O24  1  0.75845300  0.63320200  0.02236600  1
  O  O25  1  0.02236600  0.75845300  0.63320200  1
  O  O26  1  0.63320200  0.02236600  0.75845300  1
  O  O27  1  0.24154700  0.36679800  0.97763400  1
  O  O28  1  0.97763400  0.24154700  0.36679800  1
  O  O29  1  0.36679800  0.97763400  0.24154700  1
  O  O30  1  0.11126400  0.30074400  0.51028900  1
  O  O31  1  0.51028900  0.11126400  0.30074400  1
  O  O32  1  0.30074400  0.51028900  0.11126400  1
  O  O33  1  0.88873600  0.69925600  0.48971100  1
  O  O34  1  0.48971100  0.88873600  0.69925600  1
  O  O35  1  0.69925600  0.48971100  0.88873600  1
