# generated using pymatgen
data_CsB9O14
_symmetry_space_group_name_H-M   'P 1'
_cell_length_a   8.86131500
_cell_length_b   8.91726500
_cell_length_c   15.99534400
_cell_angle_alpha   90.00000000
_cell_angle_beta   90.00000000
_cell_angle_gamma   90.00000000
_symmetry_Int_Tables_number   1
_chemical_formula_structural   CsB9O14
_chemical_formula_sum   'Cs4 B36 O56'
_cell_volume   1263.93119462
_cell_formula_units_Z   4
loop_
 _symmetry_equiv_pos_site_id
 _symmetry_equiv_pos_as_xyz
  1  'x, y, z'
loop_
 _atom_site_type_symbol
 _atom_site_label
 _atom_site_symmetry_multiplicity
 _atom_site_fract_x
 _atom_site_fract_y
 _atom_site_fract_z
 _atom_site_occupancy
  Cs  Cs0  1  0.99272400  0.00000000  0.50000000  1
  Cs  Cs1  1  0.50000000  0.52674700  0.25000000  1
  Cs  Cs2  1  0.50000000  0.47325300  0.75000000  1
  Cs  Cs3  1  0.00727600  0.00000000  0.00000000  1
  B  B4  1  0.11538200  0.44169000  0.11692400  1
  B  B5  1  0.63324300  0.66655700  0.56070900  1
  B  B6  1  0.15094900  0.35995400  0.37510600  1
  B  B7  1  0.32309800  0.95785500  0.18470900  1
  B  B8  1  0.84905100  0.64004600  0.87510600  1
  B  B9  1  0.67690200  0.04214500  0.68470900  1
  B  B10  1  0.56382300  0.82798400  0.44783300  1
  B  B11  1  0.92338800  0.62615900  0.13911800  1
  B  B12  1  0.22128400  0.14688300  0.27713400  1
  B  B13  1  0.84905100  0.35995400  0.12489400  1
  B  B14  1  0.88461800  0.55831000  0.61692400  1
  B  B15  1  0.22128400  0.85311700  0.72286600  1
  B  B16  1  0.63249500  0.28531000  0.03072400  1
  B  B17  1  0.18193900  0.88042400  0.30482900  1
  B  B18  1  0.77871600  0.14688300  0.22286600  1
  B  B19  1  0.36675700  0.33344300  0.06070900  1
  B  B20  1  0.07661200  0.62615900  0.36088200  1
  B  B21  1  0.56382300  0.17201600  0.55216700  1
  B  B22  1  0.81806100  0.88042400  0.19517100  1
  B  B23  1  0.43617700  0.82798400  0.05216700  1
  B  B24  1  0.77871600  0.85311700  0.77713400  1
  B  B25  1  0.07661200  0.37384100  0.63911800  1
  B  B26  1  0.36750500  0.28531000  0.46927600  1
  B  B27  1  0.63324300  0.33344300  0.43929100  1
  B  B28  1  0.43617700  0.17201600  0.94783300  1
  B  B29  1  0.32309800  0.04214500  0.81529100  1
  B  B30  1  0.92338800  0.37384100  0.86088200  1
  B  B31  1  0.11538200  0.55831000  0.88307600  1
  B  B32  1  0.15094900  0.64004600  0.62489400  1
  B  B33  1  0.36675700  0.66655700  0.93929100  1
  B  B34  1  0.81806100  0.11957600  0.80482900  1
  B  B35  1  0.18193900  0.11957600  0.69517100  1
  B  B36  1  0.88461800  0.44169000  0.38307600  1
  B  B37  1  0.63249500  0.71469000  0.96927600  1
  B  B38  1  0.67690200  0.95785500  0.31529100  1
  B  B39  1  0.36750500  0.71469000  0.53072400  1
  O  O40  1  0.73080100  0.57876000  0.60375600  1
  O  O41  1  0.58644300  0.79923500  0.03898100  1
  O  O42  1  0.01303500  0.33010200  0.11584600  1
  O  O43  1  0.92447000  0.40971500  0.63224600  1
  O  O44  1  0.73080100  0.42124000  0.39624400  1
  O  O45  1  0.22120900  0.70670700  0.54958900  1
  O  O46  1  0.98696500  0.33010200  0.38415400  1
  O  O47  1  0.29807900  0.10604800  0.20374300  1
  O  O48  1  0.48142600  0.64645900  0.57819900  1
  O  O49  1  0.77879100  0.29329300  0.04958900  1
  O  O50  1  0.51857400  0.35354100  0.07819900  1
  O  O51  1  0.77879100  0.70670700  0.95041100  1
  O  O52  1  0.78748500  0.29127700  0.20217300  1
  O  O53  1  0.67617300  0.23441600  0.50258900  1
  O  O54  1  0.16004700  0.97000000  0.67484800  1
  O  O55  1  0.72497900  0.84293600  0.26265500  1
  O  O56  1  0.21251500  0.29127700  0.29782700  1
  O  O57  1  0.81343200  0.47745900  0.86732500  1
  O  O58  1  0.59946100  0.92863400  0.38673200  1
  O  O59  1  0.32382700  0.76558400  0.00258900  1
  O  O60  1  0.59946100  0.07136600  0.61326800  1
  O  O61  1  0.83995300  0.97000000  0.82515200  1
  O  O62  1  0.58644300  0.20076500  0.96101900  1
  O  O63  1  0.01303500  0.66989800  0.88415400  1
  O  O64  1  0.40053900  0.92863400  0.11326800  1
  O  O65  1  0.40053900  0.07136600  0.88673200  1
  O  O66  1  0.21251500  0.70872300  0.70217300  1
  O  O67  1  0.07553000  0.40971500  0.86775400  1
  O  O68  1  0.18656800  0.52254100  0.36732500  1
  O  O69  1  0.92447000  0.59028500  0.36775400  1
  O  O70  1  0.70192100  0.89395200  0.70374300  1
  O  O71  1  0.32382700  0.23441600  0.99741100  1
  O  O72  1  0.10341300  0.22118700  0.65020900  1
  O  O73  1  0.89658700  0.77881300  0.15020900  1
  O  O74  1  0.29807900  0.89395200  0.79625700  1
  O  O75  1  0.10341300  0.77881300  0.34979100  1
  O  O76  1  0.83995300  0.03000000  0.17484800  1
  O  O77  1  0.26919900  0.57876000  0.89624400  1
  O  O78  1  0.98696500  0.66989800  0.61584600  1
  O  O79  1  0.89658700  0.22118700  0.84979100  1
  O  O80  1  0.41355700  0.20076500  0.53898100  1
  O  O81  1  0.51857400  0.64645900  0.92180100  1
  O  O82  1  0.07553000  0.59028500  0.13224600  1
  O  O83  1  0.27502100  0.15706400  0.76265500  1
  O  O84  1  0.26919900  0.42124000  0.10375600  1
  O  O85  1  0.78748500  0.70872300  0.79782700  1
  O  O86  1  0.22120900  0.29329300  0.45041100  1
  O  O87  1  0.27502100  0.84293600  0.23734500  1
  O  O88  1  0.41355700  0.79923500  0.46101900  1
  O  O89  1  0.81343200  0.52254100  0.13267500  1
  O  O90  1  0.72497900  0.15706400  0.73734500  1
  O  O91  1  0.16004700  0.03000000  0.32515200  1
  O  O92  1  0.48142600  0.35354100  0.42180100  1
  O  O93  1  0.18656800  0.47745900  0.63267500  1
  O  O94  1  0.67617300  0.76558400  0.49741100  1
  O  O95  1  0.70192100  0.10604800  0.29625700  1
