# generated using pymatgen
data_Cs5SiAs3
_symmetry_space_group_name_H-M   'P 1'
_cell_length_a   6.12894400
_cell_length_b   14.75455500
_cell_length_c   16.20690800
_cell_angle_alpha   90.00000000
_cell_angle_beta   90.00000000
_cell_angle_gamma   90.00000000
_symmetry_Int_Tables_number   1
_chemical_formula_structural   Cs5SiAs3
_chemical_formula_sum   'Cs20 Si4 As12'
_cell_volume   1465.58811905
_cell_formula_units_Z   4
loop_
 _symmetry_equiv_pos_site_id
 _symmetry_equiv_pos_as_xyz
  1  'x, y, z'
loop_
 _atom_site_type_symbol
 _atom_site_label
 _atom_site_symmetry_multiplicity
 _atom_site_fract_x
 _atom_site_fract_y
 _atom_site_fract_z
 _atom_site_occupancy
  Cs  Cs0  1  0.75000000  0.64471500  0.95223100  1
  Cs  Cs1  1  0.25000000  0.77745200  0.70467200  1
  Cs  Cs2  1  0.75000000  0.93536300  0.04870800  1
  Cs  Cs3  1  0.75000000  0.94951900  0.34594200  1
  Cs  Cs4  1  0.25000000  0.35528500  0.04776900  1
  Cs  Cs5  1  0.25000000  0.85528500  0.45223100  1
  Cs  Cs6  1  0.75000000  0.14471500  0.54776900  1
  Cs  Cs7  1  0.75000000  0.43536300  0.45129200  1
  Cs  Cs8  1  0.25000000  0.05048100  0.65405800  1
  Cs  Cs9  1  0.25000000  0.27745200  0.79532800  1
  Cs  Cs10  1  0.75000000  0.38049100  0.68654200  1
  Cs  Cs11  1  0.25000000  0.56463700  0.54870800  1
  Cs  Cs12  1  0.75000000  0.22254800  0.29532800  1
  Cs  Cs13  1  0.75000000  0.72254800  0.20467200  1
  Cs  Cs14  1  0.75000000  0.44951900  0.15405800  1
  Cs  Cs15  1  0.25000000  0.06463700  0.95129200  1
  Cs  Cs16  1  0.25000000  0.61950900  0.31345800  1
  Cs  Cs17  1  0.75000000  0.88049100  0.81345800  1
  Cs  Cs18  1  0.25000000  0.55048100  0.84594200  1
  Cs  Cs19  1  0.25000000  0.11950900  0.18654200  1
  Si  Si20  1  0.75000000  0.73984700  0.56606000  1
  Si  Si21  1  0.75000000  0.23984700  0.93394000  1
  Si  Si22  1  0.25000000  0.26015300  0.43394000  1
  Si  Si23  1  0.25000000  0.76015300  0.06606000  1
  As  As24  1  0.75000000  0.39552700  0.91177500  1
  As  As25  1  0.25000000  0.86375000  0.17419200  1
  As  As26  1  0.75000000  0.63625000  0.67419200  1
  As  As27  1  0.75000000  0.69261600  0.42954400  1
  As  As28  1  0.75000000  0.89552700  0.58822500  1
  As  As29  1  0.25000000  0.60447300  0.08822500  1
  As  As30  1  0.25000000  0.80738400  0.92954400  1
  As  As31  1  0.25000000  0.30738400  0.57045600  1
  As  As32  1  0.75000000  0.13625000  0.82580800  1
  As  As33  1  0.25000000  0.10447300  0.41177500  1
  As  As34  1  0.25000000  0.36375000  0.32580800  1
  As  As35  1  0.75000000  0.19261600  0.07045600  1
