# generated using pymatgen
data_TbH2Br
_symmetry_space_group_name_H-M   'P 1'
_cell_length_a   10.68140772
_cell_length_b   10.68140772
_cell_length_c   10.68140735
_cell_angle_alpha   20.41196499
_cell_angle_beta   20.41196499
_cell_angle_gamma   20.41196536
_symmetry_Int_Tables_number   1
_chemical_formula_structural   TbH2Br
_chemical_formula_sum   'Tb2 H4 Br2'
_cell_volume   129.73484298
_cell_formula_units_Z   2
loop_
 _symmetry_equiv_pos_site_id
 _symmetry_equiv_pos_as_xyz
  1  'x, y, z'
loop_
 _atom_site_type_symbol
 _atom_site_label
 _atom_site_symmetry_multiplicity
 _atom_site_fract_x
 _atom_site_fract_y
 _atom_site_fract_z
 _atom_site_occupancy
  Tb  Tb0  1  0.88507600  0.88507600  0.88507600  1
  Tb  Tb1  1  0.11492400  0.11492400  0.11492400  1
  H  H2  1  0.81359700  0.81359700  0.81359700  1
  H  H3  1  0.18640300  0.18640300  0.18640300  1
  H  H4  1  0.54641200  0.54641200  0.54641200  1
  H  H5  1  0.45358800  0.45358800  0.45358800  1
  Br  Br6  1  0.71972600  0.71972600  0.71972600  1
  Br  Br7  1  0.28027400  0.28027400  0.28027400  1
