# generated using pymatgen
data_RbBe2F5
_symmetry_space_group_name_H-M   'P 1'
_cell_length_a   4.72205600
_cell_length_b   4.73865304
_cell_length_c   6.21221631
_cell_angle_alpha   91.04569164
_cell_angle_beta   91.32403590
_cell_angle_gamma   119.54003970
_symmetry_Int_Tables_number   1
_chemical_formula_structural   RbBe2F5
_chemical_formula_sum   'Rb1 Be2 F5'
_cell_volume   120.83401807
_cell_formula_units_Z   1
loop_
 _symmetry_equiv_pos_site_id
 _symmetry_equiv_pos_as_xyz
  1  'x, y, z'
loop_
 _atom_site_type_symbol
 _atom_site_label
 _atom_site_symmetry_multiplicity
 _atom_site_fract_x
 _atom_site_fract_y
 _atom_site_fract_z
 _atom_site_occupancy
  Rb  Rb0  1  0.98615800  0.99961500  0.99077400  1
  Be  Be1  1  0.29903100  0.69110000  0.39726800  1
  Be  Be2  1  0.62554700  0.35227500  0.58083700  1
  F  F3  1  0.34334500  0.66685400  0.15937100  1
  F  F4  1  0.94426000  0.42741700  0.45972700  1
  F  F5  1  0.33898300  0.03524300  0.46352200  1
  F  F6  1  0.55059200  0.64110900  0.54238600  1
  F  F7  1  0.65408400  0.31338600  0.81911500  1
