# generated using pymatgen
data_Cu2P8Se3Br2
_symmetry_space_group_name_H-M   'P 1'
_cell_length_a   8.95478400
_cell_length_b   12.24628100
_cell_length_c   13.94853500
_cell_angle_alpha   90.00000000
_cell_angle_beta   90.00000000
_cell_angle_gamma   90.00000000
_symmetry_Int_Tables_number   1
_chemical_formula_structural   Cu2P8Se3Br2
_chemical_formula_sum   'Cu8 P32 Se12 Br8'
_cell_volume   1529.63542015
_cell_formula_units_Z   4
loop_
 _symmetry_equiv_pos_site_id
 _symmetry_equiv_pos_as_xyz
  1  'x, y, z'
loop_
 _atom_site_type_symbol
 _atom_site_label
 _atom_site_symmetry_multiplicity
 _atom_site_fract_x
 _atom_site_fract_y
 _atom_site_fract_z
 _atom_site_occupancy
  Cu  Cu0  1  0.79402300  0.07496700  0.25000000  1
  Cu  Cu1  1  0.01141200  0.62702400  0.75000000  1
  Cu  Cu2  1  0.79402300  0.42503300  0.75000000  1
  Cu  Cu3  1  0.98858800  0.12702400  0.75000000  1
  Cu  Cu4  1  0.01141200  0.87297600  0.25000000  1
  Cu  Cu5  1  0.98858800  0.37297600  0.25000000  1
  Cu  Cu6  1  0.20597700  0.92503300  0.75000000  1
  Cu  Cu7  1  0.20597700  0.57496700  0.25000000  1
  P  P8  1  0.09000600  0.69533400  0.60902100  1
  P  P9  1  0.90999400  0.19533400  0.60902100  1
  P  P10  1  0.25301200  0.66237600  0.11179400  1
  P  P11  1  0.20168900  0.56738800  0.52252800  1
  P  P12  1  0.52641000  0.25823900  0.57911100  1
  P  P13  1  0.20168900  0.93261200  0.02252800  1
  P  P14  1  0.52641000  0.25823900  0.92088900  1
  P  P15  1  0.47359000  0.75823900  0.92088900  1
  P  P16  1  0.52641000  0.24176100  0.42088900  1
  P  P17  1  0.25301200  0.66237600  0.38820600  1
  P  P18  1  0.90999400  0.30466600  0.39097900  1
  P  P19  1  0.47359000  0.74176100  0.42088900  1
  P  P20  1  0.74698800  0.33762400  0.61179400  1
  P  P21  1  0.90999400  0.19533400  0.89097900  1
  P  P22  1  0.79831100  0.06738800  0.97747200  1
  P  P23  1  0.79831100  0.43261200  0.02252800  1
  P  P24  1  0.74698800  0.16237600  0.11179400  1
  P  P25  1  0.47359000  0.75823900  0.57911100  1
  P  P26  1  0.09000600  0.80466600  0.39097900  1
  P  P27  1  0.47359000  0.74176100  0.07911100  1
  P  P28  1  0.74698800  0.33762400  0.88820600  1
  P  P29  1  0.52641000  0.24176100  0.07911100  1
  P  P30  1  0.09000600  0.80466600  0.10902100  1
  P  P31  1  0.90999400  0.30466600  0.10902100  1
  P  P32  1  0.20168900  0.93261200  0.47747200  1
  P  P33  1  0.79831100  0.06738800  0.52252800  1
  P  P34  1  0.25301200  0.83762400  0.61179400  1
  P  P35  1  0.25301200  0.83762400  0.88820600  1
  P  P36  1  0.20168900  0.56738800  0.97747200  1
  P  P37  1  0.74698800  0.16237600  0.38820600  1
  P  P38  1  0.09000600  0.69533400  0.89097900  1
  P  P39  1  0.79831100  0.43261200  0.47747200  1
  Se  Se40  1  0.41969600  0.92092800  0.39033000  1
  Se  Se41  1  0.91479400  0.75000000  0.50000000  1
  Se  Se42  1  0.58030400  0.42092800  0.10967000  1
  Se  Se43  1  0.91479400  0.75000000  0.00000000  1
  Se  Se44  1  0.58030400  0.07907200  0.60967000  1
  Se  Se45  1  0.41969600  0.57907200  0.60967000  1
  Se  Se46  1  0.41969600  0.57907200  0.89033000  1
  Se  Se47  1  0.58030400  0.42092800  0.39033000  1
  Se  Se48  1  0.08520600  0.25000000  0.50000000  1
  Se  Se49  1  0.41969600  0.92092800  0.10967000  1
  Se  Se50  1  0.58030400  0.07907200  0.89033000  1
  Se  Se51  1  0.08520600  0.25000000  0.00000000  1
  Br  Br52  1  0.26745800  0.37787600  0.25000000  1
  Br  Br53  1  0.92128800  0.92861600  0.75000000  1
  Br  Br54  1  0.92128800  0.57138400  0.25000000  1
  Br  Br55  1  0.07871200  0.42861600  0.75000000  1
  Br  Br56  1  0.07871200  0.07138400  0.25000000  1
  Br  Br57  1  0.73254200  0.62212400  0.75000000  1
  Br  Br58  1  0.73254200  0.87787600  0.25000000  1
  Br  Br59  1  0.26745800  0.12212400  0.75000000  1
