# generated using pymatgen
data_NbClF8
_symmetry_space_group_name_H-M   'P 1'
_cell_length_a   5.87941600
_cell_length_b   10.10426100
_cell_length_c   10.68109300
_cell_angle_alpha   90.00000000
_cell_angle_beta   90.00000000
_cell_angle_gamma   90.00000000
_symmetry_Int_Tables_number   1
_chemical_formula_structural   NbClF8
_chemical_formula_sum   'Nb4 Cl4 F32'
_cell_volume   634.53333451
_cell_formula_units_Z   4
loop_
 _symmetry_equiv_pos_site_id
 _symmetry_equiv_pos_as_xyz
  1  'x, y, z'
loop_
 _atom_site_type_symbol
 _atom_site_label
 _atom_site_symmetry_multiplicity
 _atom_site_fract_x
 _atom_site_fract_y
 _atom_site_fract_z
 _atom_site_occupancy
  Nb  Nb0  1  0.60218700  0.00000000  0.75000000  1
  Nb  Nb1  1  0.39781300  0.50000000  0.75000000  1
  Nb  Nb2  1  0.60218700  0.50000000  0.25000000  1
  Nb  Nb3  1  0.39781300  0.00000000  0.25000000  1
  Cl  Cl4  1  0.00000000  0.75000000  0.03799600  1
  Cl  Cl5  1  0.00000000  0.75000000  0.53799600  1
  Cl  Cl6  1  0.00000000  0.25000000  0.96200400  1
  Cl  Cl7  1  0.00000000  0.25000000  0.46200400  1
  F  F8  1  0.11166100  0.84891500  0.93449500  1
  F  F9  1  0.88833900  0.34891500  0.56550500  1
  F  F10  1  0.62174500  0.11412200  0.31787800  1
  F  F11  1  0.37825500  0.88587800  0.68212200  1
  F  F12  1  0.37825500  0.11412200  0.81787800  1
  F  F13  1  0.14654300  0.61452500  0.67713800  1
  F  F14  1  0.62812000  0.10349500  0.60024600  1
  F  F15  1  0.85345700  0.61452500  0.17713800  1
  F  F16  1  0.62174500  0.38587800  0.81787800  1
  F  F17  1  0.62812000  0.39650500  0.10024600  1
  F  F18  1  0.85345700  0.11452500  0.82286200  1
  F  F19  1  0.62812000  0.60349500  0.39975400  1
  F  F20  1  0.62174500  0.88587800  0.18212200  1
  F  F21  1  0.14654300  0.38547500  0.82286200  1
  F  F22  1  0.85345700  0.88547500  0.67713800  1
  F  F23  1  0.88833900  0.15108500  0.06550500  1
  F  F24  1  0.37188000  0.60349500  0.89975400  1
  F  F25  1  0.11166100  0.15108500  0.56550500  1
  F  F26  1  0.37825500  0.61412200  0.18212200  1
  F  F27  1  0.11166100  0.65108500  0.43449500  1
  F  F28  1  0.37188000  0.10349500  0.10024600  1
  F  F29  1  0.37188000  0.89650500  0.39975400  1
  F  F30  1  0.85345700  0.38547500  0.32286200  1
  F  F31  1  0.37825500  0.38587800  0.31787800  1
  F  F32  1  0.88833900  0.65108500  0.93449500  1
  F  F33  1  0.11166100  0.34891500  0.06550500  1
  F  F34  1  0.88833900  0.84891500  0.43449500  1
  F  F35  1  0.14654300  0.11452500  0.32286200  1
  F  F36  1  0.62812000  0.89650500  0.89975400  1
  F  F37  1  0.62174500  0.61412200  0.68212200  1
  F  F38  1  0.14654300  0.88547500  0.17713800  1
  F  F39  1  0.37188000  0.39650500  0.60024600  1
