# generated using pymatgen
data_Na3Li3Al2F12
_symmetry_space_group_name_H-M   'P 1'
_cell_length_a   10.66838682
_cell_length_b   10.66838682
_cell_length_c   10.66838682
_cell_angle_alpha   109.47122063
_cell_angle_beta   109.47122063
_cell_angle_gamma   109.47122063
_symmetry_Int_Tables_number   1
_chemical_formula_structural   Na3Li3Al2F12
_chemical_formula_sum   'Na12 Li12 Al8 F48'
_cell_volume   934.70458126
_cell_formula_units_Z   4
loop_
 _symmetry_equiv_pos_site_id
 _symmetry_equiv_pos_as_xyz
  1  'x, y, z'
loop_
 _atom_site_type_symbol
 _atom_site_label
 _atom_site_symmetry_multiplicity
 _atom_site_fract_x
 _atom_site_fract_y
 _atom_site_fract_z
 _atom_site_occupancy
  Na  Na0  1  0.87500000  0.75000000  0.62500000  1
  Na  Na1  1  0.62500000  0.25000000  0.87500000  1
  Na  Na2  1  0.25000000  0.87500000  0.62500000  1
  Na  Na3  1  0.87500000  0.62500000  0.25000000  1
  Na  Na4  1  0.62500000  0.87500000  0.75000000  1
  Na  Na5  1  0.75000000  0.62500000  0.87500000  1
  Na  Na6  1  0.12500000  0.25000000  0.37500000  1
  Na  Na7  1  0.37500000  0.75000000  0.12500000  1
  Na  Na8  1  0.75000000  0.12500000  0.37500000  1
  Na  Na9  1  0.12500000  0.37500000  0.75000000  1
  Na  Na10  1  0.25000000  0.37500000  0.12500000  1
  Na  Na11  1  0.37500000  0.12500000  0.25000000  1
  Li  Li12  1  0.62500000  0.37500000  0.25000000  1
  Li  Li13  1  0.25000000  0.12500000  0.87500000  1
  Li  Li14  1  0.75000000  0.87500000  0.12500000  1
  Li  Li15  1  0.12500000  0.75000000  0.87500000  1
  Li  Li16  1  0.37500000  0.25000000  0.62500000  1
  Li  Li17  1  0.87500000  0.12500000  0.75000000  1
  Li  Li18  1  0.87500000  0.25000000  0.12500000  1
  Li  Li19  1  0.62500000  0.75000000  0.37500000  1
  Li  Li20  1  0.75000000  0.37500000  0.62500000  1
  Li  Li21  1  0.37500000  0.62500000  0.75000000  1
  Li  Li22  1  0.12500000  0.87500000  0.25000000  1
  Li  Li23  1  0.25000000  0.62500000  0.37500000  1
  Al  Al24  1  0.50000000  0.50000000  0.50000000  1
  Al  Al25  1  0.50000000  0.00000000  0.50000000  1
  Al  Al26  1  0.00000000  0.50000000  0.50000000  1
  Al  Al27  1  0.50000000  0.50000000  0.00000000  1
  Al  Al28  1  0.00000000  0.00000000  0.50000000  1
  Al  Al29  1  0.00000000  0.50000000  0.00000000  1
  Al  Al30  1  0.50000000  0.00000000  0.00000000  1
  Al  Al31  1  0.00000000  0.00000000  0.00000000  1
  F  F32  1  0.48595000  0.38870900  0.31745400  1
  F  F33  1  0.90275900  0.38870900  0.57125500  1
  F  F34  1  0.01405000  0.18254600  0.11129100  1
  F  F35  1  0.59724100  0.16849600  0.48595000  1
  F  F36  1  0.57125500  0.90275900  0.38870900  1
  F  F37  1  0.01405000  0.33150400  0.90275900  1
  F  F38  1  0.92874500  0.11129100  0.59724100  1
  F  F39  1  0.38870900  0.31745400  0.48595000  1
  F  F40  1  0.18254600  0.11129100  0.01405000  1
  F  F41  1  0.31745400  0.33150400  0.92874500  1
  F  F42  1  0.92874500  0.31745400  0.33150400  1
  F  F43  1  0.38870900  0.57125500  0.90275900  1
  F  F44  1  0.18254600  0.57125500  0.16849600  1
  F  F45  1  0.16849600  0.48595000  0.59724100  1
  F  F46  1  0.16849600  0.18254600  0.57125500  1
  F  F47  1  0.11129100  0.01405000  0.18254600  1
  F  F48  1  0.57125500  0.16849600  0.18254600  1
  F  F49  1  0.48595000  0.59724100  0.16849600  1
  F  F50  1  0.59724100  0.92874500  0.11129100  1
  F  F51  1  0.33150400  0.90275900  0.01405000  1
  F  F52  1  0.66849600  0.07125500  0.68254600  1
  F  F53  1  0.09724100  0.98595000  0.66849600  1
  F  F54  1  0.68254600  0.51405000  0.61129100  1
  F  F55  1  0.61129100  0.68254600  0.51405000  1
  F  F56  1  0.88870900  0.40275900  0.07125500  1
  F  F57  1  0.07125500  0.88870900  0.40275900  1
  F  F58  1  0.98595000  0.66849600  0.09724100  1
  F  F59  1  0.42874500  0.09724100  0.61129100  1
  F  F60  1  0.40275900  0.83150400  0.51405000  1
  F  F61  1  0.98595000  0.81745400  0.88870900  1
  F  F62  1  0.09724100  0.61129100  0.42874500  1
  F  F63  1  0.51405000  0.40275900  0.83150400  1
  F  F64  1  0.81745400  0.88870900  0.98595000  1
  F  F65  1  0.68254600  0.66849600  0.07125500  1
  F  F66  1  0.07125500  0.68254600  0.66849600  1
  F  F67  1  0.61129100  0.42874500  0.09724100  1
  F  F68  1  0.81745400  0.42874500  0.83150400  1
  F  F69  1  0.83150400  0.51405000  0.40275900  1
  F  F70  1  0.83150400  0.81745400  0.42874500  1
  F  F71  1  0.88870900  0.98595000  0.81745400  1
  F  F72  1  0.42874500  0.83150400  0.81745400  1
  F  F73  1  0.40275900  0.07125500  0.88870900  1
  F  F74  1  0.66849600  0.09724100  0.98595000  1
  F  F75  1  0.51405000  0.61129100  0.68254600  1
  F  F76  1  0.33150400  0.92874500  0.31745400  1
  F  F77  1  0.90275900  0.01405000  0.33150400  1
  F  F78  1  0.31745400  0.48595000  0.38870900  1
  F  F79  1  0.11129100  0.59724100  0.92874500  1
