# generated using pymatgen
data_MoCl2
_symmetry_space_group_name_H-M   'P 1'
_cell_length_a   9.38910970
_cell_length_b   9.38910970
_cell_length_c   11.56425700
_cell_angle_alpha   90.00000000
_cell_angle_beta   90.00000000
_cell_angle_gamma   104.04260335
_symmetry_Int_Tables_number   1
_chemical_formula_structural   MoCl2
_chemical_formula_sum   'Mo12 Cl24'
_cell_volume   988.98575661
_cell_formula_units_Z   12
loop_
 _symmetry_equiv_pos_site_id
 _symmetry_equiv_pos_as_xyz
  1  'x, y, z'
loop_
 _atom_site_type_symbol
 _atom_site_label
 _atom_site_symmetry_multiplicity
 _atom_site_fract_x
 _atom_site_fract_y
 _atom_site_fract_z
 _atom_site_occupancy
  Mo  Mo0  1  0.37423800  0.62576200  0.50000000  1
  Mo  Mo1  1  0.35378200  0.35378200  0.56603500  1
  Mo  Mo2  1  0.64621800  0.64621800  0.43396500  1
  Mo  Mo3  1  0.14621800  0.14621800  0.06603500  1
  Mo  Mo4  1  0.93389800  0.93389800  0.14612200  1
  Mo  Mo5  1  0.12576200  0.87423800  0.00000000  1
  Mo  Mo6  1  0.56610200  0.56610200  0.64612200  1
  Mo  Mo7  1  0.06610200  0.06610200  0.85387800  1
  Mo  Mo8  1  0.85378200  0.85378200  0.93396500  1
  Mo  Mo9  1  0.87423800  0.12576200  0.00000000  1
  Mo  Mo10  1  0.43389800  0.43389800  0.35387800  1
  Mo  Mo11  1  0.62576200  0.37423800  0.50000000  1
  Cl  Cl12  1  0.95853600  0.19550500  0.20132800  1
  Cl  Cl13  1  0.41697800  0.18003100  0.42314000  1
  Cl  Cl14  1  0.31996900  0.08302200  0.92314000  1
  Cl  Cl15  1  0.34758200  0.34758200  0.15256400  1
  Cl  Cl16  1  0.19550500  0.95853600  0.20132800  1
  Cl  Cl17  1  0.08302200  0.31996900  0.92314000  1
  Cl  Cl18  1  0.80449500  0.04146400  0.79867200  1
  Cl  Cl19  1  0.28712100  0.71287900  0.00000000  1
  Cl  Cl20  1  0.65241800  0.65241800  0.84743600  1
  Cl  Cl21  1  0.78712100  0.21287900  0.50000000  1
  Cl  Cl22  1  0.84758200  0.84758200  0.34743600  1
  Cl  Cl23  1  0.45853600  0.69550500  0.29867200  1
  Cl  Cl24  1  0.58302200  0.81996900  0.57686000  1
  Cl  Cl25  1  0.18003100  0.41697800  0.42314000  1
  Cl  Cl26  1  0.91697800  0.68003100  0.07686000  1
  Cl  Cl27  1  0.81996900  0.58302200  0.57686000  1
  Cl  Cl28  1  0.30449500  0.54146400  0.70132800  1
  Cl  Cl29  1  0.04146400  0.80449500  0.79867200  1
  Cl  Cl30  1  0.71287900  0.28712100  0.00000000  1
  Cl  Cl31  1  0.68003100  0.91697800  0.07686000  1
  Cl  Cl32  1  0.21287900  0.78712100  0.50000000  1
  Cl  Cl33  1  0.15241800  0.15241800  0.65256400  1
  Cl  Cl34  1  0.54146400  0.30449500  0.70132800  1
  Cl  Cl35  1  0.69550500  0.45853600  0.29867200  1
