# generated using pymatgen
data_Rb5Re3S7
_symmetry_space_group_name_H-M   'P 1'
_cell_length_a   10.74227200
_cell_length_b   10.74306608
_cell_length_c   10.78992398
_cell_angle_alpha   60.48238392
_cell_angle_beta   60.71205237
_cell_angle_gamma   60.52722077
_symmetry_Int_Tables_number   1
_chemical_formula_structural   Rb5Re3S7
_chemical_formula_sum   'Rb10 Re6 S14'
_cell_volume   891.90317108
_cell_formula_units_Z   2
loop_
 _symmetry_equiv_pos_site_id
 _symmetry_equiv_pos_as_xyz
  1  'x, y, z'
loop_
 _atom_site_type_symbol
 _atom_site_label
 _atom_site_symmetry_multiplicity
 _atom_site_fract_x
 _atom_site_fract_y
 _atom_site_fract_z
 _atom_site_occupancy
  Rb  Rb0  1  0.01150300  0.99167900  0.99534200  1
  Rb  Rb1  1  0.41447000  0.58013000  0.00396700  1
  Rb  Rb2  1  0.42301600  0.99967500  0.99997700  1
  Rb  Rb3  1  0.57091600  0.13962600  0.14094500  1
  Rb  Rb4  1  0.00315100  0.57224000  0.00834400  1
  Rb  Rb5  1  0.42084900  0.00061100  0.57924500  1
  Rb  Rb6  1  0.02642800  0.42436900  0.52178400  1
  Rb  Rb7  1  0.00091800  0.00475000  0.57093900  1
  Rb  Rb8  1  0.86222500  0.85877600  0.42390500  1
  Rb  Rb9  1  0.84407200  0.42775700  0.89271000  1
  Re  Re10  1  0.62173000  0.37551400  0.37830700  1
  Re  Re11  1  0.62287600  0.62406500  0.37833200  1
  Re  Re12  1  0.62374000  0.37792100  0.62334900  1
  Re  Re13  1  0.37522500  0.62313100  0.37739000  1
  Re  Re14  1  0.37568600  0.37700000  0.62238000  1
  Re  Re15  1  0.37727900  0.62403600  0.62254400  1
  S  S16  1  0.77767300  0.21116600  0.22346400  1
  S  S17  1  0.78023800  0.78455500  0.22203400  1
  S  S18  1  0.61191900  0.61236200  0.16276900  1
  S  S19  1  0.83757000  0.38653500  0.38696800  1
  S  S20  1  0.61290600  0.16043000  0.61307000  1
  S  S21  1  0.78341000  0.22481700  0.78420800  1
  S  S22  1  0.38721800  0.38483800  0.38519800  1
  S  S23  1  0.61476700  0.61495700  0.61392200  1
  S  S24  1  0.21435400  0.78019000  0.22138400  1
  S  S25  1  0.38678600  0.83973100  0.38800200  1
  S  S26  1  0.15987100  0.61317800  0.61195900  1
  S  S27  1  0.38860200  0.38721100  0.83732800  1
  S  S28  1  0.20995200  0.22361400  0.77955600  1
  S  S29  1  0.21715000  0.78443500  0.78197900  1
