# generated using pymatgen
data_K4PH5Se3O16
_symmetry_space_group_name_H-M   'P 1'
_cell_length_a   7.58771000
_cell_length_b   7.79945631
_cell_length_c   7.86314821
_cell_angle_alpha   71.35419345
_cell_angle_beta   87.67894811
_cell_angle_gamma   85.71453692
_symmetry_Int_Tables_number   1
_chemical_formula_structural   K4PH5Se3O16
_chemical_formula_sum   'K4 P1 H5 Se3 O16'
_cell_volume   439.61622207
_cell_formula_units_Z   1
loop_
 _symmetry_equiv_pos_site_id
 _symmetry_equiv_pos_as_xyz
  1  'x, y, z'
loop_
 _atom_site_type_symbol
 _atom_site_label
 _atom_site_symmetry_multiplicity
 _atom_site_fract_x
 _atom_site_fract_y
 _atom_site_fract_z
 _atom_site_occupancy
  K  K0  1  0.03262100  0.74176600  0.21994100  1
  K  K1  1  0.33812500  0.81197800  0.66529900  1
  K  K2  1  0.65985800  0.19486800  0.33189500  1
  K  K3  1  0.96809400  0.25683000  0.78119600  1
  P  P4  1  0.54116500  0.71932000  0.19378800  1
  H  H5  1  0.25366300  0.42664800  0.03058500  1
  H  H6  1  0.37838900  0.92854200  0.96872900  1
  H  H7  1  0.49058800  0.53543200  0.47292700  1
  H  H8  1  0.64023300  0.99966700  0.08368500  1
  H  H9  1  0.74595000  0.57199700  0.97225400  1
  Se  Se10  1  0.12753400  0.21640100  0.27884900  1
  Se  Se11  1  0.46778100  0.27239700  0.80431300  1
  Se  Se12  1  0.87152600  0.78250700  0.72267500  1
  O  O13  1  0.00975800  0.13459100  0.15238500  1
  O  O14  1  0.00542100  0.26853900  0.43582800  1
  O  O15  1  0.19104600  0.43395400  0.14666600  1
  O  O16  1  0.31145800  0.09071500  0.34916200  1
  O  O17  1  0.34054100  0.10094600  0.81574600  1
  O  O18  1  0.33836700  0.44091100  0.84143800  1
  O  O19  1  0.38714000  0.79579300  0.05597500  1
  O  O20  1  0.44637700  0.65923600  0.38356100  1
  O  O21  1  0.56160900  0.35399300  0.60085500  1
  O  O22  1  0.62853200  0.19531900  0.95583500  1
  O  O23  1  0.65327700  0.56557200  0.16098300  1
  O  O24  1  0.65614000  0.88158300  0.19022800  1
  O  O25  1  0.68798000  0.90826800  0.65085300  1
  O  O26  1  0.80801700  0.56540600  0.85596400  1
  O  O27  1  0.99404900  0.73090200  0.56547500  1
  O  O28  1  0.98956000  0.86392000  0.84940900  1
