# generated using pymatgen
data_K5(AsPb)3
_symmetry_space_group_name_H-M   'P 1'
_cell_length_a   6.67846000
_cell_length_b   12.34733100
_cell_length_c   19.76705600
_cell_angle_alpha   90.00000000
_cell_angle_beta   90.00000000
_cell_angle_gamma   90.00000000
_symmetry_Int_Tables_number   1
_chemical_formula_structural   K5(AsPb)3
_chemical_formula_sum   'K20 As12 Pb12'
_cell_volume   1630.01429224
_cell_formula_units_Z   4
loop_
 _symmetry_equiv_pos_site_id
 _symmetry_equiv_pos_as_xyz
  1  'x, y, z'
loop_
 _atom_site_type_symbol
 _atom_site_label
 _atom_site_symmetry_multiplicity
 _atom_site_fract_x
 _atom_site_fract_y
 _atom_site_fract_z
 _atom_site_occupancy
  K  K0  1  0.77079900  0.54546700  0.32120800  1
  K  K1  1  0.26119700  0.75000000  0.86967500  1
  K  K2  1  0.45195300  0.75000000  0.60309400  1
  K  K3  1  0.76119700  0.25000000  0.63032500  1
  K  K4  1  0.23880300  0.75000000  0.36967500  1
  K  K5  1  0.54804700  0.25000000  0.39690600  1
  K  K6  1  0.27079900  0.45453300  0.17879200  1
  K  K7  1  0.04804700  0.75000000  0.10309400  1
  K  K8  1  0.77079900  0.95453300  0.32120800  1
  K  K9  1  0.72920100  0.95453300  0.82120800  1
  K  K10  1  0.27079900  0.04546700  0.17879200  1
  K  K11  1  0.72920100  0.54546700  0.82120800  1
  K  K12  1  0.00000000  0.00000000  0.00000000  1
  K  K13  1  0.22920100  0.45453300  0.67879200  1
  K  K14  1  0.22920100  0.04546700  0.67879200  1
  K  K15  1  0.50000000  0.00000000  0.50000000  1
  K  K16  1  0.95195300  0.25000000  0.89690600  1
  K  K17  1  0.73880300  0.25000000  0.13032500  1
  K  K18  1  0.50000000  0.50000000  0.50000000  1
  K  K19  1  0.00000000  0.50000000  0.00000000  1
  As  As20  1  0.74070900  0.75000000  0.45599500  1
  As  As21  1  0.75929100  0.75000000  0.95599500  1
  As  As22  1  0.23479800  0.44684400  0.84694400  1
  As  As23  1  0.76520200  0.94684400  0.15305600  1
  As  As24  1  0.26520200  0.05315600  0.34694400  1
  As  As25  1  0.73479800  0.55315600  0.65305600  1
  As  As26  1  0.73479800  0.94684400  0.65305600  1
  As  As27  1  0.23479800  0.05315600  0.84694400  1
  As  As28  1  0.25929100  0.25000000  0.54400500  1
  As  As29  1  0.26520200  0.44684400  0.34694400  1
  As  As30  1  0.76520200  0.55315600  0.15305600  1
  As  As31  1  0.24070900  0.25000000  0.04400500  1
  Pb  Pb32  1  0.97941900  0.88234600  0.54386700  1
  Pb  Pb33  1  0.02058100  0.11765400  0.45613300  1
  Pb  Pb34  1  0.93907100  0.75000000  0.69358300  1
  Pb  Pb35  1  0.56092900  0.75000000  0.19358300  1
  Pb  Pb36  1  0.97941900  0.61765400  0.54386700  1
  Pb  Pb37  1  0.06092900  0.25000000  0.30641700  1
  Pb  Pb38  1  0.02058100  0.38234600  0.45613300  1
  Pb  Pb39  1  0.52058100  0.88234600  0.04386700  1
  Pb  Pb40  1  0.47941900  0.38234600  0.95613300  1
  Pb  Pb41  1  0.47941900  0.11765400  0.95613300  1
  Pb  Pb42  1  0.52058100  0.61765400  0.04386700  1
  Pb  Pb43  1  0.43907100  0.25000000  0.80641700  1
