# generated using pymatgen
data_Ti2S
_symmetry_space_group_name_H-M   'P 1'
_cell_length_a   3.32485800
_cell_length_b   11.36397800
_cell_length_c   14.03362700
_cell_angle_alpha   90.00000000
_cell_angle_beta   90.00000000
_cell_angle_gamma   90.00000000
_symmetry_Int_Tables_number   1
_chemical_formula_structural   Ti2S
_chemical_formula_sum   'Ti24 S12'
_cell_volume   530.24113387
_cell_formula_units_Z   12
loop_
 _symmetry_equiv_pos_site_id
 _symmetry_equiv_pos_as_xyz
  1  'x, y, z'
loop_
 _atom_site_type_symbol
 _atom_site_label
 _atom_site_symmetry_multiplicity
 _atom_site_fract_x
 _atom_site_fract_y
 _atom_site_fract_z
 _atom_site_occupancy
  Ti  Ti0  1  0.50000000  0.41392000  0.75536800  1
  Ti  Ti1  1  0.50000000  0.38018000  0.07782000  1
  Ti  Ti2  1  0.00000000  0.80837200  0.20771400  1
  Ti  Ti3  1  0.00000000  0.46925800  0.39024100  1
  Ti  Ti4  1  0.00000000  0.08608000  0.25536800  1
  Ti  Ti5  1  0.50000000  0.61982000  0.92218000  1
  Ti  Ti6  1  0.00000000  0.58773300  0.07922100  1
  Ti  Ti7  1  0.00000000  0.91392000  0.74463200  1
  Ti  Ti8  1  0.50000000  0.91226700  0.57922100  1
  Ti  Ti9  1  0.00000000  0.84607900  0.97939000  1
  Ti  Ti10  1  0.50000000  0.30837200  0.29228600  1
  Ti  Ti11  1  0.50000000  0.08773300  0.42077900  1
  Ti  Ti12  1  0.50000000  0.03074200  0.89024100  1
  Ti  Ti13  1  0.50000000  0.96925800  0.10975900  1
  Ti  Ti14  1  0.00000000  0.19162800  0.79228600  1
  Ti  Ti15  1  0.50000000  0.65392100  0.47939000  1
  Ti  Ti16  1  0.50000000  0.69162800  0.70771400  1
  Ti  Ti17  1  0.50000000  0.34607900  0.52061000  1
  Ti  Ti18  1  0.00000000  0.41226700  0.92077900  1
  Ti  Ti19  1  0.00000000  0.53074200  0.60975900  1
  Ti  Ti20  1  0.50000000  0.58608000  0.24463200  1
  Ti  Ti21  1  0.00000000  0.88018000  0.42218000  1
  Ti  Ti22  1  0.00000000  0.15392100  0.02061000  1
  Ti  Ti23  1  0.00000000  0.11982000  0.57782000  1
  S  S24  1  0.00000000  0.56832400  0.79329600  1
  S  S25  1  0.50000000  0.06832400  0.70670400  1
  S  S26  1  0.00000000  0.43167600  0.20670400  1
  S  S27  1  0.00000000  0.75496600  0.58765400  1
  S  S28  1  0.50000000  0.81552000  0.85019900  1
  S  S29  1  0.50000000  0.93167600  0.29329600  1
  S  S30  1  0.50000000  0.18448000  0.14980100  1
  S  S31  1  0.50000000  0.74503400  0.08765400  1
  S  S32  1  0.00000000  0.31552000  0.64980100  1
  S  S33  1  0.50000000  0.25496600  0.91234600  1
  S  S34  1  0.00000000  0.68448000  0.35019900  1
  S  S35  1  0.00000000  0.24503400  0.41234600  1
