# generated using pymatgen
data_AsN2F7
_symmetry_space_group_name_H-M   'P 1'
_cell_length_a   5.33782791
_cell_length_b   5.33782791
_cell_length_c   26.26649709
_cell_angle_alpha   89.37069151
_cell_angle_beta   89.37069151
_cell_angle_gamma   65.94314595
_symmetry_Int_Tables_number   1
_chemical_formula_structural   AsN2F7
_chemical_formula_sum   'As5 N10 F35'
_cell_volume   683.33255245
_cell_formula_units_Z   5
loop_
 _symmetry_equiv_pos_site_id
 _symmetry_equiv_pos_as_xyz
  1  'x, y, z'
loop_
 _atom_site_type_symbol
 _atom_site_label
 _atom_site_symmetry_multiplicity
 _atom_site_fract_x
 _atom_site_fract_y
 _atom_site_fract_z
 _atom_site_occupancy
  As  As0  1  0.99994400  0.99994400  0.90003800  1
  As  As1  1  0.99997900  0.99997900  0.70002600  1
  As  As2  1  0.99966400  0.99966400  0.50017300  1
  As  As3  1  0.99965700  0.99965700  0.30018000  1
  As  As4  1  0.99969800  0.99969800  0.10017100  1
  N  N5  1  0.62414700  0.62414700  0.98521200  1
  N  N6  1  0.37595200  0.37595200  0.81479200  1
  N  N7  1  0.49499100  0.49499100  0.80150100  1
  N  N8  1  0.50490700  0.50490700  0.59855600  1
  N  N9  1  0.62413000  0.62413000  0.58521300  1
  N  N10  1  0.50490800  0.50490800  0.39856100  1
  N  N11  1  0.62414500  0.62414500  0.38521500  1
  N  N12  1  0.50490300  0.50490300  0.19856200  1
  N  N13  1  0.62412600  0.62412600  0.18521700  1
  N  N14  1  0.50490800  0.50490800  0.99856300  1
  F  F15  1  0.13174000  0.13174000  0.94966300  1
  F  F16  1  0.67857700  0.11433600  0.93285500  1
  F  F17  1  0.11433600  0.67857700  0.93285500  1
  F  F18  1  0.88561100  0.32142400  0.86713000  1
  F  F19  1  0.32142400  0.88561100  0.86713000  1
  F  F20  1  0.86819800  0.86819800  0.85033200  1
  F  F21  1  0.62745100  0.62745100  0.78456000  1
  F  F22  1  0.13164600  0.13164600  0.74965100  1
  F  F23  1  0.67919100  0.11413000  0.73277300  1
  F  F24  1  0.11413000  0.67919100  0.73277300  1
  F  F25  1  0.88584300  0.32086900  0.66719300  1
  F  F26  1  0.32086900  0.88584300  0.66719300  1
  F  F27  1  0.86833100  0.86833100  0.65032700  1
  F  F28  1  0.37253600  0.37253600  0.61545400  1
  F  F29  1  0.13167700  0.13167700  0.54971000  1
  F  F30  1  0.67810900  0.11444800  0.53295300  1
  F  F31  1  0.11444800  0.67810900  0.53295300  1
  F  F32  1  0.88591700  0.32036500  0.46728300  1
  F  F33  1  0.32036500  0.88591700  0.46728300  1
  F  F34  1  0.86824700  0.86824700  0.45039700  1
  F  F35  1  0.37256100  0.37256100  0.41546700  1
  F  F36  1  0.13169000  0.13169000  0.34971500  1
  F  F37  1  0.67808500  0.11445300  0.33295200  1
  F  F38  1  0.11445300  0.67808500  0.33295200  1
  F  F39  1  0.88591700  0.32036000  0.26729100  1
  F  F40  1  0.32036000  0.88591700  0.26729100  1
  F  F41  1  0.86825800  0.86825800  0.25039600  1
  F  F42  1  0.37253900  0.37253900  0.21546600  1
  F  F43  1  0.13169800  0.13169800  0.14971400  1
  F  F44  1  0.67811800  0.11445700  0.13293900  1
  F  F45  1  0.11445700  0.67811800  0.13293900  1
  F  F46  1  0.88593200  0.32039600  0.06729000  1
  F  F47  1  0.32039600  0.88593200  0.06729000  1
  F  F48  1  0.86828200  0.86828200  0.05038000  1
  F  F49  1  0.37254800  0.37254800  0.01546700  1
