# generated using pymatgen
data_Ba2PrSbO6
_symmetry_space_group_name_H-M   'P 1'
_cell_length_a   6.13191453
_cell_length_b   6.13191453
_cell_length_c   6.13191463
_cell_angle_alpha   60.39350927
_cell_angle_beta   60.39350927
_cell_angle_gamma   60.39350642
_symmetry_Int_Tables_number   1
_chemical_formula_structural   Ba2PrSbO6
_chemical_formula_sum   'Ba2 Pr1 Sb1 O6'
_cell_volume   164.48305222
_cell_formula_units_Z   1
loop_
 _symmetry_equiv_pos_site_id
 _symmetry_equiv_pos_as_xyz
  1  'x, y, z'
loop_
 _atom_site_type_symbol
 _atom_site_label
 _atom_site_symmetry_multiplicity
 _atom_site_fract_x
 _atom_site_fract_y
 _atom_site_fract_z
 _atom_site_occupancy
  Ba  Ba0  1  0.25131400  0.25131400  0.25131400  1
  Ba  Ba1  1  0.74868600  0.74868600  0.74868600  1
  Pr  Pr2  1  0.00000000  0.00000000  0.00000000  1
  Sb  Sb3  1  0.50000000  0.50000000  0.50000000  1
  O  O4  1  0.31328500  0.72813900  0.22519400  1
  O  O5  1  0.72813900  0.22519400  0.31328500  1
  O  O6  1  0.22519400  0.31328500  0.72813900  1
  O  O7  1  0.68671500  0.27186100  0.77480600  1
  O  O8  1  0.77480600  0.68671500  0.27186100  1
  O  O9  1  0.27186100  0.77480600  0.68671500  1
