# generated using pymatgen
data_La(GePt)2
_symmetry_space_group_name_H-M   'P 1'
_cell_length_a   4.48751300
_cell_length_b   8.94685900
_cell_length_c   9.93198002
_cell_angle_alpha   89.18815023
_cell_angle_beta   90.00000000
_cell_angle_gamma   90.00000000
_symmetry_Int_Tables_number   1
_chemical_formula_structural   La(GePt)2
_chemical_formula_sum   'La4 Ge8 Pt8'
_cell_volume   398.72048710
_cell_formula_units_Z   4
loop_
 _symmetry_equiv_pos_site_id
 _symmetry_equiv_pos_as_xyz
  1  'x, y, z'
loop_
 _atom_site_type_symbol
 _atom_site_label
 _atom_site_symmetry_multiplicity
 _atom_site_fract_x
 _atom_site_fract_y
 _atom_site_fract_z
 _atom_site_occupancy
  La  La0  1  0.25505300  0.87302100  0.24424600  1
  La  La1  1  0.75505300  0.62697900  0.75575400  1
  La  La2  1  0.24494700  0.37302100  0.24424600  1
  La  La3  1  0.74494700  0.12697900  0.75575400  1
  Ge  Ge4  1  0.24259300  0.12536900  0.00073400  1
  Ge  Ge5  1  0.79427100  0.61219100  0.37733900  1
  Ge  Ge6  1  0.70572900  0.11219100  0.37733900  1
  Ge  Ge7  1  0.25740700  0.62536900  0.00073400  1
  Ge  Ge8  1  0.20572900  0.38780900  0.62266100  1
  Ge  Ge9  1  0.74259300  0.37463100  0.99926600  1
  Ge  Ge10  1  0.29427100  0.88780900  0.62266100  1
  Ge  Ge11  1  0.75740700  0.87463100  0.99926600  1
  Pt  Pt12  1  0.30645600  0.63868100  0.49989200  1
  Pt  Pt13  1  0.74344700  0.12305900  0.12418200  1
  Pt  Pt14  1  0.19354400  0.13868100  0.49989200  1
  Pt  Pt15  1  0.80645600  0.86131900  0.50010800  1
  Pt  Pt16  1  0.24344700  0.37694100  0.87581800  1
  Pt  Pt17  1  0.25655300  0.87694100  0.87581800  1
  Pt  Pt18  1  0.69354400  0.36131900  0.50010800  1
  Pt  Pt19  1  0.75655300  0.62305900  0.12418200  1
