# generated using pymatgen
data_TlB5O8
_symmetry_space_group_name_H-M   'P 1'
_cell_length_a   7.67020900
_cell_length_b   12.06016500
_cell_length_c   14.95563300
_cell_angle_alpha   90.00000000
_cell_angle_beta   90.00000000
_cell_angle_gamma   90.00000000
_symmetry_Int_Tables_number   1
_chemical_formula_structural   TlB5O8
_chemical_formula_sum   'Tl8 B40 O64'
_cell_volume   1383.45566751
_cell_formula_units_Z   8
loop_
 _symmetry_equiv_pos_site_id
 _symmetry_equiv_pos_as_xyz
  1  'x, y, z'
loop_
 _atom_site_type_symbol
 _atom_site_label
 _atom_site_symmetry_multiplicity
 _atom_site_fract_x
 _atom_site_fract_y
 _atom_site_fract_z
 _atom_site_occupancy
  Tl  Tl0  1  0.56651900  0.29198600  0.87755900  1
  Tl  Tl1  1  0.56651900  0.20801400  0.37755900  1
  Tl  Tl2  1  0.43348100  0.70801400  0.12244100  1
  Tl  Tl3  1  0.06651900  0.20801400  0.12244100  1
  Tl  Tl4  1  0.06651900  0.29198600  0.62244100  1
  Tl  Tl5  1  0.43348100  0.79198600  0.62244100  1
  Tl  Tl6  1  0.93348100  0.70801400  0.37755900  1
  Tl  Tl7  1  0.93348100  0.79198600  0.87755900  1
  B  B8  1  0.45454500  0.72570900  0.37355000  1
  B  B9  1  0.69080100  0.42997400  0.54434100  1
  B  B10  1  0.52277700  0.97321300  0.84357600  1
  B  B11  1  0.47722300  0.47321300  0.65642400  1
  B  B12  1  0.92020900  0.89962100  0.21325900  1
  B  B13  1  0.97722300  0.02678700  0.34357600  1
  B  B14  1  0.59667900  0.90552000  0.41838200  1
  B  B15  1  0.92020900  0.60037900  0.71325900  1
  B  B16  1  0.45454500  0.77429100  0.87355000  1
  B  B17  1  0.19080100  0.07002600  0.45565900  1
  B  B18  1  0.90332100  0.40552000  0.41838200  1
  B  B19  1  0.57979100  0.10037900  0.71325900  1
  B  B20  1  0.07979100  0.10037900  0.78674100  1
  B  B21  1  0.02277700  0.52678700  0.15642400  1
  B  B22  1  0.54545500  0.22570900  0.12645000  1
  B  B23  1  0.80919900  0.92997400  0.54434100  1
  B  B24  1  0.04545500  0.22570900  0.37355000  1
  B  B25  1  0.69080100  0.07002600  0.04434100  1
  B  B26  1  0.90332100  0.09448000  0.91838200  1
  B  B27  1  0.80919900  0.57002600  0.04434100  1
  B  B28  1  0.40332100  0.40552000  0.08161800  1
  B  B29  1  0.95454500  0.72570900  0.12645000  1
  B  B30  1  0.02277700  0.97321300  0.65642400  1
  B  B31  1  0.04545500  0.27429100  0.87355000  1
  B  B32  1  0.40332100  0.09448000  0.58161800  1
  B  B33  1  0.42020900  0.89962100  0.28674100  1
  B  B34  1  0.47722300  0.02678700  0.15642400  1
  B  B35  1  0.30919900  0.92997400  0.95565900  1
  B  B36  1  0.09667900  0.90552000  0.08161800  1
  B  B37  1  0.19080100  0.42997400  0.95565900  1
  B  B38  1  0.09667900  0.59448000  0.58161800  1
  B  B39  1  0.52277700  0.52678700  0.34357600  1
  B  B40  1  0.07979100  0.39962100  0.28674100  1
  B  B41  1  0.30919900  0.57002600  0.45565900  1
  B  B42  1  0.59667900  0.59448000  0.91838200  1
  B  B43  1  0.42020900  0.60037900  0.78674100  1
  B  B44  1  0.54545500  0.27429100  0.62645000  1
  B  B45  1  0.95454500  0.77429100  0.62645000  1
  B  B46  1  0.97722300  0.47321300  0.84357600  1
  B  B47  1  0.57979100  0.39962100  0.21325900  1
  O  O48  1  0.32364700  0.82077900  0.93538000  1
  O  O49  1  0.92138800  0.20599600  0.92632000  1
  O  O50  1  0.86935900  0.70622000  0.69635300  1
  O  O51  1  0.59669400  0.50966000  0.59226200  1
  O  O52  1  0.38951600  0.55634700  0.70306900  1
  O  O53  1  0.44595000  0.36433100  0.67203300  1
  O  O54  1  0.30081000  0.46826900  0.02357300  1
  O  O55  1  0.69919000  0.96826900  0.47642700  1
  O  O56  1  0.13064100  0.29378000  0.30364700  1
  O  O57  1  0.17635300  0.32077900  0.93538000  1
  O  O58  1  0.36935900  0.79378000  0.30364700  1
  O  O59  1  0.01244100  0.53707100  0.65051300  1
  O  O60  1  0.82364700  0.82077900  0.56462000  1
  O  O61  1  0.90330600  0.49034000  0.09226200  1
  O  O62  1  0.17635300  0.17922100  0.43538000  1
  O  O63  1  0.30081000  0.03173100  0.52357300  1
  O  O64  1  0.44595000  0.13566900  0.17203300  1
  O  O65  1  0.69919000  0.53173100  0.97642700  1
  O  O66  1  0.63064100  0.20622000  0.69635300  1
  O  O67  1  0.36935900  0.70622000  0.80364700  1
  O  O68  1  0.09669400  0.99034000  0.40773800  1
  O  O69  1  0.11048400  0.05634700  0.70306900  1
  O  O70  1  0.11048400  0.44365300  0.20306900  1
  O  O71  1  0.67635300  0.32077900  0.56462000  1
  O  O72  1  0.61048400  0.44365300  0.29693100  1
  O  O73  1  0.05405000  0.86433100  0.67203300  1
  O  O74  1  0.94595000  0.36433100  0.82796700  1
  O  O75  1  0.94595000  0.13566900  0.32796700  1
  O  O76  1  0.48755900  0.03707100  0.65051300  1
  O  O77  1  0.57861200  0.70599600  0.92632000  1
  O  O78  1  0.59669400  0.99034000  0.09226200  1
  O  O79  1  0.40330600  0.00966000  0.90773800  1
  O  O80  1  0.42138800  0.29400400  0.07368000  1
  O  O81  1  0.98755900  0.03707100  0.84948700  1
  O  O82  1  0.13064100  0.20622000  0.80364700  1
  O  O83  1  0.92138800  0.29400400  0.42632000  1
  O  O84  1  0.19919000  0.96826900  0.02357300  1
  O  O85  1  0.05405000  0.63566900  0.17203300  1
  O  O86  1  0.51244100  0.96292900  0.34948700  1
  O  O87  1  0.48755900  0.46292900  0.15051300  1
  O  O88  1  0.01244100  0.96292900  0.15051300  1
  O  O89  1  0.51244100  0.53707100  0.84948700  1
  O  O90  1  0.80081000  0.46826900  0.47642700  1
  O  O91  1  0.67635300  0.17922100  0.06462000  1
  O  O92  1  0.63064100  0.29378000  0.19635300  1
  O  O93  1  0.19919000  0.53173100  0.52357300  1
  O  O94  1  0.40330600  0.49034000  0.40773800  1
  O  O95  1  0.42138800  0.20599600  0.57368000  1
  O  O96  1  0.57861200  0.79400400  0.42632000  1
  O  O97  1  0.80081000  0.03173100  0.97642700  1
  O  O98  1  0.82364700  0.67922100  0.06462000  1
  O  O99  1  0.07861200  0.70599600  0.57368000  1
  O  O100  1  0.09669400  0.50966000  0.90773800  1
  O  O101  1  0.32364700  0.67922100  0.43538000  1
  O  O102  1  0.88951600  0.94365300  0.29693100  1
  O  O103  1  0.07861200  0.79400400  0.07368000  1
  O  O104  1  0.88951600  0.55634700  0.79693100  1
  O  O105  1  0.61048400  0.05634700  0.79693100  1
  O  O106  1  0.55405000  0.86433100  0.82796700  1
  O  O107  1  0.90330600  0.00966000  0.59226200  1
  O  O108  1  0.55405000  0.63566900  0.32796700  1
  O  O109  1  0.86935900  0.79378000  0.19635300  1
  O  O110  1  0.98755900  0.46292900  0.34948700  1
  O  O111  1  0.38951600  0.94365300  0.20306900  1
