# generated using pymatgen
data_Cs4Re6S13
_symmetry_space_group_name_H-M   'P 1'
_cell_length_a   10.04136274
_cell_length_b   10.04136274
_cell_length_c   13.91795613
_cell_angle_alpha   84.60273407
_cell_angle_beta   84.60273407
_cell_angle_gamma   119.43504818
_symmetry_Int_Tables_number   1
_chemical_formula_structural   Cs4Re6S13
_chemical_formula_sum   'Cs8 Re12 S26'
_cell_volume   1200.73113388
_cell_formula_units_Z   2
loop_
 _symmetry_equiv_pos_site_id
 _symmetry_equiv_pos_as_xyz
  1  'x, y, z'
loop_
 _atom_site_type_symbol
 _atom_site_label
 _atom_site_symmetry_multiplicity
 _atom_site_fract_x
 _atom_site_fract_y
 _atom_site_fract_z
 _atom_site_occupancy
  Cs  Cs0  1  0.09538400  0.34372000  0.58671500  1
  Cs  Cs1  1  0.90461600  0.65628000  0.41328500  1
  Cs  Cs2  1  0.65628000  0.90461600  0.91328500  1
  Cs  Cs3  1  0.34372000  0.09538400  0.08671500  1
  Cs  Cs4  1  0.72574700  0.68367800  0.71544000  1
  Cs  Cs5  1  0.68367800  0.72574700  0.21544000  1
  Cs  Cs6  1  0.31632200  0.27425300  0.78456000  1
  Cs  Cs7  1  0.27425300  0.31632200  0.28456000  1
  Re  Re8  1  0.99633900  0.31051200  0.02290300  1
  Re  Re9  1  0.68948800  0.00366100  0.47709700  1
  Re  Re10  1  0.15451200  0.56491500  0.89066500  1
  Re  Re11  1  0.41502400  0.84837300  0.42134300  1
  Re  Re12  1  0.56491500  0.15451200  0.39066500  1
  Re  Re13  1  0.43508500  0.84548800  0.60933500  1
  Re  Re14  1  0.84548800  0.43508500  0.10933500  1
  Re  Re15  1  0.15162700  0.58497600  0.07865700  1
  Re  Re16  1  0.84837300  0.41502400  0.92134300  1
  Re  Re17  1  0.31051200  0.99633900  0.52290300  1
  Re  Re18  1  0.58497600  0.15162700  0.57865700  1
  Re  Re19  1  0.00366100  0.68948800  0.97709700  1
  S  S20  1  0.72467000  0.35772100  0.67434700  1
  S  S21  1  0.63926300  0.36073700  0.25000000  1
  S  S22  1  0.95210700  0.02019400  0.43772300  1
  S  S23  1  0.27876800  0.46437500  0.99489300  1
  S  S24  1  0.00472400  0.69245300  0.15074900  1
  S  S25  1  0.53562500  0.72123200  0.50510700  1
  S  S26  1  0.35772100  0.72467000  0.17434700  1
  S  S27  1  0.99527600  0.30754700  0.84925100  1
  S  S28  1  0.69245300  0.00472400  0.65074900  1
  S  S29  1  0.46437500  0.27876800  0.49489300  1
  S  S30  1  0.02019400  0.95210700  0.93772300  1
  S  S31  1  0.80968300  0.28242500  0.44892700  1
  S  S32  1  0.19031700  0.71757500  0.55107300  1
  S  S33  1  0.27533000  0.64227900  0.32565300  1
  S  S34  1  0.30754700  0.99527600  0.34925100  1
  S  S35  1  0.04789300  0.97980600  0.56227700  1
  S  S36  1  0.64227900  0.27533000  0.82565300  1
  S  S37  1  0.99171300  0.34546000  0.19305300  1
  S  S38  1  0.34546000  0.99171300  0.69305300  1
  S  S39  1  0.72123200  0.53562500  0.00510700  1
  S  S40  1  0.36073700  0.63926300  0.75000000  1
  S  S41  1  0.00828700  0.65454000  0.80694700  1
  S  S42  1  0.65454000  0.00828700  0.30694700  1
  S  S43  1  0.71757500  0.19031700  0.05107300  1
  S  S44  1  0.97980600  0.04789300  0.06227700  1
  S  S45  1  0.28242500  0.80968300  0.94892700  1
