# generated using pymatgen
data_LuNiGe2
_symmetry_space_group_name_H-M   'P 1'
_cell_length_a   9.18845036
_cell_length_b   9.18845036
_cell_length_c   9.18845036
_cell_angle_alpha   154.05650055
_cell_angle_beta   125.19480078
_cell_angle_gamma   61.60261512
_symmetry_Int_Tables_number   1
_chemical_formula_structural   LuNiGe2
_chemical_formula_sum   'Lu4 Ni4 Ge8'
_cell_volume   275.35799402
_cell_formula_units_Z   4
loop_
 _symmetry_equiv_pos_site_id
 _symmetry_equiv_pos_as_xyz
  1  'x, y, z'
loop_
 _atom_site_type_symbol
 _atom_site_label
 _atom_site_symmetry_multiplicity
 _atom_site_fract_x
 _atom_site_fract_y
 _atom_site_fract_z
 _atom_site_occupancy
  Lu  Lu0  1  0.23819000  0.50000000  0.73819000  1
  Lu  Lu1  1  0.76181000  0.50000000  0.26181000  1
  Lu  Lu2  1  0.79667300  0.29667300  0.50000000  1
  Lu  Lu3  1  0.20332700  0.70332700  0.50000000  1
  Ni  Ni4  1  0.89879700  0.14731000  0.75148600  1
  Ni  Ni5  1  0.10120300  0.85269000  0.24851400  1
  Ni  Ni6  1  0.39582400  0.14731000  0.24851400  1
  Ni  Ni7  1  0.60417600  0.85269000  0.75148600  1
  Ge  Ge8  1  0.14567200  0.30325400  0.84241800  1
  Ge  Ge9  1  0.57938200  0.07938200  0.50000000  1
  Ge  Ge10  1  0.07710100  0.07710100  0.00000000  1
  Ge  Ge11  1  0.85432800  0.69674600  0.15758200  1
  Ge  Ge12  1  0.92289900  0.92289900  0.00000000  1
  Ge  Ge13  1  0.46083700  0.30325400  0.15758200  1
  Ge  Ge14  1  0.42061800  0.92061800  0.50000000  1
  Ge  Ge15  1  0.53916300  0.69674600  0.84241800  1
