# generated using pymatgen
data_Sr2HN
_symmetry_space_group_name_H-M   'P 1'
_cell_length_a   6.71813875
_cell_length_b   6.71813875
_cell_length_c   6.71813921
_cell_angle_alpha   33.08666828
_cell_angle_beta   33.08666828
_cell_angle_gamma   33.08667201
_symmetry_Int_Tables_number   1
_chemical_formula_structural   Sr2HN
_chemical_formula_sum   'Sr2 H1 N1'
_cell_volume   80.42541128
_cell_formula_units_Z   1
loop_
 _symmetry_equiv_pos_site_id
 _symmetry_equiv_pos_as_xyz
  1  'x, y, z'
loop_
 _atom_site_type_symbol
 _atom_site_label
 _atom_site_symmetry_multiplicity
 _atom_site_fract_x
 _atom_site_fract_y
 _atom_site_fract_z
 _atom_site_occupancy
  Sr  Sr0  1  0.76143300  0.76143300  0.76143300  1
  Sr  Sr1  1  0.23856700  0.23856700  0.23856700  1
  H  H2  1  0.00000000  0.00000000  0.00000000  1
  N  N3  1  0.50000000  0.50000000  0.50000000  1
