# generated using pymatgen
data_Np2Se3
_symmetry_space_group_name_H-M   'P 1'
_cell_length_a   22.49590270
_cell_length_b   8.66260553
_cell_length_c   8.66260507
_cell_angle_alpha   90.00000000
_cell_angle_beta   54.71722859
_cell_angle_gamma   54.71722853
_symmetry_Int_Tables_number   1
_chemical_formula_structural   Np2Se3
_chemical_formula_sum   'Np16 Se24'
_cell_volume   973.74526772
_cell_formula_units_Z   8
loop_
 _symmetry_equiv_pos_site_id
 _symmetry_equiv_pos_as_xyz
  1  'x, y, z'
loop_
 _atom_site_type_symbol
 _atom_site_label
 _atom_site_symmetry_multiplicity
 _atom_site_fract_x
 _atom_site_fract_y
 _atom_site_fract_z
 _atom_site_occupancy
  Np  Np0  1  0.99770757  0.38424347  0.25189255  1
  Np  Np1  1  0.99770757  0.12263383  0.75498475  1
  Np  Np2  1  0.08179347  0.62730929  0.37730929  1
  Np  Np3  1  0.16666700  0.25000000  0.63224376  1
  Np  Np4  1  0.33562543  0.37736617  0.24810745  1
  Np  Np5  1  0.25153953  0.87269071  0.12269071  1
  Np  Np6  1  0.16666700  0.75000000  0.86775624  1
  Np  Np7  1  0.33562543  0.11575653  0.74501525  1
  Np  Np8  1  0.49770757  0.25498475  0.62263383  1
  Np  Np9  1  0.66666700  0.36775624  0.25000000  1
  Np  Np10  1  0.58179347  0.87730929  0.12730929  1
  Np  Np11  1  0.49770757  0.75189255  0.88424347  1
  Np  Np12  1  0.66666700  0.13224376  0.75000000  1
  Np  Np13  1  0.75153953  0.62269071  0.37269071  1
  Np  Np14  1  0.83562543  0.24501525  0.61575653  1
  Np  Np15  1  0.83562543  0.74810745  0.87736617  1
  Se  Se16  1  0.12049324  0.49296686  0.99691929  1
  Se  Se17  1  0.05125160  0.34672765  0.49878887  1
  Se  Se18  1  0.28208140  0.15327235  0.15254466  1
  Se  Se19  1  0.05125160  0.99951656  0.34745534  1
  Se  Se20  1  0.28208140  0.50048344  0.00121113  1
  Se  Se21  1  0.21283976  0.00703314  0.85840002  1
  Se  Se22  1  0.12049324  0.64555242  0.64159998  1
  Se  Se23  1  0.21283976  0.85444758  0.50308071  1
  Se  Se24  1  0.44866600  0.49937265  0.99843550  1
  Se  Se25  1  0.38466800  0.34443250  0.50062735  1
  Se  Se26  1  0.62049324  0.14159998  0.14555242  1
  Se  Se27  1  0.38466800  0.00156450  0.34536966  1
  Se  Se28  1  0.62049324  0.49691929  0.99296686  1
  Se  Se29  1  0.55125160  0.99878887  0.84672765  1
  Se  Se30  1  0.44866600  0.65463034  0.65556750  1
  Se  Se31  1  0.55125160  0.84745534  0.49951656  1
  Se  Se32  1  0.78208140  0.50121113  0.00048344  1
  Se  Se33  1  0.71283976  0.35840002  0.50703314  1
  Se  Se34  1  0.94866600  0.15556750  0.15463034  1
  Se  Se35  1  0.71283976  0.00308071  0.35444758  1
  Se  Se36  1  0.94866600  0.49843550  -0.00062735  1
  Se  Se37  1  0.88466800  0.00062735  0.84443250  1
  Se  Se38  1  0.78208140  0.65254466  0.65327235  1
  Se  Se39  1  0.88466800  0.84536966  0.50156450  1
