# generated using pymatgen
data_KBa6Zn4(GaO3)7
_symmetry_space_group_name_H-M   'P 1'
_cell_length_a   10.97135300
_cell_length_b   10.97952054
_cell_length_c   11.96538190
_cell_angle_alpha   90.00248320
_cell_angle_beta   90.18581660
_cell_angle_gamma   119.92086405
_symmetry_Int_Tables_number   1
_chemical_formula_structural   KBa6Zn4(GaO3)7
_chemical_formula_sum   'K2 Ba12 Zn8 Ga14 O42'
_cell_volume   1249.23298999
_cell_formula_units_Z   2
loop_
 _symmetry_equiv_pos_site_id
 _symmetry_equiv_pos_as_xyz
  1  'x, y, z'
loop_
 _atom_site_type_symbol
 _atom_site_label
 _atom_site_symmetry_multiplicity
 _atom_site_fract_x
 _atom_site_fract_y
 _atom_site_fract_z
 _atom_site_occupancy
  K  K0  1  0.66607000  0.33283800  0.59834900  1
  K  K1  1  0.33366200  0.66553900  0.09714400  1
  Ba  Ba2  1  0.26875800  0.14373700  0.03623900  1
  Ba  Ba3  1  0.39749500  0.20194700  0.36635000  1
  Ba  Ba4  1  0.80021700  0.60338700  0.36455800  1
  Ba  Ba5  1  0.87449800  0.73169100  0.03597400  1
  Ba  Ba6  1  0.12704500  0.86035000  0.54217400  1
  Ba  Ba7  1  0.80074000  0.19798300  0.36537400  1
  Ba  Ba8  1  0.19689100  0.80262900  0.86274000  1
  Ba  Ba9  1  0.85800900  0.12439100  0.03849500  1
  Ba  Ba10  1  0.19946000  0.39513600  0.86454800  1
  Ba  Ba11  1  0.14520500  0.26595800  0.54055700  1
  Ba  Ba12  1  0.60481100  0.80176300  0.86632700  1
  Ba  Ba13  1  0.73425000  0.87560900  0.53749500  1
  Zn  Zn14  1  0.34026100  0.17472000  0.71935800  1
  Zn  Zn15  1  0.52774600  0.52358700  0.11253700  1
  Zn  Zn16  1  0.47495300  0.00423700  0.11152400  1
  Zn  Zn17  1  0.83337200  0.65914500  0.72227100  1
  Zn  Zn18  1  0.99448400  0.46931600  0.11207600  1
  Zn  Zn19  1  0.00421600  0.47379000  0.61234300  1
  Zn  Zn20  1  0.46982000  0.99859300  0.61039900  1
  Zn  Zn21  1  0.44015000  0.56972300  0.37126100  1
  Ga  Ga22  1  0.57077500  0.44129200  0.86755400  1
  Ga  Ga23  1  0.56110200  0.13103400  0.86884800  1
  Ga  Ga24  1  0.66620600  0.33329800  0.18678800  1
  Ga  Ga25  1  0.00227100  0.00297500  0.79684100  1
  Ga  Ga26  1  0.86817800  0.43131800  0.86576100  1
  Ga  Ga27  1  0.82268300  0.16579200  0.72262500  1
  Ga  Ga28  1  0.16655500  0.82282400  0.22223900  1
  Ga  Ga29  1  0.13312200  0.56445900  0.36884500  1
  Ga  Ga30  1  0.42968000  0.86731100  0.36841300  1
  Ga  Ga31  1  0.33163100  0.66410800  0.68722200  1
  Ga  Ga32  1  0.17927700  0.34515900  0.22186200  1
  Ga  Ga33  1  0.65696300  0.83322300  0.22347900  1
  Ga  Ga34  1  0.52727200  0.52882600  0.61189300  1
  Ga  Ga35  1  0.99914500  0.99984900  0.29644200  1
  O  O36  1  0.15712400  0.16404600  0.24102900  1
  O  O37  1  0.43591100  0.41659500  0.97190700  1
  O  O38  1  0.47824300  0.39100500  0.72613100  1
  O  O39  1  0.37248000  0.10808600  0.57685900  1
  O  O40  1  0.37676600  0.08930300  0.85402100  1
  O  O41  1  0.48894700  0.18304500  0.15482200  1
  O  O42  1  0.71295200  0.62660700  0.85633000  1
  O  O43  1  0.72227100  0.62014700  0.58093000  1
  O  O44  1  0.69494600  0.51116400  0.15459100  1
  O  O45  1  0.66624000  0.33376800  0.88553100  1
  O  O46  1  0.66715300  0.33311700  0.34983000  1
  O  O47  1  0.58360500  0.01875800  0.97382200  1
  O  O48  1  0.62459200  0.09588200  0.73016600  1
  O  O49  1  0.00589200  0.84113300  0.24063400  1
  O  O50  1  0.00508600  0.84505300  0.74018600  1
  O  O51  1  0.90660000  0.52334400  0.72809000  1
  O  O52  1  0.81590500  0.30480300  0.15549400  1
  O  O53  1  0.98127400  0.56096400  0.97285100  1
  O  O54  1  0.01618200  0.57887900  0.47241900  1
  O  O55  1  0.88795600  0.25637700  0.58632000  1
  O  O56  1  0.90539100  0.28169200  0.84916300  1
  O  O57  1  0.09419900  0.62442400  0.22924900  1
  O  O58  1  0.25906000  0.88712800  0.08681100  1
  O  O59  1  0.28417400  0.90962900  0.34646100  1
  O  O60  1  0.83639900  0.99719100  0.23862300  1
  O  O61  1  0.30879200  0.81559200  0.65452400  1
  O  O62  1  0.09329200  0.37796000  0.34678600  1
  O  O63  1  0.10927200  0.36949900  0.08637500  1
  O  O64  1  0.18426500  0.48693300  0.65371700  1
  O  O65  1  0.32972400  0.67092300  0.38781800  1
  O  O66  1  0.99801800  0.99982300  0.95254500  1
  O  O67  1  0.33518500  0.66686500  0.84895500  1
  O  O68  1  0.56394600  0.98029300  0.47241400  1
  O  O69  1  0.52889100  0.90478500  0.22979200  1
  O  O70  1  0.15731200  0.16776600  0.74297800  1
  O  O71  1  0.37456600  0.46488400  0.22585000  1
  O  O72  1  0.50773800  0.68334400  0.65355400  1
  O  O73  1  0.42315900  0.43279900  0.48585800  1
  O  O74  1  0.62824400  0.74130900  0.08675200  1
  O  O75  1  0.63600800  0.72518700  0.34846200  1
  O  O76  1  0.83684200  0.00339000  0.74243600  1
  O  O77  1  0.99842400  0.99897000  0.45081200  1
