# generated using pymatgen
data_CaP4(HO6)2
_symmetry_space_group_name_H-M   'P 1'
_cell_length_a   9.80678800
_cell_length_b   5.74777600
_cell_length_c   8.94700988
_cell_angle_alpha   87.84582167
_cell_angle_beta   90.00000000
_cell_angle_gamma   90.00000000
_symmetry_Int_Tables_number   1
_chemical_formula_structural   CaP4(HO6)2
_chemical_formula_sum   'Ca2 P8 H4 O24'
_cell_volume   503.96167737
_cell_formula_units_Z   2
loop_
 _symmetry_equiv_pos_site_id
 _symmetry_equiv_pos_as_xyz
  1  'x, y, z'
loop_
 _atom_site_type_symbol
 _atom_site_label
 _atom_site_symmetry_multiplicity
 _atom_site_fract_x
 _atom_site_fract_y
 _atom_site_fract_z
 _atom_site_occupancy
  Ca  Ca0  1  0.50000000  0.00000000  0.50000000  1
  Ca  Ca1  1  0.00000000  0.00000000  0.00000000  1
  P  P2  1  0.71310900  0.28495200  0.20021000  1
  P  P3  1  0.21310900  0.71504800  0.29979000  1
  P  P4  1  0.28689100  0.71504800  0.79979000  1
  P  P5  1  0.78689100  0.28495200  0.70021000  1
  P  P6  1  0.72421600  0.61132700  0.94208700  1
  P  P7  1  0.22421600  0.38867300  0.55791300  1
  P  P8  1  0.27578400  0.38867300  0.05791300  1
  P  P9  1  0.77578400  0.61132700  0.44208700  1
  H  H10  1  0.04934600  0.18865500  0.66170300  1
  H  H11  1  0.54934600  0.81134500  0.83829700  1
  H  H12  1  0.95065400  0.81134500  0.33829700  1
  H  H13  1  0.45065400  0.18865500  0.16170300  1
  O  O14  1  0.69099800  0.13698700  0.61750100  1
  O  O15  1  0.19099800  0.86301300  0.88249900  1
  O  O16  1  0.30900200  0.86301300  0.38249900  1
  O  O17  1  0.80900200  0.13698700  0.11750100  1
  O  O18  1  0.91383800  0.18559100  0.77300300  1
  O  O19  1  0.41383800  0.81440900  0.72699700  1
  O  O20  1  0.08616200  0.81440900  0.22699700  1
  O  O21  1  0.58616200  0.18559100  0.27300300  1
  O  O22  1  0.69433200  0.42060800  0.82067000  1
  O  O23  1  0.19433200  0.57939200  0.67933000  1
  O  O24  1  0.30566800  0.57939200  0.17933000  1
  O  O25  1  0.80566800  0.42060800  0.32067000  1
  O  O26  1  0.34349500  0.50153100  0.90897100  1
  O  O27  1  0.84349500  0.49846900  0.59102900  1
  O  O28  1  0.65650500  0.49846900  0.09102900  1
  O  O29  1  0.15650500  0.50153100  0.40897100  1
  O  O30  1  0.63260000  0.82490100  0.90401500  1
  O  O31  1  0.13260000  0.17509900  0.59598500  1
  O  O32  1  0.36740000  0.17509900  0.09598500  1
  O  O33  1  0.86740000  0.82490100  0.40401500  1
  O  O34  1  0.87032500  0.67089900  0.95822700  1
  O  O35  1  0.37032500  0.32910100  0.54177300  1
  O  O36  1  0.12967500  0.32910100  0.04177300  1
  O  O37  1  0.62967500  0.67089900  0.45822700  1
