# generated using pymatgen
data_Ba3TbRu2O9
_symmetry_space_group_name_H-M   'P 1'
_cell_length_a   5.96671632
_cell_length_b   5.96671632
_cell_length_c   14.64001400
_cell_angle_alpha   90.00000000
_cell_angle_beta   90.00000000
_cell_angle_gamma   120.00000352
_symmetry_Int_Tables_number   1
_chemical_formula_structural   Ba3TbRu2O9
_chemical_formula_sum   'Ba6 Tb2 Ru4 O18'
_cell_volume   451.38059915
_cell_formula_units_Z   2
loop_
 _symmetry_equiv_pos_site_id
 _symmetry_equiv_pos_as_xyz
  1  'x, y, z'
loop_
 _atom_site_type_symbol
 _atom_site_label
 _atom_site_symmetry_multiplicity
 _atom_site_fract_x
 _atom_site_fract_y
 _atom_site_fract_z
 _atom_site_occupancy
  Ba  Ba0  1  0.33333300  0.66666700  0.59537200  1
  Ba  Ba1  1  0.00000000  0.00000000  0.25000000  1
  Ba  Ba2  1  0.66666700  0.33333300  0.40462800  1
  Ba  Ba3  1  0.66666700  0.33333300  0.09537200  1
  Ba  Ba4  1  0.33333300  0.66666700  0.90462800  1
  Ba  Ba5  1  0.00000000  0.00000000  0.75000000  1
  Tb  Tb6  1  0.00000000  0.00000000  0.50000000  1
  Tb  Tb7  1  0.00000000  0.00000000  0.00000000  1
  Ru  Ru8  1  0.33333300  0.66666700  0.33543300  1
  Ru  Ru9  1  0.66666700  0.33333300  0.83543300  1
  Ru  Ru10  1  0.66666700  0.33333300  0.66456700  1
  Ru  Ru11  1  0.33333300  0.66666700  0.16456700  1
  O  O12  1  0.17645000  0.82355000  0.08866400  1
  O  O13  1  0.17645000  0.35290100  0.08866400  1
  O  O14  1  0.64709900  0.82355000  0.08866400  1
  O  O15  1  0.35290100  0.17645000  0.58866400  1
  O  O16  1  0.82355000  0.64709900  0.91133600  1
  O  O17  1  0.82355000  0.17645000  0.58866400  1
  O  O18  1  0.82355000  0.64709900  0.58866400  1
  O  O19  1  0.17645000  0.82355000  0.41133600  1
  O  O20  1  0.64709900  0.82355000  0.41133600  1
  O  O21  1  0.35290100  0.17645000  0.91133600  1
  O  O22  1  0.82355000  0.17645000  0.91133600  1
  O  O23  1  0.17645000  0.35290100  0.41133600  1
  O  O24  1  0.49024000  0.98047900  0.25000000  1
  O  O25  1  0.50976000  0.49024000  0.75000000  1
  O  O26  1  0.98047900  0.49024000  0.75000000  1
  O  O27  1  0.01952100  0.50976000  0.25000000  1
  O  O28  1  0.49024000  0.50976000  0.25000000  1
  O  O29  1  0.50976000  0.01952100  0.75000000  1
