# generated using pymatgen
data_In2Bi4Pb4S13
_symmetry_space_group_name_H-M   'P 1'
_cell_length_a   4.04223500
_cell_length_b   21.79531900
_cell_length_c   27.05732200
_cell_angle_alpha   90.00000000
_cell_angle_beta   90.00000000
_cell_angle_gamma   90.00000000
_symmetry_Int_Tables_number   1
_chemical_formula_structural   In2Bi4Pb4S13
_chemical_formula_sum   'In8 Bi16 Pb16 S52'
_cell_volume   2383.79880650
_cell_formula_units_Z   4
loop_
 _symmetry_equiv_pos_site_id
 _symmetry_equiv_pos_as_xyz
  1  'x, y, z'
loop_
 _atom_site_type_symbol
 _atom_site_label
 _atom_site_symmetry_multiplicity
 _atom_site_fract_x
 _atom_site_fract_y
 _atom_site_fract_z
 _atom_site_occupancy
  In  In0  1  0.00000000  0.22525400  0.16259800  1
  In  In1  1  0.00000000  0.72525400  0.33740200  1
  In  In2  1  0.00000000  0.77474600  0.83740200  1
  In  In3  1  0.00000000  0.00000000  0.00000000  1
  In  In4  1  0.00000000  0.50000000  0.50000000  1
  In  In5  1  0.00000000  0.50000000  0.00000000  1
  In  In6  1  0.00000000  0.00000000  0.50000000  1
  In  In7  1  0.00000000  0.27474600  0.66259800  1
  Bi  Bi8  1  0.50000000  0.88321700  0.41518500  1
  Bi  Bi9  1  0.50000000  0.84576800  0.97539500  1
  Bi  Bi10  1  0.00000000  0.35894400  0.39085000  1
  Bi  Bi11  1  0.50000000  0.11678300  0.58481500  1
  Bi  Bi12  1  0.50000000  0.34576800  0.52460500  1
  Bi  Bi13  1  0.50000000  0.61678300  0.91518500  1
  Bi  Bi14  1  0.50000000  0.38321700  0.08481500  1
  Bi  Bi15  1  0.00000000  0.47692400  0.84438500  1
  Bi  Bi16  1  0.50000000  0.65423200  0.47539500  1
  Bi  Bi17  1  0.00000000  0.52307600  0.15561500  1
  Bi  Bi18  1  0.50000000  0.15423200  0.02460500  1
  Bi  Bi19  1  0.00000000  0.14105600  0.89085000  1
  Bi  Bi20  1  0.00000000  0.02307600  0.34438500  1
  Bi  Bi21  1  0.00000000  0.97692400  0.65561500  1
  Bi  Bi22  1  0.00000000  0.85894400  0.10915000  1
  Bi  Bi23  1  0.00000000  0.64105600  0.60915000  1
  Pb  Pb24  1  0.50000000  0.53624200  0.34011600  1
  Pb  Pb25  1  0.50000000  0.03624200  0.15988400  1
  Pb  Pb26  1  0.50000000  0.46375800  0.65988400  1
  Pb  Pb27  1  0.50000000  0.96375800  0.84011600  1
  Pb  Pb28  1  0.50000000  0.82722900  0.72148500  1
  Pb  Pb29  1  0.50000000  0.31604300  0.93102200  1
  Pb  Pb30  1  0.50000000  0.87478900  0.24958300  1
  Pb  Pb31  1  0.50000000  0.18395700  0.43102200  1
  Pb  Pb32  1  0.50000000  0.62521100  0.74958300  1
  Pb  Pb33  1  0.50000000  0.32722900  0.77851500  1
  Pb  Pb34  1  0.50000000  0.68395700  0.06897800  1
  Pb  Pb35  1  0.50000000  0.37478900  0.25041700  1
  Pb  Pb36  1  0.50000000  0.81604300  0.56897800  1
  Pb  Pb37  1  0.50000000  0.67277100  0.22148500  1
  Pb  Pb38  1  0.50000000  0.17277100  0.27851500  1
  Pb  Pb39  1  0.50000000  0.12521100  0.75041700  1
  S  S40  1  0.50000000  0.06357700  0.95299000  1
  S  S41  1  0.50000000  0.56357700  0.54701000  1
  S  S42  1  0.00000000  0.08042300  0.06972400  1
  S  S43  1  0.00000000  0.58042300  0.43027600  1
  S  S44  1  0.00000000  0.06050100  0.81326100  1
  S  S45  1  0.50000000  0.47380300  0.77878600  1
  S  S46  1  0.00000000  0.43949900  0.31326100  1
  S  S47  1  0.00000000  0.87935400  0.79905700  1
  S  S48  1  0.50000000  0.97380300  0.72121400  1
  S  S49  1  0.00000000  0.89293300  0.34370400  1
  S  S50  1  0.00000000  0.77749400  0.02371000  1
  S  S51  1  0.50000000  0.20749300  0.85273300  1
  S  S52  1  0.50000000  0.75498600  0.89190900  1
  S  S53  1  0.50000000  0.52619700  0.22121400  1
  S  S54  1  0.00000000  0.12064600  0.20094300  1
  S  S55  1  0.00000000  0.61665800  0.99136600  1
  S  S56  1  0.00000000  0.88334200  0.49136600  1
  S  S57  1  0.00000000  0.11665800  0.50863400  1
  S  S58  1  0.00000000  0.85032500  0.64095100  1
  S  S59  1  0.00000000  0.27749400  0.47629000  1
  S  S60  1  0.00000000  0.72686000  0.75440400  1
  S  S61  1  0.50000000  0.93642300  0.04701000  1
  S  S62  1  0.00000000  0.22250600  0.97629000  1
  S  S63  1  0.50000000  0.49294000  0.93030300  1
  S  S64  1  0.00000000  0.60706700  0.84370400  1
  S  S65  1  0.00000000  0.56050100  0.68673900  1
  S  S66  1  0.50000000  0.00706000  0.43030300  1
  S  S67  1  0.00000000  0.62064600  0.29905700  1
  S  S68  1  0.00000000  0.39293300  0.15629600  1
  S  S69  1  0.00000000  0.93949900  0.18673900  1
  S  S70  1  0.00000000  0.27314000  0.24559600  1
  S  S71  1  0.00000000  0.72250600  0.52371000  1
  S  S72  1  0.00000000  0.22686000  0.74559600  1
  S  S73  1  0.50000000  0.25498600  0.60809100  1
  S  S74  1  0.00000000  0.10706700  0.65629600  1
  S  S75  1  0.50000000  0.50706000  0.06969700  1
  S  S76  1  0.00000000  0.91957700  0.93027600  1
  S  S77  1  0.50000000  0.74501400  0.39190900  1
  S  S78  1  0.50000000  0.79250700  0.14726700  1
  S  S79  1  0.50000000  0.24501400  0.10809100  1
  S  S80  1  0.50000000  0.70749300  0.64726700  1
  S  S81  1  0.50000000  0.99294000  0.56969700  1
  S  S82  1  0.50000000  0.43642300  0.45299000  1
  S  S83  1  0.00000000  0.64967500  0.14095100  1
  S  S84  1  0.00000000  0.37935400  0.70094300  1
  S  S85  1  0.00000000  0.38334200  0.00863400  1
  S  S86  1  0.00000000  0.14967500  0.35904900  1
  S  S87  1  0.00000000  0.41957700  0.56972400  1
  S  S88  1  0.50000000  0.02619700  0.27878600  1
  S  S89  1  0.00000000  0.77314000  0.25440400  1
  S  S90  1  0.00000000  0.35032500  0.85904900  1
  S  S91  1  0.50000000  0.29250700  0.35273300  1
