# generated using pymatgen
data_K3Nb2S11
_symmetry_space_group_name_H-M   'P 1'
_cell_length_a   18.56415701
_cell_length_b   18.56415701
_cell_length_c   12.58254465
_cell_angle_alpha   79.66070231
_cell_angle_beta   79.66070231
_cell_angle_gamma   25.14853314
_symmetry_Int_Tables_number   1
_chemical_formula_structural   K3Nb2S11
_chemical_formula_sum   'K12 Nb8 S44'
_cell_volume   1811.35555350
_cell_formula_units_Z   4
loop_
 _symmetry_equiv_pos_site_id
 _symmetry_equiv_pos_as_xyz
  1  'x, y, z'
loop_
 _atom_site_type_symbol
 _atom_site_label
 _atom_site_symmetry_multiplicity
 _atom_site_fract_x
 _atom_site_fract_y
 _atom_site_fract_z
 _atom_site_occupancy
  K  K0  1  0.84482200  0.39129600  0.67162200  1
  K  K1  1  0.15517800  0.60870400  0.32837800  1
  K  K2  1  0.60870400  0.15517800  0.82837800  1
  K  K3  1  0.55749500  0.86098200  0.74366200  1
  K  K4  1  0.13901800  0.44250500  0.75633800  1
  K  K5  1  0.78582100  0.14959400  0.09295900  1
  K  K6  1  0.44250500  0.13901800  0.25633800  1
  K  K7  1  0.21417900  0.85040600  0.90704100  1
  K  K8  1  0.86098200  0.55749500  0.24366200  1
  K  K9  1  0.14959400  0.78582100  0.59295900  1
  K  K10  1  0.85040600  0.21417900  0.40704100  1
  K  K11  1  0.39129600  0.84482200  0.17162200  1
  Nb  Nb12  1  0.11869600  0.71738200  0.92652800  1
  Nb  Nb13  1  0.03854500  0.60624300  0.08208200  1
  Nb  Nb14  1  0.28261800  0.88130400  0.57347200  1
  Nb  Nb15  1  0.71738200  0.11869600  0.42652800  1
  Nb  Nb16  1  0.60624300  0.03854500  0.58208200  1
  Nb  Nb17  1  0.96145500  0.39375700  0.91791800  1
  Nb  Nb18  1  0.88130400  0.28261800  0.07347200  1
  Nb  Nb19  1  0.39375700  0.96145500  0.41791800  1
  S  S20  1  0.25195200  0.07621000  0.94722400  1
  S  S21  1  0.25715300  0.64241800  0.07207100  1
  S  S22  1  0.57970600  0.68571000  0.44778200  1
  S  S23  1  0.96589800  0.94399400  0.35386800  1
  S  S24  1  0.74804800  0.92379000  0.05277600  1
  S  S25  1  0.09450700  0.37471200  0.99455400  1
  S  S26  1  0.68571000  0.57970600  0.94778200  1
  S  S27  1  0.69743600  0.66983900  0.99913300  1
  S  S28  1  0.60205300  0.47640200  0.07138700  1
  S  S29  1  0.07328100  0.16574700  0.90709600  1
  S  S30  1  0.92379000  0.74804800  0.55277600  1
  S  S31  1  0.00071500  0.27826400  0.14320300  1
  S  S32  1  0.78322300  0.42755500  0.22628400  1
  S  S33  1  0.44169900  0.96330100  0.24091900  1
  S  S34  1  0.39794700  0.52359800  0.92861300  1
  S  S35  1  0.27826400  0.00071500  0.64320300  1
  S  S36  1  0.16574700  0.07328100  0.40709600  1
  S  S37  1  0.64241800  0.25715300  0.57207100  1
  S  S38  1  0.21677700  0.57244500  0.77371600  1
  S  S39  1  0.57244500  0.21677700  0.27371600  1
  S  S40  1  0.42029400  0.31429000  0.55221800  1
  S  S41  1  0.07621000  0.25195200  0.44722400  1
  S  S42  1  0.83425300  0.92671900  0.59290400  1
  S  S43  1  0.90549300  0.62528800  0.00544600  1
  S  S44  1  0.72173600  0.99928500  0.35679700  1
  S  S45  1  0.05600600  0.03410200  0.14613200  1
  S  S46  1  0.74284700  0.35758200  0.92792900  1
  S  S47  1  0.42755500  0.78322300  0.72628400  1
  S  S48  1  0.47640200  0.60205300  0.57138700  1
  S  S49  1  0.35758200  0.74284700  0.42792900  1
  S  S50  1  0.94399400  0.96589800  0.85386800  1
  S  S51  1  0.37471200  0.09450700  0.49455400  1
  S  S52  1  0.31429000  0.42029400  0.05221800  1
  S  S53  1  0.30256400  0.33016100  0.00086700  1
  S  S54  1  0.99928500  0.72173600  0.85679700  1
  S  S55  1  0.66983900  0.69743600  0.49913300  1
  S  S56  1  0.03410200  0.05600600  0.64613200  1
  S  S57  1  0.55830100  0.03669900  0.75908100  1
  S  S58  1  0.62528800  0.90549300  0.50544600  1
  S  S59  1  0.52359800  0.39794700  0.42861300  1
  S  S60  1  0.92671900  0.83425300  0.09290400  1
  S  S61  1  0.33016100  0.30256400  0.50086700  1
  S  S62  1  0.96330100  0.44169900  0.74091900  1
  S  S63  1  0.03669900  0.55830100  0.25908100  1
