# generated using pymatgen
data_CsTi(PS4)2
_symmetry_space_group_name_H-M   'P 1'
_cell_length_a   11.75667459
_cell_length_b   11.75667459
_cell_length_c   17.58933670
_cell_angle_alpha   81.80153272
_cell_angle_beta   81.80153272
_cell_angle_gamma   35.31366089
_symmetry_Int_Tables_number   1
_chemical_formula_structural   CsTi(PS4)2
_chemical_formula_sum   'Cs4 Ti4 P8 S32'
_cell_volume   1389.52711175
_cell_formula_units_Z   4
loop_
 _symmetry_equiv_pos_site_id
 _symmetry_equiv_pos_as_xyz
  1  'x, y, z'
loop_
 _atom_site_type_symbol
 _atom_site_label
 _atom_site_symmetry_multiplicity
 _atom_site_fract_x
 _atom_site_fract_y
 _atom_site_fract_z
 _atom_site_occupancy
  Cs  Cs0  1  0.87757300  0.29817800  0.35085800  1
  Cs  Cs1  1  0.98182100  0.51234300  0.61809300  1
  Cs  Cs2  1  0.51234300  0.98182100  0.11809300  1
  Cs  Cs3  1  0.29817800  0.87757300  0.85085800  1
  Ti  Ti4  1  0.66003800  0.34653800  0.10191300  1
  Ti  Ti5  1  0.72825400  0.97641700  0.84581600  1
  Ti  Ti6  1  0.34653800  0.66003800  0.60191300  1
  Ti  Ti7  1  0.97641700  0.72825400  0.34581600  1
  P  P8  1  0.28405500  0.57792800  0.21018700  1
  P  P9  1  0.09963400  0.74737500  0.48441600  1
  P  P10  1  0.74737500  0.09963400  0.98441600  1
  P  P11  1  0.36842400  0.90923400  0.60147800  1
  P  P12  1  0.90923400  0.36842400  0.10147800  1
  P  P13  1  0.59863000  0.86943300  0.35891900  1
  P  P14  1  0.57792800  0.28405500  0.71018700  1
  P  P15  1  0.86943300  0.59863000  0.85891900  1
  S  S16  1  0.60771900  0.87804100  0.89826900  1
  S  S17  1  0.46636700  0.85568900  0.31436900  1
  S  S18  1  0.23012500  0.10111800  0.49736300  1
  S  S19  1  0.87804100  0.60771900  0.39826900  1
  S  S20  1  0.36581200  0.57091700  0.73870300  1
  S  S21  1  0.28847900  0.73295300  0.46401500  1
  S  S22  1  0.96146000  0.44748000  0.16355200  1
  S  S23  1  0.14219500  0.98325100  0.64438400  1
  S  S24  1  0.10111800  0.23012500  0.99736300  1
  S  S25  1  0.64756200  0.98963200  0.29511700  1
  S  S26  1  0.49749000  0.17990800  0.74304600  1
  S  S27  1  0.30462600  0.61379500  0.09376200  1
  S  S28  1  0.57091700  0.36581200  0.23870300  1
  S  S29  1  0.83704700  0.97605500  0.43021100  1
  S  S30  1  0.17990800  0.49749000  0.24304600  1
  S  S31  1  0.58628800  0.62180800  0.57124100  1
  S  S32  1  0.98325100  0.14219500  0.14438400  1
  S  S33  1  0.73295300  0.28847900  0.96401500  1
  S  S34  1  0.82362600  0.08599300  0.77382200  1
  S  S35  1  0.50425800  0.22656600  0.94382800  1
  S  S36  1  0.41208500  0.08316600  0.44929600  1
  S  S37  1  0.85568900  0.46636700  0.81436900  1
  S  S38  1  0.08316600  0.41208500  0.94929600  1
  S  S39  1  0.22656600  0.50425800  0.44382800  1
  S  S40  1  0.06511700  0.75798500  0.60192300  1
  S  S41  1  0.44748000  0.96146000  0.66355200  1
  S  S42  1  0.61379500  0.30462600  0.59376200  1
  S  S43  1  0.98963200  0.64756200  0.79511700  1
  S  S44  1  0.97605500  0.83704700  0.93021100  1
  S  S45  1  0.08599300  0.82362600  0.27382200  1
  S  S46  1  0.62180800  0.58628800  0.07124100  1
  S  S47  1  0.75798500  0.06511700  0.10192300  1
