# generated using pymatgen
data_Sr2P6Rh7
_symmetry_space_group_name_H-M   'P 1'
_cell_length_a   11.20546000
_cell_length_b   11.20546000
_cell_length_c   4.14668800
_cell_angle_alpha   90.00000000
_cell_angle_beta   90.00000000
_cell_angle_gamma   90.00000000
_symmetry_Int_Tables_number   1
_chemical_formula_structural   Sr2P6Rh7
_chemical_formula_sum   'Sr4 P12 Rh14'
_cell_volume   520.66782287
_cell_formula_units_Z   2
loop_
 _symmetry_equiv_pos_site_id
 _symmetry_equiv_pos_as_xyz
  1  'x, y, z'
loop_
 _atom_site_type_symbol
 _atom_site_label
 _atom_site_symmetry_multiplicity
 _atom_site_fract_x
 _atom_site_fract_y
 _atom_site_fract_z
 _atom_site_occupancy
  Sr  Sr0  1  0.16146200  0.66146200  0.75131100  1
  Sr  Sr1  1  0.33853800  0.16146200  0.24868900  1
  Sr  Sr2  1  0.66146200  0.83853800  0.24868900  1
  Sr  Sr3  1  0.83853800  0.33853800  0.75131100  1
  P  P4  1  0.85806600  0.11093400  0.27646600  1
  P  P5  1  0.35806600  0.38906600  0.72353400  1
  P  P6  1  0.57261300  0.07261300  0.76537400  1
  P  P7  1  0.64193400  0.61093400  0.72353400  1
  P  P8  1  0.61093400  0.35806600  0.27646600  1
  P  P9  1  0.07261300  0.42738700  0.23462600  1
  P  P10  1  0.38906600  0.64193400  0.27646600  1
  P  P11  1  0.92738700  0.57261300  0.23462600  1
  P  P12  1  0.11093400  0.14193400  0.72353400  1
  P  P13  1  0.42738700  0.92738700  0.76537400  1
  P  P14  1  0.14193400  0.88906600  0.27646600  1
  P  P15  1  0.88906600  0.85806600  0.72353400  1
  Rh  Rh16  1  0.53744100  0.27614800  0.75561900  1
  Rh  Rh17  1  0.03744100  0.22385200  0.24438100  1
  Rh  Rh18  1  0.72385200  0.53744100  0.24438100  1
  Rh  Rh19  1  0.27614800  0.46255900  0.24438100  1
  Rh  Rh20  1  0.34749200  0.84749200  0.26359700  1
  Rh  Rh21  1  0.84749200  0.65250800  0.73640300  1
  Rh  Rh22  1  0.96255900  0.77614800  0.24438100  1
  Rh  Rh23  1  0.22385200  0.96255900  0.75561900  1
  Rh  Rh24  1  0.77614800  0.03744100  0.75561900  1
  Rh  Rh25  1  0.00000000  0.00000000  0.00000000  1
  Rh  Rh26  1  0.15250800  0.34749200  0.73640300  1
  Rh  Rh27  1  0.46255900  0.72385200  0.75561900  1
  Rh  Rh28  1  0.50000000  0.50000000  0.00000000  1
  Rh  Rh29  1  0.65250800  0.15250800  0.26359700  1
