# generated using pymatgen
data_CaHClO
_symmetry_space_group_name_H-M   'P 1'
_cell_length_a   3.89809809
_cell_length_b   3.89809809
_cell_length_c   9.89350000
_cell_angle_alpha   90.00000000
_cell_angle_beta   90.00000000
_cell_angle_gamma   120.00000155
_symmetry_Int_Tables_number   1
_chemical_formula_structural   CaHClO
_chemical_formula_sum   'Ca2 H2 Cl2 O2'
_cell_volume   130.19254299
_cell_formula_units_Z   2
loop_
 _symmetry_equiv_pos_site_id
 _symmetry_equiv_pos_as_xyz
  1  'x, y, z'
loop_
 _atom_site_type_symbol
 _atom_site_label
 _atom_site_symmetry_multiplicity
 _atom_site_fract_x
 _atom_site_fract_y
 _atom_site_fract_z
 _atom_site_occupancy
  Ca  Ca0  1  0.66666700  0.33333300  0.50057900  1
  Ca  Ca1  1  0.33333300  0.66666700  0.00057900  1
  H  H2  1  0.00000000  0.00000000  0.66613100  1
  H  H3  1  0.00000000  0.00000000  0.16613100  1
  Cl  Cl4  1  0.66666700  0.33333300  0.81727700  1
  Cl  Cl5  1  0.33333300  0.66666700  0.31727700  1
  O  O6  1  0.00000000  0.00000000  0.56781200  1
  O  O7  1  0.00000000  0.00000000  0.06781200  1
