# generated using pymatgen
data_Ho3Co
_symmetry_space_group_name_H-M   'P 1'
_cell_length_a   6.19487900
_cell_length_b   6.90575100
_cell_length_c   9.35411800
_cell_angle_alpha   90.00000000
_cell_angle_beta   90.00000000
_cell_angle_gamma   90.00000000
_symmetry_Int_Tables_number   1
_chemical_formula_structural   Ho3Co
_chemical_formula_sum   'Ho12 Co4'
_cell_volume   400.17189803
_cell_formula_units_Z   4
loop_
 _symmetry_equiv_pos_site_id
 _symmetry_equiv_pos_as_xyz
  1  'x, y, z'
loop_
 _atom_site_type_symbol
 _atom_site_label
 _atom_site_symmetry_multiplicity
 _atom_site_fract_x
 _atom_site_fract_y
 _atom_site_fract_z
 _atom_site_occupancy
  Ho  Ho0  1  0.67631100  0.17537000  0.06736500  1
  Ho  Ho1  1  0.35956700  0.54153200  0.25000000  1
  Ho  Ho2  1  0.14043300  0.04153200  0.25000000  1
  Ho  Ho3  1  0.82368900  0.67537000  0.43263500  1
  Ho  Ho4  1  0.32368900  0.82463000  0.93263500  1
  Ho  Ho5  1  0.17631100  0.32463000  0.56736500  1
  Ho  Ho6  1  0.67631100  0.17537000  0.43263500  1
  Ho  Ho7  1  0.17631100  0.32463000  0.93263500  1
  Ho  Ho8  1  0.32368900  0.82463000  0.56736500  1
  Ho  Ho9  1  0.85956700  0.95846800  0.75000000  1
  Ho  Ho10  1  0.64043300  0.45846800  0.75000000  1
  Ho  Ho11  1  0.82368900  0.67537000  0.06736500  1
  Co  Co12  1  0.94919400  0.38785300  0.25000000  1
  Co  Co13  1  0.44919400  0.11214700  0.75000000  1
  Co  Co14  1  0.55080600  0.88785300  0.25000000  1
  Co  Co15  1  0.05080600  0.61214700  0.75000000  1
