# generated using pymatgen
data_Zr14P9
_symmetry_space_group_name_H-M   'P 1'
_cell_length_a   3.70225500
_cell_length_b   16.83234000
_cell_length_c   27.78289400
_cell_angle_alpha   90.00000000
_cell_angle_beta   90.00000000
_cell_angle_gamma   90.00000000
_symmetry_Int_Tables_number   1
_chemical_formula_structural   Zr14P9
_chemical_formula_sum   'Zr56 P36'
_cell_volume   1731.36368984
_cell_formula_units_Z   4
loop_
 _symmetry_equiv_pos_site_id
 _symmetry_equiv_pos_as_xyz
  1  'x, y, z'
loop_
 _atom_site_type_symbol
 _atom_site_label
 _atom_site_symmetry_multiplicity
 _atom_site_fract_x
 _atom_site_fract_y
 _atom_site_fract_z
 _atom_site_occupancy
  Zr  Zr0  1  0.00000000  0.48665100  0.69598700  1
  Zr  Zr1  1  0.00000000  0.90128300  0.89527600  1
  Zr  Zr2  1  0.00000000  0.86257400  0.64676000  1
  Zr  Zr3  1  0.00000000  0.20159000  0.85783400  1
  Zr  Zr4  1  0.50000000  0.69921100  0.50952800  1
  Zr  Zr5  1  0.00000000  0.75470100  0.41636500  1
  Zr  Zr6  1  0.50000000  0.23272500  0.68722300  1
  Zr  Zr7  1  0.00000000  0.33343300  0.76212500  1
  Zr  Zr8  1  0.00000000  0.26727500  0.18722300  1
  Zr  Zr9  1  0.50000000  0.76727500  0.31277700  1
  Zr  Zr10  1  0.50000000  0.59871700  0.39527600  1
  Zr  Zr11  1  0.50000000  0.40128300  0.60472400  1
  Zr  Zr12  1  0.00000000  0.51334900  0.30401300  1
  Zr  Zr13  1  0.50000000  0.01948700  0.67742100  1
  Zr  Zr14  1  0.00000000  0.80078900  0.00952800  1
  Zr  Zr15  1  0.50000000  0.44925300  0.08012200  1
  Zr  Zr16  1  0.00000000  0.86362400  0.53087400  1
  Zr  Zr17  1  0.50000000  0.93063300  0.07625500  1
  Zr  Zr18  1  0.50000000  0.01334900  0.19598700  1
  Zr  Zr19  1  0.00000000  0.43063300  0.42374500  1
  Zr  Zr20  1  0.50000000  0.70159000  0.64216600  1
  Zr  Zr21  1  0.00000000  0.51948700  0.82257900  1
  Zr  Zr22  1  0.50000000  0.98051300  0.32257900  1
  Zr  Zr23  1  0.00000000  0.50000000  0.00000000  1
  Zr  Zr24  1  0.50000000  0.36362400  0.96912600  1
  Zr  Zr25  1  0.50000000  0.30078900  0.49047200  1
  Zr  Zr26  1  0.00000000  0.73272500  0.81277700  1
  Zr  Zr27  1  0.50000000  0.74529900  0.91636500  1
  Zr  Zr28  1  0.50000000  0.36257400  0.85324000  1
  Zr  Zr29  1  0.50000000  0.06936700  0.92374500  1
  Zr  Zr30  1  0.00000000  0.48051300  0.17742100  1
  Zr  Zr31  1  0.50000000  0.63742600  0.14676000  1
  Zr  Zr32  1  0.00000000  0.11882600  0.75575700  1
  Zr  Zr33  1  0.50000000  0.63637600  0.03087400  1
  Zr  Zr34  1  0.00000000  0.13637600  0.46912600  1
  Zr  Zr35  1  0.00000000  0.24529900  0.58363500  1
  Zr  Zr36  1  0.00000000  0.19921100  0.99047200  1
  Zr  Zr37  1  0.00000000  0.56936700  0.57625500  1
  Zr  Zr38  1  0.00000000  0.94925300  0.41987800  1
  Zr  Zr39  1  0.50000000  0.25470100  0.08363500  1
  Zr  Zr40  1  0.50000000  0.55074700  0.91987800  1
  Zr  Zr41  1  0.00000000  0.05074700  0.58012200  1
  Zr  Zr42  1  0.00000000  0.00000000  0.00000000  1
  Zr  Zr43  1  0.50000000  0.50000000  0.50000000  1
  Zr  Zr44  1  0.50000000  0.38117400  0.25575700  1
  Zr  Zr45  1  0.00000000  0.88117400  0.24424300  1
  Zr  Zr46  1  0.50000000  0.83343300  0.73787500  1
  Zr  Zr47  1  0.50000000  0.16656700  0.26212500  1
  Zr  Zr48  1  0.00000000  0.13742600  0.35324000  1
  Zr  Zr49  1  0.50000000  0.98665100  0.80401300  1
  Zr  Zr50  1  0.00000000  0.09871700  0.10472400  1
  Zr  Zr51  1  0.50000000  0.61882600  0.74424300  1
  Zr  Zr52  1  0.00000000  0.66656700  0.23787500  1
  Zr  Zr53  1  0.50000000  0.00000000  0.50000000  1
  Zr  Zr54  1  0.50000000  0.29841000  0.35783400  1
  Zr  Zr55  1  0.00000000  0.79841000  0.14216600  1
  P  P56  1  0.00000000  0.60410400  0.46677100  1
  P  P57  1  0.00000000  0.04851600  0.85712400  1
  P  P58  1  0.00000000  0.26882300  0.42217200  1
  P  P59  1  0.50000000  0.45148400  0.35712400  1
  P  P60  1  0.50000000  0.23117700  0.92217200  1
  P  P61  1  0.00000000  0.72638700  0.71415100  1
  P  P62  1  0.00000000  0.86753000  0.34202600  1
  P  P63  1  0.00000000  0.34190500  0.66515200  1
  P  P64  1  0.00000000  0.73117700  0.57782800  1
  P  P65  1  0.00000000  0.27361300  0.28584900  1
  P  P66  1  0.50000000  0.15562600  0.53781900  1
  P  P67  1  0.00000000  0.43703000  0.90796800  1
  P  P68  1  0.00000000  0.39589600  0.53322900  1
  P  P69  1  0.50000000  0.89589600  0.96677100  1
  P  P70  1  0.50000000  0.36753000  0.15797400  1
  P  P71  1  0.50000000  0.84437400  0.46218100  1
  P  P72  1  0.00000000  0.56297000  0.09203200  1
  P  P73  1  0.50000000  0.15809500  0.16515200  1
  P  P74  1  0.00000000  0.13247000  0.65797400  1
  P  P75  1  0.50000000  0.93703000  0.59203200  1
  P  P76  1  0.50000000  0.84190500  0.83484800  1
  P  P77  1  0.00000000  0.04746000  0.26668800  1
  P  P78  1  0.00000000  0.34437400  0.03781900  1
  P  P79  1  0.00000000  0.65809500  0.33484800  1
  P  P80  1  0.50000000  0.63247000  0.84202600  1
  P  P81  1  0.50000000  0.76882300  0.07782800  1
  P  P82  1  0.50000000  0.54746000  0.23331200  1
  P  P83  1  0.00000000  0.95148400  0.14287600  1
  P  P84  1  0.50000000  0.22638700  0.78584900  1
  P  P85  1  0.50000000  0.45254000  0.76668800  1
  P  P86  1  0.50000000  0.54851600  0.64287600  1
  P  P87  1  0.00000000  0.95254000  0.73331200  1
  P  P88  1  0.00000000  0.65562600  0.96218100  1
  P  P89  1  0.50000000  0.10410400  0.03322900  1
  P  P90  1  0.50000000  0.77361300  0.21415100  1
  P  P91  1  0.50000000  0.06297000  0.40796800  1
