# generated using pymatgen
data_Er(BO2)3
_symmetry_space_group_name_H-M   'P 1'
_cell_length_a   7.41579500
_cell_length_b   12.26217000
_cell_length_c   15.96397300
_cell_angle_alpha   90.00000000
_cell_angle_beta   90.00000000
_cell_angle_gamma   90.00000000
_symmetry_Int_Tables_number   1
_chemical_formula_structural   Er(BO2)3
_chemical_formula_sum   'Er16 B48 O96'
_cell_volume   1451.66375379
_cell_formula_units_Z   16
loop_
 _symmetry_equiv_pos_site_id
 _symmetry_equiv_pos_as_xyz
  1  'x, y, z'
loop_
 _atom_site_type_symbol
 _atom_site_label
 _atom_site_symmetry_multiplicity
 _atom_site_fract_x
 _atom_site_fract_y
 _atom_site_fract_z
 _atom_site_occupancy
  Er  Er0  1  0.75000000  0.00953000  0.12116500  1
  Er  Er1  1  0.75000000  0.43533000  0.32733200  1
  Er  Er2  1  0.25000000  0.50953000  0.37883500  1
  Er  Er3  1  0.75000000  0.76549700  0.62784900  1
  Er  Er4  1  0.25000000  0.26549700  0.87215100  1
  Er  Er5  1  0.75000000  0.49047000  0.62116500  1
  Er  Er6  1  0.25000000  0.91141400  0.54819300  1
  Er  Er7  1  0.75000000  0.41141400  0.95180700  1
  Er  Er8  1  0.25000000  0.99047000  0.87883500  1
  Er  Er9  1  0.75000000  0.73450300  0.12784900  1
  Er  Er10  1  0.75000000  0.06467000  0.82733200  1
  Er  Er11  1  0.75000000  0.08858600  0.45180700  1
  Er  Er12  1  0.25000000  0.23450300  0.37215100  1
  Er  Er13  1  0.25000000  0.58858600  0.04819300  1
  Er  Er14  1  0.25000000  0.56467000  0.67266800  1
  Er  Er15  1  0.25000000  0.93533000  0.17266800  1
  B  B16  1  0.07626100  0.14282100  0.10962800  1
  B  B17  1  0.93109600  0.12855000  0.25833500  1
  B  B18  1  0.42185200  0.51655600  0.84773500  1
  B  B19  1  0.06000200  0.67699300  0.53213500  1
  B  B20  1  0.57343400  0.65393500  0.94342200  1
  B  B21  1  0.43109600  0.87145000  0.74166500  1
  B  B22  1  0.42185200  0.98344400  0.34773500  1
  B  B23  1  0.07031000  0.18524500  0.71774700  1
  B  B24  1  0.06000200  0.82300700  0.03213500  1
  B  B25  1  0.57031000  0.81475500  0.28225300  1
  B  B26  1  0.07031000  0.31475500  0.21774700  1
  B  B27  1  0.07343400  0.34606500  0.05657800  1
  B  B28  1  0.42656600  0.34606500  0.05657800  1
  B  B29  1  0.43999800  0.67699300  0.53213500  1
  B  B30  1  0.42969000  0.31475500  0.21774700  1
  B  B31  1  0.92656600  0.84606500  0.44342200  1
  B  B32  1  0.93109600  0.37145000  0.75833500  1
  B  B33  1  0.42373900  0.14282100  0.10962800  1
  B  B34  1  0.42656600  0.15393500  0.55657800  1
  B  B35  1  0.07814800  0.51655600  0.84773500  1
  B  B36  1  0.07814800  0.98344400  0.34773500  1
  B  B37  1  0.57626100  0.64282100  0.39037200  1
  B  B38  1  0.43999800  0.82300700  0.03213500  1
  B  B39  1  0.92969000  0.68524500  0.78225300  1
  B  B40  1  0.92185200  0.48344400  0.15226500  1
  B  B41  1  0.93999800  0.32300700  0.46786500  1
  B  B42  1  0.56000200  0.32300700  0.46786500  1
  B  B43  1  0.92373900  0.64282100  0.39037200  1
  B  B44  1  0.93999800  0.17699300  0.96786500  1
  B  B45  1  0.43109600  0.62855000  0.24166500  1
  B  B46  1  0.07626100  0.35717900  0.60962800  1
  B  B47  1  0.57031000  0.68524500  0.78225300  1
  B  B48  1  0.06890400  0.87145000  0.74166500  1
  B  B49  1  0.56890400  0.37145000  0.75833500  1
  B  B50  1  0.42969000  0.18524500  0.71774700  1
  B  B51  1  0.57343400  0.84606500  0.44342200  1
  B  B52  1  0.56000200  0.17699300  0.96786500  1
  B  B53  1  0.56890400  0.12855000  0.25833500  1
  B  B54  1  0.57814800  0.48344400  0.15226500  1
  B  B55  1  0.92969000  0.81475500  0.28225300  1
  B  B56  1  0.06890400  0.62855000  0.24166500  1
  B  B57  1  0.57814800  0.01655600  0.65226500  1
  B  B58  1  0.07343400  0.15393500  0.55657800  1
  B  B59  1  0.42373900  0.35717900  0.60962800  1
  B  B60  1  0.92373900  0.85717900  0.89037200  1
  B  B61  1  0.92185200  0.01655600  0.65226500  1
  B  B62  1  0.57626100  0.85717900  0.89037200  1
  B  B63  1  0.92656600  0.65393500  0.94342200  1
  O  O64  1  0.06025800  0.56838000  0.93099600  1
  O  O65  1  0.53425400  0.57676400  0.31451800  1
  O  O66  1  0.25000000  0.14287400  0.74561400  1
  O  O67  1  0.92603500  0.76543700  0.37109600  1
  O  O68  1  0.56586700  0.39956500  0.21823100  1
  O  O69  1  0.93351600  0.06461900  0.33644600  1
  O  O70  1  0.45729300  0.12088900  0.90376000  1
  O  O71  1  0.03425400  0.07676400  0.18548200  1
  O  O72  1  0.06586700  0.60043500  0.78176900  1
  O  O73  1  0.56671100  0.37780000  0.54853600  1
  O  O74  1  0.47797000  0.26975300  0.77716500  1
  O  O75  1  0.97664700  0.79033500  0.52234600  1
  O  O76  1  0.95729300  0.87911100  0.09624000  1
  O  O77  1  0.75000000  0.64287400  0.75438600  1
  O  O78  1  0.93413300  0.39956500  0.21823100  1
  O  O79  1  0.96574600  0.57676400  0.31451800  1
  O  O80  1  0.75000000  0.60065100  0.95149900  1
  O  O81  1  0.54270700  0.87911100  0.09624000  1
  O  O82  1  0.95729300  0.62088900  0.59624000  1
  O  O83  1  0.04270700  0.37911100  0.40376000  1
  O  O84  1  0.93974200  0.43162000  0.06900400  1
  O  O85  1  0.53425400  0.92323600  0.81451800  1
  O  O86  1  0.93974200  0.06838000  0.56900400  1
  O  O87  1  0.52203000  0.76975300  0.72283500  1
  O  O88  1  0.93328900  0.37780000  0.54853600  1
  O  O89  1  0.47664700  0.20966500  0.47765400  1
  O  O90  1  0.93413300  0.10043500  0.71823100  1
  O  O91  1  0.25000000  0.39934900  0.04850100  1
  O  O92  1  0.42603500  0.23456300  0.62890400  1
  O  O93  1  0.02203000  0.26975300  0.77716500  1
  O  O94  1  0.25000000  0.35712600  0.24561400  1
  O  O95  1  0.97797000  0.76975300  0.72283500  1
  O  O96  1  0.52335300  0.70966500  0.02234600  1
  O  O97  1  0.93328900  0.12220000  0.04853600  1
  O  O98  1  0.75000000  0.35993500  0.72388300  1
  O  O99  1  0.56648400  0.06461900  0.33644600  1
  O  O100  1  0.43974200  0.56838000  0.93099600  1
  O  O101  1  0.92603500  0.73456300  0.87109600  1
  O  O102  1  0.25000000  0.64006500  0.27611700  1
  O  O103  1  0.54270700  0.62088900  0.59624000  1
  O  O104  1  0.43351600  0.93538100  0.66355400  1
  O  O105  1  0.52335300  0.79033500  0.52234600  1
  O  O106  1  0.75000000  0.89934900  0.45149900  1
  O  O107  1  0.25000000  0.45723600  0.84149300  1
  O  O108  1  0.02335300  0.29033500  0.97765400  1
  O  O109  1  0.46574600  0.42323600  0.68548200  1
  O  O110  1  0.02335300  0.20966500  0.47765400  1
  O  O111  1  0.25000000  0.85993500  0.77611700  1
  O  O112  1  0.47664700  0.29033500  0.97765400  1
  O  O113  1  0.06671100  0.87780000  0.95146400  1
  O  O114  1  0.93351600  0.43538100  0.83644600  1
  O  O115  1  0.04270700  0.12088900  0.90376000  1
  O  O116  1  0.57396500  0.73456300  0.87109600  1
  O  O117  1  0.96574600  0.92323600  0.81451800  1
  O  O118  1  0.75000000  0.19632000  0.93342500  1
  O  O119  1  0.02203000  0.23024700  0.27716500  1
  O  O120  1  0.56025800  0.06838000  0.56900400  1
  O  O121  1  0.25000000  0.04276400  0.34149300  1
  O  O122  1  0.43328900  0.62220000  0.45146400  1
  O  O123  1  0.06586700  0.89956500  0.28176900  1
  O  O124  1  0.75000000  0.89535800  0.92232000  1
  O  O125  1  0.56025800  0.43162000  0.06900400  1
  O  O126  1  0.46574600  0.07676400  0.18548200  1
  O  O127  1  0.25000000  0.69632000  0.56657500  1
  O  O128  1  0.25000000  0.10065100  0.54850100  1
  O  O129  1  0.43974200  0.93162000  0.43099600  1
  O  O130  1  0.25000000  0.39535800  0.57768000  1
  O  O131  1  0.06648400  0.56461900  0.16355400  1
  O  O132  1  0.47797000  0.23024700  0.27716500  1
  O  O133  1  0.03425400  0.42323600  0.68548200  1
  O  O134  1  0.75000000  0.85712600  0.25438600  1
  O  O135  1  0.42603500  0.26543700  0.12890400  1
  O  O136  1  0.07396500  0.23456300  0.62890400  1
  O  O137  1  0.75000000  0.60464200  0.42232000  1
  O  O138  1  0.07396500  0.26543700  0.12890400  1
  O  O139  1  0.56648400  0.43538100  0.83644600  1
  O  O140  1  0.25000000  0.10464200  0.07768000  1
  O  O141  1  0.06671100  0.62220000  0.45146400  1
  O  O142  1  0.56586700  0.10043500  0.71823100  1
  O  O143  1  0.56671100  0.12220000  0.04853600  1
  O  O144  1  0.25000000  0.80368000  0.06657500  1
  O  O145  1  0.52203000  0.73024700  0.22283500  1
  O  O146  1  0.43328900  0.87780000  0.95146400  1
  O  O147  1  0.75000000  0.54276400  0.15850700  1
  O  O148  1  0.43413300  0.60043500  0.78176900  1
  O  O149  1  0.75000000  0.14006500  0.22388300  1
  O  O150  1  0.75000000  0.95723600  0.65850700  1
  O  O151  1  0.45729300  0.37911100  0.40376000  1
  O  O152  1  0.43413300  0.89956500  0.28176900  1
  O  O153  1  0.97664700  0.70966500  0.02234600  1
  O  O154  1  0.06648400  0.93538100  0.66355400  1
  O  O155  1  0.75000000  0.30368000  0.43342500  1
  O  O156  1  0.43351600  0.56461900  0.16355400  1
  O  O157  1  0.57396500  0.76543700  0.37109600  1
  O  O158  1  0.97797000  0.73024700  0.22283500  1
  O  O159  1  0.06025800  0.93162000  0.43099600  1
