# generated using pymatgen
data_PSeCl9
_symmetry_space_group_name_H-M   'P 1'
_cell_length_a   12.28979722
_cell_length_b   12.28979722
_cell_length_c   12.28979722
_cell_angle_alpha   120.23845063
_cell_angle_beta   119.89890425
_cell_angle_gamma   89.88134033
_symmetry_Int_Tables_number   1
_chemical_formula_structural   PSeCl9
_chemical_formula_sum   'P4 Se4 Cl36'
_cell_volume   1311.17997575
_cell_formula_units_Z   4
loop_
 _symmetry_equiv_pos_site_id
 _symmetry_equiv_pos_as_xyz
  1  'x, y, z'
loop_
 _atom_site_type_symbol
 _atom_site_label
 _atom_site_symmetry_multiplicity
 _atom_site_fract_x
 _atom_site_fract_y
 _atom_site_fract_z
 _atom_site_occupancy
  P  P0  1  0.78097900  0.51792700  0.27963900  1
  P  P1  1  0.21902100  0.49866000  0.73694800  1
  P  P2  1  0.26171200  0.99866000  0.27963900  1
  P  P3  1  0.73828800  0.01792700  0.73694800  1
  Se  Se4  1  0.77937300  0.54978300  0.82915600  1
  Se  Se5  1  0.22062700  0.04978300  0.77041000  1
  Se  Se6  1  0.64422800  0.97925200  0.12348000  1
  Se  Se7  1  0.35577200  0.47925200  0.33502400  1
  Cl  Cl8  1  0.43413100  0.94332900  0.87746000  1
  Cl  Cl9  1  0.85997500  0.37533700  0.73531200  1
  Cl  Cl10  1  0.76228700  0.67323300  0.27244600  1
  Cl  Cl11  1  0.64338100  0.40408700  0.82686500  1
  Cl  Cl12  1  0.16812200  0.49136500  0.15948700  1
  Cl  Cl13  1  0.31848200  0.22522000  0.04370200  1
  Cl  Cl14  1  0.70590200  0.97811700  0.54434400  1
  Cl  Cl15  1  0.61839500  0.36518100  0.10434100  1
  Cl  Cl16  1  0.62054300  0.15756000  0.27810300  1
  Cl  Cl17  1  0.76084000  0.86518100  0.74678700  1
  Cl  Cl18  1  0.35661900  0.18348400  0.76070600  1
  Cl  Cl19  1  0.37945700  0.65756000  0.53701700  1
  Cl  Cl20  1  0.83187800  0.99136500  0.32324300  1
  Cl  Cl21  1  0.58584400  0.05847800  0.74295400  1
  Cl  Cl22  1  0.38160500  0.48594600  0.74678700  1
  Cl  Cl23  1  0.07722200  0.90408700  0.76070600  1
  Cl  Cl24  1  0.20810500  0.33455800  0.32033600  1
  Cl  Cl25  1  0.90078700  0.17323300  0.91094500  1
  Cl  Cl26  1  0.06070900  0.13794300  0.69865200  1
  Cl  Cl27  1  0.23771300  0.51015900  0.91094500  1
  Cl  Cl28  1  0.68151800  0.72522000  0.90673800  1
  Cl  Cl29  1  0.93377300  0.47811700  0.27221500  1
  Cl  Cl30  1  0.29409800  0.83844100  0.27221500  1
  Cl  Cl31  1  0.06622700  0.33844100  0.54434400  1
  Cl  Cl32  1  0.93929100  0.63794300  0.07723500  1
  Cl  Cl33  1  0.51422200  0.83455800  0.12645400  1
  Cl  Cl34  1  0.18447600  0.65711000  0.74295400  1
  Cl  Cl35  1  0.14002500  0.87533700  0.51536200  1
  Cl  Cl36  1  0.79189500  0.11223200  0.12645400  1
  Cl  Cl37  1  0.92277800  0.68348400  0.82686500  1
  Cl  Cl38  1  0.81552400  0.55847800  0.47263300  1
  Cl  Cl39  1  0.09921300  0.01015900  0.27244600  1
  Cl  Cl40  1  0.41415600  0.15711000  0.47263300  1
  Cl  Cl41  1  0.48577800  0.61223200  0.32033600  1
  Cl  Cl42  1  0.56586900  0.44332900  0.50919800  1
  Cl  Cl43  1  0.23916000  0.98594600  0.10434100  1
