# generated using pymatgen
data_Cs5Te3H4NCl18
_symmetry_space_group_name_H-M   'P 1'
_cell_length_a   7.52195155
_cell_length_b   7.52195155
_cell_length_c   18.42669400
_cell_angle_alpha   90.00000000
_cell_angle_beta   90.00000000
_cell_angle_gamma   119.99999605
_symmetry_Int_Tables_number   1
_chemical_formula_structural   Cs5Te3H4NCl18
_chemical_formula_sum   'Cs5 Te3 H4 N1 Cl18'
_cell_volume   902.89892607
_cell_formula_units_Z   1
loop_
 _symmetry_equiv_pos_site_id
 _symmetry_equiv_pos_as_xyz
  1  'x, y, z'
loop_
 _atom_site_type_symbol
 _atom_site_label
 _atom_site_symmetry_multiplicity
 _atom_site_fract_x
 _atom_site_fract_y
 _atom_site_fract_z
 _atom_site_occupancy
  Cs  Cs0  1  0.33333300  0.66666700  0.91676400  1
  Cs  Cs1  1  0.00000000  0.00000000  0.58332600  1
  Cs  Cs2  1  0.66666700  0.33333300  0.24991000  1
  Cs  Cs3  1  0.66666700  0.33333300  0.75000200  1
  Cs  Cs4  1  0.33333300  0.66666700  0.41665300  1
  Te  Te5  1  0.66666700  0.33333300  0.00028700  1
  Te  Te6  1  0.33333300  0.66666700  0.66667400  1
  Te  Te7  1  0.00000000  0.00000000  0.33303700  1
  H  H8  1  0.07505900  0.15011800  0.10209900  1
  H  H9  1  0.84988200  0.92494100  0.10209900  1
  H  H10  1  0.00000000  0.00000000  0.02683800  1
  H  H11  1  0.07505900  0.92494100  0.10209900  1
  N  N12  1  0.00000000  0.00000000  0.08355800  1
  Cl  Cl13  1  0.82843400  0.17156600  0.91963000  1
  Cl  Cl14  1  0.17193900  0.34387800  0.74736300  1
  Cl  Cl15  1  0.65612200  0.82806100  0.74736300  1
  Cl  Cl16  1  0.34313300  0.17156600  0.91963000  1
  Cl  Cl17  1  0.83866900  0.67733800  0.41396200  1
  Cl  Cl18  1  0.49472700  0.50527300  0.58597000  1
  Cl  Cl19  1  0.17193900  0.82806100  0.74736300  1
  Cl  Cl20  1  0.82843400  0.65686700  0.91963000  1
  Cl  Cl21  1  0.32266200  0.16133100  0.41396200  1
  Cl  Cl22  1  0.01054700  0.50527300  0.58597000  1
  Cl  Cl23  1  0.50498300  0.00996700  0.08088000  1
  Cl  Cl24  1  0.16125100  0.83874900  0.25219000  1
  Cl  Cl25  1  0.83866900  0.16133100  0.41396200  1
  Cl  Cl26  1  0.49472700  0.98945300  0.58597000  1
  Cl  Cl27  1  0.99003300  0.49501700  0.08088000  1
  Cl  Cl28  1  0.67749800  0.83874900  0.25219000  1
  Cl  Cl29  1  0.50498300  0.49501700  0.08088000  1
  Cl  Cl30  1  0.16125100  0.32250200  0.25219000  1
