# generated using pymatgen
data_Hf8FeTe6
_symmetry_space_group_name_H-M   'P 1'
_cell_length_a   3.73826600
_cell_length_b   7.69172500
_cell_length_c   26.07673600
_cell_angle_alpha   90.00000000
_cell_angle_beta   90.00000000
_cell_angle_gamma   90.00000000
_symmetry_Int_Tables_number   1
_chemical_formula_structural   Hf8FeTe6
_chemical_formula_sum   'Hf16 Fe2 Te12'
_cell_volume   749.80301027
_cell_formula_units_Z   2
loop_
 _symmetry_equiv_pos_site_id
 _symmetry_equiv_pos_as_xyz
  1  'x, y, z'
loop_
 _atom_site_type_symbol
 _atom_site_label
 _atom_site_symmetry_multiplicity
 _atom_site_fract_x
 _atom_site_fract_y
 _atom_site_fract_z
 _atom_site_occupancy
  Hf  Hf0  1  0.50000000  0.73921100  0.43388600  1
  Hf  Hf1  1  0.00000000  0.26078900  0.06611400  1
  Hf  Hf2  1  0.50000000  0.07378900  0.50000000  1
  Hf  Hf3  1  0.00000000  0.05769600  0.80153800  1
  Hf  Hf4  1  0.00000000  0.26078900  0.93388600  1
  Hf  Hf5  1  0.50000000  0.94230400  0.69846200  1
  Hf  Hf6  1  0.50000000  0.94388200  0.90060600  1
  Hf  Hf7  1  0.00000000  0.05611800  0.59939400  1
  Hf  Hf8  1  0.00000000  0.05611800  0.40060600  1
  Hf  Hf9  1  0.50000000  0.94230400  0.30153800  1
  Hf  Hf10  1  0.00000000  0.45923200  0.50000000  1
  Hf  Hf11  1  0.00000000  0.92621100  0.00000000  1
  Hf  Hf12  1  0.50000000  0.54076800  0.00000000  1
  Hf  Hf13  1  0.00000000  0.05769600  0.19846200  1
  Hf  Hf14  1  0.50000000  0.94388200  0.09939400  1
  Hf  Hf15  1  0.50000000  0.73921100  0.56611400  1
  Fe  Fe16  1  0.00000000  0.81617700  0.50000000  1
  Fe  Fe17  1  0.50000000  0.18382300  0.00000000  1
  Te  Te18  1  0.00000000  0.69941300  0.34413400  1
  Te  Te19  1  0.00000000  0.64932900  0.08213900  1
  Te  Te20  1  0.50000000  0.35067100  0.41786100  1
  Te  Te21  1  0.00000000  0.64932900  0.91786100  1
  Te  Te22  1  0.50000000  0.30058700  0.15586600  1
  Te  Te23  1  0.50000000  0.30058700  0.84413400  1
  Te  Te24  1  0.50000000  0.77548800  0.20250500  1
  Te  Te25  1  0.00000000  0.22451200  0.70250500  1
  Te  Te26  1  0.00000000  0.22451200  0.29749500  1
  Te  Te27  1  0.50000000  0.35067100  0.58213900  1
  Te  Te28  1  0.50000000  0.77548800  0.79749500  1
  Te  Te29  1  0.00000000  0.69941300  0.65586600  1
