# generated using pymatgen
data_Ag2H2IOF
_symmetry_space_group_name_H-M   'P 1'
_cell_length_a   7.90706600
_cell_length_b   4.86077500
_cell_length_c   6.50505793
_cell_angle_alpha   88.80959964
_cell_angle_beta   90.00000000
_cell_angle_gamma   90.00000000
_symmetry_Int_Tables_number   1
_chemical_formula_structural   Ag2H2IOF
_chemical_formula_sum   'Ag4 H4 I2 O2 F2'
_cell_volume   249.96448633
_cell_formula_units_Z   2
loop_
 _symmetry_equiv_pos_site_id
 _symmetry_equiv_pos_as_xyz
  1  'x, y, z'
loop_
 _atom_site_type_symbol
 _atom_site_label
 _atom_site_symmetry_multiplicity
 _atom_site_fract_x
 _atom_site_fract_y
 _atom_site_fract_z
 _atom_site_occupancy
  Ag  Ag0  1  0.49564600  0.02247500  0.70585900  1
  Ag  Ag1  1  0.99564600  0.97752500  0.29414100  1
  Ag  Ag2  1  0.95748700  0.00172900  0.72206100  1
  Ag  Ag3  1  0.45748700  0.99827100  0.27793900  1
  H  H4  1  0.26219800  0.70776800  0.98842000  1
  H  H5  1  0.76219800  0.29223200  0.01158000  1
  H  H6  1  0.44983800  0.55704100  0.99109500  1
  H  H7  1  0.94983800  0.44295900  0.00890500  1
  I  I8  1  0.22125800  0.31726900  0.50454500  1
  I  I9  1  0.72125800  0.68273100  0.49545500  1
  O  O10  1  0.38794400  0.73952100  0.98934200  1
  O  O11  1  0.88794400  0.26047900  0.01065800  1
  F  F12  1  0.06292800  0.70941500  0.00251700  1
  F  F13  1  0.56292800  0.29058500  0.99748300  1
