# generated using pymatgen
data_La3Ge3Br2
_symmetry_space_group_name_H-M   'P 1'
_cell_length_a   9.68892672
_cell_length_b   9.68892672
_cell_length_c   11.04146113
_cell_angle_alpha   82.05486687
_cell_angle_beta   82.05486687
_cell_angle_gamma   26.16056197
_symmetry_Int_Tables_number   1
_chemical_formula_structural   La3Ge3Br2
_chemical_formula_sum   'La6 Ge6 Br4'
_cell_volume   452.36487839
_cell_formula_units_Z   2
loop_
 _symmetry_equiv_pos_site_id
 _symmetry_equiv_pos_as_xyz
  1  'x, y, z'
loop_
 _atom_site_type_symbol
 _atom_site_label
 _atom_site_symmetry_multiplicity
 _atom_site_fract_x
 _atom_site_fract_y
 _atom_site_fract_z
 _atom_site_occupancy
  La  La0  1  0.53042800  0.53042800  0.16903800  1
  La  La1  1  0.32236600  0.32236600  0.14684200  1
  La  La2  1  0.67763400  0.67763400  0.85315800  1
  La  La3  1  0.46957200  0.46957200  0.83096200  1
  La  La4  1  0.38781600  0.38781600  0.48825900  1
  La  La5  1  0.61218400  0.61218400  0.51174100  1
  Ge  Ge6  1  0.06807600  0.06807600  0.95566200  1
  Ge  Ge7  1  0.02325200  0.02325200  0.38421200  1
  Ge  Ge8  1  0.90687700  0.90687700  0.28024600  1
  Ge  Ge9  1  0.97674800  0.97674800  0.61578800  1
  Ge  Ge10  1  0.09312300  0.09312300  0.71975400  1
  Ge  Ge11  1  0.93192400  0.93192400  0.04433800  1
  Br  Br12  1  0.77529300  0.77529300  0.60881400  1
  Br  Br13  1  0.70043800  0.70043800  0.12986900  1
  Br  Br14  1  0.22470700  0.22470700  0.39118600  1
  Br  Br15  1  0.29956200  0.29956200  0.87013100  1
