# generated using pymatgen
data_Dy2Fe3Si5
_symmetry_space_group_name_H-M   'P 1'
_cell_length_a   10.35783500
_cell_length_b   10.35783500
_cell_length_c   5.47975000
_cell_angle_alpha   90.00000000
_cell_angle_beta   90.00000000
_cell_angle_gamma   90.00000000
_symmetry_Int_Tables_number   1
_chemical_formula_structural   Dy2Fe3Si5
_chemical_formula_sum   'Dy8 Fe12 Si20'
_cell_volume   587.89358628
_cell_formula_units_Z   4
loop_
 _symmetry_equiv_pos_site_id
 _symmetry_equiv_pos_as_xyz
  1  'x, y, z'
loop_
 _atom_site_type_symbol
 _atom_site_label
 _atom_site_symmetry_multiplicity
 _atom_site_fract_x
 _atom_site_fract_y
 _atom_site_fract_z
 _atom_site_occupancy
  Dy  Dy0  1  0.93172800  0.23697300  0.00000000  1
  Dy  Dy1  1  0.43172800  0.26302700  0.50000000  1
  Dy  Dy2  1  0.23697300  0.06827200  0.00000000  1
  Dy  Dy3  1  0.76302700  0.93172800  0.00000000  1
  Dy  Dy4  1  0.26302700  0.56827200  0.50000000  1
  Dy  Dy5  1  0.56827200  0.73697300  0.50000000  1
  Dy  Dy6  1  0.06827200  0.76302700  0.00000000  1
  Dy  Dy7  1  0.73697300  0.43172800  0.50000000  1
  Fe  Fe8  1  0.35569700  0.37635000  0.00000000  1
  Fe  Fe9  1  0.64430300  0.62365000  0.00000000  1
  Fe  Fe10  1  0.62365000  0.35569700  0.00000000  1
  Fe  Fe11  1  0.12365000  0.14430300  0.50000000  1
  Fe  Fe12  1  0.37635000  0.64430300  0.00000000  1
  Fe  Fe13  1  0.50000000  0.00000000  0.75000000  1
  Fe  Fe14  1  0.14430300  0.87635000  0.50000000  1
  Fe  Fe15  1  0.85569700  0.12365000  0.50000000  1
  Fe  Fe16  1  0.87635000  0.85569700  0.50000000  1
  Fe  Fe17  1  0.50000000  0.00000000  0.25000000  1
  Fe  Fe18  1  0.00000000  0.50000000  0.75000000  1
  Fe  Fe19  1  0.00000000  0.50000000  0.25000000  1
  Si  Si20  1  0.50000000  0.50000000  0.23158600  1
  Si  Si21  1  0.67891400  0.17891400  0.75000000  1
  Si  Si22  1  0.32108600  0.82108600  0.75000000  1
  Si  Si23  1  0.82005500  0.47927900  0.00000000  1
  Si  Si24  1  0.32005500  0.02072100  0.50000000  1
  Si  Si25  1  0.17891400  0.32108600  0.75000000  1
  Si  Si26  1  0.67891400  0.17891400  0.25000000  1
  Si  Si27  1  0.52072100  0.82005500  0.00000000  1
  Si  Si28  1  0.32108600  0.82108600  0.25000000  1
  Si  Si29  1  0.17891400  0.32108600  0.25000000  1
  Si  Si30  1  0.17994500  0.52072100  0.00000000  1
  Si  Si31  1  0.47927900  0.17994500  0.00000000  1
  Si  Si32  1  0.82108600  0.67891400  0.25000000  1
  Si  Si33  1  0.97927900  0.32005500  0.50000000  1
  Si  Si34  1  0.00000000  0.00000000  0.73158600  1
  Si  Si35  1  0.50000000  0.50000000  0.76841400  1
  Si  Si36  1  0.02072100  0.67994500  0.50000000  1
  Si  Si37  1  0.82108600  0.67891400  0.75000000  1
  Si  Si38  1  0.00000000  0.00000000  0.26841400  1
  Si  Si39  1  0.67994500  0.97927900  0.50000000  1
