# generated using pymatgen
data_Cs3Cr2I9
_symmetry_space_group_name_H-M   'P 1'
_cell_length_a   8.28119677
_cell_length_b   8.28119677
_cell_length_c   20.83161400
_cell_angle_alpha   90.00000000
_cell_angle_beta   90.00000000
_cell_angle_gamma   120.00000616
_symmetry_Int_Tables_number   1
_chemical_formula_structural   Cs3Cr2I9
_chemical_formula_sum   'Cs6 Cr4 I18'
_cell_volume   1237.19949100
_cell_formula_units_Z   2
loop_
 _symmetry_equiv_pos_site_id
 _symmetry_equiv_pos_as_xyz
  1  'x, y, z'
loop_
 _atom_site_type_symbol
 _atom_site_label
 _atom_site_symmetry_multiplicity
 _atom_site_fract_x
 _atom_site_fract_y
 _atom_site_fract_z
 _atom_site_occupancy
  Cs  Cs0  1  0.33333300  0.66666700  0.42962100  1
  Cs  Cs1  1  0.66666700  0.33333300  0.92962100  1
  Cs  Cs2  1  0.00000000  0.00000000  0.25000000  1
  Cs  Cs3  1  0.33333300  0.66666700  0.07037900  1
  Cs  Cs4  1  0.00000000  0.00000000  0.75000000  1
  Cs  Cs5  1  0.66666700  0.33333300  0.57037900  1
  Cr  Cr6  1  0.66666700  0.33333300  0.16292600  1
  Cr  Cr7  1  0.33333300  0.66666700  0.83707400  1
  Cr  Cr8  1  0.33333300  0.66666700  0.66292600  1
  Cr  Cr9  1  0.66666700  0.33333300  0.33707400  1
  I  I10  1  0.82472400  0.64944700  0.09208900  1
  I  I11  1  0.51630300  0.48369700  0.25000000  1
  I  I12  1  0.51630300  0.03260500  0.25000000  1
  I  I13  1  0.03260500  0.51630300  0.75000000  1
  I  I14  1  0.64944700  0.82472400  0.59208900  1
  I  I15  1  0.17527600  0.82472400  0.59208900  1
  I  I16  1  0.96739500  0.48369700  0.25000000  1
  I  I17  1  0.35055300  0.17527600  0.09208900  1
  I  I18  1  0.82472400  0.17527600  0.40791100  1
  I  I19  1  0.17527600  0.35055300  0.90791100  1
  I  I20  1  0.48369700  0.51630300  0.75000000  1
  I  I21  1  0.17527600  0.35055300  0.59208900  1
  I  I22  1  0.48369700  0.96739500  0.75000000  1
  I  I23  1  0.35055300  0.17527600  0.40791100  1
  I  I24  1  0.82472400  0.17527600  0.09208900  1
  I  I25  1  0.82472400  0.64944700  0.40791100  1
  I  I26  1  0.17527600  0.82472400  0.90791100  1
  I  I27  1  0.64944700  0.82472400  0.90791100  1
