# generated using pymatgen
data_NaSm9Si6(SO12)2
_symmetry_space_group_name_H-M   'P 1'
_cell_length_a   6.77940500
_cell_length_b   9.86908700
_cell_length_c   19.74067421
_cell_angle_alpha   60.00889799
_cell_angle_beta   90.00000000
_cell_angle_gamma   90.00000000
_symmetry_Int_Tables_number   1
_chemical_formula_structural   NaSm9Si6(SO12)2
_chemical_formula_sum   'Na2 Sm18 Si12 S4 O48'
_cell_volume   1143.93171916
_cell_formula_units_Z   2
loop_
 _symmetry_equiv_pos_site_id
 _symmetry_equiv_pos_as_xyz
  1  'x, y, z'
loop_
 _atom_site_type_symbol
 _atom_site_label
 _atom_site_symmetry_multiplicity
 _atom_site_fract_x
 _atom_site_fract_y
 _atom_site_fract_z
 _atom_site_occupancy
  Na  Na0  1  0.25731700  0.66649100  0.33337000  1
  Na  Na1  1  0.74268300  0.66649100  0.83337000  1
  Sm  Sm2  1  0.49476700  0.74822900  0.12162700  1
  Sm  Sm3  1  0.24642100  0.33492500  0.16676100  1
  Sm  Sm4  1  0.75166600  0.33196800  0.16646700  1
  Sm  Sm5  1  0.49757000  0.00884100  0.37416600  1
  Sm  Sm6  1  0.50523300  0.74822900  0.62162700  1
  Sm  Sm7  1  0.00086700  0.76420300  0.49053500  1
  Sm  Sm8  1  0.50323700  0.24274800  0.00445600  1
  Sm  Sm9  1  0.99928200  0.98115900  0.12743100  1
  Sm  Sm10  1  0.74259000  0.66690600  0.33327500  1
  Sm  Sm11  1  0.24833400  0.33196800  0.66646700  1
  Sm  Sm12  1  0.75357900  0.33492500  0.66676100  1
  Sm  Sm13  1  0.50243000  0.00884100  0.87416600  1
  Sm  Sm14  1  0.99913300  0.76420300  0.99053500  1
  Sm  Sm15  1  0.49676300  0.24274800  0.50445600  1
  Sm  Sm16  1  0.00238000  0.25503300  0.38195100  1
  Sm  Sm17  1  0.00071800  0.98115900  0.62743100  1
  Sm  Sm18  1  0.25741000  0.66690600  0.83327500  1
  Sm  Sm19  1  0.99762000  0.25503300  0.88195100  1
  Si  Si20  1  0.50468800  0.37591800  0.29645600  1
  Si  Si21  1  0.49756300  0.59292300  0.01549900  1
  Si  Si22  1  0.99753300  0.97019100  0.30806200  1
  Si  Si23  1  0.50160800  0.03098100  0.18802500  1
  Si  Si24  1  0.49531200  0.37591800  0.79645600  1
  Si  Si25  1  0.50243700  0.59292300  0.51549900  1
  Si  Si26  1  0.99656900  0.41378600  0.48501100  1
  Si  Si27  1  0.99589200  0.61621000  0.20688900  1
  Si  Si28  1  0.00246700  0.97019100  0.80806200  1
  Si  Si29  1  0.49839200  0.03098100  0.68802500  1
  Si  Si30  1  0.00343100  0.41378600  0.98501100  1
  Si  Si31  1  0.00410800  0.61621000  0.70688900  1
  S  S32  1  0.74258700  0.99454900  0.00356100  1
  S  S33  1  0.25741300  0.99454900  0.50356100  1
  S  S34  1  0.74958300  0.00511500  0.49664000  1
  S  S35  1  0.25041700  0.00511500  0.99664000  1
  O  O36  1  0.30561700  0.63804500  0.05241000  1
  O  O37  1  0.69394700  0.63785300  0.04996800  1
  O  O38  1  0.49916300  0.47156400  0.19886400  1
  O  O39  1  0.99673000  0.49373800  0.17376600  1
  O  O40  1  0.69684500  0.25833000  0.31719600  1
  O  O41  1  0.30884400  0.26051100  0.32086600  1
  O  O42  1  0.49762700  0.39765500  0.06533000  1
  O  O43  1  0.00384700  0.34746400  0.07936400  1
  O  O44  1  0.99954200  0.15881900  0.24671300  1
  O  O45  1  0.49508000  0.13063100  0.23578500  1
  O  O46  1  0.18095900  0.92021600  0.37006700  1
  O  O47  1  0.80240200  0.90688600  0.36569400  1
  O  O48  1  0.69590200  0.10691300  0.13013700  1
  O  O49  1  0.30802900  0.09762800  0.12933900  1
  O  O50  1  0.30605300  0.63785300  0.54996800  1
  O  O51  1  0.69438300  0.63804500  0.55241000  1
  O  O52  1  0.50083700  0.47156400  0.69886400  1
  O  O53  1  0.00327000  0.49373800  0.67376600  1
  O  O54  1  0.99396800  0.87190500  0.26141900  1
  O  O55  1  0.51019000  0.84357200  0.24187400  1
  O  O56  1  0.69115600  0.26051100  0.82086600  1
  O  O57  1  0.30315500  0.25833000  0.81719600  1
  O  O58  1  0.51025000  0.67279700  0.42177100  1
  O  O59  1  0.99295400  0.60534300  0.43598100  1
  O  O60  1  0.50237300  0.39765500  0.56533000  1
  O  O61  1  0.99615300  0.34746400  0.57936400  1
  O  O62  1  0.17960200  0.74014800  0.17004700  1
  O  O63  1  0.80104700  0.73143000  0.18101300  1
  O  O64  1  0.00045800  0.15881900  0.74671300  1
  O  O65  1  0.50492000  0.13063100  0.73578500  1
  O  O66  1  0.51171000  0.48366900  0.33630000  1
  O  O67  1  0.99361200  0.52281100  0.30265100  1
  O  O68  1  0.80264200  0.36079600  0.45337800  1
  O  O69  1  0.18145500  0.34110100  0.45988500  1
  O  O70  1  0.19759800  0.90688600  0.86569400  1
  O  O71  1  0.81904100  0.92021600  0.87006700  1
  O  O72  1  0.30409800  0.10691300  0.63013700  1
  O  O73  1  0.69197100  0.09762800  0.62933900  1
  O  O74  1  0.00603200  0.87190500  0.76141900  1
  O  O75  1  0.48981000  0.84357200  0.74187400  1
  O  O76  1  0.48975000  0.67279700  0.92177100  1
  O  O77  1  0.00704600  0.60534300  0.93598100  1
  O  O78  1  0.19895300  0.73143000  0.68101300  1
  O  O79  1  0.82039800  0.74014800  0.67004700  1
  O  O80  1  0.48829000  0.48366900  0.83630000  1
  O  O81  1  0.00638800  0.52281100  0.80265100  1
  O  O82  1  0.81854500  0.34110100  0.95988500  1
  O  O83  1  0.19735800  0.36079600  0.95337800  1
