# generated using pymatgen
data_P28Pb5I2
_symmetry_space_group_name_H-M   'P 1'
_cell_length_a   18.16804600
_cell_length_b   9.87649400
_cell_length_c   19.78876477
_cell_angle_alpha   83.73575964
_cell_angle_beta   90.00000000
_cell_angle_gamma   90.00000000
_symmetry_Int_Tables_number   1
_chemical_formula_structural   P28Pb5I2
_chemical_formula_sum   'P112 Pb20 I8'
_cell_volume   3529.62750486
_cell_formula_units_Z   4
loop_
 _symmetry_equiv_pos_site_id
 _symmetry_equiv_pos_as_xyz
  1  'x, y, z'
loop_
 _atom_site_type_symbol
 _atom_site_label
 _atom_site_symmetry_multiplicity
 _atom_site_fract_x
 _atom_site_fract_y
 _atom_site_fract_z
 _atom_site_occupancy
  P  P0  1  0.89989600  0.83084600  0.78281600  1
  P  P1  1  0.90560100  0.16874800  0.76523600  1
  P  P2  1  0.90097600  0.50972700  0.77155600  1
  P  P3  1  0.48661700  0.32157800  0.32876200  1
  P  P4  1  0.86730400  0.76424700  0.47281000  1
  P  P5  1  0.50658800  0.86396800  0.59641900  1
  P  P6  1  0.89144700  0.60331600  0.93356300  1
  P  P7  1  0.96825500  0.61229300  0.35139800  1
  P  P8  1  0.15055400  0.00610400  0.67605800  1
  P  P9  1  0.34944600  0.50610400  0.17605800  1
  P  P10  1  0.50874200  0.51707200  0.60087900  1
  P  P11  1  0.03174500  0.38770700  0.64860200  1
  P  P12  1  0.47579800  0.39939200  0.07058300  1
  P  P13  1  0.52400900  0.78740300  0.85704700  1
  P  P14  1  0.02304100  0.22522300  0.57950900  1
  P  P15  1  0.37038300  0.07605400  0.01095000  1
  P  P16  1  0.35118300  0.90843300  0.16979700  1
  P  P17  1  0.39989600  0.66915400  0.71718400  1
  P  P18  1  0.46825500  0.88770700  0.14860200  1
  P  P19  1  0.10010400  0.16915400  0.21718400  1
  P  P20  1  0.51925200  0.93658100  0.93252700  1
  P  P21  1  0.13269600  0.23575300  0.52719000  1
  P  P22  1  0.51572200  0.00521200  0.67631800  1
  P  P23  1  0.48074800  0.06341900  0.06747300  1
  P  P24  1  0.99125800  0.01707200  0.10087900  1
  P  P25  1  0.19282000  0.40571800  0.56706600  1
  P  P26  1  0.10855300  0.39668400  0.06643700  1
  P  P27  1  0.46583800  0.53673900  0.15202500  1
  P  P28  1  0.62961700  0.92394600  0.98905000  1
  P  P29  1  0.09902400  0.49027300  0.22844400  1
  P  P30  1  0.30718000  0.90571800  0.06706600  1
  P  P31  1  0.02420200  0.89939200  0.57058300  1
  P  P32  1  0.14881700  0.40843300  0.66979700  1
  P  P33  1  0.00658800  0.63603200  0.90358100  1
  P  P34  1  0.99341200  0.36396800  0.09641900  1
  P  P35  1  0.52420200  0.60060800  0.92941700  1
  P  P36  1  0.40097600  0.99027300  0.72844400  1
  P  P37  1  0.97579800  0.10060800  0.42941700  1
  P  P38  1  0.84203200  0.32261000  0.81467000  1
  P  P39  1  0.40560100  0.33125200  0.73476400  1
  P  P40  1  0.84457700  0.00148100  0.82628800  1
  P  P41  1  0.01338300  0.82157800  0.82876200  1
  P  P42  1  0.47695900  0.72522300  0.07950900  1
  P  P43  1  0.51338300  0.67842200  0.67123800  1
  P  P44  1  0.98165400  0.83903100  0.18018200  1
  P  P45  1  0.01572200  0.49478800  0.82368200  1
  P  P46  1  0.13538200  0.91169900  0.51495700  1
  P  P47  1  0.15796800  0.67739000  0.18533000  1
  P  P48  1  0.97599100  0.28740300  0.35704700  1
  P  P49  1  0.48757400  0.80757900  0.39613300  1
  P  P50  1  0.10664600  0.99795700  0.07281000  1
  P  P51  1  0.53416200  0.46326100  0.84797500  1
  P  P52  1  0.63538200  0.58830100  0.98504300  1
  P  P53  1  0.86461800  0.08830100  0.48504300  1
  P  P54  1  0.65796800  0.82261000  0.31467000  1
  P  P55  1  0.01925200  0.56341900  0.56747300  1
  P  P56  1  0.60010400  0.33084600  0.28281600  1
  P  P57  1  0.36461800  0.41169900  0.01495700  1
  P  P58  1  0.52304100  0.27477700  0.92049100  1
  P  P59  1  0.12961700  0.57605400  0.51095000  1
  P  P60  1  0.69532100  0.44408500  0.92634500  1
  P  P61  1  0.97695900  0.77477700  0.42049100  1
  P  P62  1  0.01834600  0.16096900  0.81981800  1
  P  P63  1  0.69282000  0.09428200  0.93293400  1
  P  P64  1  0.39144700  0.89668400  0.56643700  1
  P  P65  1  0.80467900  0.94408500  0.42634500  1
  P  P66  1  0.96583800  0.96326100  0.34797500  1
  P  P67  1  0.34137000  0.85022800  0.66687000  1
  P  P68  1  0.30523700  0.22773200  0.06051700  1
  P  P69  1  0.64881700  0.09156700  0.83020300  1
  P  P70  1  0.80718000  0.59428200  0.43293400  1
  P  P71  1  0.48165400  0.66096900  0.31981800  1
  P  P72  1  0.34457700  0.49851900  0.67371200  1
  P  P73  1  0.39335400  0.49795700  0.57281000  1
  P  P74  1  0.65542300  0.50148100  0.32628800  1
  P  P75  1  0.98757400  0.69242100  0.10386700  1
  P  P76  1  0.65055400  0.49389600  0.82394200  1
  P  P77  1  0.85118300  0.59156700  0.33020300  1
  P  P78  1  0.34203200  0.17739000  0.68533000  1
  P  P79  1  0.69476300  0.77226800  0.93948300  1
  P  P80  1  0.59439900  0.66874800  0.26523600  1
  P  P81  1  0.98427800  0.50521200  0.17631800  1
  P  P82  1  0.48427800  0.99478800  0.32368200  1
  P  P83  1  0.30467900  0.55591500  0.07365500  1
  P  P84  1  0.15863000  0.35022800  0.16687000  1
  P  P85  1  0.00874200  0.98292800  0.89912100  1
  P  P86  1  0.19532100  0.05591500  0.57365500  1
  P  P87  1  0.01242600  0.30757900  0.89613300  1
  P  P88  1  0.84137000  0.64977200  0.83313000  1
  P  P89  1  0.53174500  0.11229300  0.85139800  1
  P  P90  1  0.49341200  0.13603200  0.40358100  1
  P  P91  1  0.59902400  0.00972700  0.27155600  1
  P  P92  1  0.98661700  0.17842200  0.17123800  1
  P  P93  1  0.84944600  0.99389600  0.32394200  1
  P  P94  1  0.47599100  0.21259700  0.14295300  1
  P  P95  1  0.36730400  0.73575300  0.02719000  1
  P  P96  1  0.89335400  0.00204300  0.92719000  1
  P  P97  1  0.03416200  0.03673900  0.65202500  1
  P  P98  1  0.60664600  0.50204300  0.42719000  1
  P  P99  1  0.49125800  0.48292800  0.39912100  1
  P  P100  1  0.60855300  0.10331600  0.43356300  1
  P  P101  1  0.02400900  0.71259700  0.64295300  1
  P  P102  1  0.98074800  0.43658100  0.43252700  1
  P  P103  1  0.87038300  0.42394600  0.48905000  1
  P  P104  1  0.15542300  0.99851900  0.17371200  1
  P  P105  1  0.09439900  0.83125200  0.23476400  1
  P  P106  1  0.51242600  0.19242100  0.60386700  1
  P  P107  1  0.51834600  0.33903100  0.68018200  1
  P  P108  1  0.65863000  0.14977200  0.33313000  1
  P  P109  1  0.19476300  0.72773200  0.56051700  1
  P  P110  1  0.63269600  0.26424700  0.97281000  1
  P  P111  1  0.80523700  0.27226800  0.43948300  1
  Pb  Pb112  1  0.79607200  0.80985600  0.23538900  1
  Pb  Pb113  1  0.70392800  0.30985600  0.73538900  1
  Pb  Pb114  1  0.87163300  0.29195700  0.95711900  1
  Pb  Pb115  1  0.66509700  0.80447800  0.79628700  1
  Pb  Pb116  1  0.63970600  0.30477300  0.12739500  1
  Pb  Pb117  1  0.33446500  0.71913100  0.47626500  1
  Pb  Pb118  1  0.36029400  0.69522700  0.87260500  1
  Pb  Pb119  1  0.62836700  0.79195700  0.45711900  1
  Pb  Pb120  1  0.16553500  0.21913100  0.97626500  1
  Pb  Pb121  1  0.29607200  0.69014400  0.26461100  1
  Pb  Pb122  1  0.13970600  0.19522700  0.37260500  1
  Pb  Pb123  1  0.83446500  0.78086900  0.02373500  1
  Pb  Pb124  1  0.16509700  0.69552200  0.70371300  1
  Pb  Pb125  1  0.37163300  0.20804300  0.54288100  1
  Pb  Pb126  1  0.12836700  0.70804300  0.04288100  1
  Pb  Pb127  1  0.33490300  0.19552200  0.20371300  1
  Pb  Pb128  1  0.86029400  0.80477300  0.62739500  1
  Pb  Pb129  1  0.83490300  0.30447800  0.29628700  1
  Pb  Pb130  1  0.20392800  0.19014400  0.76461100  1
  Pb  Pb131  1  0.66553500  0.28086900  0.52373500  1
  I  I132  1  0.26668800  0.40513000  0.37636900  1
  I  I133  1  0.23331200  0.90513000  0.87636900  1
  I  I134  1  0.73331200  0.59487000  0.62363100  1
  I  I135  1  0.77258200  0.52096500  0.13383900  1
  I  I136  1  0.27258200  0.97903500  0.36616100  1
  I  I137  1  0.72741800  0.02096500  0.63383900  1
  I  I138  1  0.76668800  0.09487000  0.12363100  1
  I  I139  1  0.22741800  0.47903500  0.86616100  1
