# generated using pymatgen
data_Na3Sr4Al5F26
_symmetry_space_group_name_H-M   'P 1'
_cell_length_a   10.39771200
_cell_length_b   10.39771200
_cell_length_c   18.60185600
_cell_angle_alpha   90.00000000
_cell_angle_beta   90.00000000
_cell_angle_gamma   90.00000000
_symmetry_Int_Tables_number   1
_chemical_formula_structural   Na3Sr4Al5F26
_chemical_formula_sum   'Na12 Sr16 Al20 F104'
_cell_volume   2011.09157257
_cell_formula_units_Z   4
loop_
 _symmetry_equiv_pos_site_id
 _symmetry_equiv_pos_as_xyz
  1  'x, y, z'
loop_
 _atom_site_type_symbol
 _atom_site_label
 _atom_site_symmetry_multiplicity
 _atom_site_fract_x
 _atom_site_fract_y
 _atom_site_fract_z
 _atom_site_occupancy
  Na  Na0  1  0.50000000  0.00000000  0.24597900  1
  Na  Na1  1  0.50000000  0.00000000  0.74597900  1
  Na  Na2  1  0.25000000  0.25000000  0.25000000  1
  Na  Na3  1  0.75000000  0.25000000  0.75000000  1
  Na  Na4  1  0.00000000  0.00000000  0.25220100  1
  Na  Na5  1  0.00000000  0.50000000  0.25402100  1
  Na  Na6  1  0.50000000  0.50000000  0.24779900  1
  Na  Na7  1  0.25000000  0.75000000  0.75000000  1
  Na  Na8  1  0.75000000  0.75000000  0.25000000  1
  Na  Na9  1  0.00000000  0.00000000  0.74779900  1
  Na  Na10  1  0.00000000  0.50000000  0.75402100  1
  Na  Na11  1  0.50000000  0.50000000  0.75220100  1
  Sr  Sr12  1  0.03743700  0.74714400  0.94450300  1
  Sr  Sr13  1  0.25285600  0.03743700  0.05549700  1
  Sr  Sr14  1  0.53743700  0.24714400  0.55549700  1
  Sr  Sr15  1  0.53204700  0.24732800  0.92445800  1
  Sr  Sr16  1  0.03204700  0.74732800  0.57554200  1
  Sr  Sr17  1  0.24714400  0.46256300  0.44450300  1
  Sr  Sr18  1  0.24732800  0.46795300  0.07554200  1
  Sr  Sr19  1  0.46256300  0.75285600  0.55549700  1
  Sr  Sr20  1  0.46795300  0.75267200  0.92445800  1
  Sr  Sr21  1  0.74714400  0.96256300  0.05549700  1
  Sr  Sr22  1  0.75267200  0.53204700  0.07554200  1
  Sr  Sr23  1  0.75285600  0.53743700  0.44450300  1
  Sr  Sr24  1  0.25267200  0.03204700  0.42445800  1
  Sr  Sr25  1  0.96256300  0.25285600  0.94450300  1
  Sr  Sr26  1  0.74732800  0.96795300  0.42445800  1
  Sr  Sr27  1  0.96795300  0.25267200  0.57554200  1
  Al  Al28  1  0.76498900  0.00591800  0.87763000  1
  Al  Al29  1  0.76030300  0.49719400  0.88420500  1
  Al  Al30  1  0.73969700  0.00280600  0.61579500  1
  Al  Al31  1  0.23969700  0.50280600  0.88420500  1
  Al  Al32  1  0.00280600  0.26030300  0.38420500  1
  Al  Al33  1  0.25000000  0.25000000  0.75000000  1
  Al  Al34  1  0.23501100  0.99408200  0.87763000  1
  Al  Al35  1  0.99719400  0.73969700  0.38420500  1
  Al  Al36  1  0.99408200  0.76498900  0.12237000  1
  Al  Al37  1  0.75000000  0.75000000  0.75000000  1
  Al  Al38  1  0.50591800  0.73501100  0.37763000  1
  Al  Al39  1  0.26030300  0.99719400  0.61579500  1
  Al  Al40  1  0.73501100  0.49408200  0.62237000  1
  Al  Al41  1  0.75000000  0.25000000  0.25000000  1
  Al  Al42  1  0.25000000  0.75000000  0.25000000  1
  Al  Al43  1  0.49408200  0.26498900  0.37763000  1
  Al  Al44  1  0.26498900  0.50591800  0.62237000  1
  Al  Al45  1  0.50280600  0.76030300  0.11579500  1
  Al  Al46  1  0.49719400  0.23969700  0.11579500  1
  Al  Al47  1  0.00591800  0.23501100  0.12237000  1
  F  F48  1  0.09379500  0.14617100  0.32821500  1
  F  F49  1  0.79721400  0.62371500  0.81612300  1
  F  F50  1  0.09070100  0.25425900  0.71325800  1
  F  F51  1  0.87275000  0.74717700  0.05242500  1
  F  F52  1  0.20038100  0.11858200  0.81036200  1
  F  F53  1  0.59091600  0.85526100  0.32403000  1
  F  F54  1  0.35382900  0.59379500  0.82821500  1
  F  F55  1  0.13650900  0.41686900  0.57779600  1
  F  F56  1  0.37628500  0.79721400  0.18387700  1
  F  F57  1  0.25425900  0.90929900  0.28674200  1
  F  F58  1  0.41686900  0.86349100  0.42220400  1
  F  F59  1  0.63650900  0.91686900  0.92220400  1
  F  F60  1  0.25282300  0.87275000  0.94757500  1
  F  F61  1  0.11050800  0.89309400  0.83759400  1
  F  F62  1  0.07498100  0.87784000  0.06240900  1
  F  F63  1  0.62280200  0.74042400  0.04443300  1
  F  F64  1  0.40908400  0.14473900  0.32403000  1
  F  F65  1  0.92649200  0.37418900  0.44501100  1
  F  F66  1  0.85526100  0.40908400  0.67597000  1
  F  F67  1  0.61858200  0.29961900  0.31036200  1
  F  F68  1  0.38748900  0.89783400  0.65604200  1
  F  F69  1  0.88141800  0.20038100  0.18963800  1
  F  F70  1  0.89783400  0.61251100  0.34395800  1
  F  F71  1  0.42501900  0.62216000  0.43759100  1
  F  F72  1  0.87719800  0.75957600  0.45556700  1
  F  F73  1  0.12371500  0.70278600  0.31612300  1
  F  F74  1  0.59070100  0.75425900  0.78674200  1
  F  F75  1  0.60216600  0.88748900  0.15604200  1
  F  F76  1  0.75957600  0.12280200  0.54443300  1
  F  F77  1  0.37719800  0.25957600  0.04443300  1
  F  F78  1  0.37275000  0.24717700  0.44757500  1
  F  F79  1  0.62371500  0.20278600  0.18387700  1
  F  F80  1  0.09091600  0.35526100  0.17597000  1
  F  F81  1  0.70038100  0.61858200  0.68963800  1
  F  F82  1  0.62725000  0.75282300  0.44757500  1
  F  F83  1  0.61251100  0.10216600  0.65604200  1
  F  F84  1  0.89309400  0.88949200  0.16240600  1
  F  F85  1  0.64617100  0.40620500  0.82821500  1
  F  F86  1  0.12216000  0.07498100  0.93759100  1
  F  F87  1  0.40620500  0.35382900  0.17178500  1
  F  F88  1  0.08668500  0.87044800  0.42141800  1
  F  F89  1  0.10690600  0.11050800  0.16240600  1
  F  F90  1  0.86349100  0.58313100  0.57779600  1
  F  F91  1  0.24042400  0.87719800  0.54443300  1
  F  F92  1  0.38949200  0.60690600  0.66240600  1
  F  F93  1  0.41331500  0.62955200  0.07858200  1
  F  F94  1  0.85382900  0.09379500  0.67178500  1
  F  F95  1  0.58668500  0.37044800  0.07858200  1
  F  F96  1  0.12725000  0.25282300  0.05242500  1
  F  F97  1  0.24717700  0.62725000  0.55242500  1
  F  F98  1  0.62581100  0.92649200  0.55498900  1
  F  F99  1  0.57498100  0.37784000  0.43759100  1
  F  F100  1  0.64473900  0.09091600  0.82403000  1
  F  F101  1  0.11858200  0.79961900  0.18963800  1
  F  F102  1  0.92501900  0.12216000  0.06240900  1
  F  F103  1  0.90929900  0.74574100  0.71325800  1
  F  F104  1  0.29721400  0.12371500  0.68387700  1
  F  F105  1  0.11251100  0.60216600  0.84395800  1
  F  F106  1  0.12280200  0.24042400  0.45556700  1
  F  F107  1  0.87044800  0.91331500  0.57858200  1
  F  F108  1  0.25957600  0.62280200  0.95556700  1
  F  F109  1  0.12955200  0.08668500  0.57858200  1
  F  F110  1  0.60690600  0.61050800  0.33759400  1
  F  F111  1  0.70278600  0.87628500  0.68387700  1
  F  F112  1  0.62216000  0.57498100  0.56240900  1
  F  F113  1  0.39309400  0.38949200  0.33759400  1
  F  F114  1  0.87628500  0.29721400  0.31612300  1
  F  F115  1  0.87418900  0.57350800  0.94501100  1
  F  F116  1  0.74042400  0.37719800  0.95556700  1
  F  F117  1  0.42649200  0.87418900  0.05498900  1
  F  F118  1  0.88949200  0.10690600  0.83759400  1
  F  F119  1  0.58313100  0.13650900  0.42220400  1
  F  F120  1  0.14617100  0.90620500  0.67178500  1
  F  F121  1  0.10216600  0.38748900  0.34395800  1
  F  F122  1  0.38141800  0.70038100  0.31036200  1
  F  F123  1  0.90620500  0.85382900  0.32821500  1
  F  F124  1  0.37784000  0.42501900  0.56240900  1
  F  F125  1  0.40929900  0.24574100  0.78674200  1
  F  F126  1  0.74574100  0.09070100  0.28674200  1
  F  F127  1  0.20278600  0.37628500  0.81612300  1
  F  F128  1  0.14473900  0.59091600  0.67597000  1
  F  F129  1  0.91686900  0.36349100  0.07779600  1
  F  F130  1  0.37044800  0.41331500  0.92141800  1
  F  F131  1  0.07350800  0.62581100  0.44501100  1
  F  F132  1  0.57350800  0.12581100  0.05498900  1
  F  F133  1  0.88748900  0.39783400  0.84395800  1
  F  F134  1  0.75425900  0.40929900  0.21325800  1
  F  F135  1  0.87784000  0.92501900  0.93759100  1
  F  F136  1  0.90908400  0.64473900  0.17597000  1
  F  F137  1  0.75282300  0.37275000  0.55242500  1
  F  F138  1  0.74717700  0.12725000  0.94757500  1
  F  F139  1  0.29961900  0.38141800  0.68963800  1
  F  F140  1  0.36349100  0.08313100  0.92220400  1
  F  F141  1  0.12581100  0.42649200  0.94501100  1
  F  F142  1  0.08313100  0.63650900  0.07779600  1
  F  F143  1  0.39783400  0.11251100  0.15604200  1
  F  F144  1  0.61050800  0.39309400  0.66240600  1
  F  F145  1  0.79961900  0.88141800  0.81036200  1
  F  F146  1  0.62955200  0.58668500  0.92141800  1
  F  F147  1  0.35526100  0.90908400  0.82403000  1
  F  F148  1  0.91331500  0.12955200  0.42141800  1
  F  F149  1  0.59379500  0.64617100  0.17178500  1
  F  F150  1  0.24574100  0.59070100  0.21325800  1
  F  F151  1  0.37418900  0.07350800  0.55498900  1
