# generated using pymatgen
data_Ca5(InSb3)2
_symmetry_space_group_name_H-M   'P 1'
_cell_length_a   4.61932400
_cell_length_b   12.24267400
_cell_length_c   14.43364300
_cell_angle_alpha   90.00000000
_cell_angle_beta   90.00000000
_cell_angle_gamma   90.00000000
_symmetry_Int_Tables_number   1
_chemical_formula_structural   Ca5(InSb3)2
_chemical_formula_sum   'Ca10 In4 Sb12'
_cell_volume   816.26404926
_cell_formula_units_Z   2
loop_
 _symmetry_equiv_pos_site_id
 _symmetry_equiv_pos_as_xyz
  1  'x, y, z'
loop_
 _atom_site_type_symbol
 _atom_site_label
 _atom_site_symmetry_multiplicity
 _atom_site_fract_x
 _atom_site_fract_y
 _atom_site_fract_z
 _atom_site_occupancy
  Ca  Ca0  1  0.00000000  0.67750400  0.98536800  1
  Ca  Ca1  1  0.00000000  0.82249600  0.48536800  1
  Ca  Ca2  1  0.00000000  0.40868200  0.74800400  1
  Ca  Ca3  1  0.00000000  0.90868200  0.75199600  1
  Ca  Ca4  1  0.00000000  0.59131800  0.25199600  1
  Ca  Ca5  1  0.00000000  0.17750400  0.51463200  1
  Ca  Ca6  1  0.00000000  0.09131800  0.24800400  1
  Ca  Ca7  1  0.00000000  0.00000000  0.00000000  1
  Ca  Ca8  1  0.00000000  0.32249600  0.01463200  1
  Ca  Ca9  1  0.00000000  0.50000000  0.50000000  1
  In  In10  1  0.50000000  0.66325500  0.78688400  1
  In  In11  1  0.50000000  0.16325500  0.71311600  1
  In  In12  1  0.50000000  0.83674500  0.28688400  1
  In  In13  1  0.50000000  0.33674500  0.21311600  1
  Sb  Sb14  1  0.50000000  0.96289900  0.59587000  1
  Sb  Sb15  1  0.50000000  0.85016300  0.90735200  1
  Sb  Sb16  1  0.00000000  0.66165300  0.67008700  1
  Sb  Sb17  1  0.50000000  0.46289900  0.90413000  1
  Sb  Sb18  1  0.50000000  0.64983700  0.40735200  1
  Sb  Sb19  1  0.50000000  0.14983700  0.09264800  1
  Sb  Sb20  1  0.50000000  0.03710100  0.40413000  1
  Sb  Sb21  1  0.00000000  0.16165300  0.82991300  1
  Sb  Sb22  1  0.00000000  0.83834700  0.17008700  1
  Sb  Sb23  1  0.50000000  0.53710100  0.09587000  1
  Sb  Sb24  1  0.50000000  0.35016300  0.59264800  1
  Sb  Sb25  1  0.00000000  0.33834700  0.32991300  1
