# generated using pymatgen
data_K2Mn(SnSe3)2
_symmetry_space_group_name_H-M   'P 1'
_cell_length_a   8.42864300
_cell_length_b   8.42864300
_cell_length_c   19.94422600
_cell_angle_alpha   90.00000000
_cell_angle_beta   90.00000000
_cell_angle_gamma   90.00000000
_symmetry_Int_Tables_number   1
_chemical_formula_structural   K2Mn(SnSe3)2
_chemical_formula_sum   'K8 Mn4 Sn8 Se24'
_cell_volume   1416.87815865
_cell_formula_units_Z   4
loop_
 _symmetry_equiv_pos_site_id
 _symmetry_equiv_pos_as_xyz
  1  'x, y, z'
loop_
 _atom_site_type_symbol
 _atom_site_label
 _atom_site_symmetry_multiplicity
 _atom_site_fract_x
 _atom_site_fract_y
 _atom_site_fract_z
 _atom_site_occupancy
  K  K0  1  0.00000000  0.50000000  0.32110400  1
  K  K1  1  0.00000000  0.50000000  0.02588800  1
  K  K2  1  0.50000000  0.00000000  0.17889600  1
  K  K3  1  0.00000000  0.50000000  0.82110400  1
  K  K4  1  0.50000000  0.00000000  0.67889600  1
  K  K5  1  0.50000000  0.00000000  0.97411200  1
  K  K6  1  0.50000000  0.00000000  0.47411200  1
  K  K7  1  0.00000000  0.50000000  0.52588800  1
  Mn  Mn8  1  0.00000000  0.00000000  0.00000000  1
  Mn  Mn9  1  0.50000000  0.50000000  0.50000000  1
  Mn  Mn10  1  0.00000000  0.00000000  0.50000000  1
  Mn  Mn11  1  0.50000000  0.50000000  0.00000000  1
  Sn  Sn12  1  0.00000000  0.00000000  0.33826500  1
  Sn  Sn13  1  0.00000000  0.00000000  0.16173500  1
  Sn  Sn14  1  0.50000000  0.50000000  0.83826500  1
  Sn  Sn15  1  0.50000000  0.50000000  0.66173500  1
  Sn  Sn16  1  0.50000000  0.50000000  0.33826500  1
  Sn  Sn17  1  0.50000000  0.50000000  0.16173500  1
  Sn  Sn18  1  0.00000000  0.00000000  0.83826500  1
  Sn  Sn19  1  0.00000000  0.00000000  0.66173500  1
  Se  Se20  1  0.66278700  0.33721300  0.25000000  1
  Se  Se21  1  0.67752800  0.34455000  0.91762300  1
  Se  Se22  1  0.32247200  0.34455000  0.41762300  1
  Se  Se23  1  0.84455000  0.82247200  0.91762300  1
  Se  Se24  1  0.33721300  0.66278700  0.25000000  1
  Se  Se25  1  0.84455000  0.17752800  0.41762300  1
  Se  Se26  1  0.65545000  0.32247200  0.58237700  1
  Se  Se27  1  0.33721300  0.33721300  0.75000000  1
  Se  Se28  1  0.34455000  0.32247200  0.08237700  1
  Se  Se29  1  0.83721300  0.16278700  0.75000000  1
  Se  Se30  1  0.65545000  0.67752800  0.08237700  1
  Se  Se31  1  0.66278700  0.66278700  0.75000000  1
  Se  Se32  1  0.82247200  0.15545000  0.08237700  1
  Se  Se33  1  0.67752800  0.65545000  0.41762300  1
  Se  Se34  1  0.16278700  0.83721300  0.75000000  1
  Se  Se35  1  0.83721300  0.83721300  0.25000000  1
  Se  Se36  1  0.34455000  0.67752800  0.58237700  1
  Se  Se37  1  0.17752800  0.84455000  0.08237700  1
  Se  Se38  1  0.32247200  0.65545000  0.91762300  1
  Se  Se39  1  0.16278700  0.16278700  0.25000000  1
  Se  Se40  1  0.17752800  0.15545000  0.58237700  1
  Se  Se41  1  0.15545000  0.82247200  0.41762300  1
  Se  Se42  1  0.82247200  0.84455000  0.58237700  1
  Se  Se43  1  0.15545000  0.17752800  0.91762300  1
