# generated using pymatgen
data_LiMn9Se10
_symmetry_space_group_name_H-M   'P 1'
_cell_length_a   6.59746300
_cell_length_b   7.62895321
_cell_length_c   8.50843906
_cell_angle_alpha   102.94647988
_cell_angle_beta   97.32494032
_cell_angle_gamma   106.79310381
_symmetry_Int_Tables_number   1
_chemical_formula_structural   LiMn9Se10
_chemical_formula_sum   'Li1 Mn9 Se10'
_cell_volume   390.98798310
_cell_formula_units_Z   1
loop_
 _symmetry_equiv_pos_site_id
 _symmetry_equiv_pos_as_xyz
  1  'x, y, z'
loop_
 _atom_site_type_symbol
 _atom_site_label
 _atom_site_symmetry_multiplicity
 _atom_site_fract_x
 _atom_site_fract_y
 _atom_site_fract_z
 _atom_site_occupancy
  Li  Li0  1  0.00000000  0.50000000  0.00000000  1
  Mn  Mn1  1  0.80111000  0.59939800  0.59981500  1
  Mn  Mn2  1  0.59810000  0.19988200  0.19841500  1
  Mn  Mn3  1  0.40190000  0.80011800  0.80158500  1
  Mn  Mn4  1  0.59931200  0.69867800  0.19866400  1
  Mn  Mn5  1  0.19889000  0.40060200  0.40018500  1
  Mn  Mn6  1  0.40068800  0.30132200  0.80133600  1
  Mn  Mn7  1  0.00000000  0.00000000  0.00000000  1
  Mn  Mn8  1  0.19918500  0.89870500  0.39872900  1
  Mn  Mn9  1  0.80081500  0.10129500  0.60127100  1
  Se  Se10  1  0.69785200  0.65135600  0.89906900  1
  Se  Se11  1  0.49959100  0.24944900  0.50050800  1
  Se  Se12  1  0.69789300  0.14710500  0.89846000  1
  Se  Se13  1  0.30210700  0.85289500  0.10154000  1
  Se  Se14  1  0.50040900  0.75055100  0.49949200  1
  Se  Se15  1  0.10089900  0.44890200  0.69708200  1
  Se  Se16  1  0.30214800  0.34864400  0.10093100  1
  Se  Se17  1  0.89999100  0.04959500  0.30021100  1
  Se  Se18  1  0.10000900  0.95040500  0.69978900  1
  Se  Se19  1  0.89910100  0.55109800  0.30291800  1
