# generated using pymatgen
data_Cs4Mg3H10
_symmetry_space_group_name_H-M   'P 1'
_cell_length_a   7.97597705
_cell_length_b   7.97597705
_cell_length_c   13.80872300
_cell_angle_alpha   90.00000000
_cell_angle_beta   90.00000000
_cell_angle_gamma   133.72841968
_symmetry_Int_Tables_number   1
_chemical_formula_structural   Cs4Mg3H10
_chemical_formula_sum   'Cs8 Mg6 H20'
_cell_volume   634.79560484
_cell_formula_units_Z   2
loop_
 _symmetry_equiv_pos_site_id
 _symmetry_equiv_pos_as_xyz
  1  'x, y, z'
loop_
 _atom_site_type_symbol
 _atom_site_label
 _atom_site_symmetry_multiplicity
 _atom_site_fract_x
 _atom_site_fract_y
 _atom_site_fract_z
 _atom_site_occupancy
  Cs  Cs0  1  0.75333100  0.24666900  0.89492400  1
  Cs  Cs1  1  0.24666900  0.75333100  0.10507600  1
  Cs  Cs2  1  0.74666900  0.25333100  0.39492400  1
  Cs  Cs3  1  0.25333100  0.74666900  0.60507600  1
  Cs  Cs4  1  0.95258700  0.04741300  0.63892600  1
  Cs  Cs5  1  0.04741300  0.95258700  0.36107400  1
  Cs  Cs6  1  0.54741300  0.45258700  0.13892600  1
  Cs  Cs7  1  0.45258700  0.54741300  0.86107400  1
  Mg  Mg8  1  0.61628400  0.38371600  0.65701700  1
  Mg  Mg9  1  0.38371600  0.61628400  0.34298300  1
  Mg  Mg10  1  0.88371600  0.11628400  0.15701700  1
  Mg  Mg11  1  0.11628400  0.88371600  0.84298300  1
  Mg  Mg12  1  0.50000000  0.50000000  0.50000000  1
  Mg  Mg13  1  0.00000000  0.00000000  0.00000000  1
  H  H14  1  0.39164500  0.19873600  0.53924500  1
  H  H15  1  0.19873600  0.39164500  0.46075500  1
  H  H16  1  0.69873600  0.89164500  0.03924500  1
  H  H17  1  0.89164500  0.69873600  0.96075500  1
  H  H18  1  0.60835500  0.80126400  0.46075500  1
  H  H19  1  0.80126400  0.60835500  0.53924500  1
  H  H20  1  0.30126400  0.10835500  0.96075500  1
  H  H21  1  0.10835500  0.30126400  0.03924500  1
  H  H22  1  0.74508800  0.25491200  0.65107700  1
  H  H23  1  0.25491200  0.74508800  0.34892300  1
  H  H24  1  0.75491200  0.24508800  0.15107700  1
  H  H25  1  0.24508800  0.75491200  0.84892300  1
  H  H26  1  0.97526500  0.02473500  0.85944100  1
  H  H27  1  0.02473500  0.97526500  0.14055900  1
  H  H28  1  0.52473500  0.47526500  0.35944100  1
  H  H29  1  0.47526500  0.52473500  0.64055900  1
  H  H30  1  0.35376000  0.14624000  0.75000000  1
  H  H31  1  0.14624000  0.35376000  0.25000000  1
  H  H32  1  0.64624000  0.85376000  0.25000000  1
  H  H33  1  0.85376000  0.64624000  0.75000000  1
