# generated using pymatgen
data_Ba3Yb(BO3)3
_symmetry_space_group_name_H-M   'P 1'
_cell_length_a   9.52605917
_cell_length_b   9.52605917
_cell_length_c   18.12647800
_cell_angle_alpha   90.00000000
_cell_angle_beta   90.00000000
_cell_angle_gamma   119.99999424
_symmetry_Int_Tables_number   1
_chemical_formula_structural   Ba3Yb(BO3)3
_chemical_formula_sum   'Ba18 Yb6 B18 O54'
_cell_volume   1424.52683467
_cell_formula_units_Z   6
loop_
 _symmetry_equiv_pos_site_id
 _symmetry_equiv_pos_as_xyz
  1  'x, y, z'
loop_
 _atom_site_type_symbol
 _atom_site_label
 _atom_site_symmetry_multiplicity
 _atom_site_fract_x
 _atom_site_fract_y
 _atom_site_fract_z
 _atom_site_occupancy
  Ba  Ba0  1  0.68784800  0.68784800  0.87531600  1
  Ba  Ba1  1  0.00000000  0.68784800  0.37531600  1
  Ba  Ba2  1  0.68784800  0.00000000  0.37531600  1
  Ba  Ba3  1  0.31215200  0.00000000  0.87531600  1
  Ba  Ba4  1  0.00000000  0.31215200  0.87531600  1
  Ba  Ba5  1  0.31215200  0.31215200  0.37531600  1
  Ba  Ba6  1  0.64586800  0.64586800  0.62669800  1
  Ba  Ba7  1  0.00000000  0.64586800  0.12669800  1
  Ba  Ba8  1  0.64586800  0.00000000  0.12669800  1
  Ba  Ba9  1  0.35413200  0.00000000  0.62669800  1
  Ba  Ba10  1  0.00000000  0.35413200  0.62669800  1
  Ba  Ba11  1  0.35413200  0.35413200  0.12669800  1
  Ba  Ba12  1  0.00000000  0.00000000  0.21183800  1
  Ba  Ba13  1  0.66666700  0.33333300  0.78422000  1
  Ba  Ba14  1  0.33333300  0.66666700  0.78422000  1
  Ba  Ba15  1  0.66666700  0.33333300  0.28422000  1
  Ba  Ba16  1  0.00000000  0.00000000  0.71183800  1
  Ba  Ba17  1  0.33333300  0.66666700  0.28422000  1
  Yb  Yb18  1  0.33333300  0.66666700  0.99591200  1
  Yb  Yb19  1  0.66666700  0.33333300  0.49591200  1
  Yb  Yb20  1  0.33333300  0.66666700  0.49591200  1
  Yb  Yb21  1  0.66666700  0.33333300  0.99591200  1
  Yb  Yb22  1  0.00000000  0.00000000  0.50319500  1
  Yb  Yb23  1  0.00000000  0.00000000  0.00319500  1
  B  B24  1  0.32222800  0.32222800  0.57646200  1
  B  B25  1  0.65621200  0.65621200  0.41760100  1
  B  B26  1  0.00000000  0.65621200  0.91760100  1
  B  B27  1  0.65621200  0.00000000  0.91760100  1
  B  B28  1  0.34378800  0.00000000  0.41760100  1
  B  B29  1  0.00000000  0.34378800  0.41760100  1
  B  B30  1  0.34378800  0.34378800  0.91760100  1
  B  B31  1  0.66825900  0.66825900  0.24923400  1
  B  B32  1  0.00000000  0.66825900  0.74923400  1
  B  B33  1  0.66825900  0.00000000  0.74923400  1
  B  B34  1  0.33174100  0.00000000  0.24923400  1
  B  B35  1  0.00000000  0.33174100  0.24923400  1
  B  B36  1  0.33174100  0.33174100  0.74923400  1
  B  B37  1  0.67777200  0.67777200  0.07646200  1
  B  B38  1  0.00000000  0.67777200  0.57646200  1
  B  B39  1  0.67777200  0.00000000  0.57646200  1
  B  B40  1  0.32222800  0.00000000  0.07646200  1
  B  B41  1  0.00000000  0.32222800  0.07646200  1
  O  O42  1  0.14525100  0.67927700  0.57022900  1
  O  O43  1  0.00000000  0.52264600  0.74677600  1
  O  O44  1  0.52264600  0.00000000  0.74677600  1
  O  O45  1  0.47735400  0.00000000  0.24677600  1
  O  O46  1  0.00000000  0.47735400  0.24677600  1
  O  O47  1  0.81396400  0.14593200  0.75085600  1
  O  O48  1  0.79996600  0.79996600  0.43061200  1
  O  O49  1  0.34294700  0.48854300  0.91089800  1
  O  O50  1  0.85440400  0.34294700  0.41089800  1
  O  O51  1  0.48854300  0.14559600  0.41089800  1
  O  O52  1  0.51145700  0.85440400  0.91089800  1
  O  O53  1  0.14559600  0.65705300  0.91089800  1
  O  O54  1  0.65705300  0.51145700  0.41089800  1
  O  O55  1  0.14559600  0.48854300  0.41089800  1
  O  O56  1  0.34294700  0.85440400  0.41089800  1
  O  O57  1  0.51145700  0.65705300  0.41089800  1
  O  O58  1  0.48854300  0.34294700  0.91089800  1
  O  O59  1  0.85440400  0.51145700  0.91089800  1
  O  O60  1  0.65705300  0.14559600  0.91089800  1
  O  O61  1  0.20003400  0.20003400  0.93061200  1
  O  O62  1  0.00000000  0.20003400  0.43061200  1
  O  O63  1  0.20003400  0.00000000  0.43061200  1
  O  O64  1  0.79996600  0.00000000  0.93061200  1
  O  O65  1  0.00000000  0.79996600  0.93061200  1
  O  O66  1  0.17870900  0.17870900  0.58897700  1
  O  O67  1  0.00000000  0.17870900  0.08897700  1
  O  O68  1  0.17870900  0.00000000  0.08897700  1
  O  O69  1  0.82129100  0.00000000  0.58897700  1
  O  O70  1  0.00000000  0.82129100  0.58897700  1
  O  O71  1  0.82129100  0.82129100  0.08897700  1
  O  O72  1  0.32072300  0.46597400  0.57022900  1
  O  O73  1  0.85474900  0.32072300  0.07022900  1
  O  O74  1  0.46597400  0.14525100  0.07022900  1
  O  O75  1  0.53402600  0.85474900  0.57022900  1
  O  O76  1  0.52264600  0.52264600  0.24677600  1
  O  O77  1  0.67927700  0.53402600  0.07022900  1
  O  O78  1  0.14525100  0.46597400  0.07022900  1
  O  O79  1  0.32072300  0.85474900  0.07022900  1
  O  O80  1  0.53402600  0.67927700  0.07022900  1
  O  O81  1  0.46597400  0.32072300  0.57022900  1
  O  O82  1  0.85474900  0.53402600  0.57022900  1
  O  O83  1  0.67927700  0.14525100  0.57022900  1
  O  O84  1  0.18603600  0.33196800  0.75085600  1
  O  O85  1  0.85406800  0.18603600  0.25085600  1
  O  O86  1  0.33196800  0.14593200  0.25085600  1
  O  O87  1  0.66803200  0.85406800  0.75085600  1
  O  O88  1  0.14593200  0.81396400  0.75085600  1
  O  O89  1  0.81396400  0.66803200  0.25085600  1
  O  O90  1  0.14593200  0.33196800  0.25085600  1
  O  O91  1  0.18603600  0.85406800  0.25085600  1
  O  O92  1  0.66803200  0.81396400  0.25085600  1
  O  O93  1  0.33196800  0.18603600  0.75085600  1
  O  O94  1  0.85406800  0.66803200  0.75085600  1
  O  O95  1  0.47735400  0.47735400  0.74677600  1
