# generated using pymatgen
data_K16Zr12Se61
_symmetry_space_group_name_H-M   'P 1'
_cell_length_a   12.78152000
_cell_length_b   15.10427564
_cell_length_c   15.53200409
_cell_angle_alpha   73.71743881
_cell_angle_beta   76.89499307
_cell_angle_gamma   71.36115758
_symmetry_Int_Tables_number   1
_chemical_formula_structural   K16Zr12Se61
_chemical_formula_sum   'K16 Zr12 Se61'
_cell_volume   2696.13689034
_cell_formula_units_Z   1
loop_
 _symmetry_equiv_pos_site_id
 _symmetry_equiv_pos_as_xyz
  1  'x, y, z'
loop_
 _atom_site_type_symbol
 _atom_site_label
 _atom_site_symmetry_multiplicity
 _atom_site_fract_x
 _atom_site_fract_y
 _atom_site_fract_z
 _atom_site_occupancy
  K  K0  1  0.00522900  0.02935500  0.17559400  1
  K  K1  1  0.13167200  0.61442300  0.34684300  1
  K  K2  1  0.28263000  0.30055300  0.14297800  1
  K  K3  1  0.21377300  0.25268900  0.82592500  1
  K  K4  1  0.15528800  0.63607800  0.63863600  1
  K  K5  1  0.60028300  0.10353300  0.34054700  1
  K  K6  1  0.37237000  0.83245900  0.32046800  1
  K  K7  1  0.41810800  0.46201200  0.84992300  1
  K  K8  1  0.58254500  0.53843800  0.14812900  1
  K  K9  1  0.62840900  0.16758100  0.67969900  1
  K  K10  1  0.40156000  0.89500300  0.65961900  1
  K  K11  1  0.86487500  0.36523700  0.34702600  1
  K  K12  1  0.78741700  0.74754000  0.17467100  1
  K  K13  1  0.71778200  0.69941500  0.85541500  1
  K  K14  1  0.89003700  0.38760800  0.65273000  1
  K  K15  1  0.99398500  0.97058000  0.82483000  1
  Zr  Zr16  1  0.11682500  0.06573100  0.50114100  1
  Zr  Zr17  1  0.07628100  0.58333700  0.00338000  1
  Zr  Zr18  1  0.25354400  0.24893800  0.50387700  1
  Zr  Zr19  1  0.24314700  0.74229200  0.00585100  1
  Zr  Zr20  1  0.40537500  0.42445400  0.48720500  1
  Zr  Zr21  1  0.38291800  0.92973600  0.00632600  1
  Zr  Zr22  1  0.61687800  0.06859800  0.99605400  1
  Zr  Zr23  1  0.58143900  0.57534300  0.51351500  1
  Zr  Zr24  1  0.75693400  0.25676600  0.99441800  1
  Zr  Zr25  1  0.74399500  0.74926200  0.49711700  1
  Zr  Zr26  1  0.92373700  0.41630100  0.99715400  1
  Zr  Zr27  1  0.88335400  0.93239300  0.49889100  1
  Se  Se28  1  0.01545500  0.77862100  0.01998300  1
  Se  Se29  1  0.06767400  0.53608300  0.18328000  1
  Se  Se30  1  0.07191600  0.39278500  0.45159200  1
  Se  Se31  1  0.13155800  0.25319100  0.37983900  1
  Se  Se32  1  0.10656000  0.15293000  0.63512700  1
  Se  Se33  1  0.27114800  0.09240900  0.06974300  1
  Se  Se34  1  0.25271400  0.07296200  0.33471100  1
  Se  Se35  1  0.08665500  0.79937700  0.14559300  1
  Se  Se36  1  0.06928100  0.81810300  0.41539500  1
  Se  Se37  1  0.24665600  0.55196400  0.09974500  1
  Se  Se38  1  0.01475900  0.72305000  0.85323000  1
  Se  Se39  1  0.44661400  0.00892400  0.12330500  1
  Se  Se40  1  0.33936200  0.06943800  0.45909700  1
  Se  Se41  1  0.02287300  0.92280500  0.61685800  1
  Se  Se42  1  0.28850200  0.00964500  0.84909100  1
  Se  Se43  1  0.21459500  0.39717200  0.59807500  1
  Se  Se44  1  0.14328100  0.42105100  0.95366400  1
  Se  Se45  1  0.31839100  0.39150500  0.35714400  1
  Se  Se46  1  0.36965100  0.13130100  0.64170800  1
  Se  Se47  1  0.21391100  0.87206600  0.54907200  1
  Se  Se48  1  0.21237400  0.67654300  0.86146700  1
  Se  Se49  1  0.35845200  0.76800100  0.13333200  1
  Se  Se50  1  0.37361700  0.38447100  0.66881600  1
  Se  Se51  1  0.47428500  0.21540200  0.51121600  1
  Se  Se52  1  0.37186600  0.60720200  0.45975700  1
  Se  Se53  1  0.59399700  0.19654900  0.11880800  1
  Se  Se54  1  0.55341800  0.37018900  0.05102400  1
  Se  Se55  1  0.17099600  0.94028300  0.98231000  1
  Se  Se56  1  0.52083000  0.35837100  0.33487000  1
  Se  Se57  1  0.45088700  0.22432600  0.93148000  1
  Se  Se58  1  0.54890200  0.77436700  0.07094500  1
  Se  Se59  1  0.46731200  0.65501600  0.65912300  1
  Se  Se60  1  0.82899400  0.05835700  0.01944100  1
  Se  Se61  1  0.62612400  0.38664800  0.49633600  1
  Se  Se62  1  0.44687500  0.62892900  0.94931200  1
  Se  Se63  1  0.40620500  0.80286000  0.88248800  1
  Se  Se64  1  0.52223600  0.78071100  0.48798700  1
  Se  Se65  1  0.63326700  0.61569500  0.32809800  1
  Se  Se66  1  0.64143600  0.22926900  0.86913500  1
  Se  Se67  1  0.62881800  0.40750500  0.64250300  1
  Se  Se68  1  0.78816300  0.32287000  0.13879300  1
  Se  Se69  1  0.78734700  0.12682000  0.45114100  1
  Se  Se70  1  0.63143600  0.86547900  0.35793000  1
  Se  Se71  1  0.66731500  0.62052900  0.64620300  1
  Se  Se72  1  0.85712400  0.57866400  0.04667300  1
  Se  Se73  1  0.78168300  0.59484200  0.41036700  1
  Se  Se74  1  0.71249100  0.98916700  0.15287900  1
  Se  Se75  1  0.97788800  0.07607700  0.38310900  1
  Se  Se76  1  0.66012200  0.92949100  0.54024700  1
  Se  Se77  1  0.55224800  0.98987200  0.87877700  1
  Se  Se78  1  0.98606700  0.27609700  0.14693400  1
  Se  Se79  1  0.75376500  0.44752800  0.90069300  1
  Se  Se80  1  0.93121800  0.18185700  0.58275800  1
  Se  Se81  1  0.91313900  0.20086200  0.85411100  1
  Se  Se82  1  0.74650600  0.92715000  0.66467300  1
  Se  Se83  1  0.72828000  0.90659700  0.93135000  1
  Se  Se84  1  0.89289400  0.84640100  0.36484400  1
  Se  Se85  1  0.87137200  0.74549900  0.61859200  1
  Se  Se86  1  0.93107900  0.60920800  0.54393900  1
  Se  Se87  1  0.93213800  0.46581600  0.81779100  1
  Se  Se88  1  0.98483100  0.22084200  0.97922400  1
