# generated using pymatgen
data_BaSb3
_symmetry_space_group_name_H-M   'P 1'
_cell_length_a   6.98822635
_cell_length_b   6.98822635
_cell_length_c   6.57745572
_cell_angle_alpha   72.24896323
_cell_angle_beta   72.24896323
_cell_angle_gamma   76.26041302
_symmetry_Int_Tables_number   1
_chemical_formula_structural   BaSb3
_chemical_formula_sum   'Ba2 Sb6'
_cell_volume   287.63067810
_cell_formula_units_Z   2
loop_
 _symmetry_equiv_pos_site_id
 _symmetry_equiv_pos_as_xyz
  1  'x, y, z'
loop_
 _atom_site_type_symbol
 _atom_site_label
 _atom_site_symmetry_multiplicity
 _atom_site_fract_x
 _atom_site_fract_y
 _atom_site_fract_z
 _atom_site_occupancy
  Ba  Ba0  1  0.33463600  0.33463600  0.82140100  1
  Ba  Ba1  1  0.66536400  0.66536400  0.17859900  1
  Sb  Sb2  1  0.85774100  0.41691600  0.70274900  1
  Sb  Sb3  1  0.58308400  0.14225900  0.29725100  1
  Sb  Sb4  1  0.98728700  0.98728700  0.72855700  1
  Sb  Sb5  1  0.01271300  0.01271300  0.27144300  1
  Sb  Sb6  1  0.41691600  0.85774100  0.70274900  1
  Sb  Sb7  1  0.14225900  0.58308400  0.29725100  1
