# generated using pymatgen
data_K2Zr(SiO3)3
_symmetry_space_group_name_H-M   'P 1'
_cell_length_a   7.03006535
_cell_length_b   7.03006535
_cell_length_c   10.36447900
_cell_angle_alpha   90.00000000
_cell_angle_beta   90.00000000
_cell_angle_gamma   119.99999392
_symmetry_Int_Tables_number   1
_chemical_formula_structural   K2Zr(SiO3)3
_chemical_formula_sum   'K4 Zr2 Si6 O18'
_cell_volume   443.60543558
_cell_formula_units_Z   2
loop_
 _symmetry_equiv_pos_site_id
 _symmetry_equiv_pos_as_xyz
  1  'x, y, z'
loop_
 _atom_site_type_symbol
 _atom_site_label
 _atom_site_symmetry_multiplicity
 _atom_site_fract_x
 _atom_site_fract_y
 _atom_site_fract_z
 _atom_site_occupancy
  K  K0  1  0.33333300  0.66666700  0.05707500  1
  K  K1  1  0.66666700  0.33333300  0.55707500  1
  K  K2  1  0.33333300  0.66666700  0.44292500  1
  K  K3  1  0.66666700  0.33333300  0.94292500  1
  Zr  Zr4  1  0.00000000  0.00000000  0.00000000  1
  Zr  Zr5  1  0.00000000  0.00000000  0.50000000  1
  Si  Si6  1  0.61326500  0.74057200  0.75000000  1
  Si  Si7  1  0.87269300  0.61326500  0.25000000  1
  Si  Si8  1  0.74057200  0.12730700  0.25000000  1
  Si  Si9  1  0.25942800  0.87269300  0.75000000  1
  Si  Si10  1  0.12730700  0.38673500  0.75000000  1
  Si  Si11  1  0.38673500  0.25942800  0.25000000  1
  O  O12  1  0.25632400  0.23562100  0.38312000  1
  O  O13  1  0.02070300  0.25632400  0.88312000  1
  O  O14  1  0.23562100  0.97929700  0.88312000  1
  O  O15  1  0.76437900  0.02070300  0.38312000  1
  O  O16  1  0.97929700  0.74367600  0.38312000  1
  O  O17  1  0.74367600  0.76437900  0.88312000  1
  O  O18  1  0.74367600  0.76437900  0.61688000  1
  O  O19  1  0.97929700  0.74367600  0.11688000  1
  O  O20  1  0.76437900  0.02070300  0.11688000  1
  O  O21  1  0.23562100  0.97929700  0.61688000  1
  O  O22  1  0.02070300  0.25632400  0.61688000  1
  O  O23  1  0.25632400  0.23562100  0.11688000  1
  O  O24  1  0.48638300  0.08926500  0.25000000  1
  O  O25  1  0.39711800  0.48638300  0.75000000  1
  O  O26  1  0.08926500  0.60288200  0.75000000  1
  O  O27  1  0.91073500  0.39711800  0.25000000  1
  O  O28  1  0.60288200  0.51361700  0.25000000  1
  O  O29  1  0.51361700  0.91073500  0.75000000  1
