# generated using pymatgen
data_Ca4In3Au10
_symmetry_space_group_name_H-M   'P 1'
_cell_length_a   8.66779839
_cell_length_b   8.66779839
_cell_length_c   10.32359000
_cell_angle_alpha   90.00000000
_cell_angle_beta   90.00000000
_cell_angle_gamma   107.70589388
_symmetry_Int_Tables_number   1
_chemical_formula_structural   Ca4In3Au10
_chemical_formula_sum   'Ca8 In6 Au20'
_cell_volume   738.87793347
_cell_formula_units_Z   2
loop_
 _symmetry_equiv_pos_site_id
 _symmetry_equiv_pos_as_xyz
  1  'x, y, z'
loop_
 _atom_site_type_symbol
 _atom_site_label
 _atom_site_symmetry_multiplicity
 _atom_site_fract_x
 _atom_site_fract_y
 _atom_site_fract_z
 _atom_site_occupancy
  Ca  Ca0  1  0.69747600  0.30252400  0.00000000  1
  Ca  Ca1  1  0.19747600  0.80252400  0.50000000  1
  Ca  Ca2  1  0.80289300  0.80289300  0.29788200  1
  Ca  Ca3  1  0.30289300  0.30289300  0.20211800  1
  Ca  Ca4  1  0.80252400  0.19747600  0.50000000  1
  Ca  Ca5  1  0.30252400  0.69747600  0.00000000  1
  Ca  Ca6  1  0.69710700  0.69710700  0.79788200  1
  Ca  Ca7  1  0.19710700  0.19710700  0.70211800  1
  In  In8  1  0.51933500  0.01933500  0.25000000  1
  In  In9  1  0.98066500  0.48066500  0.75000000  1
  In  In10  1  0.00000000  0.00000000  0.00000000  1
  In  In11  1  0.01933500  0.51933500  0.25000000  1
  In  In12  1  0.48066500  0.98066500  0.75000000  1
  In  In13  1  0.50000000  0.50000000  0.50000000  1
  Au  Au14  1  0.15179400  0.43403600  0.48191800  1
  Au  Au15  1  0.90181700  0.90181700  0.59580400  1
  Au  Au16  1  0.56596400  0.84820600  0.51808200  1
  Au  Au17  1  0.88588000  0.16862800  0.20748200  1
  Au  Au18  1  0.38588000  0.66862800  0.29251800  1
  Au  Au19  1  0.66862800  0.38588000  0.29251800  1
  Au  Au20  1  0.40181700  0.40181700  0.90419600  1
  Au  Au21  1  0.93403600  0.65179400  0.01808200  1
  Au  Au22  1  0.33137200  0.61412000  0.70748200  1
  Au  Au23  1  0.34820600  0.06596400  0.98191800  1
  Au  Au24  1  0.59818300  0.59818300  0.09580400  1
  Au  Au25  1  0.65179400  0.93403600  0.01808200  1
  Au  Au26  1  0.09818300  0.09818300  0.40419600  1
  Au  Au27  1  0.61412000  0.33137200  0.70748200  1
  Au  Au28  1  0.11412000  0.83137200  0.79251800  1
  Au  Au29  1  0.06596400  0.34820600  0.98191800  1
  Au  Au30  1  0.84820600  0.56596400  0.51808200  1
  Au  Au31  1  0.16862800  0.88588000  0.20748200  1
  Au  Au32  1  0.43403600  0.15179400  0.48191800  1
  Au  Au33  1  0.83137200  0.11412000  0.79251800  1
