# generated using pymatgen
data_RbTa(CuTe2)2
_symmetry_space_group_name_H-M   'P 1'
_cell_length_a   6.02425600
_cell_length_b   8.25062600
_cell_length_c   20.49239300
_cell_angle_alpha   90.00000000
_cell_angle_beta   90.00000000
_cell_angle_gamma   90.00000000
_symmetry_Int_Tables_number   1
_chemical_formula_structural   RbTa(CuTe2)2
_chemical_formula_sum   'Rb4 Ta4 Cu8 Te16'
_cell_volume   1018.55150784
_cell_formula_units_Z   4
loop_
 _symmetry_equiv_pos_site_id
 _symmetry_equiv_pos_as_xyz
  1  'x, y, z'
loop_
 _atom_site_type_symbol
 _atom_site_label
 _atom_site_symmetry_multiplicity
 _atom_site_fract_x
 _atom_site_fract_y
 _atom_site_fract_z
 _atom_site_occupancy
  Rb  Rb0  1  0.74267800  0.25649700  0.06343500  1
  Rb  Rb1  1  0.24267800  0.24350300  0.56343500  1
  Rb  Rb2  1  0.24267800  0.74350300  0.93656500  1
  Rb  Rb3  1  0.74267800  0.75649700  0.43656500  1
  Ta  Ta4  1  0.49954400  0.75533400  0.14514900  1
  Ta  Ta5  1  0.99954400  0.74466600  0.64514900  1
  Ta  Ta6  1  0.99954400  0.24466600  0.85485100  1
  Ta  Ta7  1  0.49954400  0.25533400  0.35485100  1
  Cu  Cu8  1  0.50005100  0.24487700  0.85514500  1
  Cu  Cu9  1  0.00005100  0.25512300  0.35514500  1
  Cu  Cu10  1  0.98858900  0.49645300  0.75083100  1
  Cu  Cu11  1  0.48858900  0.50354700  0.24916900  1
  Cu  Cu12  1  0.50005100  0.74487700  0.64485500  1
  Cu  Cu13  1  0.48858900  0.00354700  0.25083100  1
  Cu  Cu14  1  0.98858900  0.99645300  0.74916900  1
  Cu  Cu15  1  0.00005100  0.75512300  0.14485500  1
  Te  Te16  1  0.24724900  0.99415700  0.35732900  1
  Te  Te17  1  0.25756800  0.74640400  0.75086700  1
  Te  Te18  1  0.25756800  0.24640400  0.74913300  1
  Te  Te19  1  0.74724900  0.50584300  0.85732900  1
  Te  Te20  1  0.74704400  0.98360100  0.85531800  1
  Te  Te21  1  0.24927700  0.74112900  0.54003700  1
  Te  Te22  1  0.75756800  0.25359600  0.24913300  1
  Te  Te23  1  0.74927700  0.75887100  0.04003700  1
  Te  Te24  1  0.74704400  0.48360100  0.64468200  1
  Te  Te25  1  0.74927700  0.25887100  0.45996300  1
  Te  Te26  1  0.24704400  0.51639900  0.35531800  1
  Te  Te27  1  0.74724900  0.00584300  0.64267100  1
  Te  Te28  1  0.24927700  0.24112900  0.95996300  1
  Te  Te29  1  0.24724900  0.49415700  0.14267100  1
  Te  Te30  1  0.75756800  0.75359600  0.25086700  1
  Te  Te31  1  0.24704400  0.01639900  0.14468200  1
