# generated using pymatgen
data_Sb2S2O9
_symmetry_space_group_name_H-M   'P 1'
_cell_length_a   6.68327100
_cell_length_b   6.68327100
_cell_length_c   17.38567600
_cell_angle_alpha   90.00000000
_cell_angle_beta   90.00000000
_cell_angle_gamma   90.00000000
_symmetry_Int_Tables_number   1
_chemical_formula_structural   Sb2S2O9
_chemical_formula_sum   'Sb8 S8 O36'
_cell_volume   776.55053854
_cell_formula_units_Z   4
loop_
 _symmetry_equiv_pos_site_id
 _symmetry_equiv_pos_as_xyz
  1  'x, y, z'
loop_
 _atom_site_type_symbol
 _atom_site_label
 _atom_site_symmetry_multiplicity
 _atom_site_fract_x
 _atom_site_fract_y
 _atom_site_fract_z
 _atom_site_occupancy
  Sb  Sb0  1  0.84825500  0.97849800  0.34302600  1
  Sb  Sb1  1  0.97849800  0.84825500  0.65697400  1
  Sb  Sb2  1  0.15174500  0.02150200  0.84302600  1
  Sb  Sb3  1  0.02150200  0.15174500  0.15697400  1
  Sb  Sb4  1  0.52150200  0.34825500  0.59302600  1
  Sb  Sb5  1  0.65174500  0.47849800  0.90697400  1
  Sb  Sb6  1  0.47849800  0.65174500  0.09302600  1
  Sb  Sb7  1  0.34825500  0.52150200  0.40697400  1
  S  S8  1  0.35477800  0.03660800  0.30417400  1
  S  S9  1  0.03660800  0.35477800  0.69582600  1
  S  S10  1  0.46339200  0.85477800  0.55417400  1
  S  S11  1  0.14522200  0.53660800  0.94582600  1
  S  S12  1  0.53660800  0.14522200  0.05417400  1
  S  S13  1  0.96339200  0.64522200  0.19582600  1
  S  S14  1  0.85477800  0.46339200  0.44582600  1
  S  S15  1  0.64522200  0.96339200  0.80417400  1
  O  O16  1  0.29799600  0.95313400  0.59671400  1
  O  O17  1  0.70813600  0.89137800  0.72570900  1
  O  O18  1  0.32563500  0.46153900  0.90217500  1
  O  O19  1  0.50172200  0.13044100  0.79581300  1
  O  O20  1  0.36955900  0.00172200  0.04581300  1
  O  O21  1  0.35958400  0.35958400  0.50000000  1
  O  O22  1  0.10862200  0.29186400  0.77429100  1
  O  O23  1  0.45313400  0.20200400  0.34671400  1
  O  O24  1  0.04686600  0.70200400  0.90328600  1
  O  O25  1  0.85958400  0.14041600  0.25000000  1
  O  O26  1  0.95313400  0.29799600  0.40328600  1
  O  O27  1  0.82563500  0.03846100  0.84782500  1
  O  O28  1  0.17436500  0.96153900  0.34782500  1
  O  O29  1  0.03846100  0.82563500  0.15217500  1
  O  O30  1  0.49827800  0.86955900  0.29581300  1
  O  O31  1  0.63044100  0.99827800  0.54581300  1
  O  O32  1  0.79799600  0.54686600  0.15328600  1
  O  O33  1  0.70200400  0.04686600  0.09671400  1
  O  O34  1  0.79186400  0.39137800  0.52429100  1
  O  O35  1  0.20200400  0.45313400  0.65328600  1
  O  O36  1  0.13044100  0.50172200  0.20418700  1
  O  O37  1  0.00172200  0.36955900  0.95418700  1
  O  O38  1  0.64041600  0.64041600  0.00000000  1
  O  O39  1  0.46153900  0.32563500  0.09782500  1
  O  O40  1  0.89137800  0.70813600  0.27429100  1
  O  O41  1  0.53846100  0.67436500  0.59782500  1
  O  O42  1  0.86955900  0.49827800  0.70418700  1
  O  O43  1  0.39137800  0.79186400  0.47570900  1
  O  O44  1  0.29186400  0.10862200  0.22570900  1
  O  O45  1  0.20813600  0.60862200  0.02429100  1
  O  O46  1  0.99827800  0.63044100  0.45418700  1
  O  O47  1  0.67436500  0.53846100  0.40217500  1
  O  O48  1  0.96153900  0.17436500  0.65217500  1
  O  O49  1  0.54686600  0.79799600  0.84671400  1
  O  O50  1  0.14041600  0.85958400  0.75000000  1
  O  O51  1  0.60862200  0.20813600  0.97570900  1
