# generated using pymatgen
data_Ba5Os3NO18
_symmetry_space_group_name_H-M   'P 1'
_cell_length_a   11.48137439
_cell_length_b   11.48137439
_cell_length_c   7.85876600
_cell_angle_alpha   90.00000000
_cell_angle_beta   90.00000000
_cell_angle_gamma   120.00000222
_symmetry_Int_Tables_number   1
_chemical_formula_structural   Ba5Os3NO18
_chemical_formula_sum   'Ba10 Os6 N2 O36'
_cell_volume   897.16585581
_cell_formula_units_Z   2
loop_
 _symmetry_equiv_pos_site_id
 _symmetry_equiv_pos_as_xyz
  1  'x, y, z'
loop_
 _atom_site_type_symbol
 _atom_site_label
 _atom_site_symmetry_multiplicity
 _atom_site_fract_x
 _atom_site_fract_y
 _atom_site_fract_z
 _atom_site_occupancy
  Ba  Ba0  1  0.72025300  0.72025300  0.74536600  1
  Ba  Ba1  1  0.72025300  0.00000000  0.24536600  1
  Ba  Ba2  1  0.00000000  0.27974700  0.74536600  1
  Ba  Ba3  1  0.27974700  0.27974700  0.24536600  1
  Ba  Ba4  1  0.66666700  0.33333300  0.50631600  1
  Ba  Ba5  1  0.00000000  0.72025300  0.24536600  1
  Ba  Ba6  1  0.27974700  0.00000000  0.74536600  1
  Ba  Ba7  1  0.33333300  0.66666700  0.50631600  1
  Ba  Ba8  1  0.66666700  0.33333300  0.00631600  1
  Ba  Ba9  1  0.33333300  0.66666700  0.00631600  1
  Os  Os10  1  0.00000000  0.39507900  0.29445400  1
  Os  Os11  1  0.60492100  0.60492100  0.29445400  1
  Os  Os12  1  0.00000000  0.60492100  0.79445400  1
  Os  Os13  1  0.39507900  0.00000000  0.29445400  1
  Os  Os14  1  0.60492100  0.00000000  0.79445400  1
  Os  Os15  1  0.39507900  0.39507900  0.79445400  1
  N  N16  1  0.00000000  0.00000000  0.46182500  1
  N  N17  1  0.00000000  0.00000000  0.96182500  1
  O  O18  1  0.88953600  0.00000000  0.95946000  1
  O  O19  1  0.00000000  0.11046400  0.45946000  1
  O  O20  1  0.45032500  0.87184700  0.26458100  1
  O  O21  1  0.73061500  0.60278700  0.44151100  1
  O  O22  1  0.87184700  0.42152200  0.76458100  1
  O  O23  1  0.45032500  0.57847800  0.76458100  1
  O  O24  1  0.69381300  0.00000000  0.61371700  1
  O  O25  1  0.00000000  0.88953600  0.95946000  1
  O  O26  1  0.12815300  0.54967500  0.76458100  1
  O  O27  1  0.42152200  0.87184700  0.76458100  1
  O  O28  1  0.26938500  0.87217200  0.44151100  1
  O  O29  1  0.69381300  0.69381300  0.11371700  1
  O  O30  1  0.11046400  0.00000000  0.45946000  1
  O  O31  1  0.60278700  0.87217200  0.94151100  1
  O  O32  1  0.57847800  0.12815300  0.26458100  1
  O  O33  1  0.54967500  0.42152200  0.26458100  1
  O  O34  1  0.12782800  0.73061500  0.94151100  1
  O  O35  1  0.26938500  0.39721300  0.94151100  1
  O  O36  1  0.30618700  0.30618700  0.61371700  1
  O  O37  1  0.87217200  0.60278700  0.94151100  1
  O  O38  1  0.39721300  0.12782800  0.44151100  1
  O  O39  1  0.11046400  0.11046400  0.95946000  1
  O  O40  1  0.00000000  0.30618700  0.11371700  1
  O  O41  1  0.60278700  0.73061500  0.44151100  1
  O  O42  1  0.73061500  0.12782800  0.94151100  1
  O  O43  1  0.87217200  0.26938500  0.44151100  1
  O  O44  1  0.00000000  0.69381300  0.61371700  1
  O  O45  1  0.12815300  0.57847800  0.26458100  1
  O  O46  1  0.12782800  0.39721300  0.44151100  1
  O  O47  1  0.57847800  0.45032500  0.76458100  1
  O  O48  1  0.39721300  0.26938500  0.94151100  1
  O  O49  1  0.42152200  0.54967500  0.26458100  1
  O  O50  1  0.54967500  0.12815300  0.76458100  1
  O  O51  1  0.30618700  0.00000000  0.11371700  1
  O  O52  1  0.88953600  0.88953600  0.45946000  1
  O  O53  1  0.87184700  0.45032500  0.26458100  1
