# generated using pymatgen
data_Hf2Nb3Ge4
_symmetry_space_group_name_H-M   'P 1'
_cell_length_a   6.82164000
_cell_length_b   6.98005100
_cell_length_c   13.26900600
_cell_angle_alpha   90.00000000
_cell_angle_beta   90.00000000
_cell_angle_gamma   90.00000000
_symmetry_Int_Tables_number   1
_chemical_formula_structural   Hf2Nb3Ge4
_chemical_formula_sum   'Hf8 Nb12 Ge16'
_cell_volume   631.80896332
_cell_formula_units_Z   4
loop_
 _symmetry_equiv_pos_site_id
 _symmetry_equiv_pos_as_xyz
  1  'x, y, z'
loop_
 _atom_site_type_symbol
 _atom_site_label
 _atom_site_symmetry_multiplicity
 _atom_site_fract_x
 _atom_site_fract_y
 _atom_site_fract_z
 _atom_site_occupancy
  Hf  Hf0  1  0.48731600  0.67462400  0.59094000  1
  Hf  Hf1  1  0.98731600  0.82537600  0.90906000  1
  Hf  Hf2  1  0.51268400  0.32537600  0.09094000  1
  Hf  Hf3  1  0.01268400  0.17462400  0.40906000  1
  Hf  Hf4  1  0.51268400  0.32537600  0.40906000  1
  Hf  Hf5  1  0.01268400  0.17462400  0.09094000  1
  Hf  Hf6  1  0.48731600  0.67462400  0.90906000  1
  Hf  Hf7  1  0.98731600  0.82537600  0.59094000  1
  Nb  Nb8  1  0.65871800  0.16485000  0.62458500  1
  Nb  Nb9  1  0.15871800  0.33515000  0.87541500  1
  Nb  Nb10  1  0.34128200  0.83515000  0.12458500  1
  Nb  Nb11  1  0.84128200  0.66485000  0.37541500  1
  Nb  Nb12  1  0.34128200  0.83515000  0.37541500  1
  Nb  Nb13  1  0.84128200  0.66485000  0.12458500  1
  Nb  Nb14  1  0.65871800  0.16485000  0.87541500  1
  Nb  Nb15  1  0.15871800  0.33515000  0.62458500  1
  Nb  Nb16  1  0.83370100  0.49517800  0.75000000  1
  Nb  Nb17  1  0.33370100  0.00482200  0.75000000  1
  Nb  Nb18  1  0.16629900  0.50482200  0.25000000  1
  Nb  Nb19  1  0.66629900  0.99517800  0.25000000  1
  Ge  Ge20  1  0.68412800  0.96178700  0.45928400  1
  Ge  Ge21  1  0.18412800  0.53821300  0.04071600  1
  Ge  Ge22  1  0.31587200  0.03821300  0.95928400  1
  Ge  Ge23  1  0.81587200  0.46178700  0.54071600  1
  Ge  Ge24  1  0.31587200  0.03821300  0.54071600  1
  Ge  Ge25  1  0.81587200  0.46178700  0.95928400  1
  Ge  Ge26  1  0.68412800  0.96178700  0.04071600  1
  Ge  Ge27  1  0.18412800  0.53821300  0.45928400  1
  Ge  Ge28  1  0.46133300  0.38711300  0.75000000  1
  Ge  Ge29  1  0.96133300  0.11288700  0.75000000  1
  Ge  Ge30  1  0.53866700  0.61288700  0.25000000  1
  Ge  Ge31  1  0.03866700  0.88711300  0.25000000  1
  Ge  Ge32  1  0.69064000  0.85071700  0.75000000  1
  Ge  Ge33  1  0.19064000  0.64928300  0.75000000  1
  Ge  Ge34  1  0.30936000  0.14928300  0.25000000  1
  Ge  Ge35  1  0.80936000  0.35071700  0.25000000  1
