# generated using pymatgen
data_CeSiHRu
_symmetry_space_group_name_H-M   'P 1'
_cell_length_a   4.17474600
_cell_length_b   4.17474600
_cell_length_c   7.23040900
_cell_angle_alpha   90.00000000
_cell_angle_beta   90.00000000
_cell_angle_gamma   90.00000000
_symmetry_Int_Tables_number   1
_chemical_formula_structural   CeSiHRu
_chemical_formula_sum   'Ce2 Si2 H2 Ru2'
_cell_volume   126.01521337
_cell_formula_units_Z   2
loop_
 _symmetry_equiv_pos_site_id
 _symmetry_equiv_pos_as_xyz
  1  'x, y, z'
loop_
 _atom_site_type_symbol
 _atom_site_label
 _atom_site_symmetry_multiplicity
 _atom_site_fract_x
 _atom_site_fract_y
 _atom_site_fract_z
 _atom_site_occupancy
  Ce  Ce0  1  0.50000000  0.00000000  0.66962100  1
  Ce  Ce1  1  0.00000000  0.50000000  0.33037900  1
  Si  Si2  1  0.50000000  0.00000000  0.16298200  1
  Si  Si3  1  0.00000000  0.50000000  0.83701800  1
  H  H4  1  0.00000000  0.00000000  0.50000000  1
  H  H5  1  0.50000000  0.50000000  0.50000000  1
  Ru  Ru6  1  0.00000000  0.00000000  0.00000000  1
  Ru  Ru7  1  0.50000000  0.50000000  0.00000000  1
