# generated using pymatgen
data_Eu(InAu)3
_symmetry_space_group_name_H-M   'P 1'
_cell_length_a   4.59343500
_cell_length_b   7.77202000
_cell_length_c   9.18512300
_cell_angle_alpha   90.00000000
_cell_angle_beta   90.00000000
_cell_angle_gamma   90.00000000
_symmetry_Int_Tables_number   1
_chemical_formula_structural   Eu(InAu)3
_chemical_formula_sum   'Eu2 In6 Au6'
_cell_volume   327.91135904
_cell_formula_units_Z   2
loop_
 _symmetry_equiv_pos_site_id
 _symmetry_equiv_pos_as_xyz
  1  'x, y, z'
loop_
 _atom_site_type_symbol
 _atom_site_label
 _atom_site_symmetry_multiplicity
 _atom_site_fract_x
 _atom_site_fract_y
 _atom_site_fract_z
 _atom_site_occupancy
  Eu  Eu0  1  0.00000000  0.50000000  0.27001600  1
  Eu  Eu1  1  0.50000000  0.00000000  0.72998400  1
  In  In2  1  0.50000000  0.50000000  0.63372100  1
  In  In3  1  0.00000000  0.30138800  0.88379700  1
  In  In4  1  0.00000000  0.69861200  0.88379700  1
  In  In5  1  0.50000000  0.80138800  0.11620300  1
  In  In6  1  0.00000000  0.00000000  0.36627900  1
  In  In7  1  0.50000000  0.19861200  0.11620300  1
  Au  Au8  1  0.00000000  0.72878700  0.58789100  1
  Au  Au9  1  0.50000000  0.50000000  0.95237700  1
  Au  Au10  1  0.00000000  0.27121300  0.58789100  1
  Au  Au11  1  0.50000000  0.77121300  0.41210900  1
  Au  Au12  1  0.00000000  0.00000000  0.04762300  1
  Au  Au13  1  0.50000000  0.22878700  0.41210900  1
