# generated using pymatgen
data_TlV2SbO8
_symmetry_space_group_name_H-M   'P 1'
_cell_length_a   5.66482600
_cell_length_b   8.82748900
_cell_length_c   14.93464600
_cell_angle_alpha   90.00000000
_cell_angle_beta   90.00000000
_cell_angle_gamma   90.00000000
_symmetry_Int_Tables_number   1
_chemical_formula_structural   TlV2SbO8
_chemical_formula_sum   'Tl4 V8 Sb4 O32'
_cell_volume   746.82473354
_cell_formula_units_Z   4
loop_
 _symmetry_equiv_pos_site_id
 _symmetry_equiv_pos_as_xyz
  1  'x, y, z'
loop_
 _atom_site_type_symbol
 _atom_site_label
 _atom_site_symmetry_multiplicity
 _atom_site_fract_x
 _atom_site_fract_y
 _atom_site_fract_z
 _atom_site_occupancy
  Tl  Tl0  1  0.75000000  0.05857500  0.38563400  1
  Tl  Tl1  1  0.25000000  0.55857500  0.11436600  1
  Tl  Tl2  1  0.25000000  0.94142500  0.61436600  1
  Tl  Tl3  1  0.75000000  0.44142500  0.88563400  1
  V  V4  1  0.75000000  0.00907000  0.78237500  1
  V  V5  1  0.75000000  0.79597300  0.02567200  1
  V  V6  1  0.25000000  0.20402700  0.97432800  1
  V  V7  1  0.25000000  0.99093000  0.21762500  1
  V  V8  1  0.25000000  0.29597300  0.47432800  1
  V  V9  1  0.25000000  0.50907000  0.71762500  1
  V  V10  1  0.75000000  0.49093000  0.28237500  1
  V  V11  1  0.75000000  0.70402700  0.52567200  1
  Sb  Sb12  1  0.75000000  0.18130600  0.12175100  1
  Sb  Sb13  1  0.75000000  0.31869400  0.62175100  1
  Sb  Sb14  1  0.25000000  0.81869400  0.87824900  1
  Sb  Sb15  1  0.25000000  0.68130600  0.37824900  1
  O  O16  1  0.99556500  0.26269800  0.03854000  1
  O  O17  1  0.75000000  0.80877200  0.61662200  1
  O  O18  1  0.00958700  0.60697300  0.29032800  1
  O  O19  1  0.50958700  0.10697300  0.20967200  1
  O  O20  1  0.99556500  0.23730200  0.53854000  1
  O  O21  1  0.49041300  0.89302700  0.79032800  1
  O  O22  1  0.50443500  0.26269800  0.03854000  1
  O  O23  1  0.00443500  0.73730200  0.96146000  1
  O  O24  1  0.25000000  0.01113400  0.94825900  1
  O  O25  1  0.75000000  0.11511000  0.68045300  1
  O  O26  1  0.50443500  0.23730200  0.53854000  1
  O  O27  1  0.75000000  0.12636600  0.86678000  1
  O  O28  1  0.75000000  0.37363400  0.36678000  1
  O  O29  1  0.00443500  0.76269800  0.46146000  1
  O  O30  1  0.25000000  0.30877200  0.88337800  1
  O  O31  1  0.25000000  0.87363400  0.13322000  1
  O  O32  1  0.99041300  0.10697300  0.20967200  1
  O  O33  1  0.00958700  0.89302700  0.79032800  1
  O  O34  1  0.75000000  0.38489000  0.18045300  1
  O  O35  1  0.99041300  0.39302700  0.70967200  1
  O  O36  1  0.25000000  0.62636600  0.63322000  1
  O  O37  1  0.49556500  0.76269800  0.46146000  1
  O  O38  1  0.75000000  0.69122800  0.11662200  1
  O  O39  1  0.25000000  0.48886600  0.44825900  1
  O  O40  1  0.75000000  0.51113400  0.55174100  1
  O  O41  1  0.25000000  0.61511000  0.81954700  1
  O  O42  1  0.75000000  0.98886600  0.05174100  1
  O  O43  1  0.49041300  0.60697300  0.29032800  1
  O  O44  1  0.25000000  0.88489000  0.31954700  1
  O  O45  1  0.25000000  0.19122800  0.38337800  1
  O  O46  1  0.50958700  0.39302700  0.70967200  1
  O  O47  1  0.49556500  0.73730200  0.96146000  1
