# generated using pymatgen
data_Cs4Zr3S14
_symmetry_space_group_name_H-M   'P 1'
_cell_length_a   12.05130754
_cell_length_b   12.05130754
_cell_length_c   14.34543353
_cell_angle_alpha   68.77559768
_cell_angle_beta   68.77559768
_cell_angle_gamma   42.37303638
_symmetry_Int_Tables_number   1
_chemical_formula_structural   Cs4Zr3S14
_chemical_formula_sum   'Cs8 Zr6 S28'
_cell_volume   1293.98922123
_cell_formula_units_Z   2
loop_
 _symmetry_equiv_pos_site_id
 _symmetry_equiv_pos_as_xyz
  1  'x, y, z'
loop_
 _atom_site_type_symbol
 _atom_site_label
 _atom_site_symmetry_multiplicity
 _atom_site_fract_x
 _atom_site_fract_y
 _atom_site_fract_z
 _atom_site_occupancy
  Cs  Cs0  1  0.47630800  0.11287000  0.61174700  1
  Cs  Cs1  1  0.17684900  0.70071300  0.64375100  1
  Cs  Cs2  1  0.88713000  0.52369200  0.88825300  1
  Cs  Cs3  1  0.29928700  0.82315100  0.85624900  1
  Cs  Cs4  1  0.52369200  0.88713000  0.38825300  1
  Cs  Cs5  1  0.82315100  0.29928700  0.35624900  1
  Cs  Cs6  1  0.11287000  0.47630800  0.11174700  1
  Cs  Cs7  1  0.70071300  0.17684900  0.14375100  1
  Zr  Zr8  1  0.58032800  0.08390000  0.91420800  1
  Zr  Zr9  1  0.26291500  0.73708500  0.25000000  1
  Zr  Zr10  1  0.08390000  0.58032800  0.41420800  1
  Zr  Zr11  1  0.91610000  0.41967200  0.58579200  1
  Zr  Zr12  1  0.41967200  0.91610000  0.08579200  1
  Zr  Zr13  1  0.73708500  0.26291500  0.75000000  1
  S  S14  1  0.73673400  0.07149100  0.71082000  1
  S  S15  1  0.56187200  0.60848200  0.13126900  1
  S  S16  1  0.01682600  0.84491700  0.41217100  1
  S  S17  1  0.29784300  0.61836300  0.11251000  1
  S  S18  1  0.84491700  0.01682600  0.91217100  1
  S  S19  1  0.43812800  0.39151800  0.86873100  1
  S  S20  1  0.65239600  0.68140000  0.66418200  1
  S  S21  1  0.31860000  0.34760400  0.83581800  1
  S  S22  1  0.50534600  0.93774900  0.90118300  1
  S  S23  1  0.60848200  0.56187200  0.63126900  1
  S  S24  1  0.10156200  0.18189100  0.11043100  1
  S  S25  1  0.49465400  0.06225100  0.09881700  1
  S  S26  1  0.98317400  0.15508300  0.58782900  1
  S  S27  1  0.92850900  0.26326600  0.78918000  1
  S  S28  1  0.70215700  0.38163700  0.88749000  1
  S  S29  1  0.18189100  0.10156200  0.61043100  1
  S  S30  1  0.93775000  0.50534600  0.40118300  1
  S  S31  1  0.68140000  0.65239600  0.16418200  1
  S  S32  1  0.38163700  0.70215700  0.38749000  1
  S  S33  1  0.81810900  0.89843800  0.38956900  1
  S  S34  1  0.39151800  0.43812800  0.36873100  1
  S  S35  1  0.61836300  0.29784300  0.61251000  1
  S  S36  1  0.06225000  0.49465400  0.59881700  1
  S  S37  1  0.15508300  0.98317400  0.08782900  1
  S  S38  1  0.07149100  0.73673400  0.21082000  1
  S  S39  1  0.34760400  0.31860000  0.33581800  1
  S  S40  1  0.26326600  0.92850900  0.28918000  1
  S  S41  1  0.89843800  0.81810900  0.88956900  1
