# generated using pymatgen
data_Ce2InNi2
_symmetry_space_group_name_H-M   'P 1'
_cell_length_a   7.53116800
_cell_length_b   7.53116800
_cell_length_c   3.65898000
_cell_angle_alpha   90.00000000
_cell_angle_beta   90.00000000
_cell_angle_gamma   90.00000000
_symmetry_Int_Tables_number   1
_chemical_formula_structural   Ce2InNi2
_chemical_formula_sum   'Ce4 In2 Ni4'
_cell_volume   207.53182582
_cell_formula_units_Z   2
loop_
 _symmetry_equiv_pos_site_id
 _symmetry_equiv_pos_as_xyz
  1  'x, y, z'
loop_
 _atom_site_type_symbol
 _atom_site_label
 _atom_site_symmetry_multiplicity
 _atom_site_fract_x
 _atom_site_fract_y
 _atom_site_fract_z
 _atom_site_occupancy
  Ce  Ce0  1  0.67387300  0.17387300  0.50000000  1
  Ce  Ce1  1  0.17387300  0.32612700  0.50000000  1
  Ce  Ce2  1  0.82612700  0.67387300  0.50000000  1
  Ce  Ce3  1  0.32612700  0.82612700  0.50000000  1
  In  In4  1  0.00000000  0.00000000  0.00000000  1
  In  In5  1  0.50000000  0.50000000  0.00000000  1
  Ni  Ni6  1  0.87462700  0.37462700  0.00000000  1
  Ni  Ni7  1  0.62537300  0.87462700  0.00000000  1
  Ni  Ni8  1  0.12537300  0.62537300  0.00000000  1
  Ni  Ni9  1  0.37462700  0.12537300  0.00000000  1
