# generated using pymatgen
data_NaCa4TaTi4(SiO5)5
_symmetry_space_group_name_H-M   'P 1'
_cell_length_a   5.51585100
_cell_length_b   5.52132754
_cell_length_c   32.84719100
_cell_angle_alpha   91.57840551
_cell_angle_beta   91.62803107
_cell_angle_gamma   105.23068877
_symmetry_Int_Tables_number   1
_chemical_formula_structural   NaCa4TaTi4(SiO5)5
_chemical_formula_sum   'Na2 Ca8 Ta2 Ti8 Si10 O50'
_cell_volume   964.19330985
_cell_formula_units_Z   2
loop_
 _symmetry_equiv_pos_site_id
 _symmetry_equiv_pos_as_xyz
  1  'x, y, z'
loop_
 _atom_site_type_symbol
 _atom_site_label
 _atom_site_symmetry_multiplicity
 _atom_site_fract_x
 _atom_site_fract_y
 _atom_site_fract_z
 _atom_site_occupancy
  Na  Na0  1  0.67220300  0.33183900  0.25467700  1
  Na  Na1  1  0.27046500  0.93127200  0.45553800  1
  Ca  Ca2  1  0.07369600  0.72910300  0.04829000  1
  Ca  Ca3  1  0.87120500  0.52840000  0.64952100  1
  Ca  Ca4  1  0.53165600  0.87518200  0.14602200  1
  Ca  Ca5  1  0.47276000  0.12940300  0.84944100  1
  Ca  Ca6  1  0.13196700  0.47248600  0.34608400  1
  Ca  Ca7  1  0.72954200  0.07030300  0.54906900  1
  Ca  Ca8  1  0.32932300  0.67241200  0.74945600  1
  Ca  Ca9  1  0.92996800  0.27335700  0.94894000  1
  Ta  Ta10  1  0.10569500  0.10753500  0.19985500  1
  Ta  Ta11  1  0.70053500  0.70321500  0.40167400  1
  Ti  Ti12  1  0.50591800  0.50029000  0.99752000  1
  Ti  Ti13  1  0.30098900  0.30467300  0.09691400  1
  Ti  Ti14  1  0.89630900  0.89801000  0.29976600  1
  Ti  Ti15  1  0.49339900  0.49640400  0.50152600  1
  Ti  Ti16  1  0.29996700  0.29515100  0.59990900  1
  Ti  Ti17  1  0.09798500  0.10320400  0.69905400  1
  Ti  Ti18  1  0.90497900  0.89944300  0.79846300  1
  Ti  Ti19  1  0.70014000  0.70568600  0.89799800  1
  Si  Si20  1  0.88151000  0.52150100  0.14748000  1
  Si  Si21  1  0.48169600  0.11858200  0.34894700  1
  Si  Si22  1  0.08016500  0.71645600  0.55145100  1
  Si  Si23  1  0.72064200  0.08069300  0.04890100  1
  Si  Si24  1  0.67943000  0.31848900  0.75042400  1
  Si  Si25  1  0.32142900  0.68481700  0.25097100  1
  Si  Si26  1  0.28066500  0.91959300  0.94961700  1
  Si  Si27  1  0.91866600  0.28205100  0.45247400  1
  Si  Si28  1  0.51722800  0.87801800  0.65079400  1
  Si  Si29  1  0.11899500  0.47994700  0.85000900  1
  O  O30  1  0.71350500  0.83808800  0.01819200  1
  O  O31  1  0.14139100  0.57016500  0.12149500  1
  O  O32  1  0.30728800  0.44403900  0.21907300  1
  O  O33  1  0.33017600  0.46739000  0.04916000  1
  O  O34  1  0.64113900  0.51499000  0.11651000  1
  O  O35  1  0.84203500  0.26029000  0.17288600  1
  O  O36  1  0.74821900  0.16472100  0.32516800  1
  O  O37  1  0.90295400  0.03992800  0.42076900  1
  O  O38  1  0.92712700  0.06465900  0.24944900  1
  O  O39  1  0.76735500  0.33789900  0.02233100  1
  O  O40  1  0.96037500  0.08714900  0.08066900  1
  O  O41  1  0.24177900  0.11282800  0.31785800  1
  O  O42  1  0.43847900  0.85683700  0.37459100  1
  O  O43  1  0.28015500  0.13731300  0.14887300  1
  O  O44  1  0.34419400  0.75994100  0.52702800  1
  O  O45  1  0.46225600  0.03515200  0.07544400  1
  O  O46  1  0.50836100  0.63397700  0.62024900  1
  O  O47  1  0.52450100  0.66291000  0.45119700  1
  O  O48  1  0.35830800  0.93136100  0.22169900  1
  O  O49  1  0.56111100  0.69820100  0.28210800  1
  O  O50  1  0.83750600  0.70919300  0.52058800  1
  O  O51  1  0.03205500  0.45876500  0.57847500  1
  O  O52  1  0.87672700  0.73323800  0.35009800  1
  O  O53  1  0.88740100  0.76365100  0.17850800  1
  O  O54  1  0.93681700  0.36431200  0.72380600  1
  O  O55  1  0.06778000  0.64181000  0.27781500  1
  O  O56  1  0.11106200  0.23695900  0.81925800  1
  O  O57  1  0.12773100  0.26566400  0.65119500  1
  O  O58  1  0.95432400  0.52876900  0.42328300  1
  O  O59  1  0.16012900  0.29628100  0.48326100  1
  O  O60  1  0.43617600  0.30993000  0.71961400  1
  O  O61  1  0.63484500  0.06115500  0.77720800  1
  O  O62  1  0.46425400  0.32525400  0.55152300  1
  O  O63  1  0.48511300  0.36128300  0.37998000  1
  O  O64  1  0.53788200  0.96600200  0.92292700  1
  O  O65  1  0.66654500  0.24080600  0.47976400  1
  O  O66  1  0.72942200  0.86728100  0.85031900  1
  O  O67  1  0.56277100  0.13582000  0.62438500  1
  O  O68  1  0.75898500  0.88505900  0.68214600  1
  O  O69  1  0.03763600  0.91166900  0.91878400  1
  O  O70  1  0.23592000  0.66212700  0.97632400  1
  O  O71  1  0.06691700  0.92891400  0.75075500  1
  O  O72  1  0.08459200  0.95809100  0.58282900  1
  O  O73  1  0.25995000  0.83369800  0.67767100  1
  O  O74  1  0.16524300  0.73701600  0.82333800  1
  O  O75  1  0.36009800  0.48655200  0.88140600  1
  O  O76  1  0.66783400  0.52976600  0.94983300  1
  O  O77  1  0.68593800  0.55990700  0.78167900  1
  O  O78  1  0.86138800  0.43529800  0.87675200  1
  O  O79  1  0.28711700  0.16037200  0.98094700  1
