# generated using pymatgen
data_NaAlH2CO5
_symmetry_space_group_name_H-M   'P 1'
_cell_length_a   6.86772702
_cell_length_b   6.86772702
_cell_length_c   6.86772702
_cell_angle_alpha   131.34835444
_cell_angle_beta   119.41526645
_cell_angle_gamma   81.27040837
_symmetry_Int_Tables_number   1
_chemical_formula_structural   NaAlH2CO5
_chemical_formula_sum   'Na2 Al2 H4 C2 O10'
_cell_volume   204.30140542
_cell_formula_units_Z   2
loop_
 _symmetry_equiv_pos_site_id
 _symmetry_equiv_pos_as_xyz
  1  'x, y, z'
loop_
 _atom_site_type_symbol
 _atom_site_label
 _atom_site_symmetry_multiplicity
 _atom_site_fract_x
 _atom_site_fract_y
 _atom_site_fract_z
 _atom_site_occupancy
  Na  Na0  1  0.50000000  0.00000000  0.50000000  1
  Na  Na1  1  0.00000000  0.00000000  0.00000000  1
  Al  Al2  1  0.50000000  0.50000000  0.50000000  1
  Al  Al3  1  0.50000000  0.00000000  0.00000000  1
  H  H4  1  0.23238000  0.27923600  0.95314400  1
  H  H5  1  0.17390800  0.72076400  0.45314400  1
  H  H6  1  0.76762000  0.72076400  0.04685600  1
  H  H7  1  0.82609200  0.27923600  0.54685600  1
  C  C8  1  0.74867500  0.49867500  0.25000000  1
  C  C9  1  0.25132500  0.50132500  0.75000000  1
  O  O10  1  0.87015900  0.62015900  0.25000000  1
  O  O11  1  0.12984100  0.37984100  0.75000000  1
  O  O12  1  0.68516500  0.63613700  0.45097200  1
  O  O13  1  0.31483500  0.36386300  0.54902800  1
  O  O14  1  0.31483500  0.76580700  0.95097200  1
  O  O15  1  0.68516500  0.23419300  0.04902800  1
  O  O16  1  0.29587900  0.22482500  0.07105300  1
  O  O17  1  0.34622800  0.77517500  0.57105300  1
  O  O18  1  0.70412100  0.77517500  0.92894700  1
  O  O19  1  0.65377200  0.22482500  0.42894700  1
