# generated using pymatgen
data_Na2CaSn2(GeO4)3
_symmetry_space_group_name_H-M   'P 1'
_cell_length_a   10.93171715
_cell_length_b   10.93171715
_cell_length_c   10.93171715
_cell_angle_alpha   109.59277804
_cell_angle_beta   109.59277804
_cell_angle_gamma   109.22837841
_symmetry_Int_Tables_number   1
_chemical_formula_structural   Na2CaSn2(GeO4)3
_chemical_formula_sum   'Na8 Ca4 Sn8 Ge12 O48'
_cell_volume   1005.62814396
_cell_formula_units_Z   4
loop_
 _symmetry_equiv_pos_site_id
 _symmetry_equiv_pos_as_xyz
  1  'x, y, z'
loop_
 _atom_site_type_symbol
 _atom_site_label
 _atom_site_symmetry_multiplicity
 _atom_site_fract_x
 _atom_site_fract_y
 _atom_site_fract_z
 _atom_site_occupancy
  Na  Na0  1  0.25109800  0.37500000  0.37609800  1
  Na  Na1  1  0.12500000  0.74890200  0.12390200  1
  Na  Na2  1  0.62500000  0.00109800  0.87609800  1
  Na  Na3  1  0.75109800  0.37500000  0.87609800  1
  Na  Na4  1  0.12500000  0.24890200  0.62390200  1
  Na  Na5  1  0.99890200  0.87500000  0.62390200  1
  Na  Na6  1  0.62500000  0.50109800  0.37609800  1
  Na  Na7  1  0.49890200  0.87500000  0.12390200  1
  Ca  Ca8  1  0.50000000  0.00000000  0.50000000  1
  Ca  Ca9  1  0.00000000  0.50000000  0.50000000  1
  Ca  Ca10  1  0.75000000  0.75000000  0.00000000  1
  Ca  Ca11  1  0.25000000  0.25000000  0.00000000  1
  Sn  Sn12  1  0.87500000  0.12500000  0.75000000  1
  Sn  Sn13  1  0.87500000  0.62500000  0.75000000  1
  Sn  Sn14  1  0.87500000  0.62500000  0.25000000  1
  Sn  Sn15  1  0.87500000  0.12500000  0.25000000  1
  Sn  Sn16  1  0.37500000  0.12500000  0.75000000  1
  Sn  Sn17  1  0.37500000  0.62500000  0.75000000  1
  Sn  Sn18  1  0.37500000  0.62500000  0.25000000  1
  Sn  Sn19  1  0.37500000  0.12500000  0.25000000  1
  Ge  Ge20  1  0.62500000  0.74972000  0.62472000  1
  Ge  Ge21  1  0.00000000  0.00000000  0.00000000  1
  Ge  Ge22  1  0.99972000  0.37500000  0.12472000  1
  Ge  Ge23  1  0.49972000  0.37500000  0.62472000  1
  Ge  Ge24  1  0.25000000  0.75000000  0.50000000  1
  Ge  Ge25  1  0.12500000  0.00028000  0.37528000  1
  Ge  Ge26  1  0.62500000  0.24972000  0.12472000  1
  Ge  Ge27  1  0.75028000  0.87500000  0.37528000  1
  Ge  Ge28  1  0.50000000  0.50000000  0.00000000  1
  Ge  Ge29  1  0.25028000  0.87500000  0.87528000  1
  Ge  Ge30  1  0.75000000  0.25000000  0.50000000  1
  Ge  Ge31  1  0.12500000  0.50028000  0.87528000  1
  O  O32  1  0.46242200  0.32785500  0.43884300  1
  O  O33  1  0.66888100  0.93646300  0.66162500  1
  O  O34  1  0.75254500  0.20671900  0.64398100  1
  O  O35  1  0.47642000  0.61098700  0.43884300  1
  O  O36  1  0.18726200  0.14143700  0.14398100  1
  O  O37  1  0.18646300  0.41888100  0.16162500  1
  O  O38  1  0.29328100  0.74745500  0.35601900  1
  O  O39  1  0.25254400  0.60856300  0.54582600  1
  O  O40  1  0.39143700  0.93726200  0.64398100  1
  O  O41  1  0.49274400  0.22516200  0.66162500  1
  O  O42  1  0.85856300  0.00254400  0.04582600  1
  O  O43  1  0.97642000  0.53757800  0.86543300  1
  O  O44  1  0.27483800  0.00725600  0.33837500  1
  O  O45  1  0.86098700  0.22642000  0.93884300  1
  O  O46  1  0.99274400  0.33111900  0.26758200  1
  O  O47  1  0.96242200  0.52358000  0.13456700  1
  O  O48  1  0.58111900  0.74274400  0.76758200  1
  O  O49  1  0.95671900  0.81273800  0.95417400  1
  O  O50  1  0.36098700  0.42214500  0.63456700  1
  O  O51  1  0.06273800  0.70671900  0.45417400  1
  O  O52  1  0.17214500  0.03757800  0.56115700  1
  O  O53  1  0.97516200  0.81353700  0.23241800  1
  O  O54  1  0.67214500  0.11098700  0.13456700  1
  O  O55  1  0.68646300  0.52483800  0.76758200  1
  O  O56  1  0.06353700  0.72516200  0.73241800  1
  O  O57  1  0.07785500  0.13901300  0.36543300  1
  O  O58  1  0.77483800  0.43646300  0.26758200  1
  O  O59  1  0.57785500  0.21242200  0.93884300  1
  O  O60  1  0.68726200  0.54328100  0.04582600  1
  O  O61  1  0.38901300  0.82785500  0.86543300  1
  O  O62  1  0.79328100  0.43726200  0.54582600  1
  O  O63  1  0.16888100  0.50725600  0.73241800  1
  O  O64  1  0.78757800  0.72642000  0.36543300  1
  O  O65  1  0.75725600  0.91888100  0.23241800  1
  O  O66  1  0.88901300  0.02358000  0.56115700  1
  O  O67  1  0.47516200  0.24274400  0.16162500  1
  O  O68  1  0.77358000  0.71242200  0.63456700  1
  O  O69  1  0.89143700  0.24745600  0.45417400  1
  O  O70  1  0.25725600  0.02483800  0.83837500  1
  O  O71  1  0.35856300  0.31273800  0.85601900  1
  O  O72  1  0.49745600  0.64143700  0.95417400  1
  O  O73  1  0.45671900  0.50254400  0.14398100  1
  O  O74  1  0.56353700  0.83111900  0.33837500  1
  O  O75  1  0.56273800  0.10856300  0.35601900  1
  O  O76  1  0.27358000  0.63901300  0.06115700  1
  O  O77  1  0.08111900  0.31353700  0.83837500  1
  O  O78  1  0.99745600  0.04328100  0.85601900  1
  O  O79  1  0.28757800  0.92214500  0.06115700  1
