# generated using pymatgen
data_Na3VSi4(HO6)2
_symmetry_space_group_name_H-M   'P 1'
_cell_length_a   7.60474200
_cell_length_b   8.78852759
_cell_length_c   9.22433509
_cell_angle_alpha   117.53566225
_cell_angle_beta   96.09645559
_cell_angle_gamma   88.45389058
_symmetry_Int_Tables_number   1
_chemical_formula_structural   Na3VSi4(HO6)2
_chemical_formula_sum   'Na6 V2 Si8 H4 O24'
_cell_volume   543.40545558
_cell_formula_units_Z   2
loop_
 _symmetry_equiv_pos_site_id
 _symmetry_equiv_pos_as_xyz
  1  'x, y, z'
loop_
 _atom_site_type_symbol
 _atom_site_label
 _atom_site_symmetry_multiplicity
 _atom_site_fract_x
 _atom_site_fract_y
 _atom_site_fract_z
 _atom_site_occupancy
  Na  Na0  1  0.14726200  0.73665400  0.87072700  1
  Na  Na1  1  0.85273800  0.26334600  0.12927300  1
  Na  Na2  1  0.34222400  0.85357500  0.57580300  1
  Na  Na3  1  0.65777600  0.14642500  0.42419700  1
  Na  Na4  1  0.36156100  0.39657300  0.17535800  1
  Na  Na5  1  0.63843900  0.60342700  0.82464200  1
  V  V6  1  0.00000000  0.50000000  0.00000000  1
  V  V7  1  0.50000000  0.00000000  0.00000000  1
  Si  Si8  1  0.22407000  0.29026800  0.68153400  1
  Si  Si9  1  0.77593000  0.70973200  0.31846600  1
  Si  Si10  1  0.11421100  0.09051500  0.84298000  1
  Si  Si11  1  0.88578900  0.90948500  0.15702000  1
  Si  Si12  1  0.39782000  0.74545700  0.16714100  1
  Si  Si13  1  0.60218000  0.25454300  0.83285900  1
  Si  Si14  1  0.26491400  0.09175700  0.30744800  1
  Si  Si15  1  0.73508600  0.90824300  0.69255200  1
  H  H16  1  0.09417800  0.56964500  0.36219700  1
  H  H17  1  0.90582200  0.43035500  0.63780300  1
  H  H18  1  0.19583800  0.48374900  0.46534900  1
  H  H19  1  0.80416200  0.51625100  0.53465100  1
  O  O20  1  0.22993100  0.25045400  0.48891800  1
  O  O21  1  0.77006900  0.74954600  0.51108200  1
  O  O22  1  0.09449600  0.27831700  0.99555600  1
  O  O23  1  0.90550400  0.72168300  0.00444400  1
  O  O24  1  0.39625100  0.16135900  0.22532900  1
  O  O25  1  0.60374900  0.83864100  0.77467100  1
  O  O26  1  0.44133000  0.78626500  0.01993600  1
  O  O27  1  0.55867000  0.21373500  0.98006400  1
  O  O28  1  0.09219800  0.44573100  0.76794200  1
  O  O29  1  0.90780200  0.55426900  0.23205800  1
  O  O30  1  0.43123200  0.33741500  0.76691600  1
  O  O31  1  0.56876800  0.66258500  0.23308400  1
  O  O32  1  0.26588100  0.96752600  0.86312800  1
  O  O33  1  0.73411900  0.03247400  0.13687200  1
  O  O34  1  0.92811000  0.97674000  0.79878900  1
  O  O35  1  0.07189000  0.02326000  0.20121100  1
  O  O36  1  0.15820100  0.11024200  0.67773600  1
  O  O37  1  0.84179900  0.88975800  0.32226400  1
  O  O38  1  0.36056100  0.93165200  0.33491200  1
  O  O39  1  0.63943900  0.06834800  0.66508800  1
  O  O40  1  0.23275200  0.61496900  0.11828700  1
  O  O41  1  0.76724800  0.38503100  0.88171300  1
  O  O42  1  0.20642100  0.57477000  0.43348900  1
  O  O43  1  0.79357900  0.42523000  0.56651100  1
