# generated using pymatgen
data_KCa10(PO4)7
_symmetry_space_group_name_H-M   'P 1'
_cell_length_a   13.94147232
_cell_length_b   13.94147232
_cell_length_c   13.94147189
_cell_angle_alpha   44.71720418
_cell_angle_beta   44.71720418
_cell_angle_gamma   44.71720732
_symmetry_Int_Tables_number   1
_chemical_formula_structural   KCa10(PO4)7
_chemical_formula_sum   'K2 Ca20 P14 O56'
_cell_volume   1220.26830685
_cell_formula_units_Z   2
loop_
 _symmetry_equiv_pos_site_id
 _symmetry_equiv_pos_as_xyz
  1  'x, y, z'
loop_
 _atom_site_type_symbol
 _atom_site_label
 _atom_site_symmetry_multiplicity
 _atom_site_fract_x
 _atom_site_fract_y
 _atom_site_fract_z
 _atom_site_occupancy
  K  K0  1  0.54869100  0.54869100  0.54869100  1
  K  K1  1  0.04869100  0.04869100  0.04869100  1
  Ca  Ca2  1  0.86707800  0.86707800  0.86707800  1
  Ca  Ca3  1  0.36707800  0.36707800  0.36707800  1
  Ca  Ca4  1  0.21300100  0.77554300  0.81342900  1
  Ca  Ca5  1  0.81342900  0.21300100  0.77554300  1
  Ca  Ca6  1  0.77554300  0.81342900  0.21300100  1
  Ca  Ca7  1  0.71300100  0.31342900  0.27554300  1
  Ca  Ca8  1  0.27554300  0.71300100  0.31342900  1
  Ca  Ca9  1  0.31342900  0.27554300  0.71300100  1
  Ca  Ca10  1  0.44035900  0.02462900  0.43145100  1
  Ca  Ca11  1  0.43145100  0.44035900  0.02462900  1
  Ca  Ca12  1  0.02462900  0.43145100  0.44035900  1
  Ca  Ca13  1  0.94035900  0.93145100  0.52462900  1
  Ca  Ca14  1  0.52462900  0.94035900  0.93145100  1
  Ca  Ca15  1  0.93145100  0.52462900  0.94035900  1
  Ca  Ca16  1  0.34074900  0.93261900  0.30768800  1
  Ca  Ca17  1  0.30768800  0.34074900  0.93261900  1
  Ca  Ca18  1  0.93261900  0.30768800  0.34074900  1
  Ca  Ca19  1  0.84074900  0.80768800  0.43261900  1
  Ca  Ca20  1  0.43261900  0.84074900  0.80768800  1
  Ca  Ca21  1  0.80768800  0.43261900  0.84074900  1
  P  P22  1  0.09655600  0.04959600  0.55255800  1
  P  P23  1  0.55255800  0.09655600  0.04959600  1
  P  P24  1  0.04959600  0.55255800  0.09655600  1
  P  P25  1  0.59655600  0.05255800  0.54959600  1
  P  P26  1  0.54959600  0.59655600  0.05255800  1
  P  P27  1  0.05255800  0.54959600  0.59655600  1
  P  P28  1  0.18741300  0.63610800  0.68066000  1
  P  P29  1  0.68066000  0.18741300  0.63610800  1
  P  P30  1  0.63610800  0.68066000  0.18741300  1
  P  P31  1  0.68741300  0.18066000  0.13610800  1
  P  P32  1  0.13610800  0.68741300  0.18066000  1
  P  P33  1  0.18066000  0.13610800  0.68741300  1
  P  P34  1  0.63440100  0.63440100  0.63440100  1
  P  P35  1  0.13440100  0.13440100  0.13440100  1
  O  O36  1  0.26848900  0.96040300  0.50569300  1
  O  O37  1  0.50569300  0.26848900  0.96040300  1
  O  O38  1  0.96040300  0.50569300  0.26848900  1
  O  O39  1  0.76848900  0.00569300  0.46040300  1
  O  O40  1  0.46040300  0.76848900  0.00569300  1
  O  O41  1  0.00569300  0.46040300  0.76848900  1
  O  O42  1  0.03961100  0.21956700  0.49268600  1
  O  O43  1  0.49268600  0.03961100  0.21956700  1
  O  O44  1  0.21956700  0.49268600  0.03961100  1
  O  O45  1  0.53961100  0.99268600  0.71956700  1
  O  O46  1  0.71956700  0.53961100  0.99268600  1
  O  O47  1  0.99268600  0.71956700  0.53961100  1
  O  O48  1  0.05819400  0.03095700  0.48713500  1
  O  O49  1  0.48713500  0.05819400  0.03095700  1
  O  O50  1  0.03095700  0.48713500  0.05819400  1
  O  O51  1  0.55819400  0.98713500  0.53095700  1
  O  O52  1  0.53095700  0.55819400  0.98713500  1
  O  O53  1  0.98713500  0.53095700  0.55819400  1
  O  O54  1  0.01634000  0.98468500  0.72726700  1
  O  O55  1  0.72726700  0.01634000  0.98468500  1
  O  O56  1  0.98468500  0.72726700  0.01634000  1
  O  O57  1  0.51634000  0.22726700  0.48468500  1
  O  O58  1  0.25921400  0.70059800  0.50778700  1
  O  O59  1  0.48468500  0.51634000  0.22726700  1
  O  O60  1  0.01299100  0.73113900  0.73541500  1
  O  O61  1  0.73541500  0.01299100  0.73113900  1
  O  O62  1  0.73113900  0.73541500  0.01299100  1
  O  O63  1  0.51299100  0.23541500  0.23113900  1
  O  O64  1  0.23113900  0.51299100  0.23541500  1
  O  O65  1  0.23541500  0.23113900  0.51299100  1
  O  O66  1  0.20721900  0.47133500  0.76395200  1
  O  O67  1  0.76395200  0.20721900  0.47133500  1
  O  O68  1  0.47133500  0.76395200  0.20721900  1
  O  O69  1  0.70721900  0.26395200  0.97133500  1
  O  O70  1  0.97133500  0.70721900  0.26395200  1
  O  O71  1  0.26395200  0.97133500  0.70721900  1
  O  O72  1  0.17590600  0.17590600  0.17590600  1
  O  O73  1  0.67590600  0.67590600  0.67590600  1
  O  O74  1  0.25752500  0.12702200  0.97873000  1
  O  O75  1  0.12702200  0.97873000  0.25752500  1
  O  O76  1  0.97873000  0.25752500  0.12702200  1
  O  O77  1  0.62702200  0.75752500  0.47873000  1
  O  O78  1  0.75752500  0.47873000  0.62702200  1
  O  O79  1  0.47873000  0.62702200  0.75752500  1
  O  O80  1  0.23463100  0.13394000  0.75533500  1
  O  O81  1  0.13394000  0.75533500  0.23463100  1
  O  O82  1  0.75533500  0.23463100  0.13394000  1
  O  O83  1  0.63394000  0.73463100  0.25533500  1
  O  O84  1  0.73463100  0.25533500  0.63394000  1
  O  O85  1  0.25533500  0.63394000  0.73463100  1
  O  O86  1  0.00778700  0.20059800  0.75921400  1
  O  O87  1  0.20059800  0.75921400  0.00778700  1
  O  O88  1  0.75921400  0.00778700  0.20059800  1
  O  O89  1  0.70059800  0.50778700  0.25921400  1
  O  O90  1  0.50778700  0.25921400  0.70059800  1
  O  O91  1  0.22726700  0.48468500  0.51634000  1
