# generated using pymatgen
data_MgZn2H12(BrO)6
_symmetry_space_group_name_H-M   'P 1'
_cell_length_a   8.49566836
_cell_length_b   8.49566836
_cell_length_c   8.49566836
_cell_angle_alpha   121.58349478
_cell_angle_beta   104.77856415
_cell_angle_gamma   102.77808202
_symmetry_Int_Tables_number   1
_chemical_formula_structural   MgZn2H12(BrO)6
_chemical_formula_sum   'Mg1 Zn2 H12 Br6 O6'
_cell_volume   455.83002111
_cell_formula_units_Z   1
loop_
 _symmetry_equiv_pos_site_id
 _symmetry_equiv_pos_as_xyz
  1  'x, y, z'
loop_
 _atom_site_type_symbol
 _atom_site_label
 _atom_site_symmetry_multiplicity
 _atom_site_fract_x
 _atom_site_fract_y
 _atom_site_fract_z
 _atom_site_occupancy
  Mg  Mg0  1  0.00000000  0.00000000  0.00000000  1
  Zn  Zn1  1  0.34239500  0.84239500  0.50000000  1
  Zn  Zn2  1  0.65760500  0.15760500  0.50000000  1
  H  H3  1  0.10198900  0.16324600  0.41237500  1
  H  H4  1  0.24912900  0.83675400  0.93874200  1
  H  H5  1  0.75087100  0.68961300  0.58762500  1
  H  H6  1  0.89801100  0.31038700  0.06125800  1
  H  H7  1  0.89801100  0.83675400  0.58762500  1
  H  H8  1  0.75087100  0.16324600  0.06125800  1
  H  H9  1  0.24912900  0.31038700  0.41237500  1
  H  H10  1  0.10198900  0.68961300  0.93874200  1
  H  H11  1  0.82616100  0.74962200  0.07653900  1
  H  H12  1  0.32691600  0.25037800  0.07653900  1
  H  H13  1  0.67308400  0.74962200  0.92346100  1
  H  H14  1  0.17383900  0.25037800  0.92346100  1
  Br  Br15  1  0.50000000  0.22327400  0.72327400  1
  Br  Br16  1  0.50000000  0.77672600  0.27672600  1
  Br  Br17  1  0.02108300  0.71252900  0.30855500  1
  Br  Br18  1  0.59602600  0.28747100  0.30855500  1
  Br  Br19  1  0.40397400  0.71252900  0.69144500  1
  Br  Br20  1  0.97891700  0.28747100  0.69144500  1
  O  O21  1  0.14659000  0.17594100  0.32253100  1
  O  O22  1  0.14659000  0.82405900  0.97064900  1
  O  O23  1  0.85341000  0.82405900  0.67746900  1
  O  O24  1  0.85341000  0.17594100  0.02935100  1
  O  O25  1  0.80392300  0.80392300  0.00000000  1
  O  O26  1  0.19607700  0.19607700  0.00000000  1
