# generated using pymatgen
data_Ce3Zn22
_symmetry_space_group_name_H-M   'P 1'
_cell_length_a   12.33109218
_cell_length_b   12.33109218
_cell_length_c   12.33109218
_cell_angle_alpha   137.71371586
_cell_angle_beta   137.71371586
_cell_angle_gamma   61.34174003
_symmetry_Int_Tables_number   1
_chemical_formula_structural   Ce3Zn22
_chemical_formula_sum   'Ce6 Zn44'
_cell_volume   839.28572270
_cell_formula_units_Z   2
loop_
 _symmetry_equiv_pos_site_id
 _symmetry_equiv_pos_as_xyz
  1  'x, y, z'
loop_
 _atom_site_type_symbol
 _atom_site_label
 _atom_site_symmetry_multiplicity
 _atom_site_fract_x
 _atom_site_fract_y
 _atom_site_fract_z
 _atom_site_occupancy
  Ce  Ce0  1  0.62114200  0.62114200  0.00000000  1
  Ce  Ce1  1  0.37114200  0.87114200  0.50000000  1
  Ce  Ce2  1  0.12885800  0.62885800  0.50000000  1
  Ce  Ce3  1  0.37885800  0.37885800  0.00000000  1
  Ce  Ce4  1  0.75000000  0.25000000  0.50000000  1
  Ce  Ce5  1  0.00000000  0.00000000  0.00000000  1
  Zn  Zn6  1  0.91752400  0.44402200  0.98934000  1
  Zn  Zn7  1  0.45468200  0.44402200  0.52649800  1
  Zn  Zn8  1  0.19402200  0.16752400  0.48934000  1
  Zn  Zn9  1  0.67818400  0.16752400  0.97350200  1
  Zn  Zn10  1  0.91752400  0.92818400  0.47350200  1
  Zn  Zn11  1  0.45468200  0.92818400  0.01066000  1
  Zn  Zn12  1  0.19402200  0.70468200  0.02649800  1
  Zn  Zn13  1  0.67818400  0.70468200  0.51066000  1
  Zn  Zn14  1  0.83247600  0.80597800  0.51066000  1
  Zn  Zn15  1  0.29531800  0.80597800  0.97350200  1
  Zn  Zn16  1  0.55597800  0.08247600  0.01066000  1
  Zn  Zn17  1  0.07181600  0.08247600  0.52649800  1
  Zn  Zn18  1  0.83247600  0.32181600  0.02649800  1
  Zn  Zn19  1  0.29531800  0.32181600  0.48934000  1
  Zn  Zn20  1  0.55597800  0.54531800  0.47350200  1
  Zn  Zn21  1  0.07181600  0.54531800  0.98934000  1
  Zn  Zn22  1  0.49823900  0.27569500  0.77745600  1
  Zn  Zn23  1  0.02569500  0.74823900  0.27745600  1
  Zn  Zn24  1  0.47078300  0.74823900  0.72254400  1
  Zn  Zn25  1  0.49823900  0.72078300  0.22254400  1
  Zn  Zn26  1  0.25176100  0.97430500  0.72254400  1
  Zn  Zn27  1  0.72430500  0.50176100  0.22254400  1
  Zn  Zn28  1  0.27921700  0.50176100  0.77745600  1
  Zn  Zn29  1  0.25176100  0.52921700  0.27745600  1
  Zn  Zn30  1  0.75786000  0.61027300  0.85241300  1
  Zn  Zn31  1  0.36027300  0.00786000  0.35241300  1
  Zn  Zn32  1  0.65544700  0.00786000  0.64758700  1
  Zn  Zn33  1  0.75786000  0.90544700  0.14758700  1
  Zn  Zn34  1  0.99214000  0.63972700  0.64758700  1
  Zn  Zn35  1  0.38972700  0.24214000  0.14758700  1
  Zn  Zn36  1  0.09455300  0.24214000  0.85241300  1
  Zn  Zn37  1  0.99214000  0.34455300  0.35241300  1
  Zn  Zn38  1  0.61225900  0.96043500  0.34817600  1
  Zn  Zn39  1  0.71043500  0.86225900  0.84817600  1
  Zn  Zn40  1  0.01408300  0.86225900  0.15182400  1
  Zn  Zn41  1  0.61225900  0.26408300  0.65182400  1
  Zn  Zn42  1  0.13774100  0.28956500  0.15182400  1
  Zn  Zn43  1  0.03956500  0.38774100  0.65182400  1
  Zn  Zn44  1  0.73591700  0.38774100  0.34817600  1
  Zn  Zn45  1  0.13774100  0.98591700  0.84817600  1
  Zn  Zn46  1  0.87500000  0.62500000  0.75000000  1
  Zn  Zn47  1  0.37500000  0.12500000  0.25000000  1
  Zn  Zn48  1  0.87500000  0.12500000  0.75000000  1
  Zn  Zn49  1  0.87500000  0.12500000  0.25000000  1
