# generated using pymatgen
data_Lu4Hf3O12
_symmetry_space_group_name_H-M   'P 1'
_cell_length_a   6.31232200
_cell_length_b   6.32518429
_cell_length_c   12.62056551
_cell_angle_alpha   99.05780939
_cell_angle_beta   99.39849984
_cell_angle_gamma   99.46333336
_symmetry_Int_Tables_number   1
_chemical_formula_structural   Lu4Hf3O12
_chemical_formula_sum   'Lu8 Hf6 O24'
_cell_volume   481.49444815
_cell_formula_units_Z   2
loop_
 _symmetry_equiv_pos_site_id
 _symmetry_equiv_pos_as_xyz
  1  'x, y, z'
loop_
 _atom_site_type_symbol
 _atom_site_label
 _atom_site_symmetry_multiplicity
 _atom_site_fract_x
 _atom_site_fract_y
 _atom_site_fract_z
 _atom_site_occupancy
  Lu  Lu0  1  0.30318600  0.61023700  0.81969500  1
  Lu  Lu1  1  0.38971500  0.86253900  0.59614800  1
  Lu  Lu2  1  0.85860400  0.68794900  0.94558800  1
  Lu  Lu3  1  0.31528600  0.60982400  0.31962600  1
  Lu  Lu4  1  0.14139600  0.31205100  0.05441200  1
  Lu  Lu5  1  0.69681400  0.38976300  0.18030500  1
  Lu  Lu6  1  0.68471400  0.39017600  0.68037400  1
  Lu  Lu7  1  0.61028500  0.13746100  0.40385200  1
  Hf  Hf8  1  0.00519000  0.00538600  0.25138600  1
  Hf  Hf9  1  0.38866600  0.85952700  0.09486900  1
  Hf  Hf10  1  0.99481000  0.99461400  0.74861400  1
  Hf  Hf11  1  0.85925000  0.68305400  0.44485400  1
  Hf  Hf12  1  0.14075000  0.31694600  0.55514600  1
  Hf  Hf13  1  0.61133400  0.14047300  0.90513100  1
  O  O14  1  0.31807300  0.95853100  0.79682900  1
  O  O15  1  0.06784200  0.91635500  0.09337400  1
  O  O16  1  0.32158200  0.94495500  0.28566000  1
  O  O17  1  0.04199100  0.90704000  0.58822300  1
  O  O18  1  0.57291100  0.83109300  0.96307600  1
  O  O19  1  0.58854600  0.81938800  0.46361100  1
  O  O20  1  0.18563700  0.59487700  0.96918400  1
  O  O21  1  0.91978300  0.68043500  0.77680400  1
  O  O22  1  0.42667700  0.58366400  0.15881300  1
  O  O23  1  0.17127200  0.57467000  0.46423300  1
  O  O24  1  0.92029000  0.69064900  0.28724400  1
  O  O25  1  0.57332300  0.41633600  0.84118700  1
  O  O26  1  0.40485600  0.56540300  0.65756700  1
  O  O27  1  0.08021700  0.31956500  0.22319600  1
  O  O28  1  0.81436300  0.40512300  0.03081600  1
  O  O29  1  0.59514400  0.43459700  0.34243300  1
  O  O30  1  0.07971000  0.30935100  0.71275600  1
  O  O31  1  0.82872800  0.42533000  0.53576700  1
  O  O32  1  0.42708900  0.16890700  0.03692400  1
  O  O33  1  0.41145400  0.18061200  0.53638900  1
  O  O34  1  0.93215800  0.08364500  0.90662600  1
  O  O35  1  0.68192700  0.04146900  0.20317100  1
  O  O36  1  0.95800900  0.09296000  0.41177700  1
  O  O37  1  0.67841800  0.05504500  0.71434000  1
