# generated using pymatgen
data_Ba2ErCl7
_symmetry_space_group_name_H-M   'P 1'
_cell_length_a   15.74459400
_cell_length_b   6.91802200
_cell_length_c   10.66440090
_cell_angle_alpha   89.30795741
_cell_angle_beta   90.00000000
_cell_angle_gamma   90.00000000
_symmetry_Int_Tables_number   1
_chemical_formula_structural   Ba2ErCl7
_chemical_formula_sum   'Ba8 Er4 Cl28'
_cell_volume   1161.49725460
_cell_formula_units_Z   4
loop_
 _symmetry_equiv_pos_site_id
 _symmetry_equiv_pos_as_xyz
  1  'x, y, z'
loop_
 _atom_site_type_symbol
 _atom_site_label
 _atom_site_symmetry_multiplicity
 _atom_site_fract_x
 _atom_site_fract_y
 _atom_site_fract_z
 _atom_site_occupancy
  Ba  Ba0  1  0.43917900  0.26542600  0.82363900  1
  Ba  Ba1  1  0.27982100  0.73521000  0.54912800  1
  Ba  Ba2  1  0.56082100  0.73457400  0.17636100  1
  Ba  Ba3  1  0.72017900  0.26479000  0.45087200  1
  Ba  Ba4  1  0.93917900  0.73457400  0.67636100  1
  Ba  Ba5  1  0.77982100  0.26479000  0.95087200  1
  Ba  Ba6  1  0.22017900  0.73521000  0.04912800  1
  Ba  Ba7  1  0.06082100  0.26542600  0.32363900  1
  Er  Er8  1  0.37314700  0.21677600  0.28203700  1
  Er  Er9  1  0.12685300  0.21677600  0.78203700  1
  Er  Er10  1  0.87314700  0.78322400  0.21796300  1
  Er  Er11  1  0.62685300  0.78322400  0.71796300  1
  Cl  Cl12  1  0.27163500  0.00196500  0.79478900  1
  Cl  Cl13  1  0.60447100  0.99934200  0.92793600  1
  Cl  Cl14  1  0.07082500  0.87243300  0.87612000  1
  Cl  Cl15  1  0.86044900  0.70985800  0.97290700  1
  Cl  Cl16  1  0.74321700  0.51239600  0.19827300  1
  Cl  Cl17  1  0.24321700  0.48760400  0.30172700  1
  Cl  Cl18  1  0.53947700  0.29368100  0.28691600  1
  Cl  Cl19  1  0.10497700  0.48613700  0.58663600  1
  Cl  Cl20  1  0.03947700  0.70631900  0.21308400  1
  Cl  Cl21  1  0.72836500  0.99803500  0.20521100  1
  Cl  Cl22  1  0.63955100  0.70985800  0.47290700  1
  Cl  Cl23  1  0.36044900  0.29014200  0.52709300  1
  Cl  Cl24  1  0.89502300  0.51386300  0.41336400  1
  Cl  Cl25  1  0.22836500  0.00196500  0.29478900  1
  Cl  Cl26  1  0.42917500  0.87243300  0.37612000  1
  Cl  Cl27  1  0.10447100  0.00065800  0.57206400  1
  Cl  Cl28  1  0.96052300  0.29368100  0.78691600  1
  Cl  Cl29  1  0.57082500  0.12756700  0.62388000  1
  Cl  Cl30  1  0.39552900  0.00065800  0.07206400  1
  Cl  Cl31  1  0.13955100  0.29014200  0.02709300  1
  Cl  Cl32  1  0.39502300  0.48613700  0.08663600  1
  Cl  Cl33  1  0.25678300  0.48760400  0.80172700  1
  Cl  Cl34  1  0.46052300  0.70631900  0.71308400  1
  Cl  Cl35  1  0.89552900  0.99934200  0.42793600  1
  Cl  Cl36  1  0.60497700  0.51386300  0.91336400  1
  Cl  Cl37  1  0.92917500  0.12756700  0.12388000  1
  Cl  Cl38  1  0.77163500  0.99803500  0.70521100  1
  Cl  Cl39  1  0.75678300  0.51239600  0.69827300  1
