# generated using pymatgen
data_La2Al3Ge4
_symmetry_space_group_name_H-M   'P 1'
_cell_length_a   8.23930478
_cell_length_b   8.23930478
_cell_length_c   8.06974600
_cell_angle_alpha   90.00000000
_cell_angle_beta   90.00000000
_cell_angle_gamma   136.17935886
_symmetry_Int_Tables_number   1
_chemical_formula_structural   La2Al3Ge4
_chemical_formula_sum   'La4 Al6 Ge8'
_cell_volume   379.31501576
_cell_formula_units_Z   2
loop_
 _symmetry_equiv_pos_site_id
 _symmetry_equiv_pos_as_xyz
  1  'x, y, z'
loop_
 _atom_site_type_symbol
 _atom_site_label
 _atom_site_symmetry_multiplicity
 _atom_site_fract_x
 _atom_site_fract_y
 _atom_site_fract_z
 _atom_site_occupancy
  La  La0  1  0.11396800  0.88603200  0.58304400  1
  La  La1  1  0.38603200  0.61396800  0.08304400  1
  La  La2  1  0.61396800  0.38603200  0.91695600  1
  La  La3  1  0.88603200  0.11396800  0.41695600  1
  Al  Al4  1  0.03435800  0.46564200  0.75000000  1
  Al  Al5  1  0.00000000  0.00000000  0.00000000  1
  Al  Al6  1  0.53435800  0.96564200  0.75000000  1
  Al  Al7  1  0.50000000  0.50000000  0.50000000  1
  Al  Al8  1  0.96564200  0.53435800  0.25000000  1
  Al  Al9  1  0.46564200  0.03435800  0.25000000  1
  Ge  Ge10  1  0.70115800  0.79884200  0.75000000  1
  Ge  Ge11  1  0.20115800  0.29884200  0.75000000  1
  Ge  Ge12  1  0.29884200  0.20115800  0.25000000  1
  Ge  Ge13  1  0.68687300  0.31312700  0.55189900  1
  Ge  Ge14  1  0.79884200  0.70115800  0.25000000  1
  Ge  Ge15  1  0.81312700  0.18687300  0.05189900  1
  Ge  Ge16  1  0.18687300  0.81312700  0.94810100  1
  Ge  Ge17  1  0.31312700  0.68687300  0.44810100  1
