# generated using pymatgen
data_Cu(NO3)2
_symmetry_space_group_name_H-M   'P 1'
_cell_length_a   5.13316500
_cell_length_b   8.35759200
_cell_length_c   11.29452300
_cell_angle_alpha   90.00000000
_cell_angle_beta   90.00000000
_cell_angle_gamma   90.00000000
_symmetry_Int_Tables_number   1
_chemical_formula_structural   Cu(NO3)2
_chemical_formula_sum   'Cu4 N8 O24'
_cell_volume   484.54518752
_cell_formula_units_Z   4
loop_
 _symmetry_equiv_pos_site_id
 _symmetry_equiv_pos_as_xyz
  1  'x, y, z'
loop_
 _atom_site_type_symbol
 _atom_site_label
 _atom_site_symmetry_multiplicity
 _atom_site_fract_x
 _atom_site_fract_y
 _atom_site_fract_z
 _atom_site_occupancy
  Cu  Cu0  1  0.76721500  0.24626500  0.74872000  1
  Cu  Cu1  1  0.76721500  0.24626500  0.25128000  1
  Cu  Cu2  1  0.23278500  0.74626500  0.75128000  1
  Cu  Cu3  1  0.23278500  0.74626500  0.24872000  1
  N  N4  1  0.77885000  0.29068500  0.50000000  1
  N  N5  1  0.22115000  0.79068500  0.00000000  1
  N  N6  1  0.22493000  0.41299700  0.78607200  1
  N  N7  1  0.23223400  0.71697900  0.50000000  1
  N  N8  1  0.22493000  0.41299700  0.21392800  1
  N  N9  1  0.77507000  0.91299700  0.71392800  1
  N  N10  1  0.76776600  0.21697900  0.00000000  1
  N  N11  1  0.77507000  0.91299700  0.28607200  1
  O  O12  1  0.16096200  0.64481400  0.40443100  1
  O  O13  1  0.97997900  0.44459500  0.21733300  1
  O  O14  1  0.97997900  0.44459500  0.78266700  1
  O  O15  1  0.67009800  0.34246400  0.59535900  1
  O  O16  1  0.64590600  0.34335600  0.00000000  1
  O  O17  1  0.02002100  0.94459500  0.28266700  1
  O  O18  1  0.67009800  0.34246400  0.40464100  1
  O  O19  1  0.38290100  0.52941000  0.79931400  1
  O  O20  1  0.61709900  0.02941000  0.29931400  1
  O  O21  1  0.61709900  0.02941000  0.70068600  1
  O  O22  1  0.38290100  0.52941000  0.20068600  1
  O  O23  1  0.83903800  0.14481400  0.90443100  1
  O  O24  1  0.02002100  0.94459500  0.71733300  1
  O  O25  1  0.35409400  0.84335600  0.50000000  1
  O  O26  1  0.16096200  0.64481400  0.59556900  1
  O  O27  1  0.96809700  0.20050000  0.50000000  1
  O  O28  1  0.32990200  0.84246400  0.90464100  1
  O  O29  1  0.83903800  0.14481400  0.09556900  1
  O  O30  1  0.30543000  0.27352500  0.22346300  1
  O  O31  1  0.03190300  0.70050000  0.00000000  1
  O  O32  1  0.30543000  0.27352500  0.77653700  1
  O  O33  1  0.32990200  0.84246400  0.09535900  1
  O  O34  1  0.69457000  0.77352500  0.27653700  1
  O  O35  1  0.69457000  0.77352500  0.72346300  1
