# generated using pymatgen
data_PHOF2
_symmetry_space_group_name_H-M   'P 1'
_cell_length_a   6.00662200
_cell_length_b   6.49445500
_cell_length_c   14.86730500
_cell_angle_alpha   90.00000000
_cell_angle_beta   90.00000000
_cell_angle_gamma   90.00000000
_symmetry_Int_Tables_number   1
_chemical_formula_structural   PHOF2
_chemical_formula_sum   'P8 H8 O8 F16'
_cell_volume   579.96964726
_cell_formula_units_Z   8
loop_
 _symmetry_equiv_pos_site_id
 _symmetry_equiv_pos_as_xyz
  1  'x, y, z'
loop_
 _atom_site_type_symbol
 _atom_site_label
 _atom_site_symmetry_multiplicity
 _atom_site_fract_x
 _atom_site_fract_y
 _atom_site_fract_z
 _atom_site_occupancy
  P  P0  1  0.54739300  0.31097800  0.64484900  1
  P  P1  1  0.95260700  0.68902200  0.14484900  1
  P  P2  1  0.04739300  0.18902200  0.35515100  1
  P  P3  1  0.45260700  0.81097800  0.85515100  1
  P  P4  1  0.45260700  0.68902200  0.35515100  1
  P  P5  1  0.04739300  0.31097800  0.85515100  1
  P  P6  1  0.95260700  0.81097800  0.64484900  1
  P  P7  1  0.54739300  0.18902200  0.14484900  1
  H  H8  1  0.41533100  0.14914100  0.67610200  1
  H  H9  1  0.08466900  0.85085900  0.17610200  1
  H  H10  1  0.91533100  0.35085900  0.32389800  1
  H  H11  1  0.58466900  0.64914100  0.82389800  1
  H  H12  1  0.58466900  0.85085900  0.32389800  1
  H  H13  1  0.91533100  0.14914100  0.82389800  1
  H  H14  1  0.08466900  0.64914100  0.67610200  1
  H  H15  1  0.41533100  0.35085900  0.17610200  1
  O  O16  1  0.70801600  0.40817300  0.70605900  1
  O  O17  1  0.79198400  0.59182700  0.20605900  1
  O  O18  1  0.20801600  0.09182700  0.29394100  1
  O  O19  1  0.29198400  0.90817300  0.79394100  1
  O  O20  1  0.29198400  0.59182700  0.29394100  1
  O  O21  1  0.20801600  0.40817300  0.79394100  1
  O  O22  1  0.79198400  0.90817300  0.70605900  1
  O  O23  1  0.70801600  0.09182700  0.20605900  1
  F  F24  1  0.37828000  0.46571300  0.60080600  1
  F  F25  1  0.12172000  0.53428700  0.10080600  1
  F  F26  1  0.87828000  0.03428700  0.39919400  1
  F  F27  1  0.62172000  0.96571300  0.89919400  1
  F  F28  1  0.62172000  0.53428700  0.39919400  1
  F  F29  1  0.87828000  0.46571300  0.89919400  1
  F  F30  1  0.12172000  0.96571300  0.60080600  1
  F  F31  1  0.37828000  0.03428700  0.10080600  1
  F  F32  1  0.65439600  0.22446800  0.55628500  1
  F  F33  1  0.84560400  0.77553200  0.05628500  1
  F  F34  1  0.15439600  0.27553200  0.44371500  1
  F  F35  1  0.34560400  0.72446800  0.94371500  1
  F  F36  1  0.34560400  0.77553200  0.44371500  1
  F  F37  1  0.15439600  0.22446800  0.94371500  1
  F  F38  1  0.84560400  0.72446800  0.55628500  1
  F  F39  1  0.65439600  0.27553200  0.05628500  1
