# generated using pymatgen
data_Zr2In5Ni
_symmetry_space_group_name_H-M   'P 1'
_cell_length_a   10.16841900
_cell_length_b   10.16841900
_cell_length_c   6.79309100
_cell_angle_alpha   90.00000000
_cell_angle_beta   90.00000000
_cell_angle_gamma   90.00000000
_symmetry_Int_Tables_number   1
_chemical_formula_structural   Zr2In5Ni
_chemical_formula_sum   'Zr8 In20 Ni4'
_cell_volume   702.38349761
_cell_formula_units_Z   4
loop_
 _symmetry_equiv_pos_site_id
 _symmetry_equiv_pos_as_xyz
  1  'x, y, z'
loop_
 _atom_site_type_symbol
 _atom_site_label
 _atom_site_symmetry_multiplicity
 _atom_site_fract_x
 _atom_site_fract_y
 _atom_site_fract_z
 _atom_site_occupancy
  Zr  Zr0  1  0.19880600  0.80119400  0.00000000  1
  Zr  Zr1  1  0.69880600  0.69880600  0.50000000  1
  Zr  Zr2  1  0.16223200  0.83776800  0.50000000  1
  Zr  Zr3  1  0.33776800  0.33776800  0.00000000  1
  Zr  Zr4  1  0.80119400  0.19880600  0.00000000  1
  Zr  Zr5  1  0.66223200  0.66223200  0.00000000  1
  Zr  Zr6  1  0.83776800  0.16223200  0.50000000  1
  Zr  Zr7  1  0.30119400  0.30119400  0.50000000  1
  In  In8  1  0.20133500  0.55840800  0.72176400  1
  In  In9  1  0.29866500  0.05840800  0.22176400  1
  In  In10  1  0.50000000  0.50000000  0.29788300  1
  In  In11  1  0.44159200  0.79866500  0.72176400  1
  In  In12  1  0.55840800  0.20133500  0.27823600  1
  In  In13  1  0.79866500  0.44159200  0.72176400  1
  In  In14  1  0.94159200  0.70133500  0.77823600  1
  In  In15  1  0.79866500  0.44159200  0.27823600  1
  In  In16  1  0.94159200  0.70133500  0.22176400  1
  In  In17  1  0.29866500  0.05840800  0.77823600  1
  In  In18  1  0.55840800  0.20133500  0.72176400  1
  In  In19  1  0.05840800  0.29866500  0.77823600  1
  In  In20  1  0.00000000  0.00000000  0.79788300  1
  In  In21  1  0.70133500  0.94159200  0.22176400  1
  In  In22  1  0.20133500  0.55840800  0.27823600  1
  In  In23  1  0.44159200  0.79866500  0.27823600  1
  In  In24  1  0.05840800  0.29866500  0.22176400  1
  In  In25  1  0.00000000  0.00000000  0.20211700  1
  In  In26  1  0.70133500  0.94159200  0.77823600  1
  In  In27  1  0.50000000  0.50000000  0.70211700  1
  Ni  Ni28  1  0.11332900  0.11332900  0.50000000  1
  Ni  Ni29  1  0.88667100  0.88667100  0.50000000  1
  Ni  Ni30  1  0.61332900  0.38667100  0.00000000  1
  Ni  Ni31  1  0.38667100  0.61332900  0.00000000  1
