# generated using pymatgen
data_Na2PdO3
_symmetry_space_group_name_H-M   'P 1'
_cell_length_a   5.62839850
_cell_length_b   5.62839850
_cell_length_c   37.96175365
_cell_angle_alpha   88.84125984
_cell_angle_beta   88.84125984
_cell_angle_gamma   120.09049553
_symmetry_Int_Tables_number   1
_chemical_formula_structural   Na2PdO3
_chemical_formula_sum   'Na32 Pd16 O48'
_cell_volume   1039.66482059
_cell_formula_units_Z   16
loop_
 _symmetry_equiv_pos_site_id
 _symmetry_equiv_pos_as_xyz
  1  'x, y, z'
loop_
 _atom_site_type_symbol
 _atom_site_label
 _atom_site_symmetry_multiplicity
 _atom_site_fract_x
 _atom_site_fract_y
 _atom_site_fract_z
 _atom_site_occupancy
  Na  Na0  1  0.66492500  0.95558100  0.06197300  1
  Na  Na1  1  0.12533300  0.75054200  0.68761800  1
  Na  Na2  1  0.01163500  0.98836500  0.00000000  1
  Na  Na3  1  0.35549800  0.64450200  0.00000000  1
  Na  Na4  1  0.05140300  0.66907200  0.87486600  1
  Na  Na5  1  0.87484600  0.49995000  0.43751100  1
  Na  Na6  1  0.78043900  0.72122400  0.75032500  1
  Na  Na7  1  0.09710400  0.40637700  0.75066300  1
  Na  Na8  1  0.81263000  0.43764900  0.62511600  1
  Na  Na9  1  0.04441900  0.33507500  0.93802700  1
  Na  Na10  1  0.62546700  0.25165100  0.18719300  1
  Na  Na11  1  0.52961400  0.47038600  0.50000000  1
  Na  Na12  1  0.84530400  0.15469600  0.50000000  1
  Na  Na13  1  0.74834900  0.37453300  0.81280700  1
  Na  Na14  1  0.56235100  0.18737000  0.37488400  1
  Na  Na15  1  0.27877600  0.21956100  0.24967500  1
  Na  Na16  1  0.59362300  0.90289600  0.24933700  1
  Na  Na17  1  0.69646500  0.30353500  0.00000000  1
  Na  Na18  1  0.50005000  0.12515400  0.56248900  1
  Na  Na19  1  0.33092800  0.94859700  0.12513400  1
  Na  Na20  1  0.39653400  0.35515000  0.87549600  1
  Na  Na21  1  0.74184100  0.04038900  0.87604600  1
  Na  Na22  1  0.43641600  0.06240800  0.74999000  1
  Na  Na23  1  0.24945800  0.87466700  0.31238200  1
  Na  Na24  1  0.15513200  0.09587600  0.62513900  1
  Na  Na25  1  0.47108600  0.78032100  0.62515300  1
  Na  Na26  1  0.18740600  0.81259400  0.50000000  1
  Na  Na27  1  0.90412400  0.84486800  0.37486100  1
  Na  Na28  1  0.21967900  0.52891400  0.37484700  1
  Na  Na29  1  0.93759200  0.56358400  0.25001000  1
  Na  Na30  1  0.64485000  0.60346600  0.12450400  1
  Na  Na31  1  0.95961100  0.25815900  0.12395400  1
  Pd  Pd32  1  0.37397600  0.99871900  0.93771200  1
  Pd  Pd33  1  0.41956400  0.71132500  0.81310400  1
  Pd  Pd34  1  0.16781500  0.45752700  0.56256300  1
  Pd  Pd35  1  0.00128100  0.62602400  0.06228800  1
  Pd  Pd36  1  0.91618900  0.20619900  0.31225700  1
  Pd  Pd37  1  0.70938200  0.66638100  0.93773400  1
  Pd  Pd38  1  0.79380100  0.08381100  0.68774300  1
  Pd  Pd39  1  0.45834900  0.41896700  0.68776400  1
  Pd  Pd40  1  0.54247300  0.83218500  0.43743700  1
  Pd  Pd41  1  0.20713800  0.16749100  0.43746100  1
  Pd  Pd42  1  0.28867500  0.58043600  0.18689600  1
  Pd  Pd43  1  0.95636800  0.91576300  0.18693700  1
  Pd  Pd44  1  0.08423700  0.04363200  0.81306300  1
  Pd  Pd45  1  0.83250900  0.79286200  0.56253900  1
  Pd  Pd46  1  0.58103300  0.54165100  0.31223600  1
  Pd  Pd47  1  0.33361900  0.29061800  0.06226600  1
  O  O48  1  0.67503500  0.96552800  0.96481000  1
  O  O49  1  0.47717300  0.74204300  0.71470600  1
  O  O50  1  0.31393900  0.96512000  0.03517000  1
  O  O51  1  0.22640800  0.49083700  0.46445700  1
  O  O52  1  0.41123700  0.70196000  0.91073800  1
  O  O53  1  0.11908400  0.74540800  0.78590600  1
  O  O54  1  0.97655600  0.24145100  0.21408600  1
  O  O55  1  0.13497000  0.39901800  0.66071500  1
  O  O56  1  0.86780700  0.49278700  0.53541500  1
  O  O57  1  0.03488000  0.68606100  0.96483000  1
  O  O58  1  0.74241000  0.72913400  0.84004700  1
  O  O59  1  0.09959600  0.36712700  0.84000500  1
  O  O60  1  0.88383900  0.14831200  0.41046900  1
  O  O61  1  0.61617900  0.24129000  0.28508800  1
  O  O62  1  0.75871000  0.38382100  0.71491200  1
  O  O63  1  0.49116000  0.47676200  0.58955300  1
  O  O64  1  0.85168800  0.11616100  0.58953100  1
  O  O65  1  0.67600800  0.60637100  0.03533900  1
  O  O66  1  0.03447200  0.32496500  0.03519000  1
  O  O67  1  0.69375300  0.34271600  0.91086300  1
  O  O68  1  0.63287300  0.90040400  0.15999500  1
  O  O69  1  0.50721300  0.13219300  0.46458500  1
  O  O70  1  0.23975700  0.22577900  0.33927600  1
  O  O71  1  0.60098200  0.86503000  0.33928500  1
  O  O72  1  0.39968800  0.38560800  0.78607100  1
  O  O73  1  0.75854900  0.02344400  0.78591400  1
  O  O74  1  0.49336500  0.11853600  0.66063900  1
  O  O75  1  0.39362900  0.32399200  0.96466100  1
  O  O76  1  0.25459200  0.88091600  0.21409400  1
  O  O77  1  0.01914200  0.94897300  0.08914500  1
  O  O78  1  0.29804000  0.58876300  0.08926200  1
  O  O79  1  0.14865200  0.13412600  0.53557200  1
  O  O80  1  0.50916300  0.77359200  0.53554300  1
  O  O81  1  0.24239600  0.86737300  0.41030400  1
  O  O82  1  0.38181500  0.00757600  0.84018300  1
  O  O83  1  0.11680200  0.10312800  0.71477600  1
  O  O84  1  0.89687200  0.88319800  0.28522400  1
  O  O85  1  0.25795700  0.52282700  0.28529400  1
  O  O86  1  0.99242400  0.61818500  0.15981700  1
  O  O87  1  0.13262700  0.75760400  0.58969600  1
  O  O88  1  0.86587400  0.85134800  0.46442800  1
  O  O89  1  0.05102700  0.98085800  0.91085500  1
  O  O90  1  0.88146400  0.50663500  0.33936100  1
  O  O91  1  0.61439200  0.60031200  0.21392900  1
  O  O92  1  0.77422100  0.76024300  0.66072400  1
  O  O93  1  0.65728400  0.30624700  0.08913700  1
  O  O94  1  0.52323800  0.50884000  0.41044700  1
  O  O95  1  0.27086600  0.25759000  0.15995300  1
