# generated using pymatgen
data_Cs3AlP2
_symmetry_space_group_name_H-M   'P 1'
_cell_length_a   8.76759200
_cell_length_b   11.42270000
_cell_length_c   19.23268323
_cell_angle_alpha   79.63975570
_cell_angle_beta   90.00000000
_cell_angle_gamma   90.00000000
_symmetry_Int_Tables_number   1
_chemical_formula_structural   Cs3AlP2
_chemical_formula_sum   'Cs24 Al8 P16'
_cell_volume   1894.74209260
_cell_formula_units_Z   8
loop_
 _symmetry_equiv_pos_site_id
 _symmetry_equiv_pos_as_xyz
  1  'x, y, z'
loop_
 _atom_site_type_symbol
 _atom_site_label
 _atom_site_symmetry_multiplicity
 _atom_site_fract_x
 _atom_site_fract_y
 _atom_site_fract_z
 _atom_site_occupancy
  Cs  Cs0  1  0.93131800  0.62380100  0.11147100  1
  Cs  Cs1  1  0.25731400  0.36073900  0.71106900  1
  Cs  Cs2  1  0.91328900  0.26420400  0.07879700  1
  Cs  Cs3  1  0.56868200  0.62380100  0.61147100  1
  Cs  Cs4  1  0.88125100  0.28977600  0.33887400  1
  Cs  Cs5  1  0.58671100  0.26420400  0.57879700  1
  Cs  Cs6  1  0.52464000  0.84986500  0.96737200  1
  Cs  Cs7  1  0.44202600  0.91778500  0.74397900  1
  Cs  Cs8  1  0.06868200  0.37619900  0.88852900  1
  Cs  Cs9  1  0.47536000  0.15013500  0.03262800  1
  Cs  Cs10  1  0.61874900  0.28977600  0.83887400  1
  Cs  Cs11  1  0.11874900  0.71022400  0.66112600  1
  Cs  Cs12  1  0.75731400  0.63926100  0.78893100  1
  Cs  Cs13  1  0.24268600  0.36073900  0.21106900  1
  Cs  Cs14  1  0.41328900  0.73579600  0.42120300  1
  Cs  Cs15  1  0.05797400  0.91778500  0.24397900  1
  Cs  Cs16  1  0.38125100  0.71022400  0.16112600  1
  Cs  Cs17  1  0.02464000  0.15013500  0.53262800  1
  Cs  Cs18  1  0.94202600  0.08221500  0.75602100  1
  Cs  Cs19  1  0.08671100  0.73579600  0.92120300  1
  Cs  Cs20  1  0.55797400  0.08221500  0.25602100  1
  Cs  Cs21  1  0.97536000  0.84986500  0.46737200  1
  Cs  Cs22  1  0.74268600  0.63926100  0.28893100  1
  Cs  Cs23  1  0.43131800  0.37619900  0.38852900  1
  Al  Al24  1  0.94657700  0.46392500  0.57263600  1
  Al  Al25  1  0.88734700  0.95667000  0.05454700  1
  Al  Al26  1  0.55342300  0.46392500  0.07263600  1
  Al  Al27  1  0.11265300  0.04333000  0.94545300  1
  Al  Al28  1  0.61265300  0.95667000  0.55454700  1
  Al  Al29  1  0.38734700  0.04333000  0.44545300  1
  Al  Al30  1  0.44657700  0.53607500  0.92736400  1
  Al  Al31  1  0.05342300  0.53607500  0.42736400  1
  P  P32  1  0.65625100  0.05378500  0.43727800  1
  P  P33  1  0.20200200  0.49372000  0.53166200  1
  P  P34  1  0.78700600  0.89637100  0.63988400  1
  P  P35  1  0.36132300  0.59550700  0.81464800  1
  P  P36  1  0.84374900  0.05378500  0.93727800  1
  P  P37  1  0.79799800  0.50628000  0.46833800  1
  P  P38  1  0.71299400  0.89637100  0.13988400  1
  P  P39  1  0.86132300  0.40449300  0.68535200  1
  P  P40  1  0.70200200  0.50628000  0.96833800  1
  P  P41  1  0.13867700  0.59550700  0.31464800  1
  P  P42  1  0.34374900  0.94621500  0.56272200  1
  P  P43  1  0.15625100  0.94621500  0.06272200  1
  P  P44  1  0.29799800  0.49372000  0.03166200  1
  P  P45  1  0.28700600  0.10362900  0.86011600  1
  P  P46  1  0.21299400  0.10362900  0.36011600  1
  P  P47  1  0.63867700  0.40449300  0.18535200  1
