# generated using pymatgen
data_Mg4Sb2O9
_symmetry_space_group_name_H-M   'P 1'
_cell_length_a   5.24593000
_cell_length_b   5.63500930
_cell_length_c   11.86322887
_cell_angle_alpha   98.22880352
_cell_angle_beta   102.75201943
_cell_angle_gamma   90.53895343
_symmetry_Int_Tables_number   1
_chemical_formula_structural   Mg4Sb2O9
_chemical_formula_sum   'Mg8 Sb4 O18'
_cell_volume   338.21048421
_cell_formula_units_Z   2
loop_
 _symmetry_equiv_pos_site_id
 _symmetry_equiv_pos_as_xyz
  1  'x, y, z'
loop_
 _atom_site_type_symbol
 _atom_site_label
 _atom_site_symmetry_multiplicity
 _atom_site_fract_x
 _atom_site_fract_y
 _atom_site_fract_z
 _atom_site_occupancy
  Mg  Mg0  1  0.22323000  0.48443600  0.42041600  1
  Mg  Mg1  1  0.61685800  0.32851200  0.22988900  1
  Mg  Mg2  1  0.53439900  0.83945600  0.09543500  1
  Mg  Mg3  1  0.11411600  0.82879900  0.23241700  1
  Mg  Mg4  1  0.88588400  0.17120100  0.76758300  1
  Mg  Mg5  1  0.46560100  0.16054400  0.90456500  1
  Mg  Mg6  1  0.38314200  0.67148800  0.77011100  1
  Mg  Mg7  1  0.77677000  0.51556400  0.57958400  1
  Sb  Sb8  1  0.28587000  0.97051900  0.57346200  1
  Sb  Sb9  1  0.94379000  0.65074600  0.89392100  1
  Sb  Sb10  1  0.05621000  0.34925400  0.10607900  1
  Sb  Sb11  1  0.71413000  0.02948100  0.42653800  1
  O  O12  1  0.72429000  0.90785800  0.83440700  1
  O  O13  1  0.42642500  0.65236600  0.59658600  1
  O  O14  1  0.98232800  0.48323100  0.26312200  1
  O  O15  1  0.06142200  0.23046600  0.50288200  1
  O  O16  1  0.78075900  0.97611600  0.27175200  1
  O  O17  1  0.29294500  0.81744900  0.93218100  1
  O  O18  1  0.36055000  0.86414000  0.40394000  1
  O  O19  1  0.87665400  0.67276300  0.05791400  1
  O  O20  1  0.37173300  0.58021000  0.16605700  1
  O  O21  1  0.62826700  0.41979000  0.83394300  1
  O  O22  1  0.12334600  0.32723700  0.94208600  1
  O  O23  1  0.63945000  0.13586000  0.59606000  1
  O  O24  1  0.70705500  0.18255100  0.06781900  1
  O  O25  1  0.21924100  0.02388400  0.72824800  1
  O  O26  1  0.93857800  0.76953400  0.49711800  1
  O  O27  1  0.01767200  0.51676900  0.73687800  1
  O  O28  1  0.57357500  0.34763400  0.40341400  1
  O  O29  1  0.27571000  0.09214200  0.16559300  1
