# generated using pymatgen
data_As2Pb14Cl4O17
_symmetry_space_group_name_H-M   'P 1'
_cell_length_a   13.19017083
_cell_length_b   13.19017083
_cell_length_c   11.50358125
_cell_angle_alpha   76.55109875
_cell_angle_beta   76.55109875
_cell_angle_gamma   121.34357819
_symmetry_Int_Tables_number   1
_chemical_formula_structural   As2Pb14Cl4O17
_chemical_formula_sum   'As4 Pb28 Cl8 O34'
_cell_volume   1504.33503462
_cell_formula_units_Z   2
loop_
 _symmetry_equiv_pos_site_id
 _symmetry_equiv_pos_as_xyz
  1  'x, y, z'
loop_
 _atom_site_type_symbol
 _atom_site_label
 _atom_site_symmetry_multiplicity
 _atom_site_fract_x
 _atom_site_fract_y
 _atom_site_fract_z
 _atom_site_occupancy
  As  As0  1  0.81537400  0.45911900  0.32264500  1
  As  As1  1  0.18462600  0.54088100  0.67735500  1
  As  As2  1  0.54088100  0.18462600  0.17735500  1
  As  As3  1  0.45911900  0.81537400  0.82264500  1
  Pb  Pb4  1  0.45524100  0.28242000  0.92427100  1
  Pb  Pb5  1  0.79539400  0.95973000  0.69342600  1
  Pb  Pb6  1  0.04027000  0.20460600  0.80657400  1
  Pb  Pb7  1  0.45162300  0.84116400  0.29910000  1
  Pb  Pb8  1  0.20460600  0.04027000  0.30657400  1
  Pb  Pb9  1  0.70503100  0.54876600  0.04919300  1
  Pb  Pb10  1  0.45123400  0.29496900  0.45080700  1
  Pb  Pb11  1  0.02880000  0.19844700  0.31851400  1
  Pb  Pb12  1  0.90290100  0.29626400  0.56074100  1
  Pb  Pb13  1  0.28242000  0.45524100  0.42427100  1
  Pb  Pb14  1  0.95973000  0.79539400  0.19342600  1
  Pb  Pb15  1  0.19844700  0.02880000  0.81851400  1
  Pb  Pb16  1  0.54475900  0.71758000  0.07572900  1
  Pb  Pb17  1  0.32270600  0.92554300  0.57547400  1
  Pb  Pb18  1  0.92554300  0.32270600  0.07547400  1
  Pb  Pb19  1  0.67729400  0.07445700  0.42452600  1
  Pb  Pb20  1  0.15883600  0.54837700  0.20090000  1
  Pb  Pb21  1  0.54837700  0.15883600  0.70090000  1
  Pb  Pb22  1  0.07445700  0.67729400  0.92452600  1
  Pb  Pb23  1  0.54876600  0.70503100  0.54919300  1
  Pb  Pb24  1  0.84116400  0.45162300  0.79910000  1
  Pb  Pb25  1  0.97120000  0.80155300  0.68148600  1
  Pb  Pb26  1  0.09709900  0.70373600  0.43925900  1
  Pb  Pb27  1  0.70373600  0.09709900  0.93925900  1
  Pb  Pb28  1  0.29626400  0.90290100  0.06074100  1
  Pb  Pb29  1  0.71758000  0.54475900  0.57572900  1
  Pb  Pb30  1  0.80155300  0.97120000  0.18148600  1
  Pb  Pb31  1  0.29496900  0.45123400  0.95080700  1
  Cl  Cl32  1  0.12645600  0.12624900  0.06224000  1
  Cl  Cl33  1  0.12624900  0.12645600  0.56224000  1
  Cl  Cl34  1  0.39470500  0.36574100  0.69126200  1
  Cl  Cl35  1  0.36574100  0.39470500  0.19126200  1
  Cl  Cl36  1  0.87375100  0.87354400  0.43776000  1
  Cl  Cl37  1  0.87354400  0.87375100  0.93776000  1
  Cl  Cl38  1  0.63425900  0.60529500  0.80873800  1
  Cl  Cl39  1  0.60529500  0.63425900  0.30873800  1
  O  O40  1  0.16922100  0.88443500  0.48623300  1
  O  O41  1  0.82286000  0.52654600  0.16966800  1
  O  O42  1  0.52654600  0.82286000  0.66966800  1
  O  O43  1  0.08901900  0.40735500  0.64480400  1
  O  O44  1  0.90692800  0.62111000  0.61112600  1
  O  O45  1  0.17714000  0.47345400  0.83033200  1
  O  O46  1  0.86697600  0.13302400  0.75000000  1
  O  O47  1  0.85574500  0.14425500  0.25000000  1
  O  O48  1  0.35636000  0.64364000  0.25000000  1
  O  O49  1  0.12646100  0.63098700  0.68063100  1
  O  O50  1  0.14425500  0.85574500  0.75000000  1
  O  O51  1  0.11556500  0.83077900  0.01376700  1
  O  O52  1  0.62111000  0.90692800  0.11112600  1
  O  O53  1  0.40735500  0.08901900  0.14480400  1
  O  O54  1  0.37889000  0.09307200  0.88887400  1
  O  O55  1  0.64364000  0.35636000  0.75000000  1
  O  O56  1  0.39222500  0.11722500  0.61982500  1
  O  O57  1  0.11722500  0.39222500  0.11982500  1
  O  O58  1  0.88277500  0.60777500  0.88017500  1
  O  O59  1  0.34015400  0.63357300  0.54594700  1
  O  O60  1  0.87353900  0.36901300  0.31936900  1
  O  O61  1  0.88443500  0.16922100  0.98623300  1
  O  O62  1  0.91098100  0.59264500  0.35519600  1
  O  O63  1  0.09307200  0.37889000  0.38887400  1
  O  O64  1  0.36901300  0.87353900  0.81936900  1
  O  O65  1  0.59264500  0.91098100  0.85519600  1
  O  O66  1  0.63357300  0.34015400  0.04594800  1
  O  O67  1  0.63098700  0.12646100  0.18063100  1
  O  O68  1  0.83077900  0.11556500  0.51376700  1
  O  O69  1  0.65984600  0.36642700  0.45405300  1
  O  O70  1  0.36642700  0.65984600  0.95405300  1
  O  O71  1  0.13302400  0.86697600  0.25000000  1
  O  O72  1  0.60777500  0.88277500  0.38017500  1
  O  O73  1  0.47345400  0.17714000  0.33033200  1
