# generated using pymatgen
data_Yb6U3O17
_symmetry_space_group_name_H-M   'P 1'
_cell_length_a   6.59206599
_cell_length_b   6.59206599
_cell_length_c   11.11634623
_cell_angle_alpha   73.75036691
_cell_angle_beta   73.75036691
_cell_angle_gamma   47.95043987
_symmetry_Int_Tables_number   1
_chemical_formula_structural   Yb6U3O17
_chemical_formula_sum   'Yb6 U3 O17'
_cell_volume   341.47224784
_cell_formula_units_Z   1
loop_
 _symmetry_equiv_pos_site_id
 _symmetry_equiv_pos_as_xyz
  1  'x, y, z'
loop_
 _atom_site_type_symbol
 _atom_site_label
 _atom_site_symmetry_multiplicity
 _atom_site_fract_x
 _atom_site_fract_y
 _atom_site_fract_z
 _atom_site_occupancy
  Yb  Yb0  1  0.00907100  0.64972000  0.89003800  1
  Yb  Yb1  1  0.93951900  0.70150900  0.55453500  1
  Yb  Yb2  1  0.68433600  0.32330000  0.32337000  1
  Yb  Yb3  1  0.35028000  0.99092900  0.10996200  1
  Yb  Yb4  1  0.67670000  0.31566400  0.67663000  1
  Yb  Yb5  1  0.29849100  0.06048100  0.44546500  1
  U  U6  1  0.00846400  0.66724400  0.22191600  1
  U  U7  1  0.67957500  0.32042500  0.00000000  1
  U  U8  1  0.33275600  0.99153600  0.77808400  1
  O  O9  1  0.73365600  0.92722100  0.37212500  1
  O  O10  1  0.44909500  0.56585800  0.14946600  1
  O  O11  1  0.77051500  0.89938700  0.06716600  1
  O  O12  1  0.27810900  0.40318700  0.06387700  1
  O  O13  1  0.10061300  0.22948500  0.93283400  1
  O  O14  1  0.43414200  0.55090500  0.85053400  1
  O  O15  1  0.70553500  0.92839300  0.73191300  1
  O  O16  1  0.25467400  0.39961900  0.70417400  1
  O  O17  1  0.07277900  0.26634400  0.62787500  1
  O  O18  1  0.91654100  0.08345900  0.50000000  1
  O  O19  1  0.23011100  0.47510800  0.37348500  1
  O  O20  1  0.07160700  0.29446500  0.26808700  1
  O  O21  1  0.60038100  0.74532600  0.29582600  1
  O  O22  1  0.93316400  0.06847200  0.15566700  1
  O  O23  1  0.59681300  0.72189100  0.93612300  1
  O  O24  1  0.93152800  0.06683600  0.84433300  1
  O  O25  1  0.52489200  0.76988900  0.62651500  1
