# generated using pymatgen
data_Li5TiN3
_symmetry_space_group_name_H-M   'P 1'
_cell_length_a   8.45292800
_cell_length_b   8.45449830
_cell_length_c   21.29928266
_cell_angle_alpha   97.62592687
_cell_angle_beta   97.58487249
_cell_angle_gamma   109.40314900
_symmetry_Int_Tables_number   1
_chemical_formula_structural   Li5TiN3
_chemical_formula_sum   'Li80 Ti16 N48'
_cell_volume   1397.54002458
_cell_formula_units_Z   16
loop_
 _symmetry_equiv_pos_site_id
 _symmetry_equiv_pos_as_xyz
  1  'x, y, z'
loop_
 _atom_site_type_symbol
 _atom_site_label
 _atom_site_symmetry_multiplicity
 _atom_site_fract_x
 _atom_site_fract_y
 _atom_site_fract_z
 _atom_site_occupancy
  Li  Li0  1  0.22852600  0.21832300  0.74527000  1
  Li  Li1  1  0.06228400  0.60358100  0.91822700  1
  Li  Li2  1  0.33603000  0.79719800  0.92213400  1
  Li  Li3  1  0.10580600  0.09456500  0.92256200  1
  Li  Li4  1  0.34228700  0.05980000  0.67835600  1
  Li  Li5  1  0.43475700  0.70846800  0.83272300  1
  Li  Li6  1  0.29766800  0.57110200  0.64822300  1
  Li  Li7  1  0.57938100  0.57012200  0.41345000  1
  Li  Li8  1  0.40718100  0.94945600  0.58553700  1
  Li  Li9  1  0.59138400  0.29837000  0.66139400  1
  Li  Li10  1  0.36448600  0.33324000  0.91104500  1
  Li  Li11  1  0.49894900  0.98293800  0.76239400  1
  Li  Li12  1  0.73986700  0.24134500  0.75879400  1
  Li  Li13  1  0.68389500  0.11982800  0.58531800  1
  Li  Li14  1  0.45443200  0.44661900  0.59019700  1
  Li  Li15  1  0.59770900  0.61642000  0.92045000  1
  Li  Li16  1  0.70272300  0.91240500  0.83571800  1
  Li  Li17  1  0.66552000  0.39895200  0.34163000  1
  Li  Li18  1  0.42055300  0.17641800  0.82345100  1
  Li  Li19  1  0.69596200  0.66377200  0.57897400  1
  Li  Li20  1  0.91766900  0.16453200  0.84033300  1
  Li  Li21  1  0.66528800  0.41880100  0.84306200  1
  Li  Li22  1  0.77565500  0.01717800  0.48867600  1
  Li  Li23  1  0.64987800  0.89851600  0.32598800  1
  Li  Li24  1  0.77871600  0.75360400  0.75345600  1
  Li  Li25  1  0.91730900  0.64419800  0.33949900  1
  Li  Li26  1  0.82581200  0.33026200  0.42306600  1
  Li  Li27  1  0.85585300  0.10848000  0.67608600  1
  Li  Li28  1  0.74131500  0.28589900  0.25272600  1
  Li  Li29  1  0.85453500  0.84058600  0.92300100  1
  Li  Li30  1  0.08369700  0.58909200  0.42510700  1
  Li  Li31  1  0.82854600  0.82652200  0.40711800  1
  Li  Li32  1  0.01092600  0.47689100  0.25927600  1
  Li  Li33  1  0.89951400  0.92363700  0.58326400  1
  Li  Li34  1  0.80769200  0.58077700  0.66638800  1
  Li  Li35  1  0.01575200  0.25294200  0.48561000  1
  Li  Li36  1  0.88600700  0.65343500  0.83839800  1
  Li  Li37  1  0.78506500  0.77399300  0.25879000  1
  Li  Li38  1  0.09511400  0.35806300  0.68147200  1
  Li  Li39  1  0.83563100  0.35768300  0.91716000  1
  Li  Li40  1  0.98830300  0.00649100  0.75230900  1
  Li  Li41  1  0.75148900  0.51496300  0.49282100  1
  Li  Li42  1  0.06231000  0.83565200  0.66779500  1
  Li  Li43  1  0.25021200  0.50393400  0.50834800  1
  Li  Li44  1  0.02839400  0.99572000  0.24703400  1
  Li  Li45  1  0.96925100  0.23172800  0.98573400  1
  Li  Li46  1  0.97769600  0.76262600  0.49428900  1
  Li  Li47  1  0.08219700  0.05966400  0.41710000  1
  Li  Li48  1  0.09938600  0.37766600  0.16532000  1
  Li  Li49  1  0.14974300  0.65921500  0.08721700  1
  Li  Li50  1  0.18938600  0.44214400  0.34379300  1
  Li  Li51  1  0.96475600  0.50556200  0.74646900  1
  Li  Li52  1  0.40761600  0.90955000  0.09085600  1
  Li  Li53  1  0.23808900  0.72494600  0.73699300  1
  Li  Li54  1  0.15958700  0.70267500  0.57936200  1
  Li  Li55  1  0.23198000  0.96592200  0.49414200  1
  Li  Li56  1  0.14433200  0.91215900  0.33693500  1
  Li  Li57  1  0.23006500  0.26019100  0.25148400  1
  Li  Li58  1  0.42935500  0.68021300  0.34506300  1
  Li  Li59  1  0.34826500  0.58832200  0.15286900  1
  Li  Li60  1  0.32139400  0.33606800  0.41908400  1
  Li  Li61  1  0.08485500  0.84493900  0.15854900  1
  Li  Li62  1  0.39189300  0.16378700  0.33299700  1
  Li  Li63  1  0.58603100  0.83483000  0.17568500  1
  Li  Li64  1  0.44576900  0.41752100  0.08639900  1
  Li  Li65  1  0.33038600  0.08530800  0.17541500  1
  Li  Li66  1  0.25002400  0.96880600  0.99791400  1
  Li  Li67  1  0.51853200  0.77658900  0.00618500  1
  Li  Li68  1  0.30609800  0.83047000  0.40802000  1
  Li  Li69  1  0.58010200  0.06663300  0.40374500  1
  Li  Li70  1  0.47144600  0.24725200  0.99971600  1
  Li  Li71  1  0.56560900  0.29699800  0.16185100  1
  Li  Li72  1  0.51641200  0.03084200  0.25323800  1
  Li  Li73  1  0.65538200  0.67301300  0.08351100  1
  Li  Li74  1  0.72693600  0.49205500  0.99555600  1
  Li  Li75  1  0.90180500  0.89142400  0.07914300  1
  Li  Li76  1  0.63392000  0.15430400  0.07106600  1
  Li  Li77  1  0.90094300  0.39020200  0.06961700  1
  Li  Li78  1  0.76431600  0.00458000  0.00605900  1
  Li  Li79  1  0.98698200  0.73107400  0.00198700  1
  Ti  Ti80  1  0.16962300  0.90562900  0.83215600  1
  Ti  Ti81  1  0.16910800  0.43063600  0.83110700  1
  Ti  Ti82  1  0.50812200  0.23788300  0.50095000  1
  Ti  Ti83  1  0.49240700  0.49486000  0.74388800  1
  Ti  Ti84  1  0.50600200  0.76274900  0.49941800  1
  Ti  Ti85  1  0.58871000  0.83243600  0.66469700  1
  Ti  Ti86  1  0.58246700  0.07878900  0.91488300  1
  Ti  Ti87  1  0.83875500  0.57299600  0.16700300  1
  Ti  Ti88  1  0.83742400  0.09713700  0.16540200  1
  Ti  Ti89  1  0.92195300  0.17147000  0.33208600  1
  Ti  Ti90  1  0.25826700  0.75230300  0.24811700  1
  Ti  Ti91  1  0.92238300  0.41507300  0.58097800  1
  Ti  Ti92  1  0.18155800  0.17637100  0.58678900  1
  Ti  Ti93  1  0.16323600  0.16577400  0.07956900  1
  Ti  Ti94  1  0.25523600  0.50003400  0.99771000  1
  Ti  Ti95  1  0.50958100  0.50490700  0.25128200  1
  N  N96  1  0.16489500  0.66267100  0.82996900  1
  N  N97  1  0.33664300  0.33307400  0.66595800  1
  N  N98  1  0.33585100  0.06568200  0.90831600  1
  N  N99  1  0.11138000  0.35625300  0.91263300  1
  N  N100  1  0.39876200  0.42525800  0.82111700  1
  N  N101  1  0.66360100  0.15535800  0.84019400  1
  N  N102  1  0.65488700  0.64780700  0.32632800  1
  N  N103  1  0.67633900  0.39734100  0.57648600  1
  N  N104  1  0.43818300  0.69061300  0.58208400  1
  N  N105  1  0.50319800  0.73010100  0.73982400  1
  N  N106  1  0.59162700  0.85708000  0.91760600  1
  N  N107  1  0.58972700  0.05839000  0.66958400  1
  N  N108  1  0.72584700  0.23215700  0.99147400  1
  N  N109  1  0.71276000  0.49018600  0.74749500  1
  N  N110  1  0.82503300  0.58935400  0.91982700  1
  N  N111  1  0.72733200  0.75740200  0.49768500  1
  N  N112  1  0.81424300  0.83762400  0.66639300  1
  N  N113  1  0.99672900  0.49658800  0.50847600  1
  N  N114  1  0.00987300  0.73262000  0.24083600  1
  N  N115  1  0.94942500  0.18829600  0.58393700  1
  N  N116  1  0.77482900  0.02384500  0.24632100  1
  N  N117  1  0.83839100  0.08638900  0.40523800  1
  N  N118  1  0.95017700  0.91747700  0.83508300  1
  N  N119  1  0.91995300  0.39760100  0.33705100  1
  N  N120  1  0.05827000  0.57311300  0.65659900  1
  N  N121  1  0.07174700  0.82247200  0.41572500  1
  N  N122  1  0.06960700  0.09589000  0.15964000  1
  N  N123  1  0.23818900  0.98089300  0.75605300  1
  N  N124  1  0.16520800  0.95145500  0.58754900  1
  N  N125  1  0.01237100  0.27416400  0.76060000  1
  N  N126  1  0.14939500  0.17277900  0.33368700  1
  N  N127  1  0.33118000  0.83064300  0.17394900  1
  N  N128  1  0.01751600  0.01262100  0.00676200  1
  N  N129  1  0.17237600  0.40468400  0.07456800  1
  N  N130  1  0.27710000  0.24892300  0.51076400  1
  N  N131  1  0.27519300  0.52220800  0.24937200  1
  N  N132  1  0.25225200  0.72451200  0.00395100  1
  N  N133  1  0.40025200  0.90499900  0.32310700  1
  N  N134  1  0.49481000  0.27538200  0.25205600  1
  N  N135  1  0.38669700  0.15707900  0.08270000  1
  N  N136  1  0.56813400  0.31580800  0.42638900  1
  N  N137  1  0.35252900  0.60273300  0.42854400  1
  N  N138  1  0.50746100  0.00319500  0.49904200  1
  N  N139  1  0.48071500  0.50578900  0.00077300  1
  N  N140  1  0.60652400  0.57790900  0.17311900  1
  N  N141  1  0.90021700  0.64836100  0.09234200  1
  N  N142  1  0.68243900  0.93818100  0.09543300  1
  N  N143  1  0.83467400  0.33394000  0.16533400  1
