# generated using pymatgen
data_Lu2(CN2)3
_symmetry_space_group_name_H-M   'P 1'
_cell_length_a   10.50968753
_cell_length_b   10.50968753
_cell_length_c   10.50968770
_cell_angle_alpha   34.79441019
_cell_angle_beta   34.79441019
_cell_angle_gamma   34.79440933
_symmetry_Int_Tables_number   1
_chemical_formula_structural   Lu2(CN2)3
_chemical_formula_sum   'Lu4 C6 N12'
_cell_volume   337.38451495
_cell_formula_units_Z   2
loop_
 _symmetry_equiv_pos_site_id
 _symmetry_equiv_pos_as_xyz
  1  'x, y, z'
loop_
 _atom_site_type_symbol
 _atom_site_label
 _atom_site_symmetry_multiplicity
 _atom_site_fract_x
 _atom_site_fract_y
 _atom_site_fract_z
 _atom_site_occupancy
  Lu  Lu0  1  0.66417500  0.66417500  0.66417500  1
  Lu  Lu1  1  0.83582500  0.83582500  0.83582500  1
  Lu  Lu2  1  0.33582500  0.33582500  0.33582500  1
  Lu  Lu3  1  0.16417500  0.16417500  0.16417500  1
  C  C4  1  0.04565400  0.45434600  0.75000000  1
  C  C5  1  0.95434600  0.54565400  0.25000000  1
  C  C6  1  0.25000000  0.95434600  0.54565400  1
  C  C7  1  0.54565400  0.25000000  0.95434600  1
  C  C8  1  0.45434600  0.75000000  0.04565400  1
  C  C9  1  0.75000000  0.04565400  0.45434600  1
  N  N10  1  0.86079400  0.04769300  0.46011900  1
  N  N11  1  0.36079400  0.96011900  0.54769300  1
  N  N12  1  0.04769300  0.46011900  0.86079400  1
  N  N13  1  0.95230700  0.53988100  0.13920600  1
  N  N14  1  0.03988100  0.45230700  0.63920600  1
  N  N15  1  0.45230700  0.63920600  0.03988100  1
  N  N16  1  0.63920600  0.03988100  0.45230700  1
  N  N17  1  0.96011900  0.54769300  0.36079400  1
  N  N18  1  0.13920600  0.95230700  0.53988100  1
  N  N19  1  0.54769300  0.36079400  0.96011900  1
  N  N20  1  0.46011900  0.86079400  0.04769300  1
  N  N21  1  0.53988100  0.13920600  0.95230700  1
