# generated using pymatgen
data_Tl9BiSe6
_symmetry_space_group_name_H-M   'P 1'
_cell_length_a   8.99540253
_cell_length_b   8.99540253
_cell_length_c   8.99540253
_cell_angle_alpha   122.96491971
_cell_angle_beta   122.96491971
_cell_angle_gamma   84.93701019
_symmetry_Int_Tables_number   1
_chemical_formula_structural   Tl9BiSe6
_chemical_formula_sum   'Tl9 Bi1 Se6'
_cell_volume   489.53829825
_cell_formula_units_Z   1
loop_
 _symmetry_equiv_pos_site_id
 _symmetry_equiv_pos_as_xyz
  1  'x, y, z'
loop_
 _atom_site_type_symbol
 _atom_site_label
 _atom_site_symmetry_multiplicity
 _atom_site_fract_x
 _atom_site_fract_y
 _atom_site_fract_z
 _atom_site_occupancy
  Tl  Tl0  1  0.00009000  0.49327300  0.79958100  1
  Tl  Tl1  1  0.79949100  0.99991000  0.49318300  1
  Tl  Tl2  1  0.00000000  0.00000000  0.00000000  1
  Tl  Tl3  1  0.69369200  0.20050900  0.20041900  1
  Tl  Tl4  1  0.50672700  0.30630800  0.50681700  1
  Tl  Tl5  1  0.49327300  0.69369200  0.49318300  1
  Tl  Tl6  1  0.30630800  0.79949100  0.79958100  1
  Tl  Tl7  1  0.20050900  0.00009000  0.50681700  1
  Tl  Tl8  1  0.99991000  0.50672700  0.20041900  1
  Bi  Bi9  1  0.50000000  0.50000000  0.00000000  1
  Se  Se10  1  0.72724500  0.72724500  0.00000000  1
  Se  Se11  1  0.81996500  0.64858500  0.46855100  1
  Se  Se12  1  0.64858500  0.18003500  0.82862000  1
  Se  Se13  1  0.27275500  0.27275500  0.00000000  1
  Se  Se14  1  0.35141500  0.81996500  0.17138000  1
  Se  Se15  1  0.18003500  0.35141500  0.53144900  1
