# generated using pymatgen
data_Yb(ReO4)3
_symmetry_space_group_name_H-M   'P 1'
_cell_length_a   10.24148373
_cell_length_b   10.24148373
_cell_length_c   6.24029700
_cell_angle_alpha   90.00000000
_cell_angle_beta   90.00000000
_cell_angle_gamma   119.99999823
_symmetry_Int_Tables_number   1
_chemical_formula_structural   Yb(ReO4)3
_chemical_formula_sum   'Yb2 Re6 O24'
_cell_volume   566.84152509
_cell_formula_units_Z   2
loop_
 _symmetry_equiv_pos_site_id
 _symmetry_equiv_pos_as_xyz
  1  'x, y, z'
loop_
 _atom_site_type_symbol
 _atom_site_label
 _atom_site_symmetry_multiplicity
 _atom_site_fract_x
 _atom_site_fract_y
 _atom_site_fract_z
 _atom_site_occupancy
  Yb  Yb0  1  0.66666700  0.33333300  0.75000000  1
  Yb  Yb1  1  0.33333300  0.66666700  0.25000000  1
  Re  Re2  1  0.08940100  0.39216000  0.75000000  1
  Re  Re3  1  0.39216000  0.30276000  0.25000000  1
  Re  Re4  1  0.60784000  0.69724000  0.75000000  1
  Re  Re5  1  0.91059900  0.60784000  0.25000000  1
  Re  Re6  1  0.30276000  0.91059900  0.75000000  1
  Re  Re7  1  0.69724000  0.08940100  0.25000000  1
  O  O8  1  0.49199700  0.64857600  0.52071400  1
  O  O9  1  0.35142400  0.84342100  0.52071400  1
  O  O10  1  0.84114800  0.73118500  0.25000000  1
  O  O11  1  0.10996300  0.84114800  0.75000000  1
  O  O12  1  0.26881500  0.10996300  0.25000000  1
  O  O13  1  0.15885200  0.26881500  0.75000000  1
  O  O14  1  0.50800300  0.35142400  0.02071400  1
  O  O15  1  0.89003700  0.15885200  0.25000000  1
  O  O16  1  0.10872800  0.70831100  0.25000000  1
  O  O17  1  0.15657900  0.50800300  0.97928600  1
  O  O18  1  0.15657900  0.50800300  0.52071400  1
  O  O19  1  0.89127200  0.29168900  0.75000000  1
  O  O20  1  0.29168900  0.40041700  0.25000000  1
  O  O21  1  0.70831100  0.59958300  0.75000000  1
  O  O22  1  0.84342100  0.49199700  0.47928600  1
  O  O23  1  0.40041700  0.10872800  0.75000000  1
  O  O24  1  0.64857600  0.15657900  0.02071400  1
  O  O25  1  0.49199700  0.64857600  0.97928600  1
  O  O26  1  0.35142400  0.84342100  0.97928600  1
  O  O27  1  0.64857600  0.15657900  0.47928600  1
  O  O28  1  0.50800300  0.35142400  0.47928600  1
  O  O29  1  0.84342100  0.49199700  0.02071400  1
  O  O30  1  0.73118500  0.89003700  0.75000000  1
  O  O31  1  0.59958300  0.89127200  0.25000000  1
