# generated using pymatgen
data_SnSe
_symmetry_space_group_name_H-M   'P 1'
_cell_length_a   4.21940300
_cell_length_b   4.52401900
_cell_length_c   11.78980100
_cell_angle_alpha   90.00000000
_cell_angle_beta   90.00000000
_cell_angle_gamma   90.00000000
_symmetry_Int_Tables_number   1
_chemical_formula_structural   SnSe
_chemical_formula_sum   'Sn4 Se4'
_cell_volume   225.05149498
_cell_formula_units_Z   4
loop_
 _symmetry_equiv_pos_site_id
 _symmetry_equiv_pos_as_xyz
  1  'x, y, z'
loop_
 _atom_site_type_symbol
 _atom_site_label
 _atom_site_symmetry_multiplicity
 _atom_site_fract_x
 _atom_site_fract_y
 _atom_site_fract_z
 _atom_site_occupancy
  Sn  Sn0  1  0.25000000  0.40028000  0.62187800  1
  Sn  Sn1  1  0.75000000  0.59972000  0.37812200  1
  Sn  Sn2  1  0.75000000  0.90028000  0.87812200  1
  Sn  Sn3  1  0.25000000  0.09972000  0.12187800  1
  Se  Se4  1  0.25000000  0.01438400  0.35514500  1
  Se  Se5  1  0.75000000  0.98561600  0.64485500  1
  Se  Se6  1  0.75000000  0.51438400  0.14485500  1
  Se  Se7  1  0.25000000  0.48561600  0.85514500  1
