# generated using pymatgen
data_Cs2GeTe4
_symmetry_space_group_name_H-M   'P 1'
_cell_length_a   7.73777600
_cell_length_b   11.82321800
_cell_length_c   12.87657000
_cell_angle_alpha   90.00000000
_cell_angle_beta   90.00000000
_cell_angle_gamma   90.00000000
_symmetry_Int_Tables_number   1
_chemical_formula_structural   Cs2GeTe4
_chemical_formula_sum   'Cs8 Ge4 Te16'
_cell_volume   1178.01831782
_cell_formula_units_Z   4
loop_
 _symmetry_equiv_pos_site_id
 _symmetry_equiv_pos_as_xyz
  1  'x, y, z'
loop_
 _atom_site_type_symbol
 _atom_site_label
 _atom_site_symmetry_multiplicity
 _atom_site_fract_x
 _atom_site_fract_y
 _atom_site_fract_z
 _atom_site_occupancy
  Cs  Cs0  1  0.09817300  0.55567000  0.14569100  1
  Cs  Cs1  1  0.59817300  0.44433000  0.35430900  1
  Cs  Cs2  1  0.40182700  0.94433000  0.64569100  1
  Cs  Cs3  1  0.40182700  0.55567000  0.64569100  1
  Cs  Cs4  1  0.59817300  0.05567000  0.35430900  1
  Cs  Cs5  1  0.09817300  0.94433000  0.14569100  1
  Cs  Cs6  1  0.90182700  0.44433000  0.85430900  1
  Cs  Cs7  1  0.90182700  0.05567000  0.85430900  1
  Ge  Ge8  1  0.50708500  0.75000000  0.93680700  1
  Ge  Ge9  1  0.00708500  0.25000000  0.56319300  1
  Ge  Ge10  1  0.49291500  0.25000000  0.06319300  1
  Ge  Ge11  1  0.99291500  0.75000000  0.43680700  1
  Te  Te12  1  0.75710300  0.75000000  0.28891400  1
  Te  Te13  1  0.08595100  0.07736900  0.43287200  1
  Te  Te14  1  0.68293600  0.25000000  0.61811000  1
  Te  Te15  1  0.81706400  0.25000000  0.11811000  1
  Te  Te16  1  0.74289700  0.75000000  0.78891400  1
  Te  Te17  1  0.58595100  0.92263100  0.06712800  1
  Te  Te18  1  0.91404900  0.57736900  0.56712800  1
  Te  Te19  1  0.24289700  0.25000000  0.71108600  1
  Te  Te20  1  0.25710300  0.25000000  0.21108600  1
  Te  Te21  1  0.31706400  0.75000000  0.38189000  1
  Te  Te22  1  0.08595100  0.42263100  0.43287200  1
  Te  Te23  1  0.91404900  0.92263100  0.56712800  1
  Te  Te24  1  0.41404900  0.42263100  0.93287200  1
  Te  Te25  1  0.41404900  0.07736900  0.93287200  1
  Te  Te26  1  0.18293600  0.75000000  0.88189000  1
  Te  Te27  1  0.58595100  0.57736900  0.06712800  1
