# generated using pymatgen
data_K4US3O14
_symmetry_space_group_name_H-M   'P 1'
_cell_length_a   9.39714700
_cell_length_b   13.41075200
_cell_length_c   23.65084000
_cell_angle_alpha   90.00000000
_cell_angle_beta   90.00000000
_cell_angle_gamma   90.00000000
_symmetry_Int_Tables_number   1
_chemical_formula_structural   K4US3O14
_chemical_formula_sum   'K32 U8 S24 O112'
_cell_volume   2980.54526657
_cell_formula_units_Z   8
loop_
 _symmetry_equiv_pos_site_id
 _symmetry_equiv_pos_as_xyz
  1  'x, y, z'
loop_
 _atom_site_type_symbol
 _atom_site_label
 _atom_site_symmetry_multiplicity
 _atom_site_fract_x
 _atom_site_fract_y
 _atom_site_fract_z
 _atom_site_occupancy
  K  K0  1  0.67250300  0.28823600  0.47395800  1
  K  K1  1  0.16123800  0.49360800  0.66807900  1
  K  K2  1  0.12245200  0.68488900  0.25000000  1
  K  K3  1  0.86164500  0.06169700  0.87350700  1
  K  K4  1  0.83876200  0.50639200  0.33192100  1
  K  K5  1  0.83876200  0.50639200  0.16807900  1
  K  K6  1  0.33876200  0.99360800  0.66807900  1
  K  K7  1  0.36164500  0.43830300  0.37350700  1
  K  K8  1  0.13835500  0.93830300  0.37350700  1
  K  K9  1  0.62245200  0.81511100  0.75000000  1
  K  K10  1  0.66123800  0.00639200  0.16807900  1
  K  K11  1  0.37754800  0.18488900  0.25000000  1
  K  K12  1  0.86164500  0.06169700  0.62649300  1
  K  K13  1  0.82749700  0.78823600  0.02604200  1
  K  K14  1  0.16123800  0.49360800  0.83192100  1
  K  K15  1  0.82749700  0.78823600  0.47395800  1
  K  K16  1  0.87754800  0.31511100  0.75000000  1
  K  K17  1  0.50000000  0.00000000  0.50000000  1
  K  K18  1  0.67250300  0.28823600  0.02604200  1
  K  K19  1  0.63835500  0.56169700  0.62649300  1
  K  K20  1  0.32749700  0.71176400  0.97395800  1
  K  K21  1  0.36164500  0.43830300  0.12649300  1
  K  K22  1  0.17250300  0.21176400  0.97395800  1
  K  K23  1  0.66123800  0.00639200  0.33192100  1
  K  K24  1  0.00000000  0.50000000  0.00000000  1
  K  K25  1  0.50000000  0.00000000  0.00000000  1
  K  K26  1  0.13835500  0.93830300  0.12649300  1
  K  K27  1  0.33876200  0.99360800  0.83192100  1
  K  K28  1  0.17250300  0.21176400  0.52604200  1
  K  K29  1  0.00000000  0.50000000  0.50000000  1
  K  K30  1  0.32749700  0.71176400  0.52604200  1
  K  K31  1  0.63835500  0.56169700  0.87350700  1
  U  U32  1  0.00335900  0.23171700  0.36300300  1
  U  U33  1  0.00335900  0.23171700  0.13699700  1
  U  U34  1  0.99664100  0.76828300  0.86300300  1
  U  U35  1  0.49664100  0.73171700  0.36300300  1
  U  U36  1  0.99664100  0.76828300  0.63699700  1
  U  U37  1  0.50335900  0.26828300  0.63699700  1
  U  U38  1  0.49664100  0.73171700  0.13699700  1
  U  U39  1  0.50335900  0.26828300  0.86300300  1
  S  S40  1  0.35632600  0.42604100  0.55582600  1
  S  S41  1  0.76778000  0.76895100  0.25000000  1
  S  S42  1  0.64367400  0.57395900  0.05582600  1
  S  S43  1  0.37937400  0.17819200  0.40062000  1
  S  S44  1  0.64367400  0.57395900  0.44417400  1
  S  S45  1  0.14367400  0.92604100  0.55582600  1
  S  S46  1  0.12062600  0.67819200  0.09938000  1
  S  S47  1  0.14367400  0.92604100  0.94417400  1
  S  S48  1  0.12062600  0.67819200  0.40062000  1
  S  S49  1  0.35632600  0.42604100  0.94417400  1
  S  S50  1  0.35519900  0.90705700  0.25000000  1
  S  S51  1  0.85632600  0.07395900  0.44417400  1
  S  S52  1  0.64480100  0.09294300  0.75000000  1
  S  S53  1  0.73222000  0.26895100  0.25000000  1
  S  S54  1  0.87937400  0.32180800  0.90062000  1
  S  S55  1  0.85519900  0.59294300  0.75000000  1
  S  S56  1  0.14480100  0.40705700  0.25000000  1
  S  S57  1  0.37937400  0.17819200  0.09938000  1
  S  S58  1  0.62062600  0.82180800  0.59938000  1
  S  S59  1  0.62062600  0.82180800  0.90062000  1
  S  S60  1  0.85632600  0.07395900  0.05582600  1
  S  S61  1  0.87937400  0.32180800  0.59938000  1
  S  S62  1  0.26778000  0.73104900  0.75000000  1
  S  S63  1  0.23222000  0.23104900  0.75000000  1
  O  O64  1  0.00854700  0.11095500  0.44552500  1
  O  O65  1  0.28583400  0.45203900  0.25000000  1
  O  O66  1  0.96145900  0.87512500  0.81883600  1
  O  O67  1  0.92682400  0.32234300  0.96042500  1
  O  O68  1  0.71582600  0.58576500  0.49879100  1
  O  O69  1  0.50854700  0.38904500  0.94552500  1
  O  O70  1  0.65070100  0.47019800  0.42358900  1
  O  O71  1  0.15070100  0.02980200  0.92358900  1
  O  O72  1  0.84929900  0.97019800  0.07641100  1
  O  O73  1  0.21047100  0.85739600  0.89977600  1
  O  O74  1  0.76882800  0.77037600  0.59996000  1
  O  O75  1  0.03031700  0.48255700  0.25000000  1
  O  O76  1  0.49145300  0.61095500  0.44552500  1
  O  O77  1  0.97313600  0.26040300  0.86478300  1
  O  O78  1  0.78952900  0.14260400  0.10022400  1
  O  O79  1  0.07317600  0.67765700  0.46042500  1
  O  O80  1  0.17439600  0.71063200  0.69827400  1
  O  O81  1  0.95989400  0.33746600  0.09098700  1
  O  O82  1  0.32560400  0.21063200  0.69827400  1
  O  O83  1  0.71047100  0.64260400  0.39977600  1
  O  O84  1  0.04010600  0.66253400  0.90901300  1
  O  O85  1  0.21416600  0.95203900  0.25000000  1
  O  O86  1  0.47313600  0.23959700  0.36478300  1
  O  O87  1  0.57317600  0.82234300  0.53957500  1
  O  O88  1  0.13548800  0.57553300  0.37872700  1
  O  O89  1  0.71582600  0.58576500  0.00120900  1
  O  O90  1  0.36451200  0.07553300  0.12127300  1
  O  O91  1  0.57317600  0.82234300  0.96042500  1
  O  O92  1  0.42682400  0.17765700  0.46042500  1
  O  O93  1  0.49145300  0.61095500  0.05447500  1
  O  O94  1  0.42682400  0.17765700  0.03957500  1
  O  O95  1  0.04010600  0.66253400  0.59098700  1
  O  O96  1  0.45989400  0.16253400  0.59098700  1
  O  O97  1  0.23117200  0.22962400  0.09996000  1
  O  O98  1  0.32560400  0.21063200  0.80172600  1
  O  O99  1  0.73117200  0.27037600  0.90004000  1
  O  O100  1  0.81203500  0.66345900  0.25000000  1
  O  O101  1  0.37021100  0.83982500  0.19870200  1
  O  O102  1  0.71047100  0.64260400  0.10022400  1
  O  O103  1  0.73117200  0.27037600  0.59996000  1
  O  O104  1  0.54010600  0.83746600  0.40901300  1
  O  O105  1  0.17439600  0.71063200  0.80172600  1
  O  O106  1  0.12978900  0.33982500  0.30129800  1
  O  O107  1  0.46145900  0.62487500  0.18116400  1
  O  O108  1  0.97313600  0.26040300  0.63521700  1
  O  O109  1  0.82560400  0.28936800  0.30172600  1
  O  O110  1  0.76882800  0.77037600  0.90004000  1
  O  O111  1  0.21047100  0.85739600  0.60022400  1
  O  O112  1  0.84929900  0.97019800  0.42358900  1
  O  O113  1  0.15070100  0.02980200  0.57641100  1
  O  O114  1  0.12978900  0.33982500  0.19870200  1
  O  O115  1  0.50854700  0.38904500  0.55447500  1
  O  O116  1  0.92682400  0.32234300  0.53957500  1
  O  O117  1  0.13548800  0.57553300  0.12127300  1
  O  O118  1  0.02686400  0.73959700  0.36478300  1
  O  O119  1  0.26882800  0.72962400  0.40004000  1
  O  O120  1  0.34929900  0.52980200  0.57641100  1
  O  O121  1  0.53854100  0.37512500  0.68116400  1
  O  O122  1  0.36451200  0.07553300  0.37872700  1
  O  O123  1  0.87021100  0.66017500  0.69870200  1
  O  O124  1  0.03854100  0.12487500  0.18116400  1
  O  O125  1  0.46145900  0.62487500  0.31883600  1
  O  O126  1  0.28417400  0.41423500  0.99879100  1
  O  O127  1  0.78417400  0.08576500  0.00120900  1
  O  O128  1  0.67439600  0.78936800  0.19827400  1
  O  O129  1  0.28952900  0.35739600  0.89977600  1
  O  O130  1  0.96968300  0.51744300  0.75000000  1
  O  O131  1  0.67439600  0.78936800  0.30172600  1
  O  O132  1  0.99145300  0.88904500  0.55447500  1
  O  O133  1  0.31203500  0.83654100  0.75000000  1
  O  O134  1  0.86451200  0.42446700  0.87872700  1
  O  O135  1  0.03854100  0.12487500  0.31883600  1
  O  O136  1  0.63548800  0.92446700  0.87872700  1
  O  O137  1  0.11405400  0.16069300  0.75000000  1
  O  O138  1  0.21582600  0.91423500  0.99879100  1
  O  O139  1  0.52686400  0.76040300  0.86478300  1
  O  O140  1  0.00854700  0.11095500  0.05447500  1
  O  O141  1  0.87021100  0.66017500  0.80129800  1
  O  O142  1  0.78952900  0.14260400  0.39977600  1
  O  O143  1  0.71416600  0.54796100  0.75000000  1
  O  O144  1  0.46968300  0.98255700  0.25000000  1
  O  O145  1  0.02686400  0.73959700  0.13521700  1
  O  O146  1  0.88594600  0.83930700  0.25000000  1
  O  O147  1  0.37021100  0.83982500  0.30129800  1
  O  O148  1  0.68796500  0.16345900  0.25000000  1
  O  O149  1  0.18796500  0.33654100  0.75000000  1
  O  O150  1  0.82560400  0.28936800  0.19827400  1
  O  O151  1  0.61405400  0.33930700  0.25000000  1
  O  O152  1  0.38594600  0.66069300  0.75000000  1
  O  O153  1  0.54010600  0.83746600  0.09098700  1
  O  O154  1  0.52686400  0.76040300  0.63521700  1
  O  O155  1  0.21582600  0.91423500  0.50120900  1
  O  O156  1  0.96145900  0.87512500  0.68116400  1
  O  O157  1  0.63548800  0.92446700  0.62127300  1
  O  O158  1  0.26882800  0.72962400  0.09996000  1
  O  O159  1  0.78417400  0.08576500  0.49879100  1
  O  O160  1  0.86451200  0.42446700  0.62127300  1
  O  O161  1  0.78583400  0.04796100  0.75000000  1
  O  O162  1  0.99145300  0.88904500  0.94552500  1
  O  O163  1  0.53031700  0.01744300  0.75000000  1
  O  O164  1  0.28952900  0.35739600  0.60022400  1
  O  O165  1  0.28417400  0.41423500  0.50120900  1
  O  O166  1  0.65070100  0.47019800  0.07641100  1
  O  O167  1  0.62978900  0.16017500  0.80129800  1
  O  O168  1  0.95989400  0.33746600  0.40901300  1
  O  O169  1  0.07317600  0.67765700  0.03957500  1
  O  O170  1  0.53854100  0.37512500  0.81883600  1
  O  O171  1  0.47313600  0.23959700  0.13521700  1
  O  O172  1  0.62978900  0.16017500  0.69870200  1
  O  O173  1  0.34929900  0.52980200  0.92358900  1
  O  O174  1  0.23117200  0.22962400  0.40004000  1
  O  O175  1  0.45989400  0.16253400  0.90901300  1
