# generated using pymatgen
data_CsGdSiS4
_symmetry_space_group_name_H-M   'P 1'
_cell_length_a   6.44278800
_cell_length_b   6.76746200
_cell_length_c   17.98275800
_cell_angle_alpha   90.00000000
_cell_angle_beta   90.00000000
_cell_angle_gamma   90.00000000
_symmetry_Int_Tables_number   1
_chemical_formula_structural   CsGdSiS4
_chemical_formula_sum   'Cs4 Gd4 Si4 S16'
_cell_volume   784.07203934
_cell_formula_units_Z   4
loop_
 _symmetry_equiv_pos_site_id
 _symmetry_equiv_pos_as_xyz
  1  'x, y, z'
loop_
 _atom_site_type_symbol
 _atom_site_label
 _atom_site_symmetry_multiplicity
 _atom_site_fract_x
 _atom_site_fract_y
 _atom_site_fract_z
 _atom_site_occupancy
  Cs  Cs0  1  0.49928500  0.49281100  0.46726200  1
  Cs  Cs1  1  0.00071500  0.50718900  0.96726200  1
  Cs  Cs2  1  0.99928500  0.00718900  0.53273800  1
  Cs  Cs3  1  0.50071500  0.99281100  0.03273800  1
  Gd  Gd4  1  0.79175000  0.02103400  0.27189200  1
  Gd  Gd5  1  0.20825000  0.52103400  0.22810800  1
  Gd  Gd6  1  0.29175000  0.47896500  0.72810800  1
  Gd  Gd7  1  0.70825000  0.97896600  0.77189200  1
  Si  Si8  1  0.71011300  0.48301900  0.16746500  1
  Si  Si9  1  0.21011300  0.01698100  0.83253500  1
  Si  Si10  1  0.28988700  0.98301900  0.33253500  1
  Si  Si11  1  0.78988700  0.51698100  0.66746500  1
  S  S12  1  0.39375000  0.75408500  0.84413200  1
  S  S13  1  0.56947300  0.74716600  0.64667800  1
  S  S14  1  0.38975400  0.92821300  0.22127000  1
  S  S15  1  0.05178200  0.51199400  0.59665200  1
  S  S16  1  0.61024600  0.42821300  0.27873000  1
  S  S17  1  0.11024600  0.07178700  0.72127000  1
  S  S18  1  0.10625000  0.24591500  0.34413200  1
  S  S19  1  0.89375000  0.74591500  0.15586800  1
  S  S20  1  0.06947300  0.75283400  0.35332200  1
  S  S21  1  0.94821800  0.01199400  0.90334800  1
  S  S22  1  0.43052700  0.24716600  0.85332200  1
  S  S23  1  0.93052700  0.25283400  0.14667800  1
  S  S24  1  0.88975400  0.57178700  0.77873000  1
  S  S25  1  0.55178200  0.98800600  0.40334800  1
  S  S26  1  0.60625000  0.25408500  0.65586800  1
  S  S27  1  0.44821800  0.48800600  0.09665200  1
