# generated using pymatgen
data_Gd2AlCo2
_symmetry_space_group_name_H-M   'P 1'
_cell_length_a   5.46905159
_cell_length_b   5.46905159
_cell_length_c   5.46905159
_cell_angle_alpha   137.25863932
_cell_angle_beta   119.21384058
_cell_angle_gamma   77.14435981
_symmetry_Int_Tables_number   1
_chemical_formula_structural   Gd2AlCo2
_chemical_formula_sum   'Gd2 Al1 Co2'
_cell_volume   94.31341225
_cell_formula_units_Z   1
loop_
 _symmetry_equiv_pos_site_id
 _symmetry_equiv_pos_as_xyz
  1  'x, y, z'
loop_
 _atom_site_type_symbol
 _atom_site_label
 _atom_site_symmetry_multiplicity
 _atom_site_fract_x
 _atom_site_fract_y
 _atom_site_fract_z
 _atom_site_occupancy
  Gd  Gd0  1  0.70064400  0.20064400  0.50000000  1
  Gd  Gd1  1  0.29935600  0.79935600  0.50000000  1
  Al  Al2  1  0.00000000  0.00000000  0.00000000  1
  Co  Co3  1  0.27347600  0.50000000  0.77347600  1
  Co  Co4  1  0.72652400  0.50000000  0.22652400  1
