# generated using pymatgen
data_Er2C(NO)2
_symmetry_space_group_name_H-M   'P 1'
_cell_length_a   3.69112387
_cell_length_b   3.69112387
_cell_length_c   8.16004400
_cell_angle_alpha   90.00000000
_cell_angle_beta   90.00000000
_cell_angle_gamma   119.99999763
_symmetry_Int_Tables_number   1
_chemical_formula_structural   Er2C(NO)2
_chemical_formula_sum   'Er2 C1 N2 O2'
_cell_volume   96.28095334
_cell_formula_units_Z   1
loop_
 _symmetry_equiv_pos_site_id
 _symmetry_equiv_pos_as_xyz
  1  'x, y, z'
loop_
 _atom_site_type_symbol
 _atom_site_label
 _atom_site_symmetry_multiplicity
 _atom_site_fract_x
 _atom_site_fract_y
 _atom_site_fract_z
 _atom_site_occupancy
  Er  Er0  1  0.66666700  0.33333300  0.82369600  1
  Er  Er1  1  0.33333300  0.66666700  0.17630400  1
  C  C2  1  0.00000000  0.00000000  0.50000000  1
  N  N3  1  0.00000000  0.00000000  0.65143000  1
  N  N4  1  0.00000000  0.00000000  0.34857000  1
  O  O5  1  0.33333300  0.66666700  0.89725100  1
  O  O6  1  0.66666700  0.33333300  0.10274900  1
