# generated using pymatgen
data_Bi15AsO25
_symmetry_space_group_name_H-M   'P 1'
_cell_length_a   17.24219377
_cell_length_b   17.24219377
_cell_length_c   17.24219312
_cell_angle_alpha   50.47068297
_cell_angle_beta   50.47068297
_cell_angle_gamma   50.47068393
_symmetry_Int_Tables_number   1
_chemical_formula_structural   Bi15AsO25
_chemical_formula_sum   'Bi60 As4 O100'
_cell_volume   2809.36924174
_cell_formula_units_Z   4
loop_
 _symmetry_equiv_pos_site_id
 _symmetry_equiv_pos_as_xyz
  1  'x, y, z'
loop_
 _atom_site_type_symbol
 _atom_site_label
 _atom_site_symmetry_multiplicity
 _atom_site_fract_x
 _atom_site_fract_y
 _atom_site_fract_z
 _atom_site_occupancy
  Bi  Bi0  1  0.28255300  0.08183400  0.43187700  1
  Bi  Bi1  1  0.19844600  0.02969300  0.72131800  1
  Bi  Bi2  1  0.48566700  0.18428400  0.31941500  1
  Bi  Bi3  1  0.44327600  0.10119300  0.60823800  1
  Bi  Bi4  1  0.20865600  0.07887300  0.90160200  1
  Bi  Bi5  1  0.69195300  0.18143500  0.38794400  1
  Bi  Bi6  1  0.49504400  0.00674200  0.84594400  1
  Bi  Bi7  1  0.48235000  0.28018800  0.62645800  1
  Bi  Bi8  1  0.98227600  0.12862400  0.28275700  1
  Bi  Bi9  1  0.79202400  0.08555800  0.58918900  1
  Bi  Bi10  1  0.40117700  0.24960100  0.90414700  1
  Bi  Bi11  1  0.68166600  0.02386600  0.88907700  1
  Bi  Bi12  1  0.68198800  0.38103800  0.52667700  1
  Bi  Bi13  1  0.98562700  0.18780100  0.49612500  1
  Bi  Bi14  1  0.64646700  0.30306300  0.79985400  1
  Bi  Bi15  1  0.43187700  0.28255300  0.08183400  1
  Bi  Bi16  1  0.92251500  0.09260400  0.79337700  1
  Bi  Bi17  1  0.88826200  0.39218500  0.58719300  1
  Bi  Bi18  1  0.72131800  0.19844600  0.02969300  1
  Bi  Bi19  1  0.67927200  0.48371300  0.82704000  1
  Bi  Bi20  1  0.18428400  0.31941500  0.48566700  1
  Bi  Bi21  1  0.97711400  0.27733000  0.79949300  1
  Bi  Bi22  1  0.60823800  0.44327600  0.10119300  1
  Bi  Bi23  1  0.90160200  0.20865600  0.07887300  1
  Bi  Bi24  1  0.88224600  0.57849200  0.72663400  1
  Bi  Bi25  1  0.18143500  0.38794400  0.69195300  1
  Bi  Bi26  1  0.84594400  0.49504400  0.00674200  1
  Bi  Bi27  1  0.62645800  0.48235000  0.28018800  1
  Bi  Bi28  1  0.12862400  0.28275700  0.98227600  1
  Bi  Bi29  1  0.08555800  0.58918900  0.79202400  1
  Bi  Bi30  1  0.90414700  0.40117700  0.24960100  1
  Bi  Bi31  1  0.88907700  0.68166600  0.02386600  1
  Bi  Bi32  1  0.38103800  0.52667700  0.68198800  1
  Bi  Bi33  1  0.18780100  0.49612500  0.98562700  1
  Bi  Bi34  1  0.79985400  0.64646700  0.30306300  1
  Bi  Bi35  1  0.08183400  0.43187700  0.28255300  1
  Bi  Bi36  1  0.09260400  0.79337700  0.92251500  1
  Bi  Bi37  1  0.39218500  0.58719300  0.88826200  1
  Bi  Bi38  1  0.02969300  0.72131800  0.19844600  1
  Bi  Bi39  1  0.82704000  0.67927200  0.48371300  1
  Bi  Bi40  1  0.31941500  0.48566700  0.18428400  1
  Bi  Bi41  1  0.27733000  0.79949300  0.97711400  1
  Bi  Bi42  1  0.10119300  0.60823800  0.44327600  1
  Bi  Bi43  1  0.07887300  0.90160200  0.20865600  1
  Bi  Bi44  1  0.57849200  0.72663400  0.88224600  1
  Bi  Bi45  1  0.38794400  0.69195300  0.18143500  1
  Bi  Bi46  1  0.00674200  0.84594400  0.49504400  1
  Bi  Bi47  1  0.28018800  0.62645800  0.48235000  1
  Bi  Bi48  1  0.28275700  0.98227600  0.12862400  1
  Bi  Bi49  1  0.58918900  0.79202400  0.08555800  1
  Bi  Bi50  1  0.24960100  0.90414700  0.40117700  1
  Bi  Bi51  1  0.02386600  0.88907700  0.68166600  1
  Bi  Bi52  1  0.52667700  0.68198800  0.38103800  1
  Bi  Bi53  1  0.49612500  0.98562700  0.18780100  1
  Bi  Bi54  1  0.30306300  0.79985400  0.64646700  1
  Bi  Bi55  1  0.79337700  0.92251500  0.09260400  1
  Bi  Bi56  1  0.58719300  0.88826200  0.39218500  1
  Bi  Bi57  1  0.48371300  0.82704000  0.67927200  1
  Bi  Bi58  1  0.79949300  0.97711400  0.27733000  1
  Bi  Bi59  1  0.72663400  0.88224600  0.57849200  1
  As  As60  1  0.20069800  0.20069800  0.20069800  1
  As  As61  1  0.39987100  0.39987100  0.39987100  1
  As  As62  1  0.59995100  0.59995100  0.59995100  1
  As  As63  1  0.79969100  0.79969100  0.79969100  1
  O  O64  1  0.05466000  0.05466000  0.05466000  1
  O  O65  1  0.12307100  0.12307100  0.12307100  1
  O  O66  1  0.12470500  0.12165300  0.31590000  1
  O  O67  1  0.31590000  0.12470500  0.12165300  1
  O  O68  1  0.23896800  0.23896800  0.23896800  1
  O  O69  1  0.44309100  0.07989500  0.32903100  1
  O  O70  1  0.65538500  0.01526600  0.27747100  1
  O  O71  1  0.26991500  0.14970000  0.52976500  1
  O  O72  1  0.32044400  0.32044400  0.32044400  1
  O  O73  1  0.77911500  0.14713200  0.14756500  1
  O  O74  1  0.14713200  0.14756500  0.77911500  1
  O  O75  1  0.68041500  0.04919600  0.41978500  1
  O  O76  1  0.32331800  0.32234200  0.51595600  1
  O  O77  1  0.51595600  0.32331800  0.32234200  1
  O  O78  1  0.37321600  0.12353100  0.75008900  1
  O  O79  1  0.88431800  0.12501400  0.24409600  1
  O  O80  1  0.55962000  0.16121900  0.55829600  1
  O  O81  1  0.43841100  0.43841100  0.43841100  1
  O  O82  1  0.81920800  0.07776800  0.45494200  1
  O  O83  1  0.32696400  0.07205100  0.95773700  1
  O  O84  1  0.52418200  0.14695300  0.77048200  1
  O  O85  1  0.64160300  0.28236300  0.52795400  1
  O  O86  1  0.85635800  0.21698000  0.47850200  1
  O  O87  1  0.46930100  0.35503200  0.73096200  1
  O  O88  1  0.52065100  0.52065100  0.52065100  1
  O  O89  1  0.54679800  0.17190000  0.92561100  1
  O  O90  1  0.92605200  0.04894700  0.67634800  1
  O  O91  1  0.96068100  0.35982700  0.36081200  1
  O  O92  1  0.35982700  0.36081200  0.96068100  1
  O  O93  1  0.87281100  0.26152500  0.61768100  1
  O  O94  1  0.75168700  0.13238700  0.87107200  1
  O  O95  1  0.71532100  0.52299100  0.52257400  1
  O  O96  1  0.52299100  0.52257400  0.71532100  1
  O  O97  1  0.57229100  0.32914800  0.94153500  1
  O  O98  1  0.07989500  0.32903100  0.44309100  1
  O  O99  1  0.75347100  0.36957600  0.75352300  1
  O  O100  1  0.63839800  0.63839800  0.63839800  1
  O  O101  1  0.01526600  0.27747100  0.65538500  1
  O  O102  1  0.52976500  0.26991500  0.14970000  1
  O  O103  1  0.89034200  0.16387600  0.89063000  1
  O  O104  1  0.72606000  0.34894300  0.96854600  1
  O  O105  1  0.83908700  0.48254200  0.72565700  1
  O  O106  1  0.04919600  0.41978500  0.68041500  1
  O  O107  1  0.66933600  0.55492600  0.92918300  1
  O  O108  1  0.71963800  0.71963800  0.71963800  1
  O  O109  1  0.75008900  0.37321600  0.12353100  1
  O  O110  1  0.12501400  0.24409600  0.88431800  1
  O  O111  1  0.16121900  0.55829600  0.55962000  1
  O  O112  1  0.55829600  0.55962000  0.16121900  1
  O  O113  1  0.07776800  0.45494200  0.81920800  1
  O  O114  1  0.95773700  0.32696400  0.07205100  1
  O  O115  1  0.72068000  0.72474500  0.91578000  1
  O  O116  1  0.91578000  0.72068000  0.72474500  1
  O  O117  1  0.77048200  0.52418200  0.14695300  1
  O  O118  1  0.28236300  0.52795400  0.64160300  1
  O  O119  1  0.95855000  0.55977500  0.96077900  1
  O  O120  1  0.83844800  0.83844800  0.83844800  1
  O  O121  1  0.21698000  0.47850200  0.85635800  1
  O  O122  1  0.73096200  0.46930100  0.35503200  1
  O  O123  1  0.12165300  0.31590000  0.12470500  1
  O  O124  1  0.92561100  0.54679800  0.17190000  1
  O  O125  1  0.04894700  0.67634800  0.92605200  1
  O  O126  1  0.26152500  0.61768100  0.87281100  1
  O  O127  1  0.87107200  0.75168700  0.13238700  1
  O  O128  1  0.92669600  0.92669600  0.92669600  1
  O  O129  1  0.94153500  0.57229100  0.32914800  1
  O  O130  1  0.32903100  0.44309100  0.07989500  1
  O  O131  1  0.36957600  0.75352300  0.75347100  1
  O  O132  1  0.75352300  0.75347100  0.36957600  1
  O  O133  1  0.27747100  0.65538500  0.01526600  1
  O  O134  1  0.14970000  0.52976500  0.26991500  1
  O  O135  1  0.89063000  0.89034200  0.16387600  1
  O  O136  1  0.16387600  0.89063000  0.89034200  1
  O  O137  1  0.96854600  0.72606000  0.34894300  1
  O  O138  1  0.48254200  0.72565700  0.83908700  1
  O  O139  1  0.14756500  0.77911500  0.14713200  1
  O  O140  1  0.41978500  0.68041500  0.04919600  1
  O  O141  1  0.92918300  0.66933600  0.55492600  1
  O  O142  1  0.32234200  0.51595600  0.32331800  1
  O  O143  1  0.12353100  0.75008900  0.37321600  1
  O  O144  1  0.24409600  0.88431800  0.12501400  1
  O  O145  1  0.45494200  0.81920800  0.07776800  1
  O  O146  1  0.07205100  0.95773700  0.32696400  1
  O  O147  1  0.14695300  0.77048200  0.52418200  1
  O  O148  1  0.52795400  0.64160300  0.28236300  1
  O  O149  1  0.55977500  0.96077900  0.95855000  1
  O  O150  1  0.96077900  0.95855000  0.55977500  1
  O  O151  1  0.47850200  0.85635800  0.21698000  1
  O  O152  1  0.35503200  0.73096200  0.46930100  1
  O  O153  1  0.17190000  0.92561100  0.54679800  1
  O  O154  1  0.67634800  0.92605200  0.04894700  1
  O  O155  1  0.36081200  0.96068100  0.35982700  1
  O  O156  1  0.61768100  0.87281100  0.26152500  1
  O  O157  1  0.13238700  0.87107200  0.75168700  1
  O  O158  1  0.52257400  0.71532100  0.52299100  1
  O  O159  1  0.32914800  0.94153500  0.57229100  1
  O  O160  1  0.34894300  0.96854600  0.72606000  1
  O  O161  1  0.72565700  0.83908700  0.48254200  1
  O  O162  1  0.55492600  0.92918300  0.66933600  1
  O  O163  1  0.72474500  0.91578000  0.72068000  1
