# generated using pymatgen
data_Na2CaPb3(CO3)5
_symmetry_space_group_name_H-M   'P 1'
_cell_length_a   10.69937690
_cell_length_b   10.69937690
_cell_length_c   13.51791375
_cell_angle_alpha   89.15259426
_cell_angle_beta   89.15259426
_cell_angle_gamma   60.17234129
_symmetry_Int_Tables_number   1
_chemical_formula_structural   Na2CaPb3(CO3)5
_chemical_formula_sum   'Na8 Ca4 Pb12 C20 O60'
_cell_volume   1342.28710433
_cell_formula_units_Z   4
loop_
 _symmetry_equiv_pos_site_id
 _symmetry_equiv_pos_as_xyz
  1  'x, y, z'
loop_
 _atom_site_type_symbol
 _atom_site_label
 _atom_site_symmetry_multiplicity
 _atom_site_fract_x
 _atom_site_fract_y
 _atom_site_fract_z
 _atom_site_occupancy
  Na  Na0  1  0.52642400  0.52296600  0.40463700  1
  Na  Na1  1  0.52296600  0.52642400  0.90463700  1
  Na  Na2  1  0.94971300  0.52635000  0.90481100  1
  Na  Na3  1  0.52635000  0.94971300  0.40481100  1
  Na  Na4  1  0.47339400  0.05184100  0.15676200  1
  Na  Na5  1  0.47878000  0.04755200  0.65229300  1
  Na  Na6  1  0.04755200  0.47878000  0.15229300  1
  Na  Na7  1  0.05184100  0.47339400  0.65676200  1
  Ca  Ca8  1  0.95358300  0.52243000  0.41052900  1
  Ca  Ca9  1  0.52243000  0.95358300  0.91052900  1
  Ca  Ca10  1  0.47343400  0.48016500  0.16133800  1
  Ca  Ca11  1  0.48016500  0.47343400  0.66133800  1
  Pb  Pb12  1  0.85020800  0.30962000  0.24704900  1
  Pb  Pb13  1  0.85417000  0.31413400  0.74900100  1
  Pb  Pb14  1  0.31413400  0.85417000  0.24900100  1
  Pb  Pb15  1  0.30962000  0.85020800  0.74704900  1
  Pb  Pb16  1  0.16783800  0.14726400  0.49940800  1
  Pb  Pb17  1  0.14726400  0.16783800  0.99940800  1
  Pb  Pb18  1  0.83609400  0.84825800  0.24104800  1
  Pb  Pb19  1  0.84825800  0.83609400  0.74104800  1
  Pb  Pb20  1  0.68836200  0.16140100  0.99586900  1
  Pb  Pb21  1  0.68651100  0.15109400  0.49159900  1
  Pb  Pb22  1  0.16140100  0.68836200  0.49586900  1
  Pb  Pb23  1  0.15109400  0.68651100  0.99159900  1
  C  C24  1  0.00088400  0.99936200  0.92522200  1
  C  C25  1  0.79256000  0.40934900  0.02772600  1
  C  C26  1  0.79504800  0.40910600  0.52698600  1
  C  C27  1  0.99837900  0.00083600  0.67516200  1
  C  C28  1  0.66608100  0.66409100  0.24970900  1
  C  C29  1  0.40910600  0.79504800  0.02698600  1
  C  C30  1  0.66409100  0.66608100  0.74970900  1
  C  C31  1  0.40934900  0.79256000  0.52772600  1
  C  C32  1  0.79824600  0.79313700  0.52514500  1
  C  C33  1  0.79313700  0.79824600  0.02514500  1
  C  C34  1  0.20205400  0.20723100  0.27797300  1
  C  C35  1  0.20723100  0.20205400  0.77797300  1
  C  C36  1  0.59148000  0.20583100  0.27497400  1
  C  C37  1  0.59057300  0.20378400  0.77710100  1
  C  C38  1  0.99936200  0.00088400  0.42522200  1
  C  C39  1  0.33585600  0.33058800  0.99960100  1
  C  C40  1  0.33058800  0.33585600  0.49960100  1
  C  C41  1  0.20378400  0.59057300  0.27710100  1
  C  C42  1  0.20583100  0.59148000  0.77497400  1
  C  C43  1  0.00083600  0.99837900  0.17516200  1
  O  O44  1  0.92944300  0.14064200  0.42587200  1
  O  O45  1  0.93077200  0.13994300  0.92789000  1
  O  O46  1  0.69976200  0.38189500  0.07555400  1
  O  O47  1  0.70344500  0.38116400  0.57357100  1
  O  O48  1  0.91141300  0.37996400  0.07424500  1
  O  O49  1  0.91403600  0.38306500  0.57107000  1
  O  O50  1  0.77027900  0.46155100  0.43891300  1
  O  O51  1  0.76825200  0.46000400  0.94022100  1
  O  O52  1  0.38116400  0.70344500  0.07357100  1
  O  O53  1  0.38189500  0.69976200  0.57555400  1
  O  O54  1  0.59303300  0.59647700  0.74358400  1
  O  O55  1  0.59647700  0.59303300  0.24358400  1
  O  O56  1  0.46000400  0.76825200  0.44022100  1
  O  O57  1  0.80697400  0.59330000  0.25669300  1
  O  O58  1  0.13994300  0.93077200  0.42789000  1
  O  O59  1  0.46155100  0.77027900  0.93891300  1
  O  O60  1  0.80380800  0.59647100  0.74843700  1
  O  O61  1  0.14064200  0.92944300  0.92587200  1
  O  O62  1  0.07107200  0.06911000  0.17843100  1
  O  O63  1  0.06911000  0.07107200  0.67843100  1
  O  O64  1  0.59330000  0.80697400  0.75669300  1
  O  O65  1  0.59647100  0.80380800  0.24843700  1
  O  O66  1  0.38306500  0.91403600  0.07107000  1
  O  O67  1  0.37996400  0.91141300  0.57424500  1
  O  O68  1  0.76511300  0.77167000  0.93861700  1
  O  O69  1  0.77167000  0.76511300  0.43861700  1
  O  O70  1  0.91204400  0.70913100  0.07041000  1
  O  O71  1  0.91792400  0.69976400  0.56971700  1
  O  O72  1  0.29101400  0.08758500  0.32520800  1
  O  O73  1  0.29986900  0.08295800  0.82509100  1
  O  O74  1  0.69976400  0.91792400  0.06971700  1
  O  O75  1  0.70913100  0.91204400  0.57041000  1
  O  O76  1  0.08758500  0.29101400  0.82520800  1
  O  O77  1  0.08295800  0.29986900  0.32509100  1
  O  O78  1  0.22820300  0.23216000  0.19018200  1
  O  O79  1  0.23216000  0.22820300  0.69018200  1
  O  O80  1  0.62300400  0.08587800  0.32136500  1
  O  O81  1  0.61903000  0.08427600  0.82327100  1
  O  O82  1  0.40687800  0.19006500  0.99380200  1
  O  O83  1  0.40029200  0.19617000  0.49739400  1
  O  O84  1  0.92989300  0.92990000  0.42624100  1
  O  O85  1  0.92990000  0.92989300  0.92624100  1
  O  O86  1  0.86034500  0.06974000  0.17531600  1
  O  O87  1  0.19617000  0.40029200  0.99739400  1
  O  O88  1  0.53768700  0.23284600  0.18775600  1
  O  O89  1  0.85907500  0.07005000  0.67612900  1
  O  O90  1  0.19006500  0.40687800  0.49380200  1
  O  O91  1  0.53784500  0.23117200  0.68949400  1
  O  O92  1  0.40668900  0.40072300  0.00720600  1
  O  O93  1  0.40072300  0.40668900  0.50720600  1
  O  O94  1  0.61510300  0.30073900  0.31869000  1
  O  O95  1  0.61612500  0.29710400  0.82088600  1
  O  O96  1  0.23117200  0.53784500  0.18949400  1
  O  O97  1  0.23284600  0.53768700  0.68775600  1
  O  O98  1  0.08587800  0.62300400  0.82136500  1
  O  O99  1  0.08427600  0.61903000  0.32327100  1
  O  O100  1  0.29710400  0.61612500  0.32088600  1
  O  O101  1  0.30073900  0.61510300  0.81869000  1
  O  O102  1  0.07005000  0.85907500  0.17612900  1
  O  O103  1  0.06974000  0.86034500  0.67531600  1
