# generated using pymatgen
data_ScU8S17
_symmetry_space_group_name_H-M   'P 1'
_cell_length_a   7.84058184
_cell_length_b   7.84058113
_cell_length_c   10.50045496
_cell_angle_alpha   80.63108685
_cell_angle_beta   80.63108746
_cell_angle_gamma   64.86932555
_symmetry_Int_Tables_number   1
_chemical_formula_structural   ScU8S17
_chemical_formula_sum   'Sc1 U8 S17'
_cell_volume   573.43557704
_cell_formula_units_Z   1
loop_
 _symmetry_equiv_pos_site_id
 _symmetry_equiv_pos_as_xyz
  1  'x, y, z'
loop_
 _atom_site_type_symbol
 _atom_site_label
 _atom_site_symmetry_multiplicity
 _atom_site_fract_x
 _atom_site_fract_y
 _atom_site_fract_z
 _atom_site_occupancy
  Sc  Sc0  1  0.00000000  0.00000000  0.00000000  1
  U  U1  1  0.79516300  0.79516300  0.45947700  1
  U  U2  1  0.20483700  0.20483700  0.54052300  1
  U  U3  1  0.69889200  0.18347700  0.69725500  1
  U  U4  1  0.18347700  0.69889200  0.69725500  1
  U  U5  1  0.81652300  0.30110800  0.30274500  1
  U  U6  1  0.68148900  0.68148900  0.98216700  1
  U  U7  1  0.31851100  0.31851100  0.01783300  1
  U  U8  1  0.30110800  0.81652300  0.30274500  1
  S  S9  1  0.47946000  0.47946000  0.16975600  1
  S  S10  1  0.69621300  0.69621300  0.24768400  1
  S  S11  1  0.56806700  0.17754000  0.46616400  1
  S  S12  1  0.05823200  0.66921300  0.96362100  1
  S  S13  1  0.21061500  0.21061500  0.27885700  1
  S  S14  1  0.43193300  0.82246000  0.53383600  1
  S  S15  1  0.52054000  0.52054000  0.83024400  1
  S  S16  1  0.66921300  0.05823200  0.96362100  1
  S  S17  1  0.93846500  0.93846500  0.23544100  1
  S  S18  1  0.06153500  0.06153500  0.76455900  1
  S  S19  1  0.30378700  0.30378700  0.75231600  1
  S  S20  1  0.33078700  0.94176800  0.03637900  1
  S  S21  1  0.82246000  0.43193300  0.53383600  1
  S  S22  1  0.94176800  0.33078700  0.03637900  1
  S  S23  1  0.17754000  0.56806700  0.46616400  1
  S  S24  1  0.00000000  0.00000000  0.50000000  1
  S  S25  1  0.78938500  0.78938500  0.72114300  1
