# generated using pymatgen
data_AlH15N5Cl3
_symmetry_space_group_name_H-M   'P 1'
_cell_length_a   6.78633800
_cell_length_b   10.69876900
_cell_length_c   13.65230400
_cell_angle_alpha   90.00000000
_cell_angle_beta   90.00000000
_cell_angle_gamma   90.00000000
_symmetry_Int_Tables_number   1
_chemical_formula_structural   AlH15N5Cl3
_chemical_formula_sum   'Al4 H60 N20 Cl12'
_cell_volume   991.23184772
_cell_formula_units_Z   4
loop_
 _symmetry_equiv_pos_site_id
 _symmetry_equiv_pos_as_xyz
  1  'x, y, z'
loop_
 _atom_site_type_symbol
 _atom_site_label
 _atom_site_symmetry_multiplicity
 _atom_site_fract_x
 _atom_site_fract_y
 _atom_site_fract_z
 _atom_site_occupancy
  Al  Al0  1  0.32282800  0.25000000  0.60130700  1
  Al  Al1  1  0.17717200  0.25000000  0.10130700  1
  Al  Al2  1  0.67717200  0.75000000  0.39869300  1
  Al  Al3  1  0.82282800  0.75000000  0.89869300  1
  H  H4  1  0.49152500  0.25000000  0.77305000  1
  H  H5  1  0.00847500  0.25000000  0.27305000  1
  H  H6  1  0.50847500  0.75000000  0.22695000  1
  H  H7  1  0.99152500  0.75000000  0.72695000  1
  H  H8  1  0.63145900  0.17223300  0.69554200  1
  H  H9  1  0.86854100  0.32776700  0.19554200  1
  H  H10  1  0.36854100  0.67223300  0.30445800  1
  H  H11  1  0.13145900  0.82776700  0.80445800  1
  H  H12  1  0.36854100  0.82776700  0.30445800  1
  H  H13  1  0.13145900  0.67223300  0.80445800  1
  H  H14  1  0.63145900  0.32776700  0.69554200  1
  H  H15  1  0.86854100  0.17223300  0.19554200  1
  H  H16  1  0.95671100  0.25000000  0.53246600  1
  H  H17  1  0.54328900  0.25000000  0.03246600  1
  H  H18  1  0.04328900  0.75000000  0.46753400  1
  H  H19  1  0.45671100  0.75000000  0.96753400  1
  H  H20  1  0.39484800  0.17284900  0.95815800  1
  H  H21  1  0.10515200  0.32715100  0.45815800  1
  H  H22  1  0.60515200  0.67284900  0.04184200  1
  H  H23  1  0.89484800  0.82715100  0.54184200  1
  H  H24  1  0.60515200  0.82715100  0.04184200  1
  H  H25  1  0.89484800  0.67284900  0.54184200  1
  H  H26  1  0.39484800  0.32715100  0.95815800  1
  H  H27  1  0.10515200  0.17284900  0.45815800  1
  H  H28  1  0.16741200  0.25000000  0.78367400  1
  H  H29  1  0.33258800  0.25000000  0.28367400  1
  H  H30  1  0.83258800  0.75000000  0.21632600  1
  H  H31  1  0.66741200  0.75000000  0.71632600  1
  H  H32  1  0.02690400  0.17285700  0.70718700  1
  H  H33  1  0.47309600  0.32714300  0.20718700  1
  H  H34  1  0.97309600  0.67285700  0.29281300  1
  H  H35  1  0.52690400  0.82714300  0.79281300  1
  H  H36  1  0.97309600  0.82714300  0.29281300  1
  H  H37  1  0.52690400  0.67285700  0.79281300  1
  H  H38  1  0.02690400  0.32714300  0.70718700  1
  H  H39  1  0.47309600  0.17285700  0.20718700  1
  H  H40  1  0.28240300  0.02309300  0.53400700  1
  H  H41  1  0.21759700  0.47690700  0.03400700  1
  H  H42  1  0.71759700  0.52309300  0.46599300  1
  H  H43  1  0.78240300  0.97690700  0.96599300  1
  H  H44  1  0.71759700  0.97690700  0.46599300  1
  H  H45  1  0.78240300  0.52309300  0.96599300  1
  H  H46  1  0.28240300  0.47690700  0.53400700  1
  H  H47  1  0.21759700  0.02309300  0.03400700  1
  H  H48  1  0.46458000  0.02404100  0.61322500  1
  H  H49  1  0.03542000  0.47595900  0.11322500  1
  H  H50  1  0.53542000  0.52404100  0.38677500  1
  H  H51  1  0.96458000  0.97595900  0.88677500  1
  H  H52  1  0.53542000  0.97595900  0.38677500  1
  H  H53  1  0.96458000  0.52404100  0.88677500  1
  H  H54  1  0.46458000  0.47595900  0.61322500  1
  H  H55  1  0.03542000  0.02404100  0.11322500  1
  H  H56  1  0.23496600  0.02095400  0.65199600  1
  H  H57  1  0.26503400  0.47904600  0.15199600  1
  H  H58  1  0.76503400  0.52095400  0.34800400  1
  H  H59  1  0.73496600  0.97904600  0.84800400  1
  H  H60  1  0.76503400  0.97904600  0.34800400  1
  H  H61  1  0.73496600  0.52095400  0.84800400  1
  H  H62  1  0.23496600  0.47904600  0.65199600  1
  H  H63  1  0.26503400  0.02095400  0.15199600  1
  N  N64  1  0.54254400  0.25000000  0.70258200  1
  N  N65  1  0.95745600  0.25000000  0.20258200  1
  N  N66  1  0.45745600  0.75000000  0.29741800  1
  N  N67  1  0.04254400  0.75000000  0.79741800  1
  N  N68  1  0.09609800  0.25000000  0.50369100  1
  N  N69  1  0.40390200  0.25000000  0.00369100  1
  N  N70  1  0.90390200  0.75000000  0.49630900  1
  N  N71  1  0.59609800  0.75000000  0.99630900  1
  N  N72  1  0.11787800  0.25000000  0.71283000  1
  N  N73  1  0.38212200  0.25000000  0.21283000  1
  N  N74  1  0.88212200  0.75000000  0.28717000  1
  N  N75  1  0.61787800  0.75000000  0.78717000  1
  N  N76  1  0.32591900  0.05981200  0.60023200  1
  N  N77  1  0.17408100  0.44018800  0.10023200  1
  N  N78  1  0.67408100  0.55981200  0.39976800  1
  N  N79  1  0.82591900  0.94018800  0.89976800  1
  N  N80  1  0.67408100  0.94018800  0.39976800  1
  N  N81  1  0.82591900  0.55981200  0.89976800  1
  N  N82  1  0.32591900  0.44018800  0.60023200  1
  N  N83  1  0.17408100  0.05981200  0.10023200  1
  Cl  Cl84  1  0.95351100  0.25000000  0.97345000  1
  Cl  Cl85  1  0.54648900  0.25000000  0.47345000  1
  Cl  Cl86  1  0.04648900  0.75000000  0.02655000  1
  Cl  Cl87  1  0.45351100  0.75000000  0.52655000  1
  Cl  Cl88  1  0.33447700  0.00087800  0.85210300  1
  Cl  Cl89  1  0.16552300  0.49912200  0.35210300  1
  Cl  Cl90  1  0.66552300  0.50087800  0.14789700  1
  Cl  Cl91  1  0.83447700  0.99912200  0.64789700  1
  Cl  Cl92  1  0.66552300  0.99912200  0.14789700  1
  Cl  Cl93  1  0.83447700  0.50087800  0.64789700  1
  Cl  Cl94  1  0.33447700  0.49912200  0.85210300  1
  Cl  Cl95  1  0.16552300  0.00087800  0.35210300  1
