# generated using pymatgen
data_Rb8In11
_symmetry_space_group_name_H-M   'P 1'
_cell_length_a   18.59735651
_cell_length_b   18.59735651
_cell_length_c   18.59735663
_cell_angle_alpha   32.36104031
_cell_angle_beta   32.36104031
_cell_angle_gamma   32.36104062
_symmetry_Int_Tables_number   1
_chemical_formula_structural   Rb8In11
_chemical_formula_sum   'Rb16 In22'
_cell_volume   1638.22550128
_cell_formula_units_Z   2
loop_
 _symmetry_equiv_pos_site_id
 _symmetry_equiv_pos_as_xyz
  1  'x, y, z'
loop_
 _atom_site_type_symbol
 _atom_site_label
 _atom_site_symmetry_multiplicity
 _atom_site_fract_x
 _atom_site_fract_y
 _atom_site_fract_z
 _atom_site_occupancy
  Rb  Rb0  1  0.40723700  0.18121000  0.84618300  1
  Rb  Rb1  1  0.81879000  0.15381700  0.59276300  1
  Rb  Rb2  1  0.15381700  0.59276300  0.81879000  1
  Rb  Rb3  1  0.34618300  0.68121000  0.90723700  1
  Rb  Rb4  1  0.42051500  0.42051500  0.42051500  1
  Rb  Rb5  1  0.07948500  0.07948500  0.07948500  1
  Rb  Rb6  1  0.84618300  0.40723700  0.18121000  1
  Rb  Rb7  1  0.92051500  0.92051500  0.92051500  1
  Rb  Rb8  1  0.59276300  0.81879000  0.15381700  1
  Rb  Rb9  1  0.68121000  0.90723700  0.34618300  1
  Rb  Rb10  1  0.65381700  0.31879000  0.09276300  1
  Rb  Rb11  1  0.09276300  0.65381700  0.31879000  1
  Rb  Rb12  1  0.57948500  0.57948500  0.57948500  1
  Rb  Rb13  1  0.90723700  0.34618300  0.68121000  1
  Rb  Rb14  1  0.31879000  0.09276300  0.65381700  1
  Rb  Rb15  1  0.18121000  0.84618300  0.40723700  1
  In  In16  1  0.79889700  0.79889700  0.79889700  1
  In  In17  1  0.29889700  0.29889700  0.29889700  1
  In  In18  1  0.77200100  0.06739700  0.50031200  1
  In  In19  1  0.99968800  0.43260300  0.72799900  1
  In  In20  1  0.54375600  0.95624400  0.75000000  1
  In  In21  1  0.20110300  0.20110300  0.20110300  1
  In  In22  1  0.50031200  0.77200100  0.06739700  1
  In  In23  1  0.45624400  0.04375600  0.25000000  1
  In  In24  1  0.06739700  0.50031200  0.77200100  1
  In  In25  1  0.43260300  0.72799900  0.99968800  1
  In  In26  1  0.04375600  0.25000000  0.45624400  1
  In  In27  1  0.56739700  0.27200100  0.00031200  1
  In  In28  1  0.70110300  0.70110300  0.70110300  1
  In  In29  1  0.00031200  0.56739700  0.27200100  1
  In  In30  1  0.72799900  0.99968800  0.43260300  1
  In  In31  1  0.93260300  0.49968800  0.22799900  1
  In  In32  1  0.95624400  0.75000000  0.54375600  1
  In  In33  1  0.49968800  0.22799900  0.93260300  1
  In  In34  1  0.25000000  0.45624400  0.04375600  1
  In  In35  1  0.75000000  0.54375600  0.95624400  1
  In  In36  1  0.22799900  0.93260300  0.49968800  1
  In  In37  1  0.27200100  0.00031200  0.56739700  1
