# generated using pymatgen
data_GdGa2Co
_symmetry_space_group_name_H-M   'P 1'
_cell_length_a   3.98294707
_cell_length_b   4.13695832
_cell_length_c   9.21440826
_cell_angle_alpha   103.01970729
_cell_angle_beta   90.02326043
_cell_angle_gamma   89.99566359
_symmetry_Int_Tables_number   1
_chemical_formula_structural   GdGa2Co
_chemical_formula_sum   'Gd2 Ga4 Co2'
_cell_volume   147.92531894
_cell_formula_units_Z   2
loop_
 _symmetry_equiv_pos_site_id
 _symmetry_equiv_pos_as_xyz
  1  'x, y, z'
loop_
 _atom_site_type_symbol
 _atom_site_label
 _atom_site_symmetry_multiplicity
 _atom_site_fract_x
 _atom_site_fract_y
 _atom_site_fract_z
 _atom_site_occupancy
  Gd  Gd0  1  0.00153500  0.13846800  0.28192300  1
  Gd  Gd1  1  0.00200200  0.86088800  0.71774400  1
  Ga  Ga2  1  0.50244100  0.29202600  0.58286300  1
  Ga  Ga3  1  0.50286400  0.70810200  0.41691100  1
  Ga  Ga4  1  0.00176200  0.50063000  0.99998100  1
  Ga  Ga5  1  0.50103900  0.00335300  0.99980700  1
  Co  Co6  1  0.50169000  0.42878000  0.85015200  1
  Co  Co7  1  0.50213000  0.57926400  0.14979600  1
