# generated using pymatgen
data_NaIn(SiO3)2
_symmetry_space_group_name_H-M   'P 1'
_cell_length_a   6.84615584
_cell_length_b   6.84615584
_cell_length_c   5.44675342
_cell_angle_alpha   77.17608481
_cell_angle_beta   77.17608481
_cell_angle_gamma   85.24893540
_symmetry_Int_Tables_number   1
_chemical_formula_structural   NaIn(SiO3)2
_chemical_formula_sum   'Na2 In2 Si4 O12'
_cell_volume   242.56063702
_cell_formula_units_Z   2
loop_
 _symmetry_equiv_pos_site_id
 _symmetry_equiv_pos_as_xyz
  1  'x, y, z'
loop_
 _atom_site_type_symbol
 _atom_site_label
 _atom_site_symmetry_multiplicity
 _atom_site_fract_x
 _atom_site_fract_y
 _atom_site_fract_z
 _atom_site_occupancy
  Na  Na0  1  0.69783100  0.30216900  0.75000000  1
  Na  Na1  1  0.30216900  0.69783100  0.25000000  1
  In  In2  1  0.10644200  0.89355800  0.75000000  1
  In  In3  1  0.89355800  0.10644200  0.25000000  1
  Si  Si4  1  0.37725400  0.20543600  0.25163300  1
  Si  Si5  1  0.79456400  0.62274600  0.24836700  1
  Si  Si6  1  0.20543600  0.37725400  0.75163300  1
  Si  Si7  1  0.62274600  0.79456400  0.74836700  1
  O  O8  1  0.88570700  0.39858800  0.31980100  1
  O  O9  1  0.33707800  0.35816400  0.97991300  1
  O  O10  1  0.35816400  0.33707800  0.47991300  1
  O  O11  1  0.66292200  0.64183600  0.02008700  1
  O  O12  1  0.03942800  0.19962100  0.84700600  1
  O  O13  1  0.80037900  0.96057200  0.65299400  1
  O  O14  1  0.60141200  0.11429300  0.18019900  1
  O  O15  1  0.19962100  0.03942800  0.34700600  1
  O  O16  1  0.11429300  0.60141200  0.68019900  1
  O  O17  1  0.39858800  0.88570700  0.81980100  1
  O  O18  1  0.96057200  0.80037900  0.15299400  1
  O  O19  1  0.64183600  0.66292200  0.52008700  1
