# generated using pymatgen
data_Th2Cu(PO4)3
_symmetry_space_group_name_H-M   'P 1'
_cell_length_a   11.55121409
_cell_length_b   11.55121409
_cell_length_c   7.12744036
_cell_angle_alpha   73.66393824
_cell_angle_beta   73.66393824
_cell_angle_gamma   34.18845083
_symmetry_Int_Tables_number   1
_chemical_formula_structural   Th2Cu(PO4)3
_chemical_formula_sum   'Th4 Cu2 P6 O24'
_cell_volume   510.73117857
_cell_formula_units_Z   2
loop_
 _symmetry_equiv_pos_site_id
 _symmetry_equiv_pos_as_xyz
  1  'x, y, z'
loop_
 _atom_site_type_symbol
 _atom_site_label
 _atom_site_symmetry_multiplicity
 _atom_site_fract_x
 _atom_site_fract_y
 _atom_site_fract_z
 _atom_site_occupancy
  Th  Th0  1  0.99347800  0.28635700  0.34303200  1
  Th  Th1  1  0.71364300  0.00652200  0.15696800  1
  Th  Th2  1  0.00652200  0.71364300  0.65696800  1
  Th  Th3  1  0.28635700  0.99347800  0.84303200  1
  Cu  Cu4  1  0.50000000  0.50000000  0.00000000  1
  Cu  Cu5  1  0.50000000  0.50000000  0.50000000  1
  P  P6  1  0.85901100  0.14098900  0.75000000  1
  P  P7  1  0.14098900  0.85901100  0.25000000  1
  P  P8  1  0.13582900  0.50122300  0.19493500  1
  P  P9  1  0.49877700  0.86417100  0.30506500  1
  P  P10  1  0.86417100  0.49877700  0.80506500  1
  P  P11  1  0.50122300  0.13582900  0.69493500  1
  O  O12  1  0.03876900  0.06572900  0.78854900  1
  O  O13  1  0.93427100  0.96123100  0.71145100  1
  O  O14  1  0.96123100  0.93427100  0.21145100  1
  O  O15  1  0.06572900  0.03876900  0.28854900  1
  O  O16  1  0.75865200  0.31194700  0.57289100  1
  O  O17  1  0.68805300  0.24134800  0.92710900  1
  O  O18  1  0.24134800  0.68805300  0.42710900  1
  O  O19  1  0.31194700  0.75865200  0.07289100  1
  O  O20  1  0.01658800  0.64232800  0.36202100  1
  O  O21  1  0.35767200  0.98341200  0.13797900  1
  O  O22  1  0.98341200  0.35767200  0.63797900  1
  O  O23  1  0.64232800  0.01658800  0.86202100  1
  O  O24  1  0.33984600  0.36823600  0.67765400  1
  O  O25  1  0.63176400  0.66015400  0.82234600  1
  O  O26  1  0.66015400  0.63176400  0.32234600  1
  O  O27  1  0.36823600  0.33984600  0.17765400  1
  O  O28  1  0.66223300  0.03203600  0.50821300  1
  O  O29  1  0.96796400  0.33776700  0.99178700  1
  O  O30  1  0.33776700  0.96796400  0.49178700  1
  O  O31  1  0.03203600  0.66223300  0.00821300  1
  O  O32  1  0.39596300  0.09957700  0.72418200  1
  O  O33  1  0.90042300  0.60403700  0.77581800  1
  O  O34  1  0.60403700  0.90042300  0.27581800  1
  O  O35  1  0.09957700  0.39596300  0.22418200  1
