# generated using pymatgen
data_Rb6LiPr11Se12(Cl4O9)4
_symmetry_space_group_name_H-M   'P 1'
_cell_length_a   16.98914413
_cell_length_b   16.98914413
_cell_length_c   16.98914413
_cell_angle_alpha   123.36857325
_cell_angle_beta   123.36857325
_cell_angle_gamma   84.25821024
_symmetry_Int_Tables_number   1
_chemical_formula_structural   Rb6LiPr11Se12(Cl4O9)4
_chemical_formula_sum   'Rb12 Li2 Pr22 Se24 Cl32 O72'
_cell_volume   3272.84461018
_cell_formula_units_Z   2
loop_
 _symmetry_equiv_pos_site_id
 _symmetry_equiv_pos_as_xyz
  1  'x, y, z'
loop_
 _atom_site_type_symbol
 _atom_site_label
 _atom_site_symmetry_multiplicity
 _atom_site_fract_x
 _atom_site_fract_y
 _atom_site_fract_z
 _atom_site_occupancy
  Rb  Rb0  1  0.37992300  0.62939100  0.00931400  1
  Rb  Rb1  1  0.87631200  0.37631200  0.25262500  1
  Rb  Rb2  1  0.12939100  0.87992300  0.00931400  1
  Rb  Rb3  1  0.62939100  0.62007700  0.24946800  1
  Rb  Rb4  1  0.37631200  0.12368800  0.50000000  1
  Rb  Rb5  1  0.62007700  0.37060900  0.99068600  1
  Rb  Rb6  1  0.62368800  0.87631200  0.50000000  1
  Rb  Rb7  1  0.37060900  0.37992300  0.75053200  1
  Rb  Rb8  1  0.12368800  0.62368800  0.74737500  1
  Rb  Rb9  1  0.87060900  0.12007700  0.99068600  1
  Rb  Rb10  1  0.12007700  0.12939100  0.24946800  1
  Rb  Rb11  1  0.87992300  0.87060900  0.75053200  1
  Li  Li12  1  0.25000000  0.75000000  0.50000000  1
  Li  Li13  1  0.75000000  0.25000000  0.50000000  1
  Pr  Pr14  1  0.75000000  0.49305600  0.74305600  1
  Pr  Pr15  1  0.50694400  0.25000000  0.25694400  1
  Pr  Pr16  1  0.25000000  0.99305600  0.74305600  1
  Pr  Pr17  1  0.49751200  0.99751200  0.74250800  1
  Pr  Pr18  1  0.00694400  0.75000000  0.25694400  1
  Pr  Pr19  1  0.25000000  0.50694400  0.25694400  1
  Pr  Pr20  1  0.99751200  0.25500500  0.50000000  1
  Pr  Pr21  1  0.99305600  0.25000000  0.74305600  1
  Pr  Pr22  1  0.50000000  0.50000000  0.50000000  1
  Pr  Pr23  1  0.24499500  0.50248800  0.50000000  1
  Pr  Pr24  1  0.00000000  0.50000000  0.00000000  1
  Pr  Pr25  1  0.74499500  0.24499500  0.74250800  1
  Pr  Pr26  1  0.75500500  0.49751200  0.50000000  1
  Pr  Pr27  1  0.75000000  0.00694400  0.25694400  1
  Pr  Pr28  1  0.75000000  0.75000000  0.00000000  1
  Pr  Pr29  1  0.00248800  0.74499500  0.50000000  1
  Pr  Pr30  1  0.49305600  0.75000000  0.74305600  1
  Pr  Pr31  1  0.25500500  0.75500500  0.25749200  1
  Pr  Pr32  1  0.50248800  0.00248800  0.25749200  1
  Pr  Pr33  1  0.50000000  0.00000000  0.00000000  1
  Pr  Pr34  1  0.00000000  0.00000000  0.50000000  1
  Pr  Pr35  1  0.25000000  0.25000000  0.00000000  1
  Se  Se36  1  0.43613000  0.72094000  0.50000000  1
  Se  Se37  1  0.03848600  0.01032800  0.72883800  1
  Se  Se38  1  0.22094000  0.93613000  0.50000000  1
  Se  Se39  1  0.53848600  0.80964800  0.02815800  1
  Se  Se40  1  0.30964800  0.03848600  0.02815800  1
  Se  Se41  1  0.77906000  0.06387000  0.50000000  1
  Se  Se42  1  0.21851000  0.48967200  0.02815800  1
  Se  Se43  1  0.98967200  0.71851000  0.02815800  1
  Se  Se44  1  0.01032800  0.28149000  0.97184200  1
  Se  Se45  1  0.06387000  0.56387000  0.28481000  1
  Se  Se46  1  0.71851000  0.69035200  0.72883800  1
  Se  Se47  1  0.80964800  0.78149000  0.27116200  1
  Se  Se48  1  0.72094000  0.22094000  0.28481000  1
  Se  Se49  1  0.93613000  0.43613000  0.71519000  1
  Se  Se50  1  0.46151400  0.19035200  0.97184200  1
  Se  Se51  1  0.69035200  0.96151400  0.97184200  1
  Se  Se52  1  0.56387000  0.27906000  0.50000000  1
  Se  Se53  1  0.27906000  0.77906000  0.71519000  1
  Se  Se54  1  0.51032800  0.53848600  0.72883800  1
  Se  Se55  1  0.19035200  0.21851000  0.72883800  1
  Se  Se56  1  0.48967200  0.46151400  0.27116200  1
  Se  Se57  1  0.96151400  0.98967200  0.27116200  1
  Se  Se58  1  0.28149000  0.30964800  0.27116200  1
  Se  Se59  1  0.78149000  0.51032800  0.97184200  1
  Cl  Cl60  1  0.58210500  0.31008500  0.74194200  1
  Cl  Cl61  1  0.18450100  0.68450100  0.02178100  1
  Cl  Cl62  1  0.07716000  0.07716000  0.00000000  1
  Cl  Cl63  1  0.15983700  0.41789500  0.72797900  1
  Cl  Cl64  1  0.57716000  0.57716000  0.00000000  1
  Cl  Cl65  1  0.93185800  0.18991500  0.27202100  1
  Cl  Cl66  1  0.07584300  0.57584300  0.50000000  1
  Cl  Cl67  1  0.42284000  0.42284000  0.00000000  1
  Cl  Cl68  1  0.68450100  0.66272000  0.50000000  1
  Cl  Cl69  1  0.92415700  0.42415700  0.50000000  1
  Cl  Cl70  1  0.57584300  0.07584300  0.50000000  1
  Cl  Cl71  1  0.06814200  0.81008500  0.72797900  1
  Cl  Cl72  1  0.92284000  0.92284000  0.00000000  1
  Cl  Cl73  1  0.66272000  0.16272000  0.97821900  1
  Cl  Cl74  1  0.91789500  0.65983700  0.72797900  1
  Cl  Cl75  1  0.08210500  0.34016300  0.27202100  1
  Cl  Cl76  1  0.42415700  0.92415700  0.50000000  1
  Cl  Cl77  1  0.81008500  0.08210500  0.74194200  1
  Cl  Cl78  1  0.16272000  0.18450100  0.50000000  1
  Cl  Cl79  1  0.18991500  0.91789500  0.25805800  1
  Cl  Cl80  1  0.65983700  0.93185800  0.74194200  1
  Cl  Cl81  1  0.81549900  0.31549900  0.97821900  1
  Cl  Cl82  1  0.83728000  0.81549900  0.50000000  1
  Cl  Cl83  1  0.33728000  0.83728000  0.02178100  1
  Cl  Cl84  1  0.41789500  0.68991500  0.25805800  1
  Cl  Cl85  1  0.84016300  0.58210500  0.27202100  1
  Cl  Cl86  1  0.68991500  0.43185800  0.27202100  1
  Cl  Cl87  1  0.34016300  0.06814200  0.25805800  1
  Cl  Cl88  1  0.31549900  0.33728000  0.50000000  1
  Cl  Cl89  1  0.43185800  0.15983700  0.74194200  1
  Cl  Cl90  1  0.31008500  0.56814200  0.72797900  1
  Cl  Cl91  1  0.56814200  0.84016300  0.25805800  1
  O  O92  1  0.40506100  0.31851000  0.32839500  1
  O  O93  1  0.18260100  0.56405300  0.37627200  1
  O  O94  1  0.57666600  0.49011600  0.67160500  1
  O  O95  1  0.92333400  0.59493900  0.91344900  1
  O  O96  1  0.80606600  0.42850700  0.86982800  1
  O  O97  1  0.81739900  0.43594700  0.62372800  1
  O  O98  1  0.19367100  0.81739900  0.38145300  1
  O  O99  1  0.73722100  0.57463300  0.91352200  1
  O  O100  1  0.59439300  0.37405100  0.50000000  1
  O  O101  1  0.80632900  0.18260100  0.61854700  1
  O  O102  1  0.76277900  0.67630100  0.83741200  1
  O  O103  1  0.55867900  0.93623800  0.13017200  1
  O  O104  1  0.16111100  0.07463300  0.83741200  1
  O  O105  1  0.69367100  0.31221800  0.37627200  1
  O  O106  1  0.30606600  0.43623800  0.37755900  1
  O  O107  1  0.92536700  0.76277900  0.08647800  1
  O  O108  1  0.07666600  0.40506100  0.08655100  1
  O  O109  1  0.50988400  0.18149000  0.08655100  1
  O  O110  1  0.82369900  0.73722100  0.16258800  1
  O  O111  1  0.68149000  0.00988400  0.08655100  1
  O  O112  1  0.00988400  0.92333400  0.32839500  1
  O  O113  1  0.37405100  0.87405100  0.77965800  1
  O  O114  1  0.49011600  0.81851000  0.91344900  1
  O  O115  1  0.42333400  0.50988400  0.32839500  1
  O  O116  1  0.66111200  0.82369900  0.08647800  1
  O  O117  1  0.94132100  0.07149300  0.37755900  1
  O  O118  1  0.56405300  0.18778200  0.38145300  1
  O  O119  1  0.09439300  0.59439300  0.22034200  1
  O  O120  1  0.31851000  0.99011600  0.91344900  1
  O  O121  1  0.43623800  0.05867900  0.13017200  1
  O  O122  1  0.09493900  0.42333400  0.91344900  1
  O  O123  1  0.57463300  0.66111200  0.83741200  1
  O  O124  1  0.33888800  0.17630100  0.91352200  1
  O  O125  1  0.56376200  0.94132100  0.86982800  1
  O  O126  1  0.93594700  0.31739900  0.62372800  1
  O  O127  1  0.83888800  0.92536700  0.16258800  1
  O  O128  1  0.19393400  0.57149300  0.13017200  1
  O  O129  1  0.40560700  0.62594900  0.50000000  1
  O  O130  1  0.07463300  0.23722100  0.91352200  1
  O  O131  1  0.42850700  0.55867900  0.62244100  1
  O  O132  1  0.57149300  0.44132100  0.37755900  1
  O  O133  1  0.06405300  0.68260100  0.37627200  1
  O  O134  1  0.62594900  0.12594900  0.22034200  1
  O  O135  1  0.81851000  0.90506100  0.32839500  1
  O  O136  1  0.44132100  0.06376200  0.86982800  1
  O  O137  1  0.68260100  0.30632900  0.61854700  1
  O  O138  1  0.99011600  0.07666600  0.67160500  1
  O  O139  1  0.06376200  0.19393400  0.62244100  1
  O  O140  1  0.69393400  0.56376200  0.62244100  1
  O  O141  1  0.87405100  0.09439300  0.50000000  1
  O  O142  1  0.18149000  0.09493900  0.67160500  1
  O  O143  1  0.31221800  0.93594600  0.61854700  1
  O  O144  1  0.18778200  0.80632900  0.62372800  1
  O  O145  1  0.26277900  0.42536700  0.08647800  1
  O  O146  1  0.23722100  0.32369900  0.16258800  1
  O  O147  1  0.32369900  0.16111200  0.08647800  1
  O  O148  1  0.67630100  0.83888800  0.91352200  1
  O  O149  1  0.30632900  0.68778200  0.62372800  1
  O  O150  1  0.31739900  0.69367100  0.38145300  1
  O  O151  1  0.81221800  0.19367100  0.37627200  1
  O  O152  1  0.92850700  0.30606600  0.86982800  1
  O  O153  1  0.68778200  0.06405300  0.38145300  1
  O  O154  1  0.12594900  0.90560700  0.50000000  1
  O  O155  1  0.90560700  0.40560700  0.77965800  1
  O  O156  1  0.93623800  0.80606600  0.37755900  1
  O  O157  1  0.05867900  0.92850700  0.62244100  1
  O  O158  1  0.17630100  0.26277900  0.83741200  1
  O  O159  1  0.90506100  0.57666600  0.08655100  1
  O  O160  1  0.43594700  0.81221800  0.61854700  1
  O  O161  1  0.07149300  0.69393400  0.13017200  1
  O  O162  1  0.42536700  0.33888800  0.16258800  1
  O  O163  1  0.59493900  0.68149000  0.67160500  1
