# generated using pymatgen
data_KU2P3O14
_symmetry_space_group_name_H-M   'P 1'
_cell_length_a   10.44577200
_cell_length_b   10.79138900
_cell_length_c   11.30047800
_cell_angle_alpha   90.00000000
_cell_angle_beta   90.00000000
_cell_angle_gamma   90.00000000
_symmetry_Int_Tables_number   1
_chemical_formula_structural   KU2P3O14
_chemical_formula_sum   'K4 U8 P12 O56'
_cell_volume   1273.83947861
_cell_formula_units_Z   4
loop_
 _symmetry_equiv_pos_site_id
 _symmetry_equiv_pos_as_xyz
  1  'x, y, z'
loop_
 _atom_site_type_symbol
 _atom_site_label
 _atom_site_symmetry_multiplicity
 _atom_site_fract_x
 _atom_site_fract_y
 _atom_site_fract_z
 _atom_site_occupancy
  K  K0  1  0.38999200  0.00000000  0.75000000  1
  K  K1  1  0.11000800  0.50000000  0.25000000  1
  K  K2  1  0.88999200  0.50000000  0.75000000  1
  K  K3  1  0.61000800  0.00000000  0.25000000  1
  U  U4  1  0.67611500  0.80613500  0.90481100  1
  U  U5  1  0.17611500  0.30613500  0.59518900  1
  U  U6  1  0.82388500  0.69386500  0.40481100  1
  U  U7  1  0.17611500  0.69386500  0.90481100  1
  U  U8  1  0.32388500  0.19386500  0.09518900  1
  U  U9  1  0.32388500  0.80613500  0.40481100  1
  U  U10  1  0.82388500  0.30613500  0.09518900  1
  U  U11  1  0.67611500  0.19386500  0.59518900  1
  P  P12  1  0.58038300  0.50000000  0.25000000  1
  P  P13  1  0.42750800  0.68595300  0.11816900  1
  P  P14  1  0.57249200  0.68595300  0.61816900  1
  P  P15  1  0.07249200  0.18595300  0.88183100  1
  P  P16  1  0.92750800  0.81404700  0.11816900  1
  P  P17  1  0.91961700  0.00000000  0.75000000  1
  P  P18  1  0.07249200  0.81404700  0.61816900  1
  P  P19  1  0.57249200  0.31404700  0.88183100  1
  P  P20  1  0.41961700  0.50000000  0.75000000  1
  P  P21  1  0.08038300  0.00000000  0.25000000  1
  P  P22  1  0.92750800  0.18595300  0.38183100  1
  P  P23  1  0.42750800  0.31404700  0.38183100  1
  O  O24  1  0.43176300  0.76762900  0.22906600  1
  O  O25  1  0.74944000  0.65430600  0.89327300  1
  O  O26  1  0.98535800  0.95055900  0.15087300  1
  O  O27  1  0.10216400  0.54196600  0.90882900  1
  O  O28  1  0.20869600  0.15549100  0.92303700  1
  O  O29  1  0.56823700  0.23237100  0.77093400  1
  O  O30  1  0.75056000  0.15430600  0.10672700  1
  O  O31  1  0.84574700  0.89270900  0.80208100  1
  O  O32  1  0.74944000  0.34569400  0.60672700  1
  O  O33  1  0.70869600  0.65549100  0.57696300  1
  O  O34  1  0.48535800  0.54944100  0.15087300  1
  O  O35  1  0.39783600  0.04196600  0.09117100  1
  O  O36  1  0.51376100  0.26521600  0.47989000  1
  O  O37  1  0.93176300  0.73237100  0.22906600  1
  O  O38  1  0.79130400  0.15549100  0.42303700  1
  O  O39  1  0.01464200  0.95055900  0.65087300  1
  O  O40  1  0.43176300  0.23237100  0.27093400  1
  O  O41  1  0.98623900  0.23478400  0.97989000  1
  O  O42  1  0.34574700  0.39270900  0.69791900  1
  O  O43  1  0.84574700  0.10729100  0.69791900  1
  O  O44  1  0.60216400  0.04196600  0.59117100  1
  O  O45  1  0.48535800  0.45055900  0.34912700  1
  O  O46  1  0.01376100  0.76521600  0.02011000  1
  O  O47  1  0.25056000  0.34569400  0.10672700  1
  O  O48  1  0.10216400  0.45803400  0.59117100  1
  O  O49  1  0.25056000  0.65430600  0.39327300  1
  O  O50  1  0.06823700  0.73237100  0.72906600  1
  O  O51  1  0.98623900  0.76521600  0.52011000  1
  O  O52  1  0.15425300  0.89270900  0.30208100  1
  O  O53  1  0.93176300  0.26762900  0.27093400  1
  O  O54  1  0.29130400  0.65549100  0.07696300  1
  O  O55  1  0.24944000  0.15430600  0.60672700  1
  O  O56  1  0.51464200  0.45055900  0.84912700  1
  O  O57  1  0.89783600  0.54196600  0.40882900  1
  O  O58  1  0.56823700  0.76762900  0.72906600  1
  O  O59  1  0.39783600  0.95803400  0.40882900  1
  O  O60  1  0.29130400  0.34450900  0.42303700  1
  O  O61  1  0.51376100  0.73478400  0.02011000  1
  O  O62  1  0.34574700  0.60729100  0.80208100  1
  O  O63  1  0.65425300  0.60729100  0.30208100  1
  O  O64  1  0.01464200  0.04944100  0.84912700  1
  O  O65  1  0.48623900  0.73478400  0.52011000  1
  O  O66  1  0.79130400  0.84450900  0.07696300  1
  O  O67  1  0.89783600  0.45803400  0.09117100  1
  O  O68  1  0.01376100  0.23478400  0.47989000  1
  O  O69  1  0.48623900  0.26521600  0.97989000  1
  O  O70  1  0.65425300  0.39270900  0.19791900  1
  O  O71  1  0.15425300  0.10729100  0.19791900  1
  O  O72  1  0.06823700  0.26762900  0.77093400  1
  O  O73  1  0.24944000  0.84569400  0.89327300  1
  O  O74  1  0.70869600  0.34450900  0.92303700  1
  O  O75  1  0.51464200  0.54944100  0.65087300  1
  O  O76  1  0.60216400  0.95803400  0.90882900  1
  O  O77  1  0.75056000  0.84569400  0.39327300  1
  O  O78  1  0.98535800  0.04944100  0.34912700  1
  O  O79  1  0.20869600  0.84450900  0.57696300  1
