# generated using pymatgen
data_EuTlPS4
_symmetry_space_group_name_H-M   'P 1'
_cell_length_a   6.63959500
_cell_length_b   9.00625500
_cell_length_c   12.15170800
_cell_angle_alpha   90.00000000
_cell_angle_beta   90.00000000
_cell_angle_gamma   90.00000000
_symmetry_Int_Tables_number   1
_chemical_formula_structural   EuTlPS4
_chemical_formula_sum   'Eu4 Tl4 P4 S16'
_cell_volume   726.64644564
_cell_formula_units_Z   4
loop_
 _symmetry_equiv_pos_site_id
 _symmetry_equiv_pos_as_xyz
  1  'x, y, z'
loop_
 _atom_site_type_symbol
 _atom_site_label
 _atom_site_symmetry_multiplicity
 _atom_site_fract_x
 _atom_site_fract_y
 _atom_site_fract_z
 _atom_site_occupancy
  Eu  Eu0  1  0.25000000  0.39517000  0.14341000  1
  Eu  Eu1  1  0.75000000  0.60483000  0.85659000  1
  Eu  Eu2  1  0.75000000  0.89517000  0.35659000  1
  Eu  Eu3  1  0.25000000  0.10483000  0.64341000  1
  Tl  Tl4  1  0.25000000  0.86857300  0.10373000  1
  Tl  Tl5  1  0.75000000  0.36857300  0.39627000  1
  Tl  Tl6  1  0.25000000  0.63142700  0.60373000  1
  Tl  Tl7  1  0.75000000  0.13142700  0.89627000  1
  P  P8  1  0.25000000  0.12268100  0.34641300  1
  P  P9  1  0.75000000  0.87731900  0.65358700  1
  P  P10  1  0.75000000  0.62268100  0.15358700  1
  P  P11  1  0.25000000  0.37731900  0.84641300  1
  S  S12  1  0.49825900  0.36652500  0.74408300  1
  S  S13  1  0.25000000  0.57343600  0.93309000  1
  S  S14  1  0.75000000  0.07343600  0.56691000  1
  S  S15  1  0.25000000  0.92656400  0.43309000  1
  S  S16  1  0.75000000  0.42656400  0.06691000  1
  S  S17  1  0.25000000  0.19622800  0.94897000  1
  S  S18  1  0.50174100  0.86652500  0.75591700  1
  S  S19  1  0.49825900  0.13347500  0.24408300  1
  S  S20  1  0.25000000  0.30377200  0.44897000  1
  S  S21  1  0.50174100  0.63347500  0.25591700  1
  S  S22  1  0.75000000  0.80377200  0.05103000  1
  S  S23  1  0.99825900  0.86652500  0.75591700  1
  S  S24  1  0.00174100  0.13347500  0.24408300  1
  S  S25  1  0.99825900  0.63347500  0.25591700  1
  S  S26  1  0.75000000  0.69622800  0.55103000  1
  S  S27  1  0.00174100  0.36652500  0.74408300  1
