# generated using pymatgen
data_Yb4Mg4Fe3H22
_symmetry_space_group_name_H-M   'P 1'
_cell_length_a   6.60888600
_cell_length_b   6.60888600
_cell_length_c   6.60888600
_cell_angle_alpha   90.00000000
_cell_angle_beta   90.00000000
_cell_angle_gamma   90.00000000
_symmetry_Int_Tables_number   1
_chemical_formula_structural   Yb4Mg4Fe3H22
_chemical_formula_sum   'Yb4 Mg4 Fe3 H22'
_cell_volume   288.65878661
_cell_formula_units_Z   1
loop_
 _symmetry_equiv_pos_site_id
 _symmetry_equiv_pos_as_xyz
  1  'x, y, z'
loop_
 _atom_site_type_symbol
 _atom_site_label
 _atom_site_symmetry_multiplicity
 _atom_site_fract_x
 _atom_site_fract_y
 _atom_site_fract_z
 _atom_site_occupancy
  Yb  Yb0  1  0.28964200  0.28964200  0.71035800  1
  Yb  Yb1  1  0.28964200  0.71035800  0.28964200  1
  Yb  Yb2  1  0.71035800  0.28964200  0.28964200  1
  Yb  Yb3  1  0.71035800  0.71035800  0.71035800  1
  Mg  Mg4  1  0.78629700  0.78629700  0.21370300  1
  Mg  Mg5  1  0.78629700  0.21370300  0.78629700  1
  Mg  Mg6  1  0.21370300  0.78629700  0.78629700  1
  Mg  Mg7  1  0.21370300  0.21370300  0.21370300  1
  Fe  Fe8  1  0.00000000  0.00000000  0.50000000  1
  Fe  Fe9  1  0.00000000  0.50000000  0.00000000  1
  Fe  Fe10  1  0.50000000  0.00000000  0.00000000  1
  H  H11  1  0.00000000  0.50000000  0.23940100  1
  H  H12  1  0.50000000  0.76059900  0.00000000  1
  H  H13  1  0.76059900  0.00000000  0.50000000  1
  H  H14  1  0.00000000  0.76059900  0.50000000  1
  H  H15  1  0.50000000  0.00000000  0.23940100  1
  H  H16  1  0.76059900  0.50000000  0.00000000  1
  H  H17  1  0.00000000  0.50000000  0.76059900  1
  H  H18  1  0.50000000  0.23940100  0.00000000  1
  H  H19  1  0.00000000  0.23940100  0.50000000  1
  H  H20  1  0.50000000  0.00000000  0.76059900  1
  H  H21  1  0.23940100  0.00000000  0.50000000  1
  H  H22  1  0.23940100  0.50000000  0.00000000  1
  H  H23  1  0.00000000  0.00000000  0.26130500  1
  H  H24  1  0.00000000  0.73869500  0.00000000  1
  H  H25  1  0.73869500  0.00000000  0.00000000  1
  H  H26  1  0.00000000  0.00000000  0.73869500  1
  H  H27  1  0.00000000  0.26130500  0.00000000  1
  H  H28  1  0.26130500  0.00000000  0.00000000  1
  H  H29  1  0.62577400  0.62577400  0.37422600  1
  H  H30  1  0.62577400  0.37422600  0.62577400  1
  H  H31  1  0.37422600  0.62577400  0.62577400  1
  H  H32  1  0.37422600  0.37422600  0.37422600  1
