# generated using pymatgen
data_U(PbO2)3
_symmetry_space_group_name_H-M   'P 1'
_cell_length_a   8.32780200
_cell_length_b   12.55993900
_cell_length_c   13.90176800
_cell_angle_alpha   90.00000000
_cell_angle_beta   90.00000000
_cell_angle_gamma   90.00000000
_symmetry_Int_Tables_number   1
_chemical_formula_structural   U(PbO2)3
_chemical_formula_sum   'U8 Pb24 O48'
_cell_volume   1454.07885016
_cell_formula_units_Z   8
loop_
 _symmetry_equiv_pos_site_id
 _symmetry_equiv_pos_as_xyz
  1  'x, y, z'
loop_
 _atom_site_type_symbol
 _atom_site_label
 _atom_site_symmetry_multiplicity
 _atom_site_fract_x
 _atom_site_fract_y
 _atom_site_fract_z
 _atom_site_occupancy
  U  U0  1  0.50207400  0.75968400  0.91373100  1
  U  U1  1  0.99792600  0.74031600  0.41373100  1
  U  U2  1  0.00207400  0.25968400  0.58626900  1
  U  U3  1  0.49792600  0.25968400  0.58626900  1
  U  U4  1  0.99792600  0.75968400  0.91373100  1
  U  U5  1  0.50207400  0.74031600  0.41373100  1
  U  U6  1  0.00207400  0.24031600  0.08626900  1
  U  U7  1  0.49792600  0.24031600  0.08626900  1
  Pb  Pb8  1  0.53187900  0.50475600  0.76831900  1
  Pb  Pb9  1  0.75000000  0.23116400  0.85185300  1
  Pb  Pb10  1  0.25000000  0.98461300  0.49636100  1
  Pb  Pb11  1  0.96812100  0.99524400  0.26831900  1
  Pb  Pb12  1  0.25000000  0.23790100  0.31731000  1
  Pb  Pb13  1  0.46812100  0.49524400  0.23168100  1
  Pb  Pb14  1  0.25000000  0.76883600  0.14814700  1
  Pb  Pb15  1  0.75000000  0.26883600  0.35185300  1
  Pb  Pb16  1  0.75000000  0.52859500  0.53318500  1
  Pb  Pb17  1  0.03187900  0.00475600  0.73168100  1
  Pb  Pb18  1  0.53187900  0.99524400  0.26831900  1
  Pb  Pb19  1  0.96812100  0.50475600  0.76831900  1
  Pb  Pb20  1  0.25000000  0.02859500  0.96681500  1
  Pb  Pb21  1  0.25000000  0.26209900  0.81731000  1
  Pb  Pb22  1  0.46812100  0.00475600  0.73168100  1
  Pb  Pb23  1  0.25000000  0.47140500  0.46681500  1
  Pb  Pb24  1  0.75000000  0.97140500  0.03318500  1
  Pb  Pb25  1  0.03187900  0.49524400  0.23168100  1
  Pb  Pb26  1  0.75000000  0.01538700  0.50363900  1
  Pb  Pb27  1  0.75000000  0.73790100  0.18269000  1
  Pb  Pb28  1  0.25000000  0.51538700  0.99636100  1
  Pb  Pb29  1  0.25000000  0.73116400  0.64814700  1
  Pb  Pb30  1  0.75000000  0.48461300  0.00363900  1
  Pb  Pb31  1  0.75000000  0.76209900  0.68269000  1
  O  O32  1  0.53835700  0.22647600  0.72874700  1
  O  O33  1  0.46164300  0.72647600  0.77125300  1
  O  O34  1  0.94218100  0.70584800  0.55179700  1
  O  O35  1  0.25000000  0.41550100  0.29900000  1
  O  O36  1  0.55179300  0.41847400  0.60848900  1
  O  O37  1  0.96164300  0.22647600  0.72874700  1
  O  O38  1  0.25000000  0.72508300  0.96113200  1
  O  O39  1  0.04964400  0.09910500  0.56785700  1
  O  O40  1  0.75000000  0.79172500  0.87051200  1
  O  O41  1  0.94820700  0.41847400  0.60848900  1
  O  O42  1  0.05781900  0.20584800  0.94820300  1
  O  O43  1  0.44820700  0.91847400  0.89151100  1
  O  O44  1  0.95035600  0.59910500  0.93214300  1
  O  O45  1  0.44218100  0.20584800  0.94820300  1
  O  O46  1  0.75000000  0.22508300  0.53886800  1
  O  O47  1  0.55781900  0.70584800  0.55179700  1
  O  O48  1  0.45035600  0.09910500  0.56785700  1
  O  O49  1  0.54964400  0.59910500  0.93214300  1
  O  O50  1  0.03835700  0.77352400  0.27125300  1
  O  O51  1  0.75000000  0.08545500  0.34675300  1
  O  O52  1  0.05179300  0.91847400  0.89151100  1
  O  O53  1  0.46164300  0.77352400  0.27125300  1
  O  O54  1  0.44218100  0.29415200  0.44820300  1
  O  O55  1  0.94820700  0.08152600  0.10848900  1
  O  O56  1  0.25000000  0.08449900  0.79900000  1
  O  O57  1  0.25000000  0.91454500  0.65324700  1
  O  O58  1  0.25000000  0.77491700  0.46113200  1
  O  O59  1  0.53835700  0.27352400  0.22874700  1
  O  O60  1  0.25000000  0.29172500  0.62948800  1
  O  O61  1  0.75000000  0.27491700  0.03886800  1
  O  O62  1  0.05781900  0.29415200  0.44820300  1
  O  O63  1  0.75000000  0.41454500  0.84675300  1
  O  O64  1  0.04964400  0.40089500  0.06785700  1
  O  O65  1  0.55781900  0.79415200  0.05179700  1
  O  O66  1  0.75000000  0.58449900  0.70100000  1
  O  O67  1  0.25000000  0.20827500  0.12948800  1
  O  O68  1  0.44820700  0.58152600  0.39151100  1
  O  O69  1  0.75000000  0.70827500  0.37051200  1
  O  O70  1  0.96164300  0.27352400  0.22874700  1
  O  O71  1  0.75000000  0.91550100  0.20100000  1
  O  O72  1  0.03835700  0.72647600  0.77125300  1
  O  O73  1  0.55179300  0.08152600  0.10848900  1
  O  O74  1  0.45035600  0.40089500  0.06785700  1
  O  O75  1  0.94218100  0.79415200  0.05179700  1
  O  O76  1  0.95035600  0.90089500  0.43214300  1
  O  O77  1  0.05179300  0.58152600  0.39151100  1
  O  O78  1  0.25000000  0.58545500  0.15324700  1
  O  O79  1  0.54964400  0.90089500  0.43214300  1
