# generated using pymatgen
data_Rb2Sc(NO3)5
_symmetry_space_group_name_H-M   'P 1'
_cell_length_a   11.14569524
_cell_length_b   11.14569524
_cell_length_c   9.51952800
_cell_angle_alpha   90.00000000
_cell_angle_beta   90.00000000
_cell_angle_gamma   119.99999548
_symmetry_Int_Tables_number   1
_chemical_formula_structural   Rb2Sc(NO3)5
_chemical_formula_sum   'Rb6 Sc3 N15 O45'
_cell_volume   1024.14251355
_cell_formula_units_Z   3
loop_
 _symmetry_equiv_pos_site_id
 _symmetry_equiv_pos_as_xyz
  1  'x, y, z'
loop_
 _atom_site_type_symbol
 _atom_site_label
 _atom_site_symmetry_multiplicity
 _atom_site_fract_x
 _atom_site_fract_y
 _atom_site_fract_z
 _atom_site_occupancy
  Rb  Rb0  1  0.46965700  0.00000000  0.33333300  1
  Rb  Rb1  1  0.71672000  0.71672000  0.50000000  1
  Rb  Rb2  1  0.00000000  0.28328000  0.16666700  1
  Rb  Rb3  1  0.28328000  0.00000000  0.83333300  1
  Rb  Rb4  1  0.53034300  0.53034300  0.00000000  1
  Rb  Rb5  1  0.00000000  0.46965700  0.66666700  1
  Sc  Sc6  1  0.00000000  0.68111200  0.16666700  1
  Sc  Sc7  1  0.31888800  0.31888800  0.50000000  1
  Sc  Sc8  1  0.68111200  0.00000000  0.83333300  1
  N  N9  1  0.25476800  0.67761300  0.10520600  1
  N  N10  1  0.67761300  0.25476800  0.89479400  1
  N  N11  1  0.74792300  0.10097900  0.56038000  1
  N  N12  1  0.91874900  0.00000000  0.83333300  1
  N  N13  1  0.25207700  0.35305600  0.77295300  1
  N  N14  1  0.89902100  0.64694400  0.89371300  1
  N  N15  1  0.10097900  0.74792300  0.43962000  1
  N  N16  1  0.74523200  0.42284500  0.22812700  1
  N  N17  1  0.32238700  0.57715500  0.43853900  1
  N  N18  1  0.64694400  0.89902100  0.10628700  1
  N  N19  1  0.35305600  0.25207700  0.22704700  1
  N  N20  1  0.57715500  0.32238700  0.56146100  1
  N  N21  1  0.08125100  0.08125100  0.50000000  1
  N  N22  1  0.42284500  0.74523200  0.77187300  1
  N  N23  1  0.00000000  0.91874900  0.16666700  1
  O  O24  1  0.63690300  0.98564400  0.58877600  1
  O  O25  1  0.33832700  0.17575800  0.33392400  1
  O  O26  1  0.54445400  0.41403800  0.51739600  1
  O  O27  1  0.91663500  0.81513800  0.24236600  1
  O  O28  1  0.72173400  0.52071400  0.24416800  1
  O  O29  1  0.58596200  0.13041600  0.85072900  1
  O  O30  1  0.37185100  0.22291600  0.10730200  1
  O  O31  1  0.47928600  0.20102000  0.57750100  1
  O  O32  1  0.00000000  0.02885300  0.16666700  1
  O  O33  1  0.08336500  0.89850300  0.09096700  1
  O  O34  1  0.16256800  0.82424200  0.33274300  1
  O  O35  1  0.65125900  0.01435600  0.07789100  1
  O  O36  1  0.29935200  0.65874000  0.75312000  1
  O  O37  1  0.86958400  0.45554600  0.18406200  1
  O  O38  1  0.81513800  0.91663500  0.75763400  1
  O  O39  1  0.45554600  0.86958400  0.81593800  1
  O  O40  1  0.14893500  0.77708400  0.55936400  1
  O  O41  1  0.01435600  0.65125900  0.92210900  1
  O  O42  1  0.65874000  0.29935200  0.24688000  1
  O  O43  1  0.22291600  0.37185100  0.89269800  1
  O  O44  1  0.52071400  0.72173400  0.75583200  1
  O  O45  1  0.89850300  0.08336500  0.90903300  1
  O  O46  1  0.17575800  0.33832700  0.66607600  1
  O  O47  1  0.41403800  0.54445400  0.48260400  1
  O  O48  1  0.34126000  0.64061200  0.08645400  1
  O  O49  1  0.13041600  0.58596200  0.14927100  1
  O  O50  1  0.20102000  0.47928600  0.42249900  1
  O  O51  1  0.70064800  0.35938800  0.58021300  1
  O  O52  1  0.36309700  0.34874100  0.74455800  1
  O  O53  1  0.34874100  0.36309700  0.25544200  1
  O  O54  1  0.82424200  0.16256800  0.66725700  1
  O  O55  1  0.64061200  0.34126000  0.91354600  1
  O  O56  1  0.85106500  0.62814900  0.77396900  1
  O  O57  1  0.79898000  0.27826600  0.91083400  1
  O  O58  1  0.66167300  0.83743200  0.99941000  1
  O  O59  1  0.77708400  0.14893500  0.44063600  1
  O  O60  1  0.35938800  0.70064800  0.41978700  1
  O  O61  1  0.10149700  0.18486200  0.42430100  1
  O  O62  1  0.83743200  0.66167300  0.00059000  1
  O  O63  1  0.97114700  0.97114700  0.50000000  1
  O  O64  1  0.62814900  0.85106500  0.22603100  1
  O  O65  1  0.98564400  0.63690300  0.41122400  1
  O  O66  1  0.02885300  0.00000000  0.83333300  1
  O  O67  1  0.18486200  0.10149700  0.57569900  1
  O  O68  1  0.27826600  0.79898000  0.08916600  1
