# generated using pymatgen
data_KIn(MoO4)2
_symmetry_space_group_name_H-M   'P 1'
_cell_length_a   5.98681700
_cell_length_b   8.88772600
_cell_length_c   15.06652300
_cell_angle_alpha   90.00000000
_cell_angle_beta   90.00000000
_cell_angle_gamma   90.00000000
_symmetry_Int_Tables_number   1
_chemical_formula_structural   KIn(MoO4)2
_chemical_formula_sum   'K4 In4 Mo8 O32'
_cell_volume   801.67747151
_cell_formula_units_Z   4
loop_
 _symmetry_equiv_pos_site_id
 _symmetry_equiv_pos_as_xyz
  1  'x, y, z'
loop_
 _atom_site_type_symbol
 _atom_site_label
 _atom_site_symmetry_multiplicity
 _atom_site_fract_x
 _atom_site_fract_y
 _atom_site_fract_z
 _atom_site_occupancy
  K  K0  1  0.25000000  0.54690100  0.37624600  1
  K  K1  1  0.25000000  0.95309900  0.87624600  1
  K  K2  1  0.75000000  0.45309900  0.62375400  1
  K  K3  1  0.75000000  0.04690100  0.12375400  1
  In  In4  1  0.25000000  0.69547300  0.10557300  1
  In  In5  1  0.75000000  0.19547300  0.39442700  1
  In  In6  1  0.25000000  0.80452700  0.60557300  1
  In  In7  1  0.75000000  0.30452700  0.89442700  1
  Mo  Mo8  1  0.25000000  0.99687700  0.28356100  1
  Mo  Mo9  1  0.75000000  0.00312300  0.71643900  1
  Mo  Mo10  1  0.75000000  0.49687700  0.21643900  1
  Mo  Mo11  1  0.25000000  0.21746600  0.53837100  1
  Mo  Mo12  1  0.75000000  0.71746600  0.96162900  1
  Mo  Mo13  1  0.25000000  0.28253400  0.03837100  1
  Mo  Mo14  1  0.75000000  0.78253400  0.46162900  1
  Mo  Mo15  1  0.25000000  0.50312300  0.78356100  1
  O  O16  1  0.75000000  0.09124900  0.82593200  1
  O  O17  1  0.25000000  0.59124900  0.67406800  1
  O  O18  1  0.25000000  0.28167900  0.64778000  1
  O  O19  1  0.50604900  0.79470200  0.01882300  1
  O  O20  1  0.75000000  0.40875100  0.32593200  1
  O  O21  1  0.50190400  0.10527800  0.30395700  1
  O  O22  1  0.49395100  0.29470200  0.48117700  1
  O  O23  1  0.25000000  0.65026000  0.85958000  1
  O  O24  1  0.50604900  0.70529800  0.51882300  1
  O  O25  1  0.49395100  0.20529800  0.98117700  1
  O  O26  1  0.75000000  0.71832100  0.35222000  1
  O  O27  1  0.25000000  0.90875100  0.17406800  1
  O  O28  1  0.00190400  0.89472200  0.69604300  1
  O  O29  1  0.00604900  0.20529800  0.98117700  1
  O  O30  1  0.75000000  0.15026000  0.64042000  1
  O  O31  1  0.99809600  0.10527800  0.30395700  1
  O  O32  1  0.99395100  0.79470200  0.01882300  1
  O  O33  1  0.75000000  0.51592200  0.96646700  1
  O  O34  1  0.25000000  0.84974000  0.35958000  1
  O  O35  1  0.75000000  0.98407800  0.46646700  1
  O  O36  1  0.50190400  0.39472200  0.80395700  1
  O  O37  1  0.49809600  0.89472200  0.69604300  1
  O  O38  1  0.25000000  0.48407800  0.03353300  1
  O  O39  1  0.00190400  0.60527800  0.19604300  1
  O  O40  1  0.75000000  0.78167900  0.85222000  1
  O  O41  1  0.25000000  0.01592200  0.53353300  1
  O  O42  1  0.00604900  0.29470200  0.48117700  1
  O  O43  1  0.49809600  0.60527800  0.19604300  1
  O  O44  1  0.25000000  0.21832100  0.14778000  1
  O  O45  1  0.99395100  0.70529800  0.51882300  1
  O  O46  1  0.99809600  0.39472200  0.80395700  1
  O  O47  1  0.75000000  0.34974000  0.14042000  1
