# generated using pymatgen
data_YbCd6
_symmetry_space_group_name_H-M   'P 1'
_cell_length_a   13.69776793
_cell_length_b   13.69776793
_cell_length_c   13.69776793
_cell_angle_alpha   109.47122063
_cell_angle_beta   109.47122063
_cell_angle_gamma   109.47122063
_symmetry_Int_Tables_number   1
_chemical_formula_structural   YbCd6
_chemical_formula_sum   'Yb12 Cd72'
_cell_volume   1978.46112460
_cell_formula_units_Z   12
loop_
 _symmetry_equiv_pos_site_id
 _symmetry_equiv_pos_as_xyz
  1  'x, y, z'
loop_
 _atom_site_type_symbol
 _atom_site_label
 _atom_site_symmetry_multiplicity
 _atom_site_fract_x
 _atom_site_fract_y
 _atom_site_fract_z
 _atom_site_occupancy
  Yb  Yb0  1  0.29838600  0.11324300  0.81051600  1
  Yb  Yb1  1  0.30272700  0.48787000  0.18948400  1
  Yb  Yb2  1  0.18514300  0.69727300  0.88675700  1
  Yb  Yb3  1  0.69727300  0.88675700  0.18514300  1
  Yb  Yb4  1  0.81485700  0.70161400  0.51213000  1
  Yb  Yb5  1  0.88675700  0.18514300  0.69727300  1
  Yb  Yb6  1  0.48787000  0.18948400  0.30272700  1
  Yb  Yb7  1  0.51213000  0.81485700  0.70161400  1
  Yb  Yb8  1  0.18948400  0.30272700  0.48787000  1
  Yb  Yb9  1  0.70161400  0.51213000  0.81485700  1
  Yb  Yb10  1  0.81051600  0.29838600  0.11324300  1
  Yb  Yb11  1  0.11324300  0.81051600  0.29838600  1
  Cd  Cd12  1  0.23794400  0.90608400  0.14541900  1
  Cd  Cd13  1  0.00000000  0.00000000  0.31371800  1
  Cd  Cd14  1  0.53957900  0.08684100  0.85308200  1
  Cd  Cd15  1  0.40517500  0.00000000  0.40517500  1
  Cd  Cd16  1  0.34880700  0.74983800  0.40787200  1
  Cd  Cd17  1  0.13336200  0.13336200  0.13336200  1
  Cd  Cd18  1  0.33186000  0.23933500  0.09391600  1
  Cd  Cd19  1  0.08684100  0.85308200  0.53957900  1
  Cd  Cd20  1  0.90608400  0.14541900  0.23794400  1
  Cd  Cd21  1  0.19125800  0.69125800  0.50000000  1
  Cd  Cd22  1  0.68064800  0.45963100  0.54436400  1
  Cd  Cd23  1  0.35052100  0.35052100  0.35052100  1
  Cd  Cd24  1  0.45273800  0.76624000  0.91315900  1
  Cd  Cd25  1  0.66814000  0.76205600  0.90747500  1
  Cd  Cd26  1  0.31371800  0.00000000  0.00000000  1
  Cd  Cd27  1  0.77898300  0.31935200  0.86371600  1
  Cd  Cd28  1  0.22101700  0.08473300  0.54036900  1
  Cd  Cd29  1  0.31350200  0.54726200  0.46042100  1
  Cd  Cd30  1  0.31935200  0.86371600  0.77898300  1
  Cd  Cd31  1  0.05906500  0.40103100  0.65119300  1
  Cd  Cd32  1  0.14541900  0.23794400  0.90608400  1
  Cd  Cd33  1  0.69125800  0.50000000  0.19125800  1
  Cd  Cd34  1  0.94093500  0.59212800  0.34196600  1
  Cd  Cd35  1  0.23933500  0.09391600  0.33186000  1
  Cd  Cd36  1  0.30874200  0.50000000  0.80874200  1
  Cd  Cd37  1  0.90747500  0.66814000  0.76205600  1
  Cd  Cd38  1  0.09391600  0.33186000  0.23933500  1
  Cd  Cd39  1  0.00000000  0.31371800  0.00000000  1
  Cd  Cd40  1  0.80874200  0.30874200  0.50000000  1
  Cd  Cd41  1  0.76066500  0.09252500  0.85458100  1
  Cd  Cd42  1  0.76205600  0.90747500  0.66814000  1
  Cd  Cd43  1  0.59482500  0.59482500  0.00000000  1
  Cd  Cd44  1  0.76624000  0.91315900  0.45273800  1
  Cd  Cd45  1  0.86371600  0.77898300  0.31935200  1
  Cd  Cd46  1  0.54726200  0.46042100  0.31350200  1
  Cd  Cd47  1  0.45563600  0.91526700  0.13628400  1
  Cd  Cd48  1  0.00000000  0.64947900  0.00000000  1
  Cd  Cd49  1  0.00000000  0.00000000  0.64947900  1
  Cd  Cd50  1  0.68649800  0.14691800  0.23376000  1
  Cd  Cd51  1  0.54036900  0.22101700  0.08473300  1
  Cd  Cd52  1  0.45963100  0.54436400  0.68064800  1
  Cd  Cd53  1  0.46042100  0.31350200  0.54726200  1
  Cd  Cd54  1  0.59212800  0.34196600  0.94093500  1
  Cd  Cd55  1  0.14691800  0.23376000  0.68649800  1
  Cd  Cd56  1  0.50000000  0.19125800  0.69125800  1
  Cd  Cd57  1  0.09252500  0.85458100  0.76066500  1
  Cd  Cd58  1  0.40787200  0.34880700  0.74983800  1
  Cd  Cd59  1  0.25016200  0.59896900  0.65803400  1
  Cd  Cd60  1  0.40517500  0.40517500  0.00000000  1
  Cd  Cd61  1  0.23376000  0.68649800  0.14691800  1
  Cd  Cd62  1  0.85458100  0.76066500  0.09252500  1
  Cd  Cd63  1  0.00000000  0.00000000  0.86663800  1
  Cd  Cd64  1  0.50000000  0.80874200  0.30874200  1
  Cd  Cd65  1  0.91526700  0.13628400  0.45563600  1
  Cd  Cd66  1  0.86663800  0.00000000  0.00000000  1
  Cd  Cd67  1  0.65803400  0.25016200  0.59896900  1
  Cd  Cd68  1  0.40103100  0.65119300  0.05906500  1
  Cd  Cd69  1  0.65119300  0.05906500  0.40103100  1
  Cd  Cd70  1  0.00000000  0.40517500  0.40517500  1
  Cd  Cd71  1  0.59482500  0.00000000  0.59482500  1
  Cd  Cd72  1  0.74983800  0.40787200  0.34880700  1
  Cd  Cd73  1  0.13628400  0.45563600  0.91526700  1
  Cd  Cd74  1  0.08473300  0.54036900  0.22101700  1
  Cd  Cd75  1  0.64947900  0.00000000  0.00000000  1
  Cd  Cd76  1  0.00000000  0.86663800  0.00000000  1
  Cd  Cd77  1  0.91315900  0.45273800  0.76624000  1
  Cd  Cd78  1  0.68628200  0.68628200  0.68628200  1
  Cd  Cd79  1  0.54436400  0.68064800  0.45963100  1
  Cd  Cd80  1  0.00000000  0.59482500  0.59482500  1
  Cd  Cd81  1  0.59896900  0.65803400  0.25016200  1
  Cd  Cd82  1  0.34196600  0.94093500  0.59212800  1
  Cd  Cd83  1  0.85308200  0.53957900  0.08684100  1
