# generated using pymatgen
data_CsLiSO4
_symmetry_space_group_name_H-M   'P 1'
_cell_length_a   9.16010200
_cell_length_b   5.49866200
_cell_length_c   10.94763661
_cell_angle_alpha   60.10745946
_cell_angle_beta   90.00000000
_cell_angle_gamma   90.00000000
_symmetry_Int_Tables_number   1
_chemical_formula_structural   CsLiSO4
_chemical_formula_sum   'Cs4 Li4 S4 O16'
_cell_volume   478.05469736
_cell_formula_units_Z   4
loop_
 _symmetry_equiv_pos_site_id
 _symmetry_equiv_pos_as_xyz
  1  'x, y, z'
loop_
 _atom_site_type_symbol
 _atom_site_label
 _atom_site_symmetry_multiplicity
 _atom_site_fract_x
 _atom_site_fract_y
 _atom_site_fract_z
 _atom_site_occupancy
  Cs  Cs0  1  0.50047200  0.95797100  0.78451000  1
  Cs  Cs1  1  0.00047200  0.04202900  0.71549000  1
  Cs  Cs2  1  0.49952800  0.04202900  0.21549000  1
  Cs  Cs3  1  0.99952800  0.95797100  0.28451000  1
  Li  Li4  1  0.82530300  0.33964800  0.91413400  1
  Li  Li5  1  0.32530300  0.66035200  0.58586600  1
  Li  Li6  1  0.17469700  0.66035200  0.08586600  1
  Li  Li7  1  0.67469700  0.33964800  0.41413400  1
  S  S8  1  0.69989600  0.67096000  0.58281200  1
  S  S9  1  0.19989600  0.32904000  0.91718800  1
  S  S10  1  0.30010400  0.32904000  0.41718800  1
  S  S11  1  0.80010400  0.67096000  0.08281200  1
  O  O12  1  0.75455500  0.46498300  0.54196800  1
  O  O13  1  0.25455500  0.53501700  0.95803200  1
  O  O14  1  0.24544500  0.53501700  0.45803200  1
  O  O15  1  0.74544500  0.46498300  0.04196800  1
  O  O16  1  0.96179600  0.65480000  0.09442700  1
  O  O17  1  0.46179600  0.34520000  0.40557300  1
  O  O18  1  0.03820400  0.34520000  0.90557300  1
  O  O19  1  0.53820400  0.65480000  0.59442700  1
  O  O20  1  0.75424700  0.95969600  0.97311600  1
  O  O21  1  0.25424700  0.04030400  0.52688400  1
  O  O22  1  0.24575300  0.04030400  0.02688400  1
  O  O23  1  0.74575300  0.95969600  0.47311600  1
  O  O24  1  0.73584900  0.60605200  0.22086900  1
  O  O25  1  0.23584900  0.39394800  0.27913100  1
  O  O26  1  0.26415100  0.39394800  0.77913100  1
  O  O27  1  0.76415100  0.60605200  0.72086900  1
