# generated using pymatgen
data_La3U2O10
_symmetry_space_group_name_H-M   'P 1'
_cell_length_a   6.85099300
_cell_length_b   7.80417554
_cell_length_c   8.73028915
_cell_angle_alpha   101.67604202
_cell_angle_beta   97.78309423
_cell_angle_gamma   107.12812845
_symmetry_Int_Tables_number   1
_chemical_formula_structural   La3U2O10
_chemical_formula_sum   'La6 U4 O20'
_cell_volume   427.25367126
_cell_formula_units_Z   2
loop_
 _symmetry_equiv_pos_site_id
 _symmetry_equiv_pos_as_xyz
  1  'x, y, z'
loop_
 _atom_site_type_symbol
 _atom_site_label
 _atom_site_symmetry_multiplicity
 _atom_site_fract_x
 _atom_site_fract_y
 _atom_site_fract_z
 _atom_site_occupancy
  La  La0  1  0.60829800  0.70114000  0.70056800  1
  La  La1  1  0.39170200  0.29886000  0.29943200  1
  La  La2  1  0.19899200  0.89681700  0.89625200  1
  La  La3  1  0.00000000  0.50000000  0.50000000  1
  La  La4  1  0.80100800  0.10318300  0.10374800  1
  La  La5  1  0.00000000  0.00000000  0.50000000  1
  U  U6  1  0.40263100  0.80287300  0.30217600  1
  U  U7  1  0.19955300  0.40309400  0.90285700  1
  U  U8  1  0.80044700  0.59690600  0.09714300  1
  U  U9  1  0.59736900  0.19712700  0.69782400  1
  O  O10  1  0.44071700  0.53447100  0.13232600  1
  O  O11  1  0.55867200  0.99735400  0.83584200  1
  O  O12  1  0.27687300  0.15435300  0.74847300  1
  O  O13  1  0.36171600  0.60121400  0.43529600  1
  O  O14  1  0.05808500  0.72959400  0.32392100  1
  O  O15  1  0.44132800  0.00264600  0.16415800  1
  O  O16  1  0.15031000  0.19415100  0.02819600  1
  O  O17  1  0.55928300  0.46552900  0.86767400  1
  O  O18  1  0.85356400  0.34444800  0.94758500  1
  O  O19  1  0.25414700  0.59977700  0.76698700  1
  O  O20  1  0.95235100  0.77161800  0.65333300  1
  O  O21  1  0.36126200  0.06118500  0.45702600  1
  O  O22  1  0.63873800  0.93881500  0.54297400  1
  O  O23  1  0.04764900  0.22838200  0.34666700  1
  O  O24  1  0.74585300  0.40022300  0.23301300  1
  O  O25  1  0.14643600  0.65555200  0.05241500  1
  O  O26  1  0.84969000  0.80584900  0.97180400  1
  O  O27  1  0.94191500  0.27040600  0.67607900  1
  O  O28  1  0.63828400  0.39878600  0.56470400  1
  O  O29  1  0.72312700  0.84564700  0.25152700  1
