# generated using pymatgen
data_Ga6Te10Pb
_symmetry_space_group_name_H-M   'P 1'
_cell_length_a   14.86457289
_cell_length_b   14.86457289
_cell_length_c   18.09503200
_cell_angle_alpha   90.00000000
_cell_angle_beta   90.00000000
_cell_angle_gamma   120.00000398
_symmetry_Int_Tables_number   1
_chemical_formula_structural   Ga6Te10Pb
_chemical_formula_sum   'Ga36 Te60 Pb6'
_cell_volume   3462.54032456
_cell_formula_units_Z   6
loop_
 _symmetry_equiv_pos_site_id
 _symmetry_equiv_pos_as_xyz
  1  'x, y, z'
loop_
 _atom_site_type_symbol
 _atom_site_label
 _atom_site_symmetry_multiplicity
 _atom_site_fract_x
 _atom_site_fract_y
 _atom_site_fract_z
 _atom_site_occupancy
  Ga  Ga0  1  0.07277200  0.98858700  0.41380500  1
  Ga  Ga1  1  0.08418500  0.01141300  0.91952800  1
  Ga  Ga2  1  0.21925000  0.14418400  0.73576600  1
  Ga  Ga3  1  0.07506600  0.85581600  0.59756700  1
  Ga  Ga4  1  0.52164500  0.40694400  0.73110900  1
  Ga  Ga5  1  0.11470100  0.59305600  0.60222500  1
  Ga  Ga6  1  0.81202900  0.55557000  0.59205800  1
  Ga  Ga7  1  0.25645900  0.44443000  0.74127500  1
  Ga  Ga8  1  0.74767700  0.32358400  0.74823000  1
  Ga  Ga9  1  0.42409300  0.67641600  0.58510300  1
  Ga  Ga10  1  0.18797100  0.74354100  0.07460900  1
  Ga  Ga11  1  0.44443000  0.25645900  0.25872500  1
  Ga  Ga12  1  0.25241800  0.59501500  0.41580000  1
  Ga  Ga13  1  0.25232300  0.57590700  0.91843600  1
  Ga  Ga14  1  0.67641600  0.42409300  0.41489700  1
  Ga  Ga15  1  0.34259700  0.74758200  0.74913300  1
  Ga  Ga16  1  0.47835500  0.88529900  0.93555800  1
  Ga  Ga17  1  0.59305600  0.11470100  0.39777500  1
  Ga  Ga18  1  0.40498500  0.65740300  0.08246700  1
  Ga  Ga19  1  0.78075000  0.92493400  0.93090100  1
  Ga  Ga20  1  0.85581600  0.07506600  0.40243300  1
  Ga  Ga21  1  0.57590700  0.25232300  0.08156400  1
  Ga  Ga22  1  0.32358400  0.74767700  0.25177000  1
  Ga  Ga23  1  0.91581500  0.92722800  0.74713900  1
  Ga  Ga24  1  0.98858700  0.07277200  0.58619500  1
  Ga  Ga25  1  0.65740300  0.40498500  0.91753300  1
  Ga  Ga26  1  0.59501500  0.25241800  0.58420000  1
  Ga  Ga27  1  0.92722800  0.91581500  0.25286100  1
  Ga  Ga28  1  0.01141300  0.08418500  0.08047200  1
  Ga  Ga29  1  0.92493400  0.78075000  0.06909900  1
  Ga  Ga30  1  0.14418400  0.21925000  0.26423400  1
  Ga  Ga31  1  0.74758200  0.34259700  0.25086700  1
  Ga  Ga32  1  0.88529900  0.47835500  0.06444200  1
  Ga  Ga33  1  0.40694400  0.52164500  0.26889100  1
  Ga  Ga34  1  0.55557000  0.81202900  0.40794200  1
  Ga  Ga35  1  0.74354100  0.18797100  0.92539100  1
  Te  Te36  1  0.03374100  0.13522400  0.72919400  1
  Te  Te37  1  0.89851700  0.86477600  0.60414000  1
  Te  Te38  1  0.00000000  0.84479500  0.83333300  1
  Te  Te39  1  0.32948500  0.33220900  0.66909200  1
  Te  Te40  1  0.99727600  0.66779100  0.66424100  1
  Te  Te41  1  0.27518900  0.14635800  0.87646200  1
  Te  Te42  1  0.12883100  0.85364200  0.45687100  1
  Te  Te43  1  0.24662600  0.00000000  0.66666700  1
  Te  Te44  1  0.06078800  0.53942600  0.46064700  1
  Te  Te45  1  0.52136200  0.46057400  0.87268600  1
  Te  Te46  1  0.65751600  0.57511700  0.65486000  1
  Te  Te47  1  0.08239900  0.42488300  0.67847400  1
  Te  Te48  1  0.53610600  0.23524500  0.72765100  1
  Te  Te49  1  0.30086200  0.76475500  0.60568200  1
  Te  Te50  1  0.33872200  0.51146800  0.49758400  1
  Te  Te51  1  0.82725300  0.48853200  0.83574900  1
  Te  Te52  1  0.43272000  0.62991100  0.72933300  1
  Te  Te53  1  0.80280900  0.37008900  0.60400000  1
  Te  Te54  1  0.78219400  0.17428200  0.78562700  1
  Te  Te55  1  0.60791200  0.82571800  0.54770600  1
  Te  Te56  1  0.17274700  0.66127800  0.83091700  1
  Te  Te57  1  0.51146800  0.33872200  0.50241600  1
  Te  Te58  1  0.34248400  0.91760100  0.01180700  1
  Te  Te59  1  0.42488300  0.08239900  0.32152600  1
  Te  Te60  1  0.19719100  0.56728000  0.06266700  1
  Te  Te61  1  0.62991100  0.43272000  0.27066700  1
  Te  Te62  1  0.47863800  0.93921200  0.79398100  1
  Te  Te63  1  0.53942600  0.06078800  0.53935300  1
  Te  Te64  1  0.21780600  0.39208800  0.88103900  1
  Te  Te65  1  0.82571800  0.60791200  0.45229400  1
  Te  Te66  1  0.46389400  0.69913800  0.93901500  1
  Te  Te67  1  0.76475500  0.30086200  0.39431800  1
  Te  Te68  1  0.67051500  0.00272400  0.99757400  1
  Te  Te69  1  0.66779100  0.99727600  0.33575900  1
  Te  Te70  1  0.17428200  0.78219400  0.21437300  1
  Te  Te71  1  0.39208800  0.21780600  0.11896100  1
  Te  Te72  1  0.72481100  0.87116900  0.79020400  1
  Te  Te73  1  0.85364200  0.12883100  0.54312900  1
  Te  Te74  1  0.84479500  0.00000000  0.16666700  1
  Te  Te75  1  0.75337400  0.75337400  0.00000000  1
  Te  Te76  1  0.00000000  0.24662600  0.33333300  1
  Te  Te77  1  0.96625900  0.10148300  0.93747300  1
  Te  Te78  1  0.86477600  0.89851700  0.39586000  1
  Te  Te79  1  0.69913800  0.46389400  0.06098500  1
  Te  Te80  1  0.23524500  0.53610600  0.27234900  1
  Te  Te81  1  0.56728000  0.19719100  0.93733300  1
  Te  Te82  1  0.37008900  0.80280900  0.39600000  1
  Te  Te83  1  0.87116900  0.72481100  0.20979600  1
  Te  Te84  1  0.14635800  0.27518900  0.12353800  1
  Te  Te85  1  0.66127800  0.17274700  0.16908300  1
  Te  Te86  1  0.48853200  0.82725300  0.16425100  1
  Te  Te87  1  0.15520500  0.15520500  0.50000000  1
  Te  Te88  1  0.10148300  0.96625900  0.06252700  1
  Te  Te89  1  0.13522400  0.03374100  0.27080600  1
  Te  Te90  1  0.00272400  0.67051500  0.00242600  1
  Te  Te91  1  0.33220900  0.32948500  0.33090800  1
  Te  Te92  1  0.46057400  0.52136200  0.12731400  1
  Te  Te93  1  0.93921200  0.47863800  0.20601900  1
  Te  Te94  1  0.91760100  0.34248400  0.98819300  1
  Te  Te95  1  0.57511700  0.65751600  0.34514000  1
  Pb  Pb96  1  0.26322500  0.91806100  0.84616000  1
  Pb  Pb97  1  0.08193900  0.34516400  0.51282700  1
  Pb  Pb98  1  0.65483600  0.73677500  0.17949400  1
  Pb  Pb99  1  0.34516400  0.08193900  0.48717300  1
  Pb  Pb100  1  0.73677500  0.65483600  0.82050600  1
  Pb  Pb101  1  0.91806100  0.26322500  0.15384000  1
