# generated using pymatgen
data_SnH4(NF)2
_symmetry_space_group_name_H-M   'P 1'
_cell_length_a   5.67270509
_cell_length_b   5.67270509
_cell_length_c   5.10039365
_cell_angle_alpha   74.83236558
_cell_angle_beta   74.83236558
_cell_angle_gamma   33.85445645
_symmetry_Int_Tables_number   1
_chemical_formula_structural   SnH4(NF)2
_chemical_formula_sum   'Sn1 H4 N2 F2'
_cell_volume   87.94757861
_cell_formula_units_Z   1
loop_
 _symmetry_equiv_pos_site_id
 _symmetry_equiv_pos_as_xyz
  1  'x, y, z'
loop_
 _atom_site_type_symbol
 _atom_site_label
 _atom_site_symmetry_multiplicity
 _atom_site_fract_x
 _atom_site_fract_y
 _atom_site_fract_z
 _atom_site_occupancy
  Sn  Sn0  1  0.00000000  0.00000000  0.00000000  1
  H  H1  1  0.60915900  0.60915900  0.56650900  1
  H  H2  1  0.39084100  0.39084100  0.43349100  1
  H  H3  1  0.70202700  0.70202700  0.77737000  1
  H  H4  1  0.29797300  0.29797300  0.22263000  1
  N  N5  1  0.60821500  0.60821500  0.76790300  1
  N  N6  1  0.39178500  0.39178500  0.23209700  1
  F  F7  1  0.87970100  0.87970100  0.75256000  1
  F  F8  1  0.12029900  0.12029900  0.24744000  1
