# generated using pymatgen
data_CaPdPb
_symmetry_space_group_name_H-M   'P 1'
_cell_length_a   8.03831749
_cell_length_b   8.03831749
_cell_length_c   3.86695000
_cell_angle_alpha   90.00000000
_cell_angle_beta   90.00000000
_cell_angle_gamma   119.99999578
_symmetry_Int_Tables_number   1
_chemical_formula_structural   CaPdPb
_chemical_formula_sum   'Ca3 Pd3 Pb3'
_cell_volume   216.38617877
_cell_formula_units_Z   3
loop_
 _symmetry_equiv_pos_site_id
 _symmetry_equiv_pos_as_xyz
  1  'x, y, z'
loop_
 _atom_site_type_symbol
 _atom_site_label
 _atom_site_symmetry_multiplicity
 _atom_site_fract_x
 _atom_site_fract_y
 _atom_site_fract_z
 _atom_site_occupancy
  Ca  Ca0  1  0.39903100  0.39903100  0.50000000  1
  Ca  Ca1  1  0.00000000  0.60096900  0.50000000  1
  Ca  Ca2  1  0.60096900  0.00000000  0.50000000  1
  Pd  Pd3  1  0.00000000  0.00000000  0.50000000  1
  Pd  Pd4  1  0.66666700  0.33333300  0.00000000  1
  Pd  Pd5  1  0.33333300  0.66666700  0.00000000  1
  Pb  Pb6  1  0.27043000  0.00000000  0.00000000  1
  Pb  Pb7  1  0.72957000  0.72957000  0.00000000  1
  Pb  Pb8  1  0.00000000  0.27043000  0.00000000  1
