# generated using pymatgen
data_Mg4Zn7
_symmetry_space_group_name_H-M   'P 1'
_cell_length_a   5.28678015
_cell_length_b   13.15152603
_cell_length_c   14.14062712
_cell_angle_alpha   102.30688484
_cell_angle_beta   90.02732382
_cell_angle_gamma   101.59502851
_symmetry_Int_Tables_number   1
_chemical_formula_structural   Mg4Zn7
_chemical_formula_sum   'Mg20 Zn35'
_cell_volume   940.02577052
_cell_formula_units_Z   5
loop_
 _symmetry_equiv_pos_site_id
 _symmetry_equiv_pos_as_xyz
  1  'x, y, z'
loop_
 _atom_site_type_symbol
 _atom_site_label
 _atom_site_symmetry_multiplicity
 _atom_site_fract_x
 _atom_site_fract_y
 _atom_site_fract_z
 _atom_site_occupancy
  Mg  Mg0  1  0.87447900  0.74810900  0.89900900  1
  Mg  Mg1  1  0.03155800  0.07147700  0.71421800  1
  Mg  Mg2  1  0.30256800  0.61011200  0.35176100  1
  Mg  Mg3  1  0.44015000  0.88392100  0.95243700  1
  Mg  Mg4  1  0.48096400  0.96748400  0.60215600  1
  Mg  Mg5  1  0.78706500  0.57154100  0.02571900  1
  Mg  Mg6  1  0.35757800  0.71731100  0.57387400  1
  Mg  Mg7  1  0.55662400  0.11579900  0.04506800  1
  Mg  Mg8  1  0.82238600  0.64536600  0.67627000  1
  Mg  Mg9  1  0.51824600  0.03485500  0.39746800  1
  Mg  Mg10  1  0.69285200  0.39156900  0.64871300  1
  Mg  Mg11  1  0.17642900  0.35813600  0.32518200  1
  Mg  Mg12  1  0.00462000  0.01428600  0.90421000  1
  Mg  Mg13  1  0.83547400  0.67670800  0.25288800  1
  Mg  Mg14  1  0.15928800  0.32356100  0.74752200  1
  Mg  Mg15  1  0.64332200  0.28478800  0.42551200  1
  Mg  Mg16  1  0.12329100  0.25165800  0.10392700  1
  Mg  Mg17  1  0.21486900  0.42848200  0.97592600  1
  Mg  Mg18  1  0.96775500  0.93037300  0.28507500  1
  Mg  Mg19  1  0.99062000  0.98687200  0.09455700  1
  Zn  Zn20  1  0.92097200  0.84527600  0.59317200  1
  Zn  Zn21  1  0.51721200  0.03755200  0.82129600  1
  Zn  Zn22  1  0.26193900  0.51778000  0.66220800  1
  Zn  Zn23  1  0.82248900  0.13790500  0.24542900  1
  Zn  Zn24  1  0.34205400  0.17485700  0.57214700  1
  Zn  Zn25  1  0.68264400  0.86158300  0.75397400  1
  Zn  Zn26  1  0.49808100  0.49879800  0.49958500  1
  Zn  Zn27  1  0.08024800  0.15654800  0.40633700  1
  Zn  Zn28  1  0.68866600  0.37759500  0.86007100  1
  Zn  Zn29  1  0.16687600  0.82546800  0.42696900  1
  Zn  Zn30  1  0.52290500  0.53614200  0.82597200  1
  Zn  Zn31  1  0.33047400  0.66142400  0.96444600  1
  Zn  Zn32  1  0.83014400  0.66361900  0.46713100  1
  Zn  Zn33  1  0.40453800  0.80453300  0.26827400  1
  Zn  Zn34  1  0.47870300  0.96368900  0.17748400  1
  Zn  Zn35  1  0.30908500  0.62339600  0.13964300  1
  Zn  Zn36  1  0.12942500  0.78738600  0.10211700  1
  Zn  Zn37  1  0.83054100  0.17410300  0.57125400  1
  Zn  Zn38  1  0.31884500  0.13909100  0.24668000  1
  Zn  Zn39  1  0.16483400  0.33671600  0.53391700  1
  Zn  Zn40  1  0.86877700  0.21539500  0.89836400  1
  Zn  Zn41  1  0.65637300  0.82523200  0.42805600  1
  Zn  Zn42  1  0.99911800  0.50136800  0.50113100  1
  Zn  Zn43  1  0.35057400  0.70084600  0.78683700  1
  Zn  Zn44  1  0.01360400  0.53597100  0.82383900  1
  Zn  Zn45  1  0.65350900  0.78723900  0.10302500  1
  Zn  Zn46  1  0.65046000  0.29979100  0.21387200  1
  Zn  Zn47  1  0.34411900  0.21369800  0.89903200  1
  Zn  Zn48  1  0.59656800  0.19685600  0.73169700  1
  Zn  Zn49  1  0.98273400  0.46564900  0.17556000  1
  Zn  Zn50  1  0.17832000  0.86220200  0.75333800  1
  Zn  Zn51  1  0.99988800  0.00006100  0.49875000  1
  Zn  Zn52  1  0.47158200  0.46399300  0.17595200  1
  Zn  Zn53  1  0.66644000  0.34021100  0.03645700  1
  Zn  Zn54  1  0.73780900  0.48341400  0.33820900  1
