# generated using pymatgen
data_Rb3Nb2AsSe11
_symmetry_space_group_name_H-M   'P 1'
_cell_length_a   10.38301781
_cell_length_b   10.38301781
_cell_length_c   10.24509946
_cell_angle_alpha   83.62001290
_cell_angle_beta   83.62001290
_cell_angle_gamma   83.64248860
_symmetry_Int_Tables_number   1
_chemical_formula_structural   Rb3Nb2AsSe11
_chemical_formula_sum   'Rb6 Nb4 As2 Se22'
_cell_volume   1085.42994469
_cell_formula_units_Z   2
loop_
 _symmetry_equiv_pos_site_id
 _symmetry_equiv_pos_as_xyz
  1  'x, y, z'
loop_
 _atom_site_type_symbol
 _atom_site_label
 _atom_site_symmetry_multiplicity
 _atom_site_fract_x
 _atom_site_fract_y
 _atom_site_fract_z
 _atom_site_occupancy
  Rb  Rb0  1  0.51195400  0.35639400  0.93112100  1
  Rb  Rb1  1  0.98885100  0.14795300  0.01473500  1
  Rb  Rb2  1  0.75227700  0.88742200  0.68545800  1
  Rb  Rb3  1  0.35639400  0.51195400  0.43112100  1
  Rb  Rb4  1  0.88742200  0.75227700  0.18545800  1
  Rb  Rb5  1  0.14795300  0.98885100  0.51473500  1
  Nb  Nb6  1  0.79427100  0.24791500  0.41365300  1
  Nb  Nb7  1  0.24791500  0.79427100  0.91365300  1
  Nb  Nb8  1  0.49792900  0.90954500  0.09924900  1
  Nb  Nb9  1  0.90954500  0.49792900  0.59924900  1
  As  As10  1  0.12753300  0.44880600  0.86005100  1
  As  As11  1  0.44880600  0.12753300  0.36005100  1
  Se  Se12  1  0.57521000  0.66409700  0.15950900  1
  Se  Se13  1  0.39939300  0.89629100  0.71384000  1
  Se  Se14  1  0.35186800  0.02124000  0.89900200  1
  Se  Se15  1  0.27982700  0.59991100  0.75847200  1
  Se  Se16  1  0.82358600  0.23353800  0.66772100  1
  Se  Se17  1  0.90268600  0.53365200  0.85216300  1
  Se  Se18  1  0.66409700  0.57521000  0.65950900  1
  Se  Se19  1  0.53365200  0.90268600  0.35216300  1
  Se  Se20  1  0.23353800  0.82358600  0.16772100  1
  Se  Se21  1  0.03471000  0.87057400  0.85541300  1
  Se  Se22  1  0.22008600  0.60944300  0.10480200  1
  Se  Se23  1  0.68090100  0.02180500  0.01448200  1
  Se  Se24  1  0.10989000  0.32200700  0.67319500  1
  Se  Se25  1  0.72675100  0.52404400  0.43827400  1
  Se  Se26  1  0.87057400  0.03471000  0.35541300  1
  Se  Se27  1  0.52404400  0.72675100  0.93827400  1
  Se  Se28  1  0.89629100  0.39939300  0.21384000  1
  Se  Se29  1  0.60944300  0.22008600  0.60480200  1
  Se  Se30  1  0.32200700  0.10989000  0.17319500  1
  Se  Se31  1  0.02124000  0.35186800  0.39900200  1
  Se  Se32  1  0.59991100  0.27982700  0.25847200  1
  Se  Se33  1  0.02180500  0.68090100  0.51448200  1
