# generated using pymatgen
data_Li3InCl6
_symmetry_space_group_name_H-M   'P 1'
_cell_length_a   6.55511455
_cell_length_b   6.55511455
_cell_length_c   35.89314868
_cell_angle_alpha   89.63131283
_cell_angle_beta   89.63131283
_cell_angle_gamma   119.68783153
_symmetry_Int_Tables_number   1
_chemical_formula_structural   Li3InCl6
_chemical_formula_sum   'Li18 In6 Cl36'
_cell_volume   1339.75280827
_cell_formula_units_Z   6
loop_
 _symmetry_equiv_pos_site_id
 _symmetry_equiv_pos_as_xyz
  1  'x, y, z'
loop_
 _atom_site_type_symbol
 _atom_site_label
 _atom_site_symmetry_multiplicity
 _atom_site_fract_x
 _atom_site_fract_y
 _atom_site_fract_z
 _atom_site_occupancy
  Li  Li0  1  0.66549900  0.99943000  0.91648500  1
  Li  Li1  1  0.98157200  0.65756700  0.91636800  1
  Li  Li2  1  0.35654500  0.34581500  0.91688800  1
  Li  Li3  1  0.65678500  0.34406800  0.75000900  1
  Li  Li4  1  0.34177300  0.65619800  0.75003100  1
  Li  Li5  1  0.00196600  0.00145300  0.75005000  1
  Li  Li6  1  0.32410100  0.00924400  0.58333700  1
  Li  Li7  1  0.00922100  0.32413700  0.58333900  1
  Li  Li8  1  0.66664500  0.66663700  0.58333600  1
  Li  Li9  1  0.99075600  0.67589900  0.41666300  1
  Li  Li10  1  0.67586300  0.99077900  0.41666100  1
  Li  Li11  1  0.33336300  0.33335500  0.41666400  1
  Li  Li12  1  0.65593200  0.34321500  0.24999100  1
  Li  Li13  1  0.99854700  0.99803400  0.24995000  1
  Li  Li14  1  0.34380200  0.65822700  0.24996900  1
  Li  Li15  1  0.65418500  0.64345500  0.08311200  1
  Li  Li16  1  0.34243300  0.01842800  0.08363200  1
  Li  Li17  1  0.00057000  0.33450100  0.08351500  1
  In  In18  1  0.66880600  0.33119400  0.00000000  1
  In  In19  1  0.66807400  0.66958300  0.83330700  1
  In  In20  1  0.33318000  0.33324000  0.66667300  1
  In  In21  1  0.99993400  0.00006600  0.50000000  1
  In  In22  1  0.66676000  0.66682000  0.33332700  1
  In  In23  1  0.33041700  0.33192600  0.16669300  1
  Cl  Cl24  1  0.66876600  0.64582000  0.95886600  1
  Cl  Cl25  1  0.36224900  0.02756400  0.95546500  1
  Cl  Cl26  1  0.97459200  0.33328300  0.95563000  1
  Cl  Cl27  1  0.35974200  0.66808000  0.87821900  1
  Cl  Cl28  1  0.67031200  0.35624500  0.87437300  1
  Cl  Cl29  1  0.97202600  0.97238000  0.87722800  1
  Cl  Cl30  1  0.35518200  0.35788600  0.79248500  1
  Cl  Cl31  1  0.66548400  0.97366600  0.78886900  1
  Cl  Cl32  1  0.97450700  0.66761100  0.78828500  1
  Cl  Cl33  1  0.33716400  0.02761500  0.71161600  1
  Cl  Cl34  1  0.02671900  0.33600800  0.71158400  1
  Cl  Cl35  1  0.64347600  0.64388600  0.70701400  1
  Cl  Cl36  1  0.02355700  0.02352300  0.62635400  1
  Cl  Cl37  1  0.33021900  0.63890300  0.62171600  1
  Cl  Cl38  1  0.63887700  0.33028400  0.62171300  1
  Cl  Cl39  1  0.69428400  0.00310500  0.54498400  1
  Cl  Cl40  1  0.00307800  0.69438300  0.54497400  1
  Cl  Cl41  1  0.30993500  0.30996000  0.54035000  1
  Cl  Cl42  1  0.69004000  0.69006500  0.45965000  1
  Cl  Cl43  1  0.99689500  0.30571600  0.45501600  1
  Cl  Cl44  1  0.30561700  0.99692200  0.45502600  1
  Cl  Cl45  1  0.36109700  0.66978100  0.37828400  1
  Cl  Cl46  1  0.66971600  0.36112300  0.37828700  1
  Cl  Cl47  1  0.97647700  0.97644300  0.37364600  1
  Cl  Cl48  1  0.35611400  0.35652400  0.29298600  1
  Cl  Cl49  1  0.66399200  0.97328100  0.28841600  1
  Cl  Cl50  1  0.97238500  0.66283600  0.28838400  1
  Cl  Cl51  1  0.02633400  0.33451600  0.21113100  1
  Cl  Cl52  1  0.33238900  0.02549300  0.21171500  1
  Cl  Cl53  1  0.64211400  0.64481800  0.20751500  1
  Cl  Cl54  1  0.02762000  0.02797400  0.12277200  1
  Cl  Cl55  1  0.33192000  0.64025800  0.12178100  1
  Cl  Cl56  1  0.64375500  0.32968800  0.12562700  1
  Cl  Cl57  1  0.97243600  0.63775100  0.04453500  1
  Cl  Cl58  1  0.66671700  0.02540800  0.04437000  1
  Cl  Cl59  1  0.35418000  0.33123400  0.04113400  1
