# generated using pymatgen
data_Ba3Y(BO3)3
_symmetry_space_group_name_H-M   'P 1'
_cell_length_a   9.50763574
_cell_length_b   9.50763574
_cell_length_c   18.11366400
_cell_angle_alpha   90.00000000
_cell_angle_beta   90.00000000
_cell_angle_gamma   119.99999816
_symmetry_Int_Tables_number   1
_chemical_formula_structural   Ba3Y(BO3)3
_chemical_formula_sum   'Ba18 Y6 B18 O54'
_cell_volume   1418.01888866
_cell_formula_units_Z   6
loop_
 _symmetry_equiv_pos_site_id
 _symmetry_equiv_pos_as_xyz
  1  'x, y, z'
loop_
 _atom_site_type_symbol
 _atom_site_label
 _atom_site_symmetry_multiplicity
 _atom_site_fract_x
 _atom_site_fract_y
 _atom_site_fract_z
 _atom_site_occupancy
  Ba  Ba0  1  0.33333300  0.66666700  0.27810200  1
  Ba  Ba1  1  0.00000000  0.65130900  0.13211700  1
  Ba  Ba2  1  0.65130900  0.00000000  0.13211700  1
  Ba  Ba3  1  0.34869100  0.00000000  0.63211700  1
  Ba  Ba4  1  0.00000000  0.34869100  0.63211700  1
  Ba  Ba5  1  0.34869100  0.34869100  0.13211700  1
  Ba  Ba6  1  0.65130900  0.65130900  0.63211700  1
  Ba  Ba7  1  0.66666700  0.33333300  0.77810200  1
  Ba  Ba8  1  0.33333300  0.66666700  0.77810200  1
  Ba  Ba9  1  0.66666700  0.33333300  0.27810200  1
  Ba  Ba10  1  0.00000000  0.00000000  0.71707800  1
  Ba  Ba11  1  0.00000000  0.00000000  0.21707800  1
  Ba  Ba12  1  0.31700100  0.31700100  0.36925800  1
  Ba  Ba13  1  0.00000000  0.31700100  0.86925800  1
  Ba  Ba14  1  0.31700100  0.00000000  0.86925800  1
  Ba  Ba15  1  0.68299900  0.00000000  0.36925800  1
  Ba  Ba16  1  0.00000000  0.68299900  0.36925800  1
  Ba  Ba17  1  0.68299900  0.68299900  0.86925800  1
  Y  Y18  1  0.00000000  0.00000000  0.00359600  1
  Y  Y19  1  0.00000000  0.00000000  0.50359600  1
  Y  Y20  1  0.66666700  0.33333300  0.99768700  1
  Y  Y21  1  0.33333300  0.66666700  0.49768700  1
  Y  Y22  1  0.66666700  0.33333300  0.49768700  1
  Y  Y23  1  0.33333300  0.66666700  0.99768700  1
  B  B24  1  0.65967000  0.65967000  0.42107100  1
  B  B25  1  0.00000000  0.65967000  0.92107100  1
  B  B26  1  0.65967000  0.00000000  0.92107100  1
  B  B27  1  0.34033000  0.00000000  0.42107100  1
  B  B28  1  0.00000000  0.34033000  0.42107100  1
  B  B29  1  0.34033000  0.34033000  0.92107100  1
  B  B30  1  0.66739900  0.66739900  0.24983700  1
  B  B31  1  0.00000000  0.66739900  0.74983700  1
  B  B32  1  0.66739900  0.00000000  0.74983700  1
  B  B33  1  0.33260100  0.00000000  0.24983700  1
  B  B34  1  0.00000000  0.33260100  0.24983700  1
  B  B35  1  0.33260100  0.33260100  0.74983700  1
  B  B36  1  0.67397400  0.67397400  0.07513200  1
  B  B37  1  0.00000000  0.67397400  0.57513200  1
  B  B38  1  0.67397400  0.00000000  0.57513200  1
  B  B39  1  0.32602600  0.00000000  0.07513200  1
  B  B40  1  0.00000000  0.32602600  0.07513200  1
  B  B41  1  0.32602600  0.32602600  0.57513200  1
  O  O42  1  0.85313700  0.66728500  0.75028900  1
  O  O43  1  0.00000000  0.80538200  0.93093000  1
  O  O44  1  0.80538200  0.00000000  0.93093000  1
  O  O45  1  0.19461800  0.00000000  0.43093000  1
  O  O46  1  0.00000000  0.19461800  0.43093000  1
  O  O47  1  0.66084000  0.14660000  0.91571800  1
  O  O48  1  0.18110400  0.18110400  0.58511400  1
  O  O49  1  0.00000000  0.18110400  0.08511400  1
  O  O50  1  0.18110400  0.00000000  0.08511400  1
  O  O51  1  0.81889600  0.00000000  0.58511400  1
  O  O52  1  0.00000000  0.81889600  0.58511400  1
  O  O53  1  0.81889600  0.81889600  0.08511400  1
  O  O54  1  0.32584100  0.47184500  0.57042000  1
  O  O55  1  0.85399500  0.32584100  0.07042000  1
  O  O56  1  0.47184500  0.14600500  0.07042000  1
  O  O57  1  0.52815500  0.85399500  0.57042000  1
  O  O58  1  0.14600500  0.67415900  0.57042000  1
  O  O59  1  0.67415900  0.52815500  0.07042000  1
  O  O60  1  0.14600500  0.47184500  0.07042000  1
  O  O61  1  0.32584100  0.85399500  0.07042000  1
  O  O62  1  0.52815500  0.67415900  0.07042000  1
  O  O63  1  0.47184500  0.32584100  0.57042000  1
  O  O64  1  0.85399500  0.52815500  0.57042000  1
  O  O65  1  0.67415900  0.14600500  0.57042000  1
  O  O66  1  0.18585200  0.33271500  0.75028900  1
  O  O67  1  0.85313700  0.18585200  0.25028900  1
  O  O68  1  0.33271500  0.14686300  0.25028900  1
  O  O69  1  0.66728500  0.85313700  0.75028900  1
  O  O70  1  0.14686300  0.81414800  0.75028900  1
  O  O71  1  0.81414800  0.66728500  0.25028900  1
  O  O72  1  0.14686300  0.33271500  0.25028900  1
  O  O73  1  0.18585200  0.85313700  0.25028900  1
  O  O74  1  0.66728500  0.81414800  0.25028900  1
  O  O75  1  0.33271500  0.18585200  0.75028900  1
  O  O76  1  0.80538200  0.80538200  0.43093000  1
  O  O77  1  0.81414800  0.14686300  0.75028900  1
  O  O78  1  0.47946700  0.47946700  0.74963400  1
  O  O79  1  0.00000000  0.47946700  0.24963400  1
  O  O80  1  0.47946700  0.00000000  0.24963400  1
  O  O81  1  0.52053300  0.00000000  0.74963400  1
  O  O82  1  0.00000000  0.52053300  0.74963400  1
  O  O83  1  0.52053300  0.52053300  0.24963400  1
  O  O84  1  0.33916000  0.48576000  0.91571800  1
  O  O85  1  0.85340000  0.33916000  0.41571800  1
  O  O86  1  0.48576000  0.14660000  0.41571800  1
  O  O87  1  0.51424000  0.85340000  0.91571800  1
  O  O88  1  0.14660000  0.66084000  0.91571800  1
  O  O89  1  0.66084000  0.51424000  0.41571800  1
  O  O90  1  0.14660000  0.48576000  0.41571800  1
  O  O91  1  0.33916000  0.85340000  0.41571800  1
  O  O92  1  0.51424000  0.66084000  0.41571800  1
  O  O93  1  0.48576000  0.33916000  0.91571800  1
  O  O94  1  0.85340000  0.51424000  0.91571800  1
  O  O95  1  0.19461800  0.19461800  0.93093000  1
