# generated using pymatgen
data_La4MgRu
_symmetry_space_group_name_H-M   'P 1'
_cell_length_a   10.14741930
_cell_length_b   10.14741930
_cell_length_c   10.14741930
_cell_angle_alpha   60.00000000
_cell_angle_beta   60.00000000
_cell_angle_gamma   60.00000000
_symmetry_Int_Tables_number   1
_chemical_formula_structural   La4MgRu
_chemical_formula_sum   'La16 Mg4 Ru4'
_cell_volume   738.84241794
_cell_formula_units_Z   4
loop_
 _symmetry_equiv_pos_site_id
 _symmetry_equiv_pos_as_xyz
  1  'x, y, z'
loop_
 _atom_site_type_symbol
 _atom_site_label
 _atom_site_symmetry_multiplicity
 _atom_site_fract_x
 _atom_site_fract_y
 _atom_site_fract_z
 _atom_site_occupancy
  La  La0  1  0.81019100  0.18980900  0.18980900  1
  La  La1  1  0.18980900  0.18980900  0.81019100  1
  La  La2  1  0.81019100  0.81019100  0.18980900  1
  La  La3  1  0.18980900  0.81019100  0.81019100  1
  La  La4  1  0.59409400  0.59409400  0.21771900  1
  La  La5  1  0.43776200  0.06223800  0.06223800  1
  La  La6  1  0.06223800  0.43776200  0.06223800  1
  La  La7  1  0.43776200  0.06223800  0.43776200  1
  La  La8  1  0.21771900  0.59409400  0.59409400  1
  La  La9  1  0.06223800  0.43776200  0.43776200  1
  La  La10  1  0.59409400  0.21771900  0.59409400  1
  La  La11  1  0.59409400  0.59409400  0.59409400  1
  La  La12  1  0.18980900  0.81019100  0.18980900  1
  La  La13  1  0.81019100  0.18980900  0.81019100  1
  La  La14  1  0.06223800  0.06223800  0.43776200  1
  La  La15  1  0.43776200  0.43776200  0.06223800  1
  Mg  Mg16  1  0.82805400  0.82805400  0.82805400  1
  Mg  Mg17  1  0.51583900  0.82805400  0.82805400  1
  Mg  Mg18  1  0.82805400  0.51583900  0.82805400  1
  Mg  Mg19  1  0.82805400  0.82805400  0.51583900  1
  Ru  Ru20  1  0.83818400  0.38727200  0.38727200  1
  Ru  Ru21  1  0.38727200  0.38727200  0.38727200  1
  Ru  Ru22  1  0.38727200  0.83818400  0.38727200  1
  Ru  Ru23  1  0.38727200  0.38727200  0.83818400  1
