# generated using pymatgen
data_LuNbO4
_symmetry_space_group_name_H-M   'P 1'
_cell_length_a   6.48921384
_cell_length_b   6.48921384
_cell_length_c   5.08773277
_cell_angle_alpha   68.81920800
_cell_angle_beta   68.81920800
_cell_angle_gamma   114.39023961
_symmetry_Int_Tables_number   1
_chemical_formula_structural   LuNbO4
_chemical_formula_sum   'Lu2 Nb2 O8'
_cell_volume   145.39603732
_cell_formula_units_Z   2
loop_
 _symmetry_equiv_pos_site_id
 _symmetry_equiv_pos_as_xyz
  1  'x, y, z'
loop_
 _atom_site_type_symbol
 _atom_site_label
 _atom_site_symmetry_multiplicity
 _atom_site_fract_x
 _atom_site_fract_y
 _atom_site_fract_z
 _atom_site_occupancy
  Lu  Lu0  1  0.12870600  0.87129400  0.75000000  1
  Lu  Lu1  1  0.87129400  0.12870600  0.25000000  1
  Nb  Nb2  1  0.60726400  0.39273600  0.75000000  1
  Nb  Nb3  1  0.39273600  0.60726400  0.25000000  1
  O  O4  1  0.78320600  0.72051900  0.28518700  1
  O  O5  1  0.27948100  0.21679400  0.21481300  1
  O  O6  1  0.21679400  0.27948100  0.71481300  1
  O  O7  1  0.72051900  0.78320600  0.78518700  1
  O  O8  1  0.12445300  0.54907800  0.15910800  1
  O  O9  1  0.45092200  0.87554700  0.34089200  1
  O  O10  1  0.87554700  0.45092200  0.84089200  1
  O  O11  1  0.54907800  0.12445300  0.65910800  1
