# generated using pymatgen
data_Y6AgTe2
_symmetry_space_group_name_H-M   'P 1'
_cell_length_a   4.09123400
_cell_length_b   11.62155100
_cell_length_c   22.14953200
_cell_angle_alpha   90.00000000
_cell_angle_beta   90.00000000
_cell_angle_gamma   90.00000000
_symmetry_Int_Tables_number   1
_chemical_formula_structural   Y6AgTe2
_chemical_formula_sum   'Y24 Ag4 Te8'
_cell_volume   1053.13238178
_cell_formula_units_Z   4
loop_
 _symmetry_equiv_pos_site_id
 _symmetry_equiv_pos_as_xyz
  1  'x, y, z'
loop_
 _atom_site_type_symbol
 _atom_site_label
 _atom_site_symmetry_multiplicity
 _atom_site_fract_x
 _atom_site_fract_y
 _atom_site_fract_z
 _atom_site_occupancy
  Y  Y0  1  0.75000000  0.66443100  0.89109100  1
  Y  Y1  1  0.25000000  0.11932500  0.96941300  1
  Y  Y2  1  0.75000000  0.83556900  0.39109100  1
  Y  Y3  1  0.75000000  0.38773400  0.98519000  1
  Y  Y4  1  0.25000000  0.46010800  0.65780100  1
  Y  Y5  1  0.75000000  0.11226600  0.48519000  1
  Y  Y6  1  0.25000000  0.75741600  0.26681300  1
  Y  Y7  1  0.25000000  0.33556900  0.10890900  1
  Y  Y8  1  0.75000000  0.88067500  0.03058700  1
  Y  Y9  1  0.75000000  0.53989200  0.34219900  1
  Y  Y10  1  0.25000000  0.07835200  0.35242300  1
  Y  Y11  1  0.75000000  0.61932500  0.53058700  1
  Y  Y12  1  0.25000000  0.16443100  0.60890900  1
  Y  Y13  1  0.25000000  0.03989200  0.15780100  1
  Y  Y14  1  0.75000000  0.57835200  0.14757700  1
  Y  Y15  1  0.25000000  0.42164800  0.85242300  1
  Y  Y16  1  0.25000000  0.38067500  0.46941300  1
  Y  Y17  1  0.25000000  0.74258400  0.76681300  1
  Y  Y18  1  0.75000000  0.25741600  0.23318700  1
  Y  Y19  1  0.75000000  0.24258400  0.73318700  1
  Y  Y20  1  0.25000000  0.61226600  0.01481000  1
  Y  Y21  1  0.75000000  0.92164800  0.64757700  1
  Y  Y22  1  0.75000000  0.96010800  0.84219900  1
  Y  Y23  1  0.25000000  0.88773400  0.51481000  1
  Ag  Ag24  1  0.75000000  0.14699700  0.07364200  1
  Ag  Ag25  1  0.25000000  0.85300300  0.92635800  1
  Ag  Ag26  1  0.25000000  0.64699700  0.42635800  1
  Ag  Ag27  1  0.75000000  0.35300300  0.57364200  1
  Te  Te28  1  0.25000000  0.02876400  0.73923100  1
  Te  Te29  1  0.25000000  0.77933200  0.12712100  1
  Te  Te30  1  0.25000000  0.47123600  0.23923100  1
  Te  Te31  1  0.75000000  0.97123600  0.26076900  1
  Te  Te32  1  0.75000000  0.52876400  0.76076900  1
  Te  Te33  1  0.75000000  0.27933200  0.37287900  1
  Te  Te34  1  0.25000000  0.72066800  0.62712100  1
  Te  Te35  1  0.75000000  0.22066800  0.87287900  1
