# generated using pymatgen
data_K6Na3GaSb4
_symmetry_space_group_name_H-M   'P 1'
_cell_length_a   10.29223614
_cell_length_b   10.29223614
_cell_length_c   10.60133500
_cell_angle_alpha   90.00000000
_cell_angle_beta   90.00000000
_cell_angle_gamma   120.00000090
_symmetry_Int_Tables_number   1
_chemical_formula_structural   K6Na3GaSb4
_chemical_formula_sum   'K12 Na6 Ga2 Sb8'
_cell_volume   972.54715985
_cell_formula_units_Z   2
loop_
 _symmetry_equiv_pos_site_id
 _symmetry_equiv_pos_as_xyz
  1  'x, y, z'
loop_
 _atom_site_type_symbol
 _atom_site_label
 _atom_site_symmetry_multiplicity
 _atom_site_fract_x
 _atom_site_fract_y
 _atom_site_fract_z
 _atom_site_occupancy
  K  K0  1  0.41405200  0.20702600  0.45946500  1
  K  K1  1  0.79297400  0.58594800  0.04053500  1
  K  K2  1  0.20702600  0.41405200  0.54053500  1
  K  K3  1  0.58594800  0.79297400  0.95946500  1
  K  K4  1  0.20702600  0.41405200  0.95946500  1
  K  K5  1  0.20702600  0.79297400  0.95946500  1
  K  K6  1  0.79297400  0.58594800  0.45946500  1
  K  K7  1  0.20702600  0.79297400  0.54053500  1
  K  K8  1  0.79297400  0.20702600  0.04053500  1
  K  K9  1  0.58594800  0.79297400  0.54053500  1
  K  K10  1  0.41405200  0.20702600  0.04053500  1
  K  K11  1  0.79297400  0.20702600  0.45946500  1
  Na  Na12  1  0.23044300  0.11522200  0.75000000  1
  Na  Na13  1  0.88477800  0.76955700  0.75000000  1
  Na  Na14  1  0.11522200  0.88477800  0.25000000  1
  Na  Na15  1  0.76955700  0.88477800  0.25000000  1
  Na  Na16  1  0.88477800  0.11522200  0.75000000  1
  Na  Na17  1  0.11522200  0.23044300  0.25000000  1
  Ga  Ga18  1  0.33333300  0.66666700  0.25000000  1
  Ga  Ga19  1  0.66666700  0.33333300  0.75000000  1
  Sb  Sb20  1  0.48154800  0.96309700  0.25000000  1
  Sb  Sb21  1  0.51845200  0.48154800  0.75000000  1
  Sb  Sb22  1  0.96309700  0.48154800  0.75000000  1
  Sb  Sb23  1  0.03690300  0.51845200  0.25000000  1
  Sb  Sb24  1  0.48154800  0.51845200  0.25000000  1
  Sb  Sb25  1  0.51845200  0.03690300  0.75000000  1
  Sb  Sb26  1  0.00000000  0.00000000  0.00000000  1
  Sb  Sb27  1  0.00000000  0.00000000  0.50000000  1
