# generated using pymatgen
data_TaTlO3
_symmetry_space_group_name_H-M   'P 1'
_cell_length_a   7.60943348
_cell_length_b   7.60943348
_cell_length_c   13.17109641
_cell_angle_alpha   73.04655919
_cell_angle_beta   73.04655919
_cell_angle_gamma   60.10841852
_symmetry_Int_Tables_number   1
_chemical_formula_structural   TaTlO3
_chemical_formula_sum   'Ta8 Tl8 O24'
_cell_volume   622.54609380
_cell_formula_units_Z   8
loop_
 _symmetry_equiv_pos_site_id
 _symmetry_equiv_pos_as_xyz
  1  'x, y, z'
loop_
 _atom_site_type_symbol
 _atom_site_label
 _atom_site_symmetry_multiplicity
 _atom_site_fract_x
 _atom_site_fract_y
 _atom_site_fract_z
 _atom_site_occupancy
  Ta  Ta0  1  0.50000000  0.00000000  0.50000000  1
  Ta  Ta1  1  0.50000000  0.50000000  0.50000000  1
  Ta  Ta2  1  0.00000000  0.00000000  0.00000000  1
  Ta  Ta3  1  0.00000000  0.00000000  0.50000000  1
  Ta  Ta4  1  0.24870500  0.75129500  0.75000000  1
  Ta  Ta5  1  0.00000000  0.50000000  0.00000000  1
  Ta  Ta6  1  0.75129500  0.24870500  0.25000000  1
  Ta  Ta7  1  0.50000000  0.50000000  0.00000000  1
  Tl  Tl8  1  0.79065500  0.68631000  0.73877900  1
  Tl  Tl9  1  0.00000000  0.50000000  0.50000000  1
  Tl  Tl10  1  0.75578700  0.24421300  0.75000000  1
  Tl  Tl11  1  0.68631000  0.79065500  0.23877900  1
  Tl  Tl12  1  0.50000000  0.00000000  0.00000000  1
  Tl  Tl13  1  0.31369000  0.20934500  0.76122100  1
  Tl  Tl14  1  0.24421300  0.75578700  0.25000000  1
  Tl  Tl15  1  0.20934500  0.31369000  0.26122100  1
  O  O16  1  0.09670000  0.59239600  0.84454300  1
  O  O17  1  0.77899300  0.91226200  0.52952700  1
  O  O18  1  0.40842900  0.27948600  0.53180400  1
  O  O19  1  0.46253700  0.59607100  0.84545900  1
  O  O20  1  0.72044000  0.21987100  0.97014400  1
  O  O21  1  0.59239600  0.09670000  0.34454300  1
  O  O22  1  0.27948600  0.40842900  0.03180400  1
  O  O23  1  0.40392900  0.53746300  0.65454100  1
  O  O24  1  0.09626700  0.96754800  0.84418000  1
  O  O25  1  0.78012900  0.27956000  0.52985600  1
  O  O26  1  0.91226200  0.77899300  0.02952700  1
  O  O27  1  0.03245200  0.90373300  0.65582000  1
  O  O28  1  0.08773800  0.22100700  0.97047300  1
  O  O29  1  0.96754800  0.09626700  0.34418000  1
  O  O30  1  0.21987100  0.72044000  0.47014400  1
  O  O31  1  0.90373300  0.03245200  0.15582000  1
  O  O32  1  0.59607100  0.46253700  0.34545900  1
  O  O33  1  0.72051400  0.59157100  0.96819600  1
  O  O34  1  0.27956000  0.78012900  0.02985600  1
  O  O35  1  0.40760400  0.90330000  0.65545700  1
  O  O36  1  0.53746300  0.40392900  0.15454100  1
  O  O37  1  0.59157100  0.72051400  0.46819600  1
  O  O38  1  0.22100700  0.08773800  0.47047300  1
  O  O39  1  0.90330000  0.40760400  0.15545700  1
