# generated using pymatgen
data_RbHgSbSe3
_symmetry_space_group_name_H-M   'P 1'
_cell_length_a   11.52586900
_cell_length_b   8.06733900
_cell_length_c   9.10858662
_cell_angle_alpha   73.81713938
_cell_angle_beta   90.00000000
_cell_angle_gamma   90.00000000
_symmetry_Int_Tables_number   1
_chemical_formula_structural   RbHgSbSe3
_chemical_formula_sum   'Rb4 Hg4 Sb4 Se12'
_cell_volume   813.38615257
_cell_formula_units_Z   4
loop_
 _symmetry_equiv_pos_site_id
 _symmetry_equiv_pos_as_xyz
  1  'x, y, z'
loop_
 _atom_site_type_symbol
 _atom_site_label
 _atom_site_symmetry_multiplicity
 _atom_site_fract_x
 _atom_site_fract_y
 _atom_site_fract_z
 _atom_site_occupancy
  Rb  Rb0  1  0.25365400  0.01961200  0.61960400  1
  Rb  Rb1  1  0.24634600  0.01961200  0.11960400  1
  Rb  Rb2  1  0.75365400  0.98038800  0.88039600  1
  Rb  Rb3  1  0.74634600  0.98038800  0.38039600  1
  Hg  Hg4  1  0.24929600  0.58902300  0.47803900  1
  Hg  Hg5  1  0.74929600  0.41097700  0.02196100  1
  Hg  Hg6  1  0.75070400  0.41097700  0.52196100  1
  Hg  Hg7  1  0.25070400  0.58902300  0.97803900  1
  Sb  Sb8  1  0.50016400  0.44377000  0.26473200  1
  Sb  Sb9  1  0.49983600  0.55623000  0.73526800  1
  Sb  Sb10  1  0.99983600  0.44377000  0.76473200  1
  Sb  Sb11  1  0.00016400  0.55623000  0.23526800  1
  Se  Se12  1  0.44817300  0.76221600  0.46363000  1
  Se  Se13  1  0.94817300  0.23778400  0.03637000  1
  Se  Se14  1  0.55182700  0.23778400  0.53637000  1
  Se  Se15  1  0.05182700  0.76221600  0.96363000  1
  Se  Se16  1  0.05119400  0.76462600  0.40420400  1
  Se  Se17  1  0.55119400  0.23537400  0.09579600  1
  Se  Se18  1  0.94880600  0.23537400  0.59579600  1
  Se  Se19  1  0.22574600  0.37285000  0.78140400  1
  Se  Se20  1  0.27425400  0.37285000  0.28140400  1
  Se  Se21  1  0.77425400  0.62715000  0.21859600  1
  Se  Se22  1  0.72574600  0.62715000  0.71859600  1
  Se  Se23  1  0.44880600  0.76462600  0.90420400  1
