# generated using pymatgen
data_Ca31Sn20
_symmetry_space_group_name_H-M   'P 1'
_cell_length_a   21.98826869
_cell_length_b   21.98826869
_cell_length_c   21.98826869
_cell_angle_alpha   146.77776600
_cell_angle_beta   146.77776600
_cell_angle_gamma   47.69294899
_symmetry_Int_Tables_number   1
_chemical_formula_structural   Ca31Sn20
_chemical_formula_sum   'Ca62 Sn40'
_cell_volume   3178.55511548
_cell_formula_units_Z   2
loop_
 _symmetry_equiv_pos_site_id
 _symmetry_equiv_pos_as_xyz
  1  'x, y, z'
loop_
 _atom_site_type_symbol
 _atom_site_label
 _atom_site_symmetry_multiplicity
 _atom_site_fract_x
 _atom_site_fract_y
 _atom_site_fract_z
 _atom_site_occupancy
  Ca  Ca0  1  0.55889600  0.84980600  0.13458800  1
  Ca  Ca1  1  0.20232600  0.07458200  0.70134600  1
  Ca  Ca2  1  0.16400000  0.66400000  0.50000000  1
  Ca  Ca3  1  0.57351500  0.07351500  0.50000000  1
  Ca  Ca4  1  0.66400000  0.16400000  0.50000000  1
  Ca  Ca5  1  0.92648500  0.42648500  0.50000000  1
  Ca  Ca6  1  0.49902100  0.79767400  0.87225600  1
  Ca  Ca7  1  0.15768400  0.00115000  0.26451200  1
  Ca  Ca8  1  0.73663800  0.89317200  0.73548800  1
  Ca  Ca9  1  0.79767400  0.92541800  0.29865400  1
  Ca  Ca10  1  0.99885000  0.26336200  0.15653400  1
  Ca  Ca11  1  0.34231600  0.60682800  0.84346600  1
  Ca  Ca12  1  0.84231600  0.99885000  0.73548800  1
  Ca  Ca13  1  0.57458200  0.70232600  0.70134600  1
  Ca  Ca14  1  0.94110400  0.07569200  0.29091000  1
  Ca  Ca15  1  0.66316400  0.16316400  0.82632800  1
  Ca  Ca16  1  0.42541800  0.29767400  0.29865400  1
  Ca  Ca17  1  0.37323600  0.50098000  0.29865400  1
  Ca  Ca18  1  0.42430800  0.55889600  0.70909000  1
  Ca  Ca19  1  0.07569200  0.78478300  0.13458800  1
  Ca  Ca20  1  0.00098000  0.87323600  0.29865400  1
  Ca  Ca21  1  0.50098000  0.20232600  0.12774400  1
  Ca  Ca22  1  0.33600000  0.83600000  0.50000000  1
  Ca  Ca23  1  0.33683600  0.83683600  0.17367200  1
  Ca  Ca24  1  0.99902000  0.12676400  0.70134600  1
  Ca  Ca25  1  0.23663800  0.50115000  0.84346600  1
  Ca  Ca26  1  0.21521700  0.34980600  0.29091000  1
  Ca  Ca27  1  0.89317200  0.15768400  0.15653400  1
  Ca  Ca28  1  0.92541800  0.62676400  0.12774400  1
  Ca  Ca29  1  0.12676400  0.42541800  0.12774400  1
  Ca  Ca30  1  0.25000000  0.75000000  0.50000000  1
  Ca  Ca31  1  0.71521700  0.42430800  0.86541200  1
  Ca  Ca32  1  0.39317200  0.23663800  0.73548800  1
  Ca  Ca33  1  0.76336200  0.49885000  0.15653400  1
  Ca  Ca34  1  0.07351500  0.57351500  0.50000000  1
  Ca  Ca35  1  0.50115000  0.65768400  0.26451200  1
  Ca  Ca36  1  0.70232600  0.00098000  0.12774400  1
  Ca  Ca37  1  0.78478300  0.65019400  0.70909000  1
  Ca  Ca38  1  0.28478300  0.57569200  0.13458800  1
  Ca  Ca39  1  0.07458200  0.37323600  0.87225600  1
  Ca  Ca40  1  0.83600000  0.33600000  0.50000000  1
  Ca  Ca41  1  0.87323600  0.57458200  0.87225600  1
  Ca  Ca42  1  0.10682800  0.84231600  0.84346600  1
  Ca  Ca43  1  0.84980600  0.71521700  0.29091000  1
  Ca  Ca44  1  0.65768400  0.39317200  0.15653400  1
  Ca  Ca45  1  0.00115000  0.73663800  0.84346600  1
  Ca  Ca46  1  0.75000000  0.25000000  0.50000000  1
  Ca  Ca47  1  0.15019400  0.28478300  0.70909000  1
  Ca  Ca48  1  0.83683600  0.66316400  0.50000000  1
  Ca  Ca49  1  0.34980600  0.05889600  0.13458800  1
  Ca  Ca50  1  0.49885000  0.34231600  0.73548800  1
  Ca  Ca51  1  0.05889600  0.92430800  0.70909000  1
  Ca  Ca52  1  0.65019400  0.94110400  0.86541200  1
  Ca  Ca53  1  0.42648500  0.92648500  0.50000000  1
  Ca  Ca54  1  0.60682800  0.76336200  0.26451200  1
  Ca  Ca55  1  0.57569200  0.44110400  0.29091000  1
  Ca  Ca56  1  0.26336200  0.10682800  0.26451200  1
  Ca  Ca57  1  0.92430800  0.21521700  0.86541200  1
  Ca  Ca58  1  0.44110400  0.15019400  0.86541200  1
  Ca  Ca59  1  0.62676400  0.49902100  0.70134600  1
  Ca  Ca60  1  0.29767400  0.99902000  0.87225600  1
  Ca  Ca61  1  0.16316400  0.33683600  0.50000000  1
  Sn  Sn62  1  0.72688600  0.62419400  0.50000000  1
  Sn  Sn63  1  0.36274800  0.55543200  0.50000000  1
  Sn  Sn64  1  0.32701700  0.32701700  0.00000000  1
  Sn  Sn65  1  0.82701700  0.82701700  0.00000000  1
  Sn  Sn66  1  0.37580600  0.87580600  0.10269200  1
  Sn  Sn67  1  0.46299700  0.28395300  0.50000000  1
  Sn  Sn68  1  0.96299700  0.46299700  0.17904400  1
  Sn  Sn69  1  0.05543200  0.86274800  0.50000000  1
  Sn  Sn70  1  0.91192300  0.41192300  0.32384700  1
  Sn  Sn71  1  0.44456800  0.94456800  0.80731600  1
  Sn  Sn72  1  0.90491200  0.90491200  0.00000000  1
  Sn  Sn73  1  0.58807700  0.91192300  0.50000000  1
  Sn  Sn74  1  0.22688600  0.72688600  0.10269200  1
  Sn  Sn75  1  0.71604700  0.21604700  0.17904400  1
  Sn  Sn76  1  0.13725200  0.63725200  0.19268400  1
  Sn  Sn77  1  0.59508800  0.59508800  0.00000000  1
  Sn  Sn78  1  0.77311400  0.27311400  0.89730800  1
  Sn  Sn79  1  0.86274800  0.36274800  0.80731600  1
  Sn  Sn80  1  0.12419400  0.22688600  0.50000000  1
  Sn  Sn81  1  0.50000000  0.50000000  0.00000000  1
  Sn  Sn82  1  0.94456800  0.13725200  0.50000000  1
  Sn  Sn83  1  0.27311400  0.37580600  0.50000000  1
  Sn  Sn84  1  0.40491200  0.40491200  0.00000000  1
  Sn  Sn85  1  0.09508800  0.09508800  0.00000000  1
  Sn  Sn86  1  0.62419400  0.12419400  0.89730800  1
  Sn  Sn87  1  0.25000000  0.25000000  0.00000000  1
  Sn  Sn88  1  0.03700300  0.53700300  0.82095600  1
  Sn  Sn89  1  0.78395300  0.96299700  0.50000000  1
  Sn  Sn90  1  0.21604700  0.03700300  0.50000000  1
  Sn  Sn91  1  0.87580600  0.77311400  0.50000000  1
  Sn  Sn92  1  0.67298300  0.67298300  0.00000000  1
  Sn  Sn93  1  0.41192300  0.08807700  0.50000000  1
  Sn  Sn94  1  0.55543200  0.05543200  0.19268400  1
  Sn  Sn95  1  0.00000000  0.00000000  0.00000000  1
  Sn  Sn96  1  0.08807700  0.58807700  0.67615300  1
  Sn  Sn97  1  0.28395300  0.78395300  0.82095600  1
  Sn  Sn98  1  0.63725200  0.44456800  0.50000000  1
  Sn  Sn99  1  0.17298300  0.17298300  0.00000000  1
  Sn  Sn100  1  0.75000000  0.75000000  0.00000000  1
  Sn  Sn101  1  0.53700300  0.71604700  0.50000000  1
