# generated using pymatgen
data_Hf3(MnGa3)2
_symmetry_space_group_name_H-M   'P 1'
_cell_length_a   5.41719900
_cell_length_b   7.74600300
_cell_length_c   8.77839700
_cell_angle_alpha   90.00000000
_cell_angle_beta   90.00000000
_cell_angle_gamma   90.00000000
_symmetry_Int_Tables_number   1
_chemical_formula_structural   Hf3(MnGa3)2
_chemical_formula_sum   'Hf6 Mn4 Ga12'
_cell_volume   368.35593211
_cell_formula_units_Z   2
loop_
 _symmetry_equiv_pos_site_id
 _symmetry_equiv_pos_as_xyz
  1  'x, y, z'
loop_
 _atom_site_type_symbol
 _atom_site_label
 _atom_site_symmetry_multiplicity
 _atom_site_fract_x
 _atom_site_fract_y
 _atom_site_fract_z
 _atom_site_occupancy
  Hf  Hf0  1  0.00000000  0.84531700  0.71822500  1
  Hf  Hf1  1  0.50000000  0.15468300  0.21822500  1
  Hf  Hf2  1  0.00000000  0.28197900  0.00000000  1
  Hf  Hf3  1  0.00000000  0.84531700  0.28177500  1
  Hf  Hf4  1  0.50000000  0.15468300  0.78177500  1
  Hf  Hf5  1  0.50000000  0.71802100  0.50000000  1
  Mn  Mn6  1  0.75000000  0.50000000  0.25000000  1
  Mn  Mn7  1  0.75000000  0.50000000  0.75000000  1
  Mn  Mn8  1  0.25000000  0.50000000  0.75000000  1
  Mn  Mn9  1  0.25000000  0.50000000  0.25000000  1
  Ga  Ga10  1  0.00000000  0.56197900  0.50000000  1
  Ga  Ga11  1  0.00000000  0.63368300  0.00000000  1
  Ga  Ga12  1  0.76104500  0.95808800  0.00000000  1
  Ga  Ga13  1  0.00000000  0.23572400  0.31356700  1
  Ga  Ga14  1  0.50000000  0.43802100  0.00000000  1
  Ga  Ga15  1  0.50000000  0.76427600  0.18643300  1
  Ga  Ga16  1  0.26104500  0.04191200  0.50000000  1
  Ga  Ga17  1  0.50000000  0.36631700  0.50000000  1
  Ga  Ga18  1  0.00000000  0.23572400  0.68643300  1
  Ga  Ga19  1  0.50000000  0.76427600  0.81356700  1
  Ga  Ga20  1  0.73895500  0.04191200  0.50000000  1
  Ga  Ga21  1  0.23895500  0.95808800  0.00000000  1
