# generated using pymatgen
data_CsK5Zn4Sn5S17
_symmetry_space_group_name_H-M   'P 1'
_cell_length_a   11.02066020
_cell_length_b   11.02066020
_cell_length_c   11.02066020
_cell_angle_alpha   101.16440848
_cell_angle_beta   101.16440848
_cell_angle_gamma   127.78861912
_symmetry_Int_Tables_number   1
_chemical_formula_structural   CsK5Zn4Sn5S17
_chemical_formula_sum   'Cs1 K5 Zn4 Sn5 S17'
_cell_volume   949.88400655
_cell_formula_units_Z   1
loop_
 _symmetry_equiv_pos_site_id
 _symmetry_equiv_pos_as_xyz
  1  'x, y, z'
loop_
 _atom_site_type_symbol
 _atom_site_label
 _atom_site_symmetry_multiplicity
 _atom_site_fract_x
 _atom_site_fract_y
 _atom_site_fract_z
 _atom_site_occupancy
  Cs  Cs0  1  0.75000000  0.25000000  0.50000000  1
  K  K1  1  0.76061900  0.76061900  0.52123800  1
  K  K2  1  0.76061900  0.23938100  0.00000000  1
  K  K3  1  0.23938100  0.23938100  0.47876200  1
  K  K4  1  0.50000000  0.50000000  0.00000000  1
  K  K5  1  0.23938100  0.76061900  0.00000000  1
  Zn  Zn6  1  0.27800400  0.13941600  0.13858800  1
  Zn  Zn7  1  0.86058400  0.72199600  0.86141200  1
  Zn  Zn8  1  0.00082900  0.13941600  0.86141200  1
  Zn  Zn9  1  0.86058400  0.99917100  0.13858800  1
  Sn  Sn10  1  0.22408700  0.44830000  0.22421300  1
  Sn  Sn11  1  0.25000000  0.75000000  0.50000000  1
  Sn  Sn12  1  0.22408700  0.99987500  0.77578700  1
  Sn  Sn13  1  0.55170000  0.77591300  0.77578700  1
  Sn  Sn14  1  0.00012500  0.77591300  0.22421300  1
  S  S15  1  0.13930800  0.14515300  0.72133500  1
  S  S16  1  0.99036400  0.27159500  0.28123100  1
  S  S17  1  0.85484700  0.57618200  0.99415500  1
  S  S18  1  0.42381800  0.14515300  0.00584500  1
  S  S19  1  0.85484700  0.86069200  0.27866500  1
  S  S20  1  0.99036400  0.70913200  0.71876900  1
  S  S21  1  0.72840500  0.00963600  0.71876900  1
  S  S22  1  0.39405500  0.75138900  0.35733400  1
  S  S23  1  0.96327900  0.60594500  0.35733400  1
  S  S24  1  0.42381800  0.41797300  0.27866500  1
  S  S25  1  0.39405500  0.03672100  0.64266600  1
  S  S26  1  0.24861100  0.60594500  0.64266600  1
  S  S27  1  0.13930800  0.41797300  0.99415500  1
  S  S28  1  0.58202700  0.86069200  0.00584500  1
  S  S29  1  0.29086800  0.00963600  0.28123100  1
  S  S30  1  0.00000000  0.00000000  0.00000000  1
  S  S31  1  0.58202700  0.57618200  0.72133500  1
