# generated using pymatgen
data_ReSeCl
_symmetry_space_group_name_H-M   'P 1'
_cell_length_a   9.39523462
_cell_length_b   9.39523462
_cell_length_c   11.02333700
_cell_angle_alpha   90.00000000
_cell_angle_beta   90.00000000
_cell_angle_gamma   101.54738418
_symmetry_Int_Tables_number   1
_chemical_formula_structural   ReSeCl
_chemical_formula_sum   'Re12 Se12 Cl12'
_cell_volume   953.34001665
_cell_formula_units_Z   12
loop_
 _symmetry_equiv_pos_site_id
 _symmetry_equiv_pos_as_xyz
  1  'x, y, z'
loop_
 _atom_site_type_symbol
 _atom_site_label
 _atom_site_symmetry_multiplicity
 _atom_site_fract_x
 _atom_site_fract_y
 _atom_site_fract_z
 _atom_site_occupancy
  Re  Re0  1  0.37647700  0.62352300  0.25000000  1
  Re  Re1  1  0.31335400  0.81631200  0.09415400  1
  Re  Re2  1  0.39071500  0.89394700  0.31929200  1
  Re  Re3  1  0.62352300  0.37647700  0.75000000  1
  Re  Re4  1  0.60928500  0.10605300  0.81929200  1
  Re  Re5  1  0.68664600  0.18368800  0.59415400  1
  Re  Re6  1  0.81631200  0.31335400  0.90584600  1
  Re  Re7  1  0.89394700  0.39071500  0.68070800  1
  Re  Re8  1  0.87904900  0.12095100  0.75000000  1
  Re  Re9  1  0.10605300  0.60928500  0.18070800  1
  Re  Re10  1  0.18368800  0.68664600  0.40584600  1
  Re  Re11  1  0.12095100  0.87904900  0.25000000  1
  Se  Se12  1  0.29415400  0.55270600  0.03427900  1
  Se  Se13  1  0.44729400  0.70584600  0.46572100  1
  Se  Se14  1  0.32389100  0.07380200  0.16664500  1
  Se  Se15  1  0.55270600  0.29415400  0.96572100  1
  Se  Se16  1  0.70584600  0.44729400  0.53427900  1
  Se  Se17  1  0.67610900  0.92619800  0.66664500  1
  Se  Se18  1  0.92619800  0.67610900  0.33335500  1
  Se  Se19  1  0.79572800  0.05266100  0.96537300  1
  Se  Se20  1  0.94733900  0.20427200  0.53462700  1
  Se  Se21  1  0.07380200  0.32389100  0.83335500  1
  Se  Se22  1  0.05266100  0.79572800  0.03462700  1
  Se  Se23  1  0.20427200  0.94733900  0.46537300  1
  Cl  Cl24  1  0.46115700  0.53884300  0.75000000  1
  Cl  Cl25  1  0.43372400  0.18355300  0.66887400  1
  Cl  Cl26  1  0.40769100  0.90253100  0.88938600  1
  Cl  Cl27  1  0.53884300  0.46115700  0.25000000  1
  Cl  Cl28  1  0.59230900  0.09746900  0.38938600  1
  Cl  Cl29  1  0.56627600  0.81644700  0.16887400  1
  Cl  Cl30  1  0.81644700  0.56627600  0.83112600  1
  Cl  Cl31  1  0.90253100  0.40769100  0.11061400  1
  Cl  Cl32  1  0.95584800  0.04415100  0.25000000  1
  Cl  Cl33  1  0.09746900  0.59230900  0.61061400  1
  Cl  Cl34  1  0.04415100  0.95584800  0.75000000  1
  Cl  Cl35  1  0.18355300  0.43372400  0.33112600  1
