# generated using pymatgen
data_Cs2V5O13
_symmetry_space_group_name_H-M   'P 1'
_cell_length_a   8.28120648
_cell_length_b   8.28120648
_cell_length_c   8.28120648
_cell_angle_alpha   123.18468211
_cell_angle_beta   123.18468211
_cell_angle_gamma   84.56715575
_symmetry_Int_Tables_number   1
_chemical_formula_structural   Cs2V5O13
_chemical_formula_sum   'Cs2 V5 O13'
_cell_volume   380.37488264
_cell_formula_units_Z   1
loop_
 _symmetry_equiv_pos_site_id
 _symmetry_equiv_pos_as_xyz
  1  'x, y, z'
loop_
 _atom_site_type_symbol
 _atom_site_label
 _atom_site_symmetry_multiplicity
 _atom_site_fract_x
 _atom_site_fract_y
 _atom_site_fract_z
 _atom_site_occupancy
  Cs  Cs0  1  0.75515000  0.25515000  0.50000000  1
  Cs  Cs1  1  0.25515000  0.75515000  0.50000000  1
  V  V2  1  0.22485900  0.22485900  0.45068500  1
  V  V3  1  0.22485900  0.77417400  0.00000000  1
  V  V4  1  0.64609600  0.64609600  0.00000000  1
  V  V5  1  0.77417400  0.77417400  0.54931500  1
  V  V6  1  0.77417400  0.22485900  0.00000000  1
  O  O7  1  0.28136800  0.01174000  0.26962900  1
  O  O8  1  0.74211100  0.01174000  0.73037100  1
  O  O9  1  0.01174000  0.28136800  0.26962900  1
  O  O10  1  0.17709600  0.58631300  0.00000000  1
  O  O11  1  0.77731800  0.77731800  0.34367200  1
  O  O12  1  0.43364500  0.77731800  0.00000000  1
  O  O13  1  0.58631300  0.17709600  0.00000000  1
  O  O14  1  0.58631300  0.58631300  0.40921700  1
  O  O15  1  0.77731800  0.43364500  0.00000000  1
  O  O16  1  0.43364500  0.43364500  0.65632800  1
  O  O17  1  0.17709600  0.17709600  0.59078300  1
  O  O18  1  0.01174000  0.74211100  0.73037100  1
  O  O19  1  0.78003800  0.78003800  0.00000000  1
