# generated using pymatgen
data_Rb4Pb9
_symmetry_space_group_name_H-M   'P 1'
_cell_length_a   13.70880200
_cell_length_b   10.20297500
_cell_length_c   16.64658090
_cell_angle_alpha   76.76112355
_cell_angle_beta   90.00000000
_cell_angle_gamma   90.00000000
_symmetry_Int_Tables_number   1
_chemical_formula_structural   Rb4Pb9
_chemical_formula_sum   'Rb16 Pb36'
_cell_volume   2266.48737754
_cell_formula_units_Z   4
loop_
 _symmetry_equiv_pos_site_id
 _symmetry_equiv_pos_as_xyz
  1  'x, y, z'
loop_
 _atom_site_type_symbol
 _atom_site_label
 _atom_site_symmetry_multiplicity
 _atom_site_fract_x
 _atom_site_fract_y
 _atom_site_fract_z
 _atom_site_occupancy
  Rb  Rb0  1  0.75000000  0.88316300  0.20576200  1
  Rb  Rb1  1  0.92360900  0.38253100  0.78700100  1
  Rb  Rb2  1  0.07639100  0.61746900  0.21299900  1
  Rb  Rb3  1  0.49687000  0.05034800  0.62972800  1
  Rb  Rb4  1  0.99687000  0.94965200  0.37027200  1
  Rb  Rb5  1  0.00313000  0.05034800  0.62972800  1
  Rb  Rb6  1  0.57639100  0.38253100  0.78700100  1
  Rb  Rb7  1  0.25000000  0.25898100  0.43264300  1
  Rb  Rb8  1  0.40152600  0.67455600  0.90911300  1
  Rb  Rb9  1  0.75000000  0.74101900  0.56735700  1
  Rb  Rb10  1  0.42360900  0.61746900  0.21299900  1
  Rb  Rb11  1  0.09847400  0.67455600  0.90911300  1
  Rb  Rb12  1  0.59847400  0.32544400  0.09088700  1
  Rb  Rb13  1  0.50313000  0.94965200  0.37027200  1
  Rb  Rb14  1  0.25000000  0.11683700  0.79423800  1
  Rb  Rb15  1  0.90152600  0.32544400  0.09088700  1
  Pb  Pb16  1  0.13487300  0.22685600  0.21477700  1
  Pb  Pb17  1  0.75000000  0.49476700  0.24724700  1
  Pb  Pb18  1  0.13467600  0.23964900  0.97712200  1
  Pb  Pb19  1  0.25000000  0.42822100  0.07409100  1
  Pb  Pb20  1  0.86532400  0.76035100  0.02287800  1
  Pb  Pb21  1  0.75000000  0.05877200  0.75839500  1
  Pb  Pb22  1  0.93955900  0.99847500  0.87801400  1
  Pb  Pb23  1  0.75000000  0.18026600  0.30940600  1
  Pb  Pb24  1  0.36798800  0.61063300  0.45358100  1
  Pb  Pb25  1  0.93214900  0.31306800  0.37654700  1
  Pb  Pb26  1  0.36532400  0.23964900  0.97712200  1
  Pb  Pb27  1  0.75000000  0.57177900  0.92590900  1
  Pb  Pb28  1  0.43955900  0.00152500  0.12198600  1
  Pb  Pb29  1  0.86798800  0.38936700  0.54641900  1
  Pb  Pb30  1  0.86512700  0.77314400  0.78522300  1
  Pb  Pb31  1  0.06044100  0.00152500  0.12198600  1
  Pb  Pb32  1  0.63467600  0.76035100  0.02287800  1
  Pb  Pb33  1  0.56044100  0.99847500  0.87801400  1
  Pb  Pb34  1  0.36932500  0.39022900  0.61965100  1
  Pb  Pb35  1  0.25000000  0.94122800  0.24160500  1
  Pb  Pb36  1  0.36512700  0.22685600  0.21477700  1
  Pb  Pb37  1  0.86932500  0.60977100  0.38034900  1
  Pb  Pb38  1  0.13201200  0.61063300  0.45358100  1
  Pb  Pb39  1  0.06785100  0.68693200  0.62345300  1
  Pb  Pb40  1  0.63201200  0.38936700  0.54641900  1
  Pb  Pb41  1  0.75000000  0.05598600  0.96894800  1
  Pb  Pb42  1  0.25000000  0.81973400  0.69059400  1
  Pb  Pb43  1  0.25000000  0.50523300  0.75275300  1
  Pb  Pb44  1  0.25000000  0.85525400  0.49785800  1
  Pb  Pb45  1  0.75000000  0.14474600  0.50214200  1
  Pb  Pb46  1  0.13067500  0.39022900  0.61965100  1
  Pb  Pb47  1  0.63487300  0.77314400  0.78522300  1
  Pb  Pb48  1  0.63067500  0.60977100  0.38034900  1
  Pb  Pb49  1  0.43214900  0.68693200  0.62345300  1
  Pb  Pb50  1  0.25000000  0.94401400  0.03105200  1
  Pb  Pb51  1  0.56785100  0.31306800  0.37654700  1
