# generated using pymatgen
data_Tl2Mo4O13
_symmetry_space_group_name_H-M   'P 1'
_cell_length_a   7.83722100
_cell_length_b   15.71964600
_cell_length_c   19.39629300
_cell_angle_alpha   90.00000000
_cell_angle_beta   90.00000000
_cell_angle_gamma   90.00000000
_symmetry_Int_Tables_number   1
_chemical_formula_structural   Tl2Mo4O13
_chemical_formula_sum   'Tl16 Mo32 O104'
_cell_volume   2389.59109478
_cell_formula_units_Z   8
loop_
 _symmetry_equiv_pos_site_id
 _symmetry_equiv_pos_as_xyz
  1  'x, y, z'
loop_
 _atom_site_type_symbol
 _atom_site_label
 _atom_site_symmetry_multiplicity
 _atom_site_fract_x
 _atom_site_fract_y
 _atom_site_fract_z
 _atom_site_occupancy
  Tl  Tl0  1  0.72445000  0.78569500  0.43626000  1
  Tl  Tl1  1  0.60956900  0.47132800  0.91580000  1
  Tl  Tl2  1  0.27555000  0.28569500  0.06374000  1
  Tl  Tl3  1  0.72445000  0.71430500  0.93626000  1
  Tl  Tl4  1  0.39043100  0.52867200  0.08420000  1
  Tl  Tl5  1  0.89043100  0.52867200  0.41580000  1
  Tl  Tl6  1  0.22445000  0.71430500  0.56374000  1
  Tl  Tl7  1  0.77555000  0.28569500  0.43626000  1
  Tl  Tl8  1  0.10956900  0.02867200  0.08420000  1
  Tl  Tl9  1  0.27555000  0.21430500  0.56374000  1
  Tl  Tl10  1  0.39043100  0.97132800  0.58420000  1
  Tl  Tl11  1  0.60956900  0.02867200  0.41580000  1
  Tl  Tl12  1  0.22445000  0.78569500  0.06374000  1
  Tl  Tl13  1  0.10956900  0.47132800  0.58420000  1
  Tl  Tl14  1  0.89043100  0.97132800  0.91580000  1
  Tl  Tl15  1  0.77555000  0.21430500  0.93626000  1
  Mo  Mo16  1  0.29469100  0.14235400  0.89958600  1
  Mo  Mo17  1  0.10764800  0.06463200  0.38996100  1
  Mo  Mo18  1  0.82727500  0.92826700  0.25546900  1
  Mo  Mo19  1  0.57746600  0.21919700  0.25099600  1
  Mo  Mo20  1  0.89235200  0.56463200  0.11003900  1
  Mo  Mo21  1  0.60764800  0.06463200  0.11003900  1
  Mo  Mo22  1  0.60764800  0.43536800  0.61003900  1
  Mo  Mo23  1  0.32727500  0.57173300  0.74453100  1
  Mo  Mo24  1  0.39235200  0.56463200  0.38996100  1
  Mo  Mo25  1  0.29469100  0.35764600  0.39958600  1
  Mo  Mo26  1  0.20530900  0.64235400  0.89958600  1
  Mo  Mo27  1  0.82727500  0.57173300  0.75546900  1
  Mo  Mo28  1  0.79469100  0.14235400  0.60041400  1
  Mo  Mo29  1  0.89235200  0.93536800  0.61003900  1
  Mo  Mo30  1  0.17272500  0.07173300  0.74453100  1
  Mo  Mo31  1  0.07746600  0.21919700  0.24900400  1
  Mo  Mo32  1  0.39235200  0.93536800  0.88996100  1
  Mo  Mo33  1  0.07746600  0.28080300  0.74900400  1
  Mo  Mo34  1  0.42253400  0.78080300  0.74900400  1
  Mo  Mo35  1  0.17272500  0.42826700  0.24453100  1
  Mo  Mo36  1  0.57746600  0.28080300  0.75099600  1
  Mo  Mo37  1  0.67272500  0.42826700  0.25546900  1
  Mo  Mo38  1  0.67272500  0.07173300  0.75546900  1
  Mo  Mo39  1  0.10764800  0.43536800  0.88996100  1
  Mo  Mo40  1  0.42253400  0.71919700  0.24900400  1
  Mo  Mo41  1  0.92253400  0.78080300  0.75099600  1
  Mo  Mo42  1  0.32727500  0.92826700  0.24453100  1
  Mo  Mo43  1  0.70530900  0.64235400  0.60041400  1
  Mo  Mo44  1  0.79469100  0.35764600  0.10041400  1
  Mo  Mo45  1  0.70530900  0.85764600  0.10041400  1
  Mo  Mo46  1  0.92253400  0.71919700  0.25099600  1
  Mo  Mo47  1  0.20530900  0.85764600  0.39958600  1
  O  O48  1  0.55047300  0.94739300  0.07885100  1
  O  O49  1  0.11884500  0.92474600  0.20894400  1
  O  O50  1  0.05596600  0.34512000  0.67707600  1
  O  O51  1  0.05596600  0.15488000  0.17707600  1
  O  O52  1  0.16501700  0.14260800  0.31754400  1
  O  O53  1  0.71971900  0.47545700  0.16795200  1
  O  O54  1  0.37736900  0.63017900  0.95646300  1
  O  O55  1  0.55047300  0.55260700  0.57885100  1
  O  O56  1  0.26916900  0.41575800  0.95033000  1
  O  O57  1  0.93000500  0.38189600  0.92329500  1
  O  O58  1  0.66501700  0.14260800  0.18245600  1
  O  O59  1  0.94403400  0.65488000  0.32292400  1
  O  O60  1  0.93000500  0.11810400  0.42329500  1
  O  O61  1  0.28028100  0.52454300  0.83204800  1
  O  O62  1  0.23083100  0.91575800  0.95033000  1
  O  O63  1  0.28028100  0.97545700  0.33204800  1
  O  O64  1  0.92073000  0.48874600  0.80456100  1
  O  O65  1  0.44952700  0.44739300  0.42114900  1
  O  O66  1  0.92388400  0.82951500  0.30272000  1
  O  O67  1  0.55596600  0.34512000  0.82292400  1
  O  O68  1  0.09558700  0.73025000  0.93250200  1
  O  O69  1  0.21971900  0.47545700  0.33204800  1
  O  O70  1  0.06999500  0.61810400  0.07670500  1
  O  O71  1  0.19222100  0.18206200  0.81590200  1
  O  O72  1  0.05047300  0.94739300  0.42114900  1
  O  O73  1  0.40441300  0.23025000  0.93250200  1
  O  O74  1  0.07611600  0.32951500  0.19728000  1
  O  O75  1  0.80777900  0.68206200  0.68409800  1
  O  O76  1  0.23083100  0.58424200  0.45033000  1
  O  O77  1  0.76916900  0.08424200  0.04967000  1
  O  O78  1  0.07611600  0.17048500  0.69728000  1
  O  O79  1  0.44952700  0.05260700  0.92114900  1
  O  O80  1  0.73083100  0.91575800  0.54967000  1
  O  O81  1  0.80777900  0.81793800  0.18409800  1
  O  O82  1  0.30777900  0.68206200  0.81590200  1
  O  O83  1  0.12263100  0.13017900  0.95646300  1
  O  O84  1  0.09558700  0.76975000  0.43250200  1
  O  O85  1  0.43000500  0.38189600  0.57670500  1
  O  O86  1  0.62263100  0.13017900  0.54353700  1
  O  O87  1  0.57927000  0.51125400  0.30456100  1
  O  O88  1  0.07927000  0.51125400  0.19543900  1
  O  O89  1  0.69222100  0.18206200  0.68409800  1
  O  O90  1  0.33498300  0.85739200  0.81754400  1
  O  O91  1  0.57611600  0.17048500  0.80272000  1
  O  O92  1  0.62263100  0.36982100  0.04353700  1
  O  O93  1  0.36648200  0.22572200  0.21826600  1
  O  O94  1  0.11884500  0.57525400  0.70894400  1
  O  O95  1  0.87736900  0.86982100  0.04353700  1
  O  O96  1  0.26916900  0.08424200  0.45033000  1
  O  O97  1  0.30777900  0.81793800  0.31590200  1
  O  O98  1  0.36648200  0.27427800  0.71826600  1
  O  O99  1  0.92073000  0.01125400  0.30456100  1
  O  O100  1  0.88115500  0.42474600  0.29105600  1
  O  O101  1  0.94952700  0.44739300  0.07885100  1
  O  O102  1  0.90441300  0.23025000  0.56749800  1
  O  O103  1  0.94403400  0.84512000  0.82292400  1
  O  O104  1  0.43000500  0.11810400  0.07670500  1
  O  O105  1  0.33498300  0.64260800  0.31754400  1
  O  O106  1  0.13351800  0.72572200  0.21826600  1
  O  O107  1  0.55596600  0.15488000  0.32292400  1
  O  O108  1  0.61884500  0.92474600  0.29105600  1
  O  O109  1  0.38115500  0.07525400  0.70894400  1
  O  O110  1  0.94952700  0.05260700  0.57885100  1
  O  O111  1  0.61884500  0.57525400  0.79105600  1
  O  O112  1  0.92388400  0.67048500  0.80272000  1
  O  O113  1  0.12263100  0.36982100  0.45646300  1
  O  O114  1  0.13351800  0.77427800  0.71826600  1
  O  O115  1  0.69222100  0.31793800  0.18409800  1
  O  O116  1  0.06999500  0.88189600  0.57670500  1
  O  O117  1  0.87736900  0.63017900  0.54353700  1
  O  O118  1  0.76916900  0.41575800  0.54967000  1
  O  O119  1  0.56999500  0.61810400  0.42329500  1
  O  O120  1  0.07927000  0.98874600  0.69543900  1
  O  O121  1  0.16501700  0.35739200  0.81754400  1
  O  O122  1  0.42388400  0.82951500  0.19728000  1
  O  O123  1  0.57927000  0.98874600  0.80456100  1
  O  O124  1  0.21971900  0.02454300  0.83204800  1
  O  O125  1  0.59558700  0.76975000  0.06749800  1
  O  O126  1  0.78028100  0.97545700  0.16795200  1
  O  O127  1  0.42073000  0.01125400  0.19543900  1
  O  O128  1  0.38115500  0.42474600  0.20894400  1
  O  O129  1  0.90441300  0.26975000  0.06749800  1
  O  O130  1  0.73083100  0.58424200  0.04967000  1
  O  O131  1  0.86648200  0.27427800  0.78173400  1
  O  O132  1  0.19222100  0.31793800  0.31590200  1
  O  O133  1  0.88115500  0.07525400  0.79105600  1
  O  O134  1  0.44403400  0.84512000  0.67707600  1
  O  O135  1  0.40441300  0.26975000  0.43250200  1
  O  O136  1  0.63351800  0.77427800  0.78173400  1
  O  O137  1  0.86648200  0.22572200  0.28173400  1
  O  O138  1  0.57611600  0.32951500  0.30272000  1
  O  O139  1  0.59558700  0.73025000  0.56749800  1
  O  O140  1  0.37736900  0.86982100  0.45646300  1
  O  O141  1  0.66501700  0.35739200  0.68245600  1
  O  O142  1  0.05047300  0.55260700  0.92114900  1
  O  O143  1  0.42073000  0.48874600  0.69543900  1
  O  O144  1  0.42388400  0.67048500  0.69728000  1
  O  O145  1  0.63351800  0.72572200  0.28173400  1
  O  O146  1  0.83498300  0.64260800  0.18245600  1
  O  O147  1  0.83498300  0.85739200  0.68245600  1
  O  O148  1  0.78028100  0.52454300  0.66795200  1
  O  O149  1  0.71971900  0.02454300  0.66795200  1
  O  O150  1  0.56999500  0.88189600  0.92329500  1
  O  O151  1  0.44403400  0.65488000  0.17707600  1
