# generated using pymatgen
data_RbW3Br7
_symmetry_space_group_name_H-M   'P 1'
_cell_length_a   13.15868963
_cell_length_b   13.15868963
_cell_length_c   10.03608291
_cell_angle_alpha   69.68469357
_cell_angle_beta   69.68469357
_cell_angle_gamma   74.39763737
_symmetry_Int_Tables_number   1
_chemical_formula_structural   RbW3Br7
_chemical_formula_sum   'Rb4 W12 Br28'
_cell_volume   1506.37147521
_cell_formula_units_Z   4
loop_
 _symmetry_equiv_pos_site_id
 _symmetry_equiv_pos_as_xyz
  1  'x, y, z'
loop_
 _atom_site_type_symbol
 _atom_site_label
 _atom_site_symmetry_multiplicity
 _atom_site_fract_x
 _atom_site_fract_y
 _atom_site_fract_z
 _atom_site_occupancy
  Rb  Rb0  1  0.43109900  0.56890100  0.25000000  1
  Rb  Rb1  1  0.56890100  0.43109900  0.75000000  1
  Rb  Rb2  1  0.00000000  0.00000000  0.00000000  1
  Rb  Rb3  1  0.00000000  0.00000000  0.50000000  1
  W  W4  1  0.04597600  0.34742400  0.05271300  1
  W  W5  1  0.65257600  0.95402400  0.44728700  1
  W  W6  1  0.95402400  0.65257600  0.94728700  1
  W  W7  1  0.34742400  0.04597600  0.55271300  1
  W  W8  1  0.06650500  0.51221800  0.13097100  1
  W  W9  1  0.48778200  0.93349500  0.36902900  1
  W  W10  1  0.93349500  0.48778200  0.86902900  1
  W  W11  1  0.51221800  0.06650500  0.63097100  1
  W  W12  1  0.86841200  0.48322700  0.15255200  1
  W  W13  1  0.51677300  0.13158800  0.34744800  1
  W  W14  1  0.13158800  0.51677300  0.84744800  1
  W  W15  1  0.48322700  0.86841200  0.65255200  1
  Br  Br16  1  0.84925700  0.31726900  0.07209600  1
  Br  Br17  1  0.68273100  0.15074300  0.42790400  1
  Br  Br18  1  0.15074300  0.68273100  0.92790500  1
  Br  Br19  1  0.31726900  0.84925700  0.57209600  1
  Br  Br20  1  0.88952000  0.64761600  0.23009800  1
  Br  Br21  1  0.35238400  0.11048000  0.26990200  1
  Br  Br22  1  0.11048000  0.35238400  0.76990200  1
  Br  Br23  1  0.64761600  0.88952000  0.73009800  1
  Br  Br24  1  0.24379400  0.37641000  0.02985000  1
  Br  Br25  1  0.62359000  0.75620600  0.47015000  1
  Br  Br26  1  0.75620600  0.62359000  0.97015000  1
  Br  Br27  1  0.37641000  0.24379400  0.52985000  1
  Br  Br28  1  0.97997600  0.34296600  0.33694900  1
  Br  Br29  1  0.65703400  0.02002400  0.16305100  1
  Br  Br30  1  0.02002400  0.65703400  0.66305100  1
  Br  Br31  1  0.34296600  0.97997600  0.83694900  1
  Br  Br32  1  0.11508700  0.13067600  0.13112500  1
  Br  Br33  1  0.86932400  0.88491300  0.36887500  1
  Br  Br34  1  0.88491300  0.86932400  0.86887500  1
  Br  Br35  1  0.13067600  0.11508700  0.63112500  1
  Br  Br36  1  0.15886700  0.52952300  0.31258000  1
  Br  Br37  1  0.47047700  0.84113300  0.18742000  1
  Br  Br38  1  0.84113300  0.47047700  0.68742000  1
  Br  Br39  1  0.52952300  0.15886700  0.81258000  1
  Br  Br40  1  0.68125000  0.46140800  0.36448900  1
  Br  Br41  1  0.53859200  0.31875000  0.13551100  1
  Br  Br42  1  0.31875000  0.53859200  0.63551100  1
  Br  Br43  1  0.46140800  0.68125000  0.86448900  1
