# generated using pymatgen
data_K2PO3F
_symmetry_space_group_name_H-M   'P 1'
_cell_length_a   6.06130000
_cell_length_b   7.75685400
_cell_length_c   10.23903400
_cell_angle_alpha   90.00000000
_cell_angle_beta   90.00000000
_cell_angle_gamma   90.00000000
_symmetry_Int_Tables_number   1
_chemical_formula_structural   K2PO3F
_chemical_formula_sum   'K8 P4 O12 F4'
_cell_volume   481.40476204
_cell_formula_units_Z   4
loop_
 _symmetry_equiv_pos_site_id
 _symmetry_equiv_pos_as_xyz
  1  'x, y, z'
loop_
 _atom_site_type_symbol
 _atom_site_label
 _atom_site_symmetry_multiplicity
 _atom_site_fract_x
 _atom_site_fract_y
 _atom_site_fract_z
 _atom_site_occupancy
  K  K0  1  0.25000000  0.01299300  0.27549400  1
  K  K1  1  0.75000000  0.98700700  0.72450600  1
  K  K2  1  0.25000000  0.51299300  0.22450600  1
  K  K3  1  0.75000000  0.48700700  0.77549400  1
  K  K4  1  0.25000000  0.18116900  0.92993300  1
  K  K5  1  0.75000000  0.81883100  0.07006700  1
  K  K6  1  0.25000000  0.68116900  0.57006700  1
  K  K7  1  0.75000000  0.31883100  0.42993300  1
  P  P8  1  0.25000000  0.23910400  0.59342400  1
  P  P9  1  0.75000000  0.76089600  0.40657600  1
  P  P10  1  0.25000000  0.73910400  0.90657600  1
  P  P11  1  0.75000000  0.26089600  0.09342400  1
  O  O12  1  0.75000000  0.66686900  0.53736800  1
  O  O13  1  0.25000000  0.33313100  0.46263200  1
  O  O14  1  0.25000000  0.83313100  0.03736800  1
  O  O15  1  0.75000000  0.16686900  0.96263200  1
  O  O16  1  0.53791500  0.74469500  0.32805100  1
  O  O17  1  0.03791500  0.25530500  0.67194900  1
  O  O18  1  0.96208500  0.24469500  0.17194900  1
  O  O19  1  0.46208500  0.75530500  0.82805100  1
  O  O20  1  0.46208500  0.25530500  0.67194900  1
  O  O21  1  0.96208500  0.74469500  0.32805100  1
  O  O22  1  0.03791500  0.75530500  0.82805100  1
  O  O23  1  0.53791500  0.24469500  0.17194900  1
  F  F24  1  0.75000000  0.46885400  0.04937400  1
  F  F25  1  0.25000000  0.53114600  0.95062600  1
  F  F26  1  0.25000000  0.03114600  0.54937400  1
  F  F27  1  0.75000000  0.96885400  0.45062600  1
