# generated using pymatgen
data_Mn2GeSe4
_symmetry_space_group_name_H-M   'P 1'
_cell_length_a   6.40143200
_cell_length_b   7.66988500
_cell_length_c   13.20131200
_cell_angle_alpha   90.00000000
_cell_angle_beta   90.00000000
_cell_angle_gamma   90.00000000
_symmetry_Int_Tables_number   1
_chemical_formula_structural   Mn2GeSe4
_chemical_formula_sum   'Mn8 Ge4 Se16'
_cell_volume   648.16128093
_cell_formula_units_Z   4
loop_
 _symmetry_equiv_pos_site_id
 _symmetry_equiv_pos_as_xyz
  1  'x, y, z'
loop_
 _atom_site_type_symbol
 _atom_site_label
 _atom_site_symmetry_multiplicity
 _atom_site_fract_x
 _atom_site_fract_y
 _atom_site_fract_z
 _atom_site_occupancy
  Mn  Mn0  1  0.50210400  0.25000000  0.76653500  1
  Mn  Mn1  1  0.99789600  0.25000000  0.26653500  1
  Mn  Mn2  1  0.00210400  0.75000000  0.73346500  1
  Mn  Mn3  1  0.00000000  0.00000000  0.00000000  1
  Mn  Mn4  1  0.49789600  0.75000000  0.23346500  1
  Mn  Mn5  1  0.50000000  0.50000000  0.50000000  1
  Mn  Mn6  1  0.50000000  0.00000000  0.50000000  1
  Mn  Mn7  1  0.00000000  0.50000000  0.00000000  1
  Ge  Ge8  1  0.41560900  0.25000000  0.08861900  1
  Ge  Ge9  1  0.91560900  0.75000000  0.41138100  1
  Ge  Ge10  1  0.08439100  0.25000000  0.58861900  1
  Ge  Ge11  1  0.58439100  0.75000000  0.91138100  1
  Se  Se12  1  0.76343300  0.99601500  0.83097800  1
  Se  Se13  1  0.74272800  0.75000000  0.57760800  1
  Se  Se14  1  0.79992700  0.25000000  0.09165700  1
  Se  Se15  1  0.73656700  0.50398500  0.33097800  1
  Se  Se16  1  0.29992700  0.75000000  0.40834300  1
  Se  Se17  1  0.73656700  0.99601500  0.33097800  1
  Se  Se18  1  0.75727200  0.75000000  0.07760800  1
  Se  Se19  1  0.70007300  0.25000000  0.59165700  1
  Se  Se20  1  0.24272800  0.25000000  0.92239200  1
  Se  Se21  1  0.20007300  0.75000000  0.90834300  1
  Se  Se22  1  0.25727200  0.25000000  0.42239200  1
  Se  Se23  1  0.23656700  0.49601500  0.16902200  1
  Se  Se24  1  0.23656700  0.00398500  0.16902200  1
  Se  Se25  1  0.76343300  0.50398500  0.83097800  1
  Se  Se26  1  0.26343300  0.49601500  0.66902200  1
  Se  Se27  1  0.26343300  0.00398500  0.66902200  1
