# generated using pymatgen
data_Rb2Cr2As2O9
_symmetry_space_group_name_H-M   'P 1'
_cell_length_a   5.79671900
_cell_length_b   8.72752000
_cell_length_c   18.77150100
_cell_angle_alpha   90.00000000
_cell_angle_beta   90.00000000
_cell_angle_gamma   90.00000000
_symmetry_Int_Tables_number   1
_chemical_formula_structural   Rb2Cr2As2O9
_chemical_formula_sum   'Rb8 Cr8 As8 O36'
_cell_volume   949.66865056
_cell_formula_units_Z   4
loop_
 _symmetry_equiv_pos_site_id
 _symmetry_equiv_pos_as_xyz
  1  'x, y, z'
loop_
 _atom_site_type_symbol
 _atom_site_label
 _atom_site_symmetry_multiplicity
 _atom_site_fract_x
 _atom_site_fract_y
 _atom_site_fract_z
 _atom_site_occupancy
  Rb  Rb0  1  0.75000000  0.46104000  0.76814400  1
  Rb  Rb1  1  0.25000000  0.53896000  0.23185600  1
  Rb  Rb2  1  0.25000000  0.03896000  0.26814400  1
  Rb  Rb3  1  0.75000000  0.39399100  0.36159200  1
  Rb  Rb4  1  0.25000000  0.10600900  0.86159200  1
  Rb  Rb5  1  0.75000000  0.89399100  0.13840800  1
  Rb  Rb6  1  0.25000000  0.60600900  0.63840800  1
  Rb  Rb7  1  0.75000000  0.96104000  0.73185600  1
  Cr  Cr8  1  0.00000000  0.50000000  0.00000000  1
  Cr  Cr9  1  0.75000000  0.77746400  0.94117700  1
  Cr  Cr10  1  0.25000000  0.22253600  0.05882300  1
  Cr  Cr11  1  0.25000000  0.72253600  0.44117700  1
  Cr  Cr12  1  0.50000000  0.50000000  0.00000000  1
  Cr  Cr13  1  0.75000000  0.27746400  0.55882300  1
  Cr  Cr14  1  0.00000000  0.00000000  0.50000000  1
  Cr  Cr15  1  0.50000000  0.00000000  0.50000000  1
  As  As16  1  0.75000000  0.17584500  0.94644500  1
  As  As17  1  0.25000000  0.32415500  0.44644500  1
  As  As18  1  0.25000000  0.68052000  0.85994200  1
  As  As19  1  0.25000000  0.82415500  0.05355500  1
  As  As20  1  0.75000000  0.31948000  0.14005800  1
  As  As21  1  0.75000000  0.67584500  0.55355500  1
  As  As22  1  0.75000000  0.81948000  0.35994200  1
  As  As23  1  0.25000000  0.18052000  0.64005800  1
  O  O24  1  0.50769900  0.20308700  0.13160600  1
  O  O25  1  0.25000000  0.94708900  0.43400300  1
  O  O26  1  0.25000000  0.53553300  0.92658800  1
  O  O27  1  0.75000000  0.55291100  0.93400300  1
  O  O28  1  0.25000000  0.03553300  0.57341200  1
  O  O29  1  0.25000000  0.08702500  0.71824000  1
  O  O30  1  0.75000000  0.49419600  0.52203100  1
  O  O31  1  0.25000000  0.58702500  0.78176000  1
  O  O32  1  0.25000000  0.44708900  0.06599700  1
  O  O33  1  0.25000000  0.31096100  0.35683000  1
  O  O34  1  0.49230100  0.29691300  0.63160600  1
  O  O35  1  0.00316500  0.22974800  0.48009500  1
  O  O36  1  0.25000000  0.00580400  0.02203100  1
  O  O37  1  0.99230100  0.20308700  0.13160600  1
  O  O38  1  0.25000000  0.81096100  0.14317000  1
  O  O39  1  0.75000000  0.96446700  0.42658800  1
  O  O40  1  0.00769900  0.79691300  0.86839400  1
  O  O41  1  0.00316500  0.72974800  0.01990500  1
  O  O42  1  0.99683500  0.77025200  0.51990500  1
  O  O43  1  0.75000000  0.68903900  0.64317000  1
  O  O44  1  0.75000000  0.99419600  0.97796900  1
  O  O45  1  0.49230100  0.79691300  0.86839400  1
  O  O46  1  0.00769900  0.29691300  0.63160600  1
  O  O47  1  0.99230100  0.70308700  0.36839400  1
  O  O48  1  0.50316500  0.77025200  0.51990500  1
  O  O49  1  0.75000000  0.05291100  0.56599700  1
  O  O50  1  0.25000000  0.50580400  0.47796900  1
  O  O51  1  0.99683500  0.27025200  0.98009500  1
  O  O52  1  0.75000000  0.41297500  0.21824000  1
  O  O53  1  0.49683500  0.22974800  0.48009500  1
  O  O54  1  0.49683500  0.72974800  0.01990500  1
  O  O55  1  0.50769900  0.70308700  0.36839400  1
  O  O56  1  0.75000000  0.91297500  0.28176000  1
  O  O57  1  0.50316500  0.27025200  0.98009500  1
  O  O58  1  0.75000000  0.46446700  0.07341200  1
  O  O59  1  0.75000000  0.18903900  0.85683000  1
