# generated using pymatgen
data_Na2Ca4ZrNbSi4O17F
_symmetry_space_group_name_H-M   'P 1'
_cell_length_a   10.40147000
_cell_length_b   7.37812400
_cell_length_c   10.96446681
_cell_angle_alpha   71.08215732
_cell_angle_beta   90.00000000
_cell_angle_gamma   90.00000000
_symmetry_Int_Tables_number   1
_chemical_formula_structural   Na2Ca4ZrNbSi4O17F
_chemical_formula_sum   'Na4 Ca8 Zr2 Nb2 Si8 O34 F2'
_cell_volume   795.99837502
_cell_formula_units_Z   2
loop_
 _symmetry_equiv_pos_site_id
 _symmetry_equiv_pos_as_xyz
  1  'x, y, z'
loop_
 _atom_site_type_symbol
 _atom_site_label
 _atom_site_symmetry_multiplicity
 _atom_site_fract_x
 _atom_site_fract_y
 _atom_site_fract_z
 _atom_site_occupancy
  Na  Na0  1  0.06809900  0.68772700  0.87817700  1
  Na  Na1  1  0.56809900  0.31227300  0.12182300  1
  Na  Na2  1  0.91706600  0.55256100  0.63241200  1
  Na  Na3  1  0.41706600  0.44743900  0.36758800  1
  Ca  Ca4  1  0.68332000  0.69965600  0.84516900  1
  Ca  Ca5  1  0.91134700  0.05634200  0.63258900  1
  Ca  Ca6  1  0.18213900  0.79922700  0.14503700  1
  Ca  Ca7  1  0.68213900  0.20077300  0.85496300  1
  Ca  Ca8  1  0.41134700  0.94365800  0.36741100  1
  Ca  Ca9  1  0.18332000  0.30034400  0.15483100  1
  Ca  Ca10  1  0.29709800  0.55223600  0.65256100  1
  Ca  Ca11  1  0.79709800  0.44776400  0.34743900  1
  Zr  Zr12  1  0.79133200  0.94666600  0.34218600  1
  Zr  Zr13  1  0.29133200  0.05333400  0.65781400  1
  Nb  Nb14  1  0.05314400  0.19568100  0.86615100  1
  Nb  Nb15  1  0.55314400  0.80431900  0.13384900  1
  Si  Si16  1  0.37419600  0.19738200  0.92040100  1
  Si  Si17  1  0.87419600  0.80261800  0.07959900  1
  Si  Si18  1  0.36473300  0.63471400  0.92731500  1
  Si  Si19  1  0.86473300  0.36528600  0.07268500  1
  Si  Si20  1  0.61228100  0.56387200  0.56143200  1
  Si  Si21  1  0.11228100  0.43612800  0.43856800  1
  Si  Si22  1  0.61352200  0.12485700  0.56691400  1
  Si  Si23  1  0.11352200  0.87514300  0.43308600  1
  O  O24  1  0.62352900  0.36194000  0.52280300  1
  O  O25  1  0.12352900  0.63806000  0.47719700  1
  O  O26  1  0.89955200  0.57832700  0.08508600  1
  O  O27  1  0.39955200  0.42167300  0.91491400  1
  O  O28  1  0.39309500  0.77460300  0.21410800  1
  O  O29  1  0.89309500  0.22539700  0.78589200  1
  O  O30  1  0.62018600  0.56379200  0.22179500  1
  O  O31  1  0.12018600  0.43620800  0.77820500  1
  O  O32  1  0.61701400  0.95565700  0.24397200  1
  O  O33  1  0.11701400  0.04434300  0.75602800  1
  O  O34  1  0.17102100  0.97640800  0.28990100  1
  O  O35  1  0.67102100  0.02359200  0.71009900  1
  O  O36  1  0.87456200  0.79105300  0.23243400  1
  O  O37  1  0.63969200  0.51769100  0.71353900  1
  O  O38  1  0.71828000  0.09045200  0.46378300  1
  O  O39  1  0.13969200  0.48230900  0.28646100  1
  O  O40  1  0.73457000  0.68213000  0.47410200  1
  O  O41  1  0.23457000  0.31787000  0.52589800  1
  O  O42  1  0.96578600  0.92791800  0.45865800  1
  O  O43  1  0.46578600  0.07208200  0.54134200  1
  O  O44  1  0.97019400  0.34970400  0.48782600  1
  O  O45  1  0.47019400  0.65029600  0.51217400  1
  O  O46  1  0.83542800  0.22890300  0.22183200  1
  O  O47  1  0.33542800  0.77109700  0.77816800  1
  O  O48  1  0.23639600  0.12102700  0.99104200  1
  O  O49  1  0.73639600  0.87897300  0.00895800  1
  O  O50  1  0.24074400  0.61310400  0.01948600  1
  O  O51  1  0.74074400  0.38689600  0.98051400  1
  O  O52  1  0.50085700  0.08314600  0.99373800  1
  O  O53  1  0.00085700  0.91685400  0.00626200  1
  O  O54  1  0.49802600  0.70233900  0.97999200  1
  O  O55  1  0.99802600  0.29766100  0.02000800  1
  O  O56  1  0.37456200  0.20894700  0.76756600  1
  O  O57  1  0.21828000  0.90954800  0.53621700  1
  F  F58  1  0.88850200  0.74678700  0.75878600  1
  F  F59  1  0.38850200  0.25321300  0.24121400  1
