# generated using pymatgen
data_Cs2Th(PS3)3
_symmetry_space_group_name_H-M   'P 1'
_cell_length_a   12.55553800
_cell_length_b   12.61756561
_cell_length_c   12.77593948
_cell_angle_alpha   114.28809816
_cell_angle_beta   102.55124883
_cell_angle_gamma   99.32914296
_symmetry_Int_Tables_number   1
_chemical_formula_structural   Cs2Th(PS3)3
_chemical_formula_sum   'Cs8 Th4 P12 S36'
_cell_volume   1727.29858461
_cell_formula_units_Z   4
loop_
 _symmetry_equiv_pos_site_id
 _symmetry_equiv_pos_as_xyz
  1  'x, y, z'
loop_
 _atom_site_type_symbol
 _atom_site_label
 _atom_site_symmetry_multiplicity
 _atom_site_fract_x
 _atom_site_fract_y
 _atom_site_fract_z
 _atom_site_occupancy
  Cs  Cs0  1  0.16962600  0.22808500  0.55401100  1
  Cs  Cs1  1  0.89948200  0.43180100  0.73939200  1
  Cs  Cs2  1  0.87592800  0.14564500  0.10292600  1
  Cs  Cs3  1  0.64865600  0.07409200  0.72717600  1
  Cs  Cs4  1  0.83037400  0.77191500  0.44598900  1
  Cs  Cs5  1  0.10051800  0.56819900  0.26060800  1
  Cs  Cs6  1  0.35134400  0.92590800  0.27282400  1
  Cs  Cs7  1  0.12407200  0.85435500  0.89707400  1
  Th  Th8  1  0.39035400  0.71462400  0.68001800  1
  Th  Th9  1  0.60964600  0.28537600  0.31998200  1
  Th  Th10  1  0.64638000  0.67895300  0.99497700  1
  Th  Th11  1  0.35362000  0.32104700  0.00502300  1
  P  P12  1  0.22647800  0.86999000  0.55743200  1
  P  P13  1  0.35634000  0.36464900  0.35742500  1
  P  P14  1  0.64366000  0.63535100  0.64257500  1
  P  P15  1  0.78214100  0.45368800  0.01286400  1
  P  P16  1  0.77352200  0.13001000  0.44256800  1
  P  P17  1  0.21785900  0.54631200  0.98713600  1
  P  P18  1  0.68054500  0.41665800  0.12698500  1
  P  P19  1  0.31945500  0.58334200  0.87301500  1
  P  P20  1  0.69866200  0.96886000  0.25262600  1
  P  P21  1  0.76294300  0.79789700  0.81201300  1
  P  P22  1  0.30133800  0.03114000  0.74737400  1
  P  P23  1  0.23705700  0.20210300  0.18798700  1
  S  S24  1  0.88608400  0.35018400  0.97987500  1
  S  S25  1  0.55307000  0.71038300  0.55430600  1
  S  S26  1  0.53712000  0.56158500  0.71337900  1
  S  S27  1  0.39884500  0.18189500  0.75801100  1
  S  S28  1  0.39682400  0.95557900  0.83549500  1
  S  S29  1  0.66394300  0.43274500  0.86426400  1
  S  S30  1  0.78976300  0.44393900  0.28479900  1
  S  S31  1  0.42121300  0.47149800  0.86622700  1
  S  S32  1  0.15698600  0.73343800  0.59196100  1
  S  S33  1  0.35726000  0.13763100  0.11227300  1
  S  S34  1  0.84301400  0.26656200  0.40803900  1
  S  S35  1  0.64274000  0.86236900  0.88772700  1
  S  S36  1  0.60115500  0.81810500  0.24198900  1
  S  S37  1  0.84931200  0.63678000  0.12123600  1
  S  S38  1  0.11391600  0.64981600  0.02012500  1
  S  S39  1  0.33605700  0.56725500  0.13573600  1
  S  S40  1  0.15947400  0.27423100  0.08693300  1
  S  S41  1  0.87579300  0.09950200  0.56174600  1
  S  S42  1  0.17847400  0.08489100  0.81795500  1
  S  S43  1  0.13726100  0.08844900  0.22108000  1
  S  S44  1  0.12420700  0.90049800  0.43825400  1
  S  S45  1  0.86273900  0.91155100  0.77892000  1
  S  S46  1  0.46288000  0.43841500  0.28662100  1
  S  S47  1  0.82152600  0.91510900  0.18204500  1
  S  S48  1  0.62954500  0.16997800  0.47937600  1
  S  S49  1  0.44693000  0.28961700  0.44569400  1
  S  S50  1  0.57201600  0.24631300  0.05554500  1
  S  S51  1  0.15068800  0.36322000  0.87876400  1
  S  S52  1  0.84052600  0.72576900  0.91306700  1
  S  S53  1  0.73159100  0.53008300  0.55236400  1
  S  S54  1  0.21023700  0.55606100  0.71520100  1
  S  S55  1  0.42798400  0.75368700  0.94445500  1
  S  S56  1  0.60317600  0.04442100  0.16450500  1
  S  S57  1  0.37045500  0.83002200  0.52062400  1
  S  S58  1  0.26840900  0.46991700  0.44763600  1
  S  S59  1  0.57878700  0.52850200  0.13377300  1
