# generated using pymatgen
data_Ce4Te3N2
_symmetry_space_group_name_H-M   'P 1'
_cell_length_a   7.29603500
_cell_length_b   11.44761500
_cell_length_c   11.55383600
_cell_angle_alpha   90.00000000
_cell_angle_beta   90.00000000
_cell_angle_gamma   90.00000000
_symmetry_Int_Tables_number   1
_chemical_formula_structural   Ce4Te3N2
_chemical_formula_sum   'Ce16 Te12 N8'
_cell_volume   965.00179777
_cell_formula_units_Z   4
loop_
 _symmetry_equiv_pos_site_id
 _symmetry_equiv_pos_as_xyz
  1  'x, y, z'
loop_
 _atom_site_type_symbol
 _atom_site_label
 _atom_site_symmetry_multiplicity
 _atom_site_fract_x
 _atom_site_fract_y
 _atom_site_fract_z
 _atom_site_occupancy
  Ce  Ce0  1  0.15022800  0.39054600  0.55100100  1
  Ce  Ce1  1  0.34977200  0.89054600  0.05100100  1
  Ce  Ce2  1  0.21985400  0.02540500  0.75000000  1
  Ce  Ce3  1  0.15022800  0.39054600  0.94899900  1
  Ce  Ce4  1  0.28014600  0.52540500  0.25000000  1
  Ce  Ce5  1  0.84977200  0.60945400  0.44899900  1
  Ce  Ce6  1  0.91320800  0.33954700  0.25000000  1
  Ce  Ce7  1  0.08679200  0.66045300  0.75000000  1
  Ce  Ce8  1  0.58679200  0.83954700  0.75000000  1
  Ce  Ce9  1  0.41320800  0.16045300  0.25000000  1
  Ce  Ce10  1  0.71985400  0.47459500  0.75000000  1
  Ce  Ce11  1  0.84977200  0.60945400  0.05100100  1
  Ce  Ce12  1  0.78014600  0.97459500  0.25000000  1
  Ce  Ce13  1  0.65022800  0.10945400  0.94899900  1
  Ce  Ce14  1  0.34977200  0.89054600  0.44899900  1
  Ce  Ce15  1  0.65022800  0.10945400  0.55100100  1
  Te  Te16  1  0.92021100  0.23145800  0.75000000  1
  Te  Te17  1  0.57978900  0.73145800  0.25000000  1
  Te  Te18  1  0.43276200  0.63578400  0.92356000  1
  Te  Te19  1  0.43276200  0.63578400  0.57644000  1
  Te  Te20  1  0.56723800  0.36421600  0.42356000  1
  Te  Te21  1  0.93276200  0.86421600  0.57644000  1
  Te  Te22  1  0.06723800  0.13578400  0.42356000  1
  Te  Te23  1  0.06723800  0.13578400  0.07644000  1
  Te  Te24  1  0.93276200  0.86421600  0.92356000  1
  Te  Te25  1  0.56723800  0.36421600  0.07644000  1
  Te  Te26  1  0.42021100  0.26854200  0.75000000  1
  Te  Te27  1  0.07978900  0.76854200  0.25000000  1
  N  N28  1  0.55450200  0.03196400  0.37987400  1
  N  N29  1  0.44549800  0.96803600  0.87987400  1
  N  N30  1  0.94549800  0.53196400  0.87987400  1
  N  N31  1  0.05450200  0.46803600  0.37987400  1
  N  N32  1  0.44549800  0.96803600  0.62012600  1
  N  N33  1  0.94549800  0.53196400  0.62012600  1
  N  N34  1  0.05450200  0.46803600  0.12012600  1
  N  N35  1  0.55450200  0.03196400  0.12012600  1
