# generated using pymatgen
data_V2Pb4O9
_symmetry_space_group_name_H-M   'P 1'
_cell_length_a   7.57261800
_cell_length_b   11.77914300
_cell_length_c   23.26459800
_cell_angle_alpha   90.00000000
_cell_angle_beta   90.00000000
_cell_angle_gamma   90.00000000
_symmetry_Int_Tables_number   1
_chemical_formula_structural   V2Pb4O9
_chemical_formula_sum   'V16 Pb32 O72'
_cell_volume   2075.17772090
_cell_formula_units_Z   8
loop_
 _symmetry_equiv_pos_site_id
 _symmetry_equiv_pos_as_xyz
  1  'x, y, z'
loop_
 _atom_site_type_symbol
 _atom_site_label
 _atom_site_symmetry_multiplicity
 _atom_site_fract_x
 _atom_site_fract_y
 _atom_site_fract_z
 _atom_site_occupancy
  V  V0  1  0.36699000  0.25000000  0.17830400  1
  V  V1  1  0.49505700  0.99617600  0.40472400  1
  V  V2  1  0.11369600  0.75000000  0.68379500  1
  V  V3  1  0.86699000  0.75000000  0.32169600  1
  V  V4  1  0.61369600  0.25000000  0.81620500  1
  V  V5  1  0.00494300  0.99617600  0.90472400  1
  V  V6  1  0.99505700  0.49617600  0.09527600  1
  V  V7  1  0.63301000  0.75000000  0.82169600  1
  V  V8  1  0.99505700  0.00382400  0.09527600  1
  V  V9  1  0.49505700  0.50382400  0.40472400  1
  V  V10  1  0.88630400  0.25000000  0.31620500  1
  V  V11  1  0.38630400  0.75000000  0.18379500  1
  V  V12  1  0.00494300  0.50382400  0.90472400  1
  V  V13  1  0.50494300  0.00382400  0.59527600  1
  V  V14  1  0.13301000  0.25000000  0.67830400  1
  V  V15  1  0.50494300  0.49617600  0.59527600  1
  Pb  Pb16  1  0.65145100  0.52731400  0.24508800  1
  Pb  Pb17  1  0.83684800  0.25000000  0.16379200  1
  Pb  Pb18  1  0.49102200  0.99057400  0.92380300  1
  Pb  Pb19  1  0.23613700  0.25000000  0.51446100  1
  Pb  Pb20  1  0.42937100  0.25000000  0.34679900  1
  Pb  Pb21  1  0.92937100  0.75000000  0.15320100  1
  Pb  Pb22  1  0.73613700  0.75000000  0.98553900  1
  Pb  Pb23  1  0.26386300  0.25000000  0.01446100  1
  Pb  Pb24  1  0.65145100  0.97268600  0.24508800  1
  Pb  Pb25  1  0.84854900  0.52731400  0.74508800  1
  Pb  Pb26  1  0.24916300  0.75000000  0.51161300  1
  Pb  Pb27  1  0.16315200  0.75000000  0.83620800  1
  Pb  Pb28  1  0.74916300  0.25000000  0.98838700  1
  Pb  Pb29  1  0.15145100  0.02731400  0.25491200  1
  Pb  Pb30  1  0.07062900  0.25000000  0.84679900  1
  Pb  Pb31  1  0.76386300  0.75000000  0.48553900  1
  Pb  Pb32  1  0.00897800  0.50942600  0.42380300  1
  Pb  Pb33  1  0.00897800  0.99057400  0.42380300  1
  Pb  Pb34  1  0.99102200  0.49057400  0.57619700  1
  Pb  Pb35  1  0.66315200  0.25000000  0.66379200  1
  Pb  Pb36  1  0.57062900  0.75000000  0.65320100  1
  Pb  Pb37  1  0.33684800  0.75000000  0.33620800  1
  Pb  Pb38  1  0.15145100  0.47268600  0.25491200  1
  Pb  Pb39  1  0.50897800  0.00942600  0.07619700  1
  Pb  Pb40  1  0.84854900  0.97268600  0.74508800  1
  Pb  Pb41  1  0.49102200  0.50942600  0.92380300  1
  Pb  Pb42  1  0.34854900  0.47268600  0.75491200  1
  Pb  Pb43  1  0.75083700  0.25000000  0.48838700  1
  Pb  Pb44  1  0.25083700  0.75000000  0.01161300  1
  Pb  Pb45  1  0.50897800  0.49057400  0.07619700  1
  Pb  Pb46  1  0.34854900  0.02731400  0.75491200  1
  Pb  Pb47  1  0.99102200  0.00942600  0.57619700  1
  O  O48  1  0.63603700  0.75000000  0.31569200  1
  O  O49  1  0.55402300  0.87228000  0.78730600  1
  O  O50  1  0.01364200  0.98838700  0.16990200  1
  O  O51  1  0.01364200  0.51161300  0.16990200  1
  O  O52  1  0.10966800  0.37809800  0.92624900  1
  O  O53  1  0.00759100  0.62553100  0.50379900  1
  O  O54  1  0.60966800  0.62190200  0.57375100  1
  O  O55  1  0.80210600  0.52305600  0.93759700  1
  O  O56  1  0.39033200  0.37809800  0.42624900  1
  O  O57  1  0.48635800  0.51161300  0.66990200  1
  O  O58  1  0.30210600  0.02305600  0.56240300  1
  O  O59  1  0.14453200  0.62120200  0.91693200  1
  O  O60  1  0.56240800  0.75000000  0.89273100  1
  O  O61  1  0.44597700  0.37228000  0.21269400  1
  O  O62  1  0.99240900  0.37446900  0.49620100  1
  O  O63  1  0.69789400  0.97694400  0.43759700  1
  O  O64  1  0.14453200  0.87879800  0.91693200  1
  O  O65  1  0.89033200  0.87809800  0.07375100  1
  O  O66  1  0.69789400  0.52305600  0.43759700  1
  O  O67  1  0.99240900  0.12553100  0.49620100  1
  O  O68  1  0.10966800  0.12190200  0.92624900  1
  O  O69  1  0.19789400  0.02305600  0.06240300  1
  O  O70  1  0.85546800  0.37879800  0.08306800  1
  O  O71  1  0.05402300  0.37228000  0.71269400  1
  O  O72  1  0.74857300  0.25000000  0.37661100  1
  O  O73  1  0.64453200  0.12120200  0.58306800  1
  O  O74  1  0.98635800  0.48838700  0.83009800  1
  O  O75  1  0.19789400  0.47694400  0.06240300  1
  O  O76  1  0.60966800  0.87809800  0.57375100  1
  O  O77  1  0.39685800  0.25000000  0.83712600  1
  O  O78  1  0.86396300  0.75000000  0.81569200  1
  O  O79  1  0.94597700  0.87228000  0.28730600  1
  O  O80  1  0.89033200  0.62190200  0.07375100  1
  O  O81  1  0.84960000  0.13071200  0.27151600  1
  O  O82  1  0.34960000  0.63071200  0.22848400  1
  O  O83  1  0.10314200  0.25000000  0.33712600  1
  O  O84  1  0.55402300  0.62772000  0.78730600  1
  O  O85  1  0.39033200  0.12190200  0.42624900  1
  O  O86  1  0.43759200  0.25000000  0.10726900  1
  O  O87  1  0.35546800  0.62120200  0.41693200  1
  O  O88  1  0.65040000  0.13071200  0.77151600  1
  O  O89  1  0.50759100  0.37446900  0.99620100  1
  O  O90  1  0.51364200  0.48838700  0.33009800  1
  O  O91  1  0.51364200  0.01161300  0.33009800  1
  O  O92  1  0.75142700  0.25000000  0.87661100  1
  O  O93  1  0.80210600  0.97694400  0.93759700  1
  O  O94  1  0.48635800  0.98838700  0.66990200  1
  O  O95  1  0.60314200  0.75000000  0.16287400  1
  O  O96  1  0.34960000  0.86928800  0.22848400  1
  O  O97  1  0.94597700  0.62772000  0.28730600  1
  O  O98  1  0.64453200  0.37879800  0.58306800  1
  O  O99  1  0.50759100  0.12553100  0.99620100  1
  O  O100  1  0.35546800  0.87879800  0.41693200  1
  O  O101  1  0.98635800  0.01161300  0.83009800  1
  O  O102  1  0.15040000  0.86928800  0.72848400  1
  O  O103  1  0.49240900  0.62553100  0.00379900  1
  O  O104  1  0.44597700  0.12772000  0.21269400  1
  O  O105  1  0.00759100  0.87446900  0.50379900  1
  O  O106  1  0.93759200  0.75000000  0.39273100  1
  O  O107  1  0.65040000  0.36928800  0.77151600  1
  O  O108  1  0.85546800  0.12120200  0.08306800  1
  O  O109  1  0.05402300  0.12772000  0.71269400  1
  O  O110  1  0.25142700  0.75000000  0.62338900  1
  O  O111  1  0.13603700  0.25000000  0.18430800  1
  O  O112  1  0.49240900  0.87446900  0.00379900  1
  O  O113  1  0.06240800  0.25000000  0.60726900  1
  O  O114  1  0.24857300  0.75000000  0.12338900  1
  O  O115  1  0.30210600  0.47694400  0.56240300  1
  O  O116  1  0.36396300  0.25000000  0.68430800  1
  O  O117  1  0.84960000  0.36928800  0.27151600  1
  O  O118  1  0.89685800  0.75000000  0.66287400  1
  O  O119  1  0.15040000  0.63071200  0.72848400  1
