# generated using pymatgen
data_Rb3Nd2(NO3)9
_symmetry_space_group_name_H-M   'P 1'
_cell_length_a   13.91875800
_cell_length_b   13.91875800
_cell_length_c   13.91875800
_cell_angle_alpha   90.00000000
_cell_angle_beta   90.00000000
_cell_angle_gamma   90.00000000
_symmetry_Int_Tables_number   1
_chemical_formula_structural   Rb3Nd2(NO3)9
_chemical_formula_sum   'Rb12 Nd8 N36 O108'
_cell_volume   2696.50637881
_cell_formula_units_Z   4
loop_
 _symmetry_equiv_pos_site_id
 _symmetry_equiv_pos_as_xyz
  1  'x, y, z'
loop_
 _atom_site_type_symbol
 _atom_site_label
 _atom_site_symmetry_multiplicity
 _atom_site_fract_x
 _atom_site_fract_y
 _atom_site_fract_z
 _atom_site_occupancy
  Rb  Rb0  1  0.87500000  0.80402500  0.55402500  1
  Rb  Rb1  1  0.55402500  0.87500000  0.80402500  1
  Rb  Rb2  1  0.30402500  0.94597500  0.12500000  1
  Rb  Rb3  1  0.94597500  0.12500000  0.30402500  1
  Rb  Rb4  1  0.69597500  0.44597500  0.37500000  1
  Rb  Rb5  1  0.12500000  0.30402500  0.94597500  1
  Rb  Rb6  1  0.05402500  0.62500000  0.19597500  1
  Rb  Rb7  1  0.80402500  0.55402500  0.87500000  1
  Rb  Rb8  1  0.19597500  0.05402500  0.62500000  1
  Rb  Rb9  1  0.37500000  0.69597500  0.44597500  1
  Rb  Rb10  1  0.44597500  0.37500000  0.69597500  1
  Rb  Rb11  1  0.62500000  0.19597500  0.05402500  1
  Nd  Nd12  1  0.44439800  0.55560200  0.05560200  1
  Nd  Nd13  1  0.30560200  0.30560200  0.30560200  1
  Nd  Nd14  1  0.55560200  0.05560200  0.44439800  1
  Nd  Nd15  1  0.94439800  0.94439800  0.94439800  1
  Nd  Nd16  1  0.80560200  0.19439800  0.69439800  1
  Nd  Nd17  1  0.69439800  0.80560200  0.19439800  1
  Nd  Nd18  1  0.19439800  0.69439800  0.80560200  1
  Nd  Nd19  1  0.05560200  0.44439800  0.55560200  1
  N  N20  1  0.73280800  0.87500000  0.98280800  1
  N  N21  1  0.07585000  0.86135700  0.09534900  1
  N  N22  1  0.36135700  0.40465100  0.92415000  1
  N  N23  1  0.32585000  0.84534900  0.88864300  1
  N  N24  1  0.34534900  0.61135700  0.67415000  1
  N  N25  1  0.87500000  0.98280800  0.73280800  1
  N  N26  1  0.67415000  0.34534900  0.61135700  1
  N  N27  1  0.62500000  0.01719200  0.23280800  1
  N  N28  1  0.63864300  0.90465100  0.57585000  1
  N  N29  1  0.48280800  0.76719200  0.12500000  1
  N  N30  1  0.13864300  0.59534900  0.42415000  1
  N  N31  1  0.01719200  0.23280800  0.62500000  1
  N  N32  1  0.84534900  0.88864300  0.32585000  1
  N  N33  1  0.37500000  0.51719200  0.26719200  1
  N  N34  1  0.12500000  0.48280800  0.76719200  1
  N  N35  1  0.17415000  0.15465100  0.38864300  1
  N  N36  1  0.90465100  0.57585000  0.63864300  1
  N  N37  1  0.40465100  0.92415000  0.36135700  1
  N  N38  1  0.92415000  0.36135700  0.40465100  1
  N  N39  1  0.98280800  0.73280800  0.87500000  1
  N  N40  1  0.65465100  0.11135700  0.82585000  1
  N  N41  1  0.51719200  0.26719200  0.37500000  1
  N  N42  1  0.09534900  0.07585000  0.86135700  1
  N  N43  1  0.76719200  0.12500000  0.48280800  1
  N  N44  1  0.61135700  0.67415000  0.34534900  1
  N  N45  1  0.88864300  0.32585000  0.84534900  1
  N  N46  1  0.23280800  0.62500000  0.01719200  1
  N  N47  1  0.57585000  0.63864300  0.90465100  1
  N  N48  1  0.15465100  0.38864300  0.17415000  1
  N  N49  1  0.38864300  0.17415000  0.15465100  1
  N  N50  1  0.82585000  0.65465100  0.11135700  1
  N  N51  1  0.26719200  0.37500000  0.51719200  1
  N  N52  1  0.59534900  0.42415000  0.13864300  1
  N  N53  1  0.86135700  0.09534900  0.07585000  1
  N  N54  1  0.42415000  0.13864300  0.59534900  1
  N  N55  1  0.11135700  0.82585000  0.65465100  1
  O  O56  1  0.84278400  0.63002700  0.67353500  1
  O  O57  1  0.42353500  0.11997300  0.09278400  1
  O  O58  1  0.92529000  0.24350600  0.82691700  1
  O  O59  1  0.45375000  0.89985400  0.43551900  1
  O  O60  1  0.24524500  0.40381800  0.59982800  1
  O  O61  1  0.00649400  0.32471000  0.42308300  1
  O  O62  1  0.13002700  0.82646500  0.15721600  1
  O  O63  1  0.15017200  0.65381800  0.99524500  1
  O  O64  1  0.84982800  0.15381800  0.50475500  1
  O  O65  1  0.37500000  0.45162700  0.20162700  1
  O  O66  1  0.06448100  0.54625000  0.39985400  1
  O  O67  1  0.95375000  0.60014600  0.56448100  1
  O  O68  1  0.17308300  0.42529000  0.25649400  1
  O  O69  1  0.59278400  0.07646500  0.88002700  1
  O  O70  1  0.32691700  0.57471000  0.75649400  1
  O  O71  1  0.40381800  0.59982800  0.24524500  1
  O  O72  1  0.07471000  0.74350600  0.67308300  1
  O  O73  1  0.09278400  0.42353500  0.11997300  1
  O  O74  1  0.49524500  0.34982800  0.34618200  1
  O  O75  1  0.39985400  0.06448100  0.54625000  1
  O  O76  1  0.57646500  0.61997300  0.40721600  1
  O  O77  1  0.67308300  0.07471000  0.74350600  1
  O  O78  1  0.79625000  0.81448100  0.35014600  1
  O  O79  1  0.42529000  0.25649400  0.17308300  1
  O  O80  1  0.81448100  0.35014600  0.79625000  1
  O  O81  1  0.49350600  0.67529000  0.92308300  1
  O  O82  1  0.42308300  0.00649400  0.32471000  1
  O  O83  1  0.54837300  0.70162700  0.12500000  1
  O  O84  1  0.09982800  0.25475500  0.59618200  1
  O  O85  1  0.17529000  0.57691700  0.50649400  1
  O  O86  1  0.40017200  0.74524500  0.09618200  1
  O  O87  1  0.57691700  0.50649400  0.17529000  1
  O  O88  1  0.65017200  0.84618200  0.00475500  1
  O  O89  1  0.62500000  0.95162700  0.29837300  1
  O  O90  1  0.56448100  0.95375000  0.60014600  1
  O  O91  1  0.86997300  0.32646500  0.34278400  1
  O  O92  1  0.15381800  0.50475500  0.84982800  1
  O  O93  1  0.87500000  0.04837300  0.79837300  1
  O  O94  1  0.38002700  0.90721600  0.92353500  1
  O  O95  1  0.50649400  0.17529000  0.57691700  1
  O  O96  1  0.36997300  0.17353500  0.65721600  1
  O  O97  1  0.60014600  0.56448100  0.95375000  1
  O  O98  1  0.89985400  0.43551900  0.45375000  1
  O  O99  1  0.15721600  0.13002700  0.82646500  1
  O  O100  1  0.63002700  0.67353500  0.84278400  1
  O  O101  1  0.40721600  0.57646500  0.61997300  1
  O  O102  1  0.99350600  0.82471000  0.07691700  1
  O  O103  1  0.67529000  0.92308300  0.49350600  1
  O  O104  1  0.61997300  0.40721600  0.57646500  1
  O  O105  1  0.34982800  0.34618200  0.49524500  1
  O  O106  1  0.04837300  0.79837300  0.87500000  1
  O  O107  1  0.07691700  0.99350600  0.82471000  1
  O  O108  1  0.90721600  0.92353500  0.38002700  1
  O  O109  1  0.82471000  0.07691700  0.99350600  1
  O  O110  1  0.70375000  0.18551900  0.85014600  1
  O  O111  1  0.93551900  0.04625000  0.10014600  1
  O  O112  1  0.82646500  0.15721600  0.13002700  1
  O  O113  1  0.59982800  0.24524500  0.40381800  1
  O  O114  1  0.70162700  0.12500000  0.54837300  1
  O  O115  1  0.34278400  0.86997300  0.32646500  1
  O  O116  1  0.20375000  0.31448100  0.14985400  1
  O  O117  1  0.18551900  0.85014600  0.70375000  1
  O  O118  1  0.64985400  0.29625000  0.68551900  1
  O  O119  1  0.45162700  0.20162700  0.37500000  1
  O  O120  1  0.11997300  0.09278400  0.42353500  1
  O  O121  1  0.75649400  0.32691700  0.57471000  1
  O  O122  1  0.99524500  0.15017200  0.65381800  1
  O  O123  1  0.29625000  0.68551900  0.64985400  1
  O  O124  1  0.00475500  0.65017200  0.84618200  1
  O  O125  1  0.50475500  0.84982800  0.15381800  1
  O  O126  1  0.34618200  0.49524500  0.34982800  1
  O  O127  1  0.54625000  0.39985400  0.06448100  1
  O  O128  1  0.79837300  0.87500000  0.04837300  1
  O  O129  1  0.12500000  0.54837300  0.70162700  1
  O  O130  1  0.90381800  0.90017200  0.75475500  1
  O  O131  1  0.92308300  0.49350600  0.67529000  1
  O  O132  1  0.90017200  0.75475500  0.90381800  1
  O  O133  1  0.85014600  0.70375000  0.18551900  1
  O  O134  1  0.65721600  0.36997300  0.17353500  1
  O  O135  1  0.35014600  0.79625000  0.81448100  1
  O  O136  1  0.74350600  0.67308300  0.07471000  1
  O  O137  1  0.20162700  0.37500000  0.45162700  1
  O  O138  1  0.82691700  0.92529000  0.24350600  1
  O  O139  1  0.17353500  0.65721600  0.36997300  1
  O  O140  1  0.14985400  0.20375000  0.31448100  1
  O  O141  1  0.67353500  0.84278400  0.63002700  1
  O  O142  1  0.29837300  0.62500000  0.95162700  1
  O  O143  1  0.43551900  0.45375000  0.89985400  1
  O  O144  1  0.59618200  0.09982800  0.25475500  1
  O  O145  1  0.88002700  0.59278400  0.07646500  1
  O  O146  1  0.74524500  0.09618200  0.40017200  1
  O  O147  1  0.31448100  0.14985400  0.20375000  1
  O  O148  1  0.92353500  0.38002700  0.90721600  1
  O  O149  1  0.68551900  0.64985400  0.29625000  1
  O  O150  1  0.24350600  0.82691700  0.92529000  1
  O  O151  1  0.95162700  0.29837300  0.62500000  1
  O  O152  1  0.75475500  0.90381800  0.90017200  1
  O  O153  1  0.57471000  0.75649400  0.32691700  1
  O  O154  1  0.65381800  0.99524500  0.15017200  1
  O  O155  1  0.25475500  0.59618200  0.09982800  1
  O  O156  1  0.09618200  0.40017200  0.74524500  1
  O  O157  1  0.32471000  0.42308300  0.00649400  1
  O  O158  1  0.25649400  0.17308300  0.42529000  1
  O  O159  1  0.04625000  0.10014600  0.93551900  1
  O  O160  1  0.32646500  0.34278400  0.86997300  1
  O  O161  1  0.84618200  0.00475500  0.65017200  1
  O  O162  1  0.07646500  0.88002700  0.59278400  1
  O  O163  1  0.10014600  0.93551900  0.04625000  1
