# generated using pymatgen
data_Sn14Sb11Pt8
_symmetry_space_group_name_H-M   'P 1'
_cell_length_a   9.50132600
_cell_length_b   9.52146005
_cell_length_c   9.58067218
_cell_angle_alpha   90.26914332
_cell_angle_beta   90.29449769
_cell_angle_gamma   90.22596528
_symmetry_Int_Tables_number   1
_chemical_formula_structural   Sn14Sb11Pt8
_chemical_formula_sum   'Sn14 Sb11 Pt8'
_cell_volume   866.70200527
_cell_formula_units_Z   1
loop_
 _symmetry_equiv_pos_site_id
 _symmetry_equiv_pos_as_xyz
  1  'x, y, z'
loop_
 _atom_site_type_symbol
 _atom_site_label
 _atom_site_symmetry_multiplicity
 _atom_site_fract_x
 _atom_site_fract_y
 _atom_site_fract_z
 _atom_site_occupancy
  Sn  Sn0  1  0.15397300  0.33443300  0.99938800  1
  Sn  Sn1  1  0.65122900  0.16105500  0.49639400  1
  Sn  Sn2  1  0.33668800  0.84159700  0.49831300  1
  Sn  Sn3  1  0.33723000  0.99707100  0.84989800  1
  Sn  Sn4  1  0.66350600  0.99691800  0.15291700  1
  Sn  Sn5  1  0.49650300  0.66376900  0.86001500  1
  Sn  Sn6  1  0.50032000  0.65195900  0.16760600  1
  Sn  Sn7  1  0.15397500  0.49609200  0.65458500  1
  Sn  Sn8  1  0.66483700  0.85074400  0.49254000  1
  Sn  Sn9  1  0.84009100  0.49470000  0.65483900  1
  Sn  Sn10  1  0.52031600  0.56759600  0.55972300  1
  Sn  Sn11  1  0.84666000  0.33669100  0.99846400  1
  Sn  Sn12  1  0.00046200  0.84753100  0.33713200  1
  Sn  Sn13  1  0.99842800  0.15327500  0.33650900  1
  Sb  Sb14  1  0.99748900  0.84528000  0.64965600  1
  Sb  Sb15  1  0.15358000  0.64822600  0.99679100  1
  Sb  Sb16  1  0.84641600  0.49804800  0.34513600  1
  Sb  Sb17  1  0.49826900  0.34331700  0.84315000  1
  Sb  Sb18  1  0.84514600  0.64980800  0.99562200  1
  Sb  Sb19  1  0.65172600  0.99638200  0.84591700  1
  Sb  Sb20  1  0.34721700  0.99621500  0.15585900  1
  Sb  Sb21  1  0.50030600  0.34486600  0.15491800  1
  Sb  Sb22  1  0.15954900  0.49743400  0.34685800  1
  Sb  Sb23  1  0.34400500  0.15304400  0.50044800  1
  Sb  Sb24  1  0.99669200  0.15593900  0.65092100  1
  Pt  Pt25  1  0.25215100  0.24811100  0.25014900  1
  Pt  Pt26  1  0.24486600  0.74843900  0.74997400  1
  Pt  Pt27  1  0.24902600  0.24615700  0.74923900  1
  Pt  Pt28  1  0.24662800  0.74678700  0.24620700  1
  Pt  Pt29  1  0.74644800  0.24430800  0.75022200  1
  Pt  Pt30  1  0.75479000  0.74507100  0.24499200  1
  Pt  Pt31  1  0.74821300  0.25143800  0.24782300  1
  Pt  Pt32  1  0.74846500  0.74829800  0.74759500  1
