# generated using pymatgen
data_KLiBeF4
_symmetry_space_group_name_H-M   'P 1'
_cell_length_a   5.13905459
_cell_length_b   5.13905459
_cell_length_c   8.74568500
_cell_angle_alpha   90.00000000
_cell_angle_beta   90.00000000
_cell_angle_gamma   120.00000763
_symmetry_Int_Tables_number   1
_chemical_formula_structural   KLiBeF4
_chemical_formula_sum   'K2 Li2 Be2 F8'
_cell_volume   200.02804569
_cell_formula_units_Z   2
loop_
 _symmetry_equiv_pos_site_id
 _symmetry_equiv_pos_as_xyz
  1  'x, y, z'
loop_
 _atom_site_type_symbol
 _atom_site_label
 _atom_site_symmetry_multiplicity
 _atom_site_fract_x
 _atom_site_fract_y
 _atom_site_fract_z
 _atom_site_occupancy
  K  K0  1  0.00000000  0.00000000  0.49815700  1
  K  K1  1  0.00000000  0.00000000  0.99815700  1
  Li  Li2  1  0.66666700  0.33333300  0.30320200  1
  Li  Li3  1  0.33333300  0.66666700  0.80320200  1
  Be  Be4  1  0.33333300  0.66666700  0.19549400  1
  Be  Be5  1  0.66666700  0.33333300  0.69549400  1
  F  F6  1  0.62064000  0.66256500  0.25098700  1
  F  F7  1  0.66256500  0.04192500  0.75098700  1
  F  F8  1  0.33333300  0.66666700  0.01618700  1
  F  F9  1  0.66666700  0.33333300  0.51618700  1
  F  F10  1  0.33743500  0.95807500  0.25098700  1
  F  F11  1  0.37936000  0.33743500  0.75098700  1
  F  F12  1  0.95807500  0.62064000  0.75098700  1
  F  F13  1  0.04192500  0.37936000  0.25098700  1
