# generated using pymatgen
data_K17In41
_symmetry_space_group_name_H-M   'P 1'
_cell_length_a   17.34702781
_cell_length_b   17.34702781
_cell_length_c   17.34702781
_cell_angle_alpha   60.00000000
_cell_angle_beta   60.00000000
_cell_angle_gamma   60.00000000
_symmetry_Int_Tables_number   1
_chemical_formula_structural   K17In41
_chemical_formula_sum   'K34 In82'
_cell_volume   3691.13752560
_cell_formula_units_Z   2
loop_
 _symmetry_equiv_pos_site_id
 _symmetry_equiv_pos_as_xyz
  1  'x, y, z'
loop_
 _atom_site_type_symbol
 _atom_site_label
 _atom_site_symmetry_multiplicity
 _atom_site_fract_x
 _atom_site_fract_y
 _atom_site_fract_z
 _atom_site_occupancy
  K  K0  1  0.40213700  0.40213700  0.40213700  1
  K  K1  1  0.87834900  0.24552300  0.63060500  1
  K  K2  1  0.24552300  0.87834900  0.63060500  1
  K  K3  1  0.87834900  0.63060500  0.24552300  1
  K  K4  1  0.37165100  0.00447700  0.61939500  1
  K  K5  1  0.87834900  0.24552300  0.24552300  1
  K  K6  1  0.40213700  0.79359000  0.40213700  1
  K  K7  1  0.24552300  0.63060500  0.87834900  1
  K  K8  1  0.75000000  0.75000000  0.75000000  1
  K  K9  1  0.40213700  0.40213700  0.79359000  1
  K  K10  1  0.45641000  0.84786300  0.84786300  1
  K  K11  1  0.00447700  0.37165100  0.61939500  1
  K  K12  1  0.00447700  0.61939500  0.00447700  1
  K  K13  1  0.24552300  0.87834900  0.24552300  1
  K  K14  1  0.84786300  0.45641000  0.84786300  1
  K  K15  1  0.00447700  0.37165100  0.00447700  1
  K  K16  1  0.84786300  0.84786300  0.84786300  1
  K  K17  1  0.37165100  0.00447700  0.00447700  1
  K  K18  1  0.63060500  0.24552300  0.24552300  1
  K  K19  1  0.84786300  0.84786300  0.45641000  1
  K  K20  1  0.37165100  0.61939500  0.00447700  1
  K  K21  1  0.00447700  0.00447700  0.61939500  1
  K  K22  1  0.63060500  0.87834900  0.24552300  1
  K  K23  1  0.00447700  0.00447700  0.37165100  1
  K  K24  1  0.24552300  0.24552300  0.63060500  1
  K  K25  1  0.61939500  0.00447700  0.37165100  1
  K  K26  1  0.61939500  0.00447700  0.00447700  1
  K  K27  1  0.24552300  0.24552300  0.87834900  1
  K  K28  1  0.63060500  0.24552300  0.87834900  1
  K  K29  1  0.61939500  0.37165100  0.00447700  1
  K  K30  1  0.24552300  0.63060500  0.24552300  1
  K  K31  1  0.50000000  0.50000000  0.50000000  1
  K  K32  1  0.00447700  0.61939500  0.37165100  1
  K  K33  1  0.79359000  0.40213700  0.40213700  1
  In  In34  1  0.61731800  0.96808500  0.79727900  1
  In  In35  1  0.04726400  0.22446800  0.86413400  1
  In  In36  1  0.08683200  0.43406900  0.73954900  1
  In  In37  1  0.51045100  0.16316800  0.51045100  1
  In  In38  1  0.02553200  0.20273600  0.38586600  1
  In  In39  1  0.08683200  0.73954900  0.73954900  1
  In  In40  1  0.45272100  0.28191500  0.63268200  1
  In  In41  1  0.45272100  0.63268200  0.63268200  1
  In  In42  1  0.08683200  0.73954900  0.43406900  1
  In  In43  1  0.38586600  0.38586600  0.02553200  1
  In  In44  1  0.86413400  0.04726400  0.86413400  1
  In  In45  1  0.22446800  0.04726400  0.86413400  1
  In  In46  1  0.63268200  0.45272100  0.28191500  1
  In  In47  1  0.61731800  0.79727900  0.61731800  1
  In  In48  1  0.04726400  0.86413400  0.86413400  1
  In  In49  1  0.86413400  0.22446800  0.86413400  1
  In  In50  1  0.61731800  0.61731800  0.79727900  1
  In  In51  1  0.43406900  0.73954900  0.73954900  1
  In  In52  1  0.79727900  0.61731800  0.96808500  1
  In  In53  1  0.16929900  0.16929900  0.49210300  1
  In  In54  1  0.96808500  0.61731800  0.79727900  1
  In  In55  1  0.81593100  0.51045100  0.16316800  1
  In  In56  1  0.81593100  0.16316800  0.51045100  1
  In  In57  1  0.73954900  0.08683200  0.43406900  1
  In  In58  1  0.63268200  0.63268200  0.28191500  1
  In  In59  1  0.22446800  0.86413400  0.04726400  1
  In  In60  1  0.79727900  0.96808500  0.61731800  1
  In  In61  1  0.20273600  0.02553200  0.38586600  1
  In  In62  1  0.38586600  0.38586600  0.20273600  1
  In  In63  1  0.96808500  0.79727900  0.61731800  1
  In  In64  1  0.04726400  0.86413400  0.22446800  1
  In  In65  1  0.20273600  0.38586600  0.02553200  1
  In  In66  1  0.00000000  0.00000000  0.00000000  1
  In  In67  1  0.38586600  0.20273600  0.02553200  1
  In  In68  1  0.38586600  0.20273600  0.38586600  1
  In  In69  1  0.51045100  0.51045100  0.81593100  1
  In  In70  1  0.28191500  0.63268200  0.63268200  1
  In  In71  1  0.43406900  0.08683200  0.73954900  1
  In  In72  1  0.73954900  0.43406900  0.73954900  1
  In  In73  1  0.51045100  0.16316800  0.81593100  1
  In  In74  1  0.16316800  0.81593100  0.51045100  1
  In  In75  1  0.38586600  0.02553200  0.20273600  1
  In  In76  1  0.28191500  0.63268200  0.45272100  1
  In  In77  1  0.86413400  0.22446800  0.04726400  1
  In  In78  1  0.61731800  0.61731800  0.96808500  1
  In  In79  1  0.63268200  0.28191500  0.45272100  1
  In  In80  1  0.51045100  0.81593100  0.16316800  1
  In  In81  1  0.22446800  0.86413400  0.86413400  1
  In  In82  1  0.16316800  0.51045100  0.51045100  1
  In  In83  1  0.08070100  0.75789700  0.08070100  1
  In  In84  1  0.73954900  0.73954900  0.43406900  1
  In  In85  1  0.73954900  0.43406900  0.08683200  1
  In  In86  1  0.51045100  0.81593100  0.51045100  1
  In  In87  1  0.49210300  0.16929900  0.16929900  1
  In  In88  1  0.02553200  0.38586600  0.20273600  1
  In  In89  1  0.61731800  0.96808500  0.61731800  1
  In  In90  1  0.43406900  0.73954900  0.08683200  1
  In  In91  1  0.25000000  0.25000000  0.25000000  1
  In  In92  1  0.20273600  0.38586600  0.38586600  1
  In  In93  1  0.16929900  0.49210300  0.16929900  1
  In  In94  1  0.73954900  0.08683200  0.73954900  1
  In  In95  1  0.45272100  0.63268200  0.28191500  1
  In  In96  1  0.16316800  0.51045100  0.81593100  1
  In  In97  1  0.81593100  0.51045100  0.51045100  1
  In  In98  1  0.02553200  0.38586600  0.38586600  1
  In  In99  1  0.75789700  0.08070100  0.08070100  1
  In  In100  1  0.08070100  0.08070100  0.08070100  1
  In  In101  1  0.16929900  0.16929900  0.16929900  1
  In  In102  1  0.63268200  0.45272100  0.63268200  1
  In  In103  1  0.08070100  0.08070100  0.75789700  1
  In  In104  1  0.73954900  0.73954900  0.08683200  1
  In  In105  1  0.96808500  0.61731800  0.61731800  1
  In  In106  1  0.86413400  0.04726400  0.22446800  1
  In  In107  1  0.86413400  0.86413400  0.22446800  1
  In  In108  1  0.51045100  0.51045100  0.16316800  1
  In  In109  1  0.28191500  0.45272100  0.63268200  1
  In  In110  1  0.86413400  0.86413400  0.04726400  1
  In  In111  1  0.63268200  0.63268200  0.45272100  1
  In  In112  1  0.79727900  0.61731800  0.61731800  1
  In  In113  1  0.38586600  0.02553200  0.38586600  1
  In  In114  1  0.61731800  0.79727900  0.96808500  1
  In  In115  1  0.63268200  0.28191500  0.63268200  1
