# generated using pymatgen
data_Cs2Zr(SiO3)3
_symmetry_space_group_name_H-M   'P 1'
_cell_length_a   7.33231160
_cell_length_b   7.33231160
_cell_length_c   10.43867100
_cell_angle_alpha   90.00000000
_cell_angle_beta   90.00000000
_cell_angle_gamma   119.99999640
_symmetry_Int_Tables_number   1
_chemical_formula_structural   Cs2Zr(SiO3)3
_chemical_formula_sum   'Cs4 Zr2 Si6 O18'
_cell_volume   486.02396398
_cell_formula_units_Z   2
loop_
 _symmetry_equiv_pos_site_id
 _symmetry_equiv_pos_as_xyz
  1  'x, y, z'
loop_
 _atom_site_type_symbol
 _atom_site_label
 _atom_site_symmetry_multiplicity
 _atom_site_fract_x
 _atom_site_fract_y
 _atom_site_fract_z
 _atom_site_occupancy
  Cs  Cs0  1  0.33333300  0.66666700  0.43633300  1
  Cs  Cs1  1  0.66666700  0.33333300  0.93633300  1
  Cs  Cs2  1  0.66666700  0.33333300  0.56366700  1
  Cs  Cs3  1  0.33333300  0.66666700  0.06366700  1
  Zr  Zr4  1  0.00000000  0.00000000  0.50000000  1
  Zr  Zr5  1  0.00000000  0.00000000  0.00000000  1
  Si  Si6  1  0.61016000  0.76457900  0.75000000  1
  Si  Si7  1  0.84558100  0.61016000  0.25000000  1
  Si  Si8  1  0.76457900  0.15441900  0.25000000  1
  Si  Si9  1  0.23542100  0.84558100  0.75000000  1
  Si  Si10  1  0.15441900  0.38984000  0.75000000  1
  Si  Si11  1  0.38984000  0.23542100  0.25000000  1
  O  O12  1  0.26024600  0.19698900  0.38203000  1
  O  O13  1  0.06325700  0.26024600  0.88203000  1
  O  O14  1  0.19698900  0.93674300  0.88203000  1
  O  O15  1  0.80301100  0.06325700  0.38203000  1
  O  O16  1  0.93674300  0.73975400  0.38203000  1
  O  O17  1  0.73975400  0.80301100  0.88203000  1
  O  O18  1  0.73975400  0.80301100  0.61797000  1
  O  O19  1  0.93674300  0.73975400  0.11797000  1
  O  O20  1  0.80301100  0.06325700  0.11797000  1
  O  O21  1  0.19698900  0.93674300  0.61797000  1
  O  O22  1  0.06325700  0.26024600  0.61797000  1
  O  O23  1  0.26024600  0.19698900  0.11797000  1
  O  O24  1  0.51173600  0.09470400  0.25000000  1
  O  O25  1  0.41703100  0.51173600  0.75000000  1
  O  O26  1  0.09470400  0.58296900  0.75000000  1
  O  O27  1  0.90529600  0.41703100  0.25000000  1
  O  O28  1  0.58296900  0.48826400  0.25000000  1
  O  O29  1  0.48826400  0.90529600  0.75000000  1
