# generated using pymatgen
data_Sr2B8Ru7
_symmetry_space_group_name_H-M   'P 1'
_cell_length_a   6.46735100
_cell_length_b   6.46735100
_cell_length_c   10.21333500
_cell_angle_alpha   90.00000000
_cell_angle_beta   90.00000000
_cell_angle_gamma   90.00000000
_symmetry_Int_Tables_number   1
_chemical_formula_structural   Sr2B8Ru7
_chemical_formula_sum   'Sr4 B16 Ru14'
_cell_volume   427.18937346
_cell_formula_units_Z   2
loop_
 _symmetry_equiv_pos_site_id
 _symmetry_equiv_pos_as_xyz
  1  'x, y, z'
loop_
 _atom_site_type_symbol
 _atom_site_label
 _atom_site_symmetry_multiplicity
 _atom_site_fract_x
 _atom_site_fract_y
 _atom_site_fract_z
 _atom_site_occupancy
  Sr  Sr0  1  0.73182700  0.89052800  0.00000000  1
  Sr  Sr1  1  0.10947200  0.73182700  0.50000000  1
  Sr  Sr2  1  0.89052800  0.26817300  0.50000000  1
  Sr  Sr3  1  0.26817300  0.10947200  0.00000000  1
  B  B4  1  0.50000000  0.00000000  0.58855900  1
  B  B5  1  0.50000000  0.00000000  0.41144100  1
  B  B6  1  0.89778800  0.27593400  0.16901900  1
  B  B7  1  0.10221200  0.72406600  0.83098100  1
  B  B8  1  0.50000000  0.50000000  0.34071100  1
  B  B9  1  0.50000000  0.50000000  0.84071100  1
  B  B10  1  0.27593400  0.10221200  0.66901900  1
  B  B11  1  0.10221200  0.72406600  0.16901900  1
  B  B12  1  0.27593400  0.10221200  0.33098100  1
  B  B13  1  0.89778800  0.27593400  0.83098100  1
  B  B14  1  0.50000000  0.50000000  0.65928900  1
  B  B15  1  0.50000000  0.50000000  0.15928900  1
  B  B16  1  0.00000000  0.50000000  0.91144100  1
  B  B17  1  0.72406600  0.89778800  0.66901900  1
  B  B18  1  0.72406600  0.89778800  0.33098100  1
  B  B19  1  0.00000000  0.50000000  0.08855900  1
  Ru  Ru20  1  0.20568300  0.39439400  0.75618200  1
  Ru  Ru21  1  0.40654300  0.28744500  0.50000000  1
  Ru  Ru22  1  0.39439400  0.79431700  0.25618200  1
  Ru  Ru23  1  0.20568300  0.39439400  0.24381800  1
  Ru  Ru24  1  0.59345700  0.71255500  0.50000000  1
  Ru  Ru25  1  0.60560600  0.20568300  0.74381800  1
  Ru  Ru26  1  0.28744500  0.59345700  0.00000000  1
  Ru  Ru27  1  0.71255500  0.40654300  0.00000000  1
  Ru  Ru28  1  0.79431700  0.60560600  0.24381800  1
  Ru  Ru29  1  0.79431700  0.60560600  0.75618200  1
  Ru  Ru30  1  0.39439400  0.79431700  0.74381800  1
  Ru  Ru31  1  0.00000000  0.00000000  0.25000000  1
  Ru  Ru32  1  0.60560600  0.20568300  0.25618200  1
  Ru  Ru33  1  0.00000000  0.00000000  0.75000000  1
