# generated using pymatgen
data_Er7C2I12N
_symmetry_space_group_name_H-M   'P 1'
_cell_length_a   9.85320200
_cell_length_b   10.49820152
_cell_length_c   16.86332982
_cell_angle_alpha   101.41634708
_cell_angle_beta   93.01119882
_cell_angle_gamma   112.90933962
_symmetry_Int_Tables_number   1
_chemical_formula_structural   Er7C2I12N
_chemical_formula_sum   'Er14 C4 I24 N2'
_cell_volume   1558.67135378
_cell_formula_units_Z   2
loop_
 _symmetry_equiv_pos_site_id
 _symmetry_equiv_pos_as_xyz
  1  'x, y, z'
loop_
 _atom_site_type_symbol
 _atom_site_label
 _atom_site_symmetry_multiplicity
 _atom_site_fract_x
 _atom_site_fract_y
 _atom_site_fract_z
 _atom_site_occupancy
  Er  Er0  1  0.45338900  0.74806100  0.80923500  1
  Er  Er1  1  0.47960400  0.56692300  0.32073800  1
  Er  Er2  1  0.66188800  0.54330700  0.88531300  1
  Er  Er3  1  0.06451400  0.43110400  0.26363100  1
  Er  Er4  1  0.93548600  0.56889600  0.73636900  1
  Er  Er5  1  0.28241000  0.24303700  0.34980300  1
  Er  Er6  1  0.52039600  0.43307700  0.67926200  1
  Er  Er7  1  0.63989900  0.45221900  0.48085900  1
  Er  Er8  1  0.86580700  0.88220200  0.85522500  1
  Er  Er9  1  0.36010100  0.54778100  0.51914100  1
  Er  Er10  1  0.33811200  0.45669300  0.11468700  1
  Er  Er11  1  0.71759000  0.75696300  0.65019700  1
  Er  Er12  1  0.13419300  0.11779800  0.14477500  1
  Er  Er13  1  0.54661100  0.25193900  0.19076500  1
  C  C14  1  0.75624600  0.63784000  0.76598900  1
  C  C15  1  0.63509800  0.67978800  0.78394200  1
  C  C16  1  0.36490200  0.32021200  0.21605800  1
  C  C17  1  0.24375400  0.36216000  0.23401100  1
  I  I18  1  0.04815600  0.94315700  0.26845400  1
  I  I19  1  0.12519100  0.19884000  0.98172600  1
  I  I20  1  0.56240700  0.74903500  0.19675900  1
  I  I21  1  0.72850100  0.29036000  0.60999100  1
  I  I22  1  0.60850400  0.39907200  0.04978200  1
  I  I23  1  0.21140300  0.46777100  0.68773400  1
  I  I24  1  0.29590700  0.17824300  0.53013400  1
  I  I25  1  0.02861000  0.31951800  0.42439600  1
  I  I26  1  0.45698000  0.85698300  0.65008000  1
  I  I27  1  0.97139000  0.68048200  0.57560400  1
  I  I28  1  0.70409300  0.82175700  0.46986600  1
  I  I29  1  0.54302000  0.14301700  0.34992000  1
  I  I30  1  0.90631600  0.42897600  0.87446100  1
  I  I31  1  0.27149900  0.70964000  0.39000900  1
  I  I32  1  0.78859700  0.53222900  0.31226600  1
  I  I33  1  0.66001200  0.02712100  0.91159300  1
  I  I34  1  0.09368400  0.57102400  0.12553900  1
  I  I35  1  0.39149600  0.60092800  0.95021800  1
  I  I36  1  0.87480900  0.80116000  0.01827400  1
  I  I37  1  0.17422000  0.84700600  0.83616200  1
  I  I38  1  0.33998800  0.97287900  0.08840700  1
  I  I39  1  0.95184400  0.05684300  0.73154600  1
  I  I40  1  0.43759300  0.25096500  0.80324100  1
  I  I41  1  0.82578000  0.15299400  0.16383800  1
  N  N42  1  0.44113000  0.45170400  0.41579900  1
  N  N43  1  0.55887000  0.54829600  0.58420100  1
