# generated using pymatgen
data_SrLaTl(AsO4)2
_symmetry_space_group_name_H-M   'P 1'
_cell_length_a   7.48540175
_cell_length_b   7.48540175
_cell_length_c   13.80521400
_cell_angle_alpha   90.00000000
_cell_angle_beta   90.00000000
_cell_angle_gamma   119.99999778
_symmetry_Int_Tables_number   1
_chemical_formula_structural   SrLaTl(AsO4)2
_chemical_formula_sum   'Sr3 La3 Tl3 As6 O24'
_cell_volume   669.89079977
_cell_formula_units_Z   3
loop_
 _symmetry_equiv_pos_site_id
 _symmetry_equiv_pos_as_xyz
  1  'x, y, z'
loop_
 _atom_site_type_symbol
 _atom_site_label
 _atom_site_symmetry_multiplicity
 _atom_site_fract_x
 _atom_site_fract_y
 _atom_site_fract_z
 _atom_site_occupancy
  Sr  Sr0  1  0.50348700  0.99974400  0.41490300  1
  Sr  Sr1  1  0.49625700  0.49651300  0.74823600  1
  Sr  Sr2  1  0.00025600  0.50374300  0.08156900  1
  La  La3  1  0.50044000  0.00064100  0.91775600  1
  La  La4  1  0.50020100  0.49956000  0.25108900  1
  La  La5  1  0.99935900  0.49979900  0.58442300  1
  Tl  Tl6  1  0.00270600  0.01312900  0.14064700  1
  Tl  Tl7  1  0.01042300  0.99729400  0.47398000  1
  Tl  Tl8  1  0.98687100  0.98957700  0.80731300  1
  As  As9  1  0.48996000  0.00030200  0.16348300  1
  As  As10  1  0.48883200  0.99999900  0.66992600  1
  As  As11  1  0.51116700  0.51116800  0.00325900  1
  As  As12  1  0.51034200  0.51004000  0.49681600  1
  As  As13  1  0.00000100  0.48883300  0.33659200  1
  As  As14  1  0.99969800  0.48965800  0.83015000  1
  O  O15  1  0.14044300  0.69703500  0.41160300  1
  O  O16  1  0.15239500  0.69827100  0.90280900  1
  O  O17  1  0.29253900  0.87589700  0.08045300  1
  O  O18  1  0.28650200  0.86419400  0.59022300  1
  O  O19  1  0.13580600  0.42230800  0.25689000  1
  O  O20  1  0.12410300  0.41664200  0.74712000  1
  O  O21  1  0.30172900  0.45412400  0.56947600  1
  O  O22  1  0.30296500  0.44340800  0.07826900  1
  O  O23  1  0.54587600  0.84760500  0.23614200  1
  O  O24  1  0.55659200  0.85955700  0.74493600  1
  O  O25  1  0.58335800  0.70746100  0.41378700  1
  O  O26  1  0.57769200  0.71349800  0.92355600  1
  O  O27  1  0.44291300  0.30155300  0.42226400  1
  O  O28  1  0.45922700  0.30388600  0.93033000  1
  O  O29  1  0.41896500  0.13398100  0.24198600  1
  O  O30  1  0.41597800  0.12390100  0.75351800  1
  O  O31  1  0.70792300  0.58402200  0.08685200  1
  O  O32  1  0.71501600  0.58103500  0.57531900  1
  O  O33  1  0.84465900  0.54077300  0.26366400  1
  O  O34  1  0.85864100  0.55708700  0.75559800  1
  O  O35  1  0.69844700  0.14135900  0.08893100  1
  O  O36  1  0.69611400  0.15534100  0.59699700  1
  O  O37  1  0.87609900  0.29207700  0.42018500  1
  O  O38  1  0.86601900  0.28498400  0.90865200  1
