# generated using pymatgen
data_K3Ga13
_symmetry_space_group_name_H-M   'P 1'
_cell_length_a   8.81380055
_cell_length_b   8.81380055
_cell_length_c   28.90405500
_cell_angle_alpha   90.00000000
_cell_angle_beta   90.00000000
_cell_angle_gamma   136.54696396
_symmetry_Int_Tables_number   1
_chemical_formula_structural   K3Ga13
_chemical_formula_sum   'K12 Ga52'
_cell_volume   1544.26554715
_cell_formula_units_Z   4
loop_
 _symmetry_equiv_pos_site_id
 _symmetry_equiv_pos_as_xyz
  1  'x, y, z'
loop_
 _atom_site_type_symbol
 _atom_site_label
 _atom_site_symmetry_multiplicity
 _atom_site_fract_x
 _atom_site_fract_y
 _atom_site_fract_z
 _atom_site_occupancy
  K  K0  1  0.78664000  0.21336000  0.08673100  1
  K  K1  1  0.01155400  0.98844600  0.13840800  1
  K  K2  1  0.63829500  0.36170500  0.18059000  1
  K  K3  1  0.01155400  0.98844600  0.36159200  1
  K  K4  1  0.78664000  0.21336000  0.41326900  1
  K  K5  1  0.98844600  0.01155400  0.63840800  1
  K  K6  1  0.63829500  0.36170500  0.31941000  1
  K  K7  1  0.98844600  0.01155400  0.86159200  1
  K  K8  1  0.36170500  0.63829500  0.68059000  1
  K  K9  1  0.36170500  0.63829500  0.81941000  1
  K  K10  1  0.21336000  0.78664000  0.58673100  1
  K  K11  1  0.21336000  0.78664000  0.91326900  1
  Ga  Ga12  1  0.14321400  0.24439600  0.03494400  1
  Ga  Ga13  1  0.24439600  0.14321400  0.53494400  1
  Ga  Ga14  1  0.14321400  0.24439600  0.46505600  1
  Ga  Ga15  1  0.24439600  0.14321400  0.96505600  1
  Ga  Ga16  1  0.03072900  0.37024000  0.29664600  1
  Ga  Ga17  1  0.03072900  0.37024000  0.20335400  1
  Ga  Ga18  1  0.37024000  0.03072900  0.70335400  1
  Ga  Ga19  1  0.37024000  0.03072900  0.79664600  1
  Ga  Ga20  1  0.25830400  0.31658700  0.25000000  1
  Ga  Ga21  1  0.31658700  0.25830400  0.75000000  1
  Ga  Ga22  1  0.40545500  0.18720400  0.04752600  1
  Ga  Ga23  1  0.40545500  0.18720400  0.45247400  1
  Ga  Ga24  1  0.18720400  0.40545500  0.54752600  1
  Ga  Ga25  1  0.18720400  0.40545500  0.95247400  1
  Ga  Ga26  1  0.42805800  0.57194200  0.17163100  1
  Ga  Ga27  1  0.34152500  0.65847500  0.03109500  1
  Ga  Ga28  1  0.20128400  0.79871600  0.07215700  1
  Ga  Ga29  1  0.48258200  0.51741800  0.08935400  1
  Ga  Ga30  1  0.65847500  0.34152500  0.53109500  1
  Ga  Ga31  1  0.25933300  0.74066700  0.15612900  1
  Ga  Ga32  1  0.34152500  0.65847500  0.46890500  1
  Ga  Ga33  1  0.25933300  0.74066700  0.34387100  1
  Ga  Ga34  1  0.48258200  0.51741800  0.41064600  1
  Ga  Ga35  1  0.57194200  0.42805800  0.67163100  1
  Ga  Ga36  1  0.20128400  0.79871600  0.42784300  1
  Ga  Ga37  1  0.51741800  0.48258200  0.58935400  1
  Ga  Ga38  1  0.07882200  0.92117800  0.25000000  1
  Ga  Ga39  1  0.79871600  0.20128400  0.57215700  1
  Ga  Ga40  1  0.74066700  0.25933300  0.65612900  1
  Ga  Ga41  1  0.92117800  0.07882200  0.75000000  1
  Ga  Ga42  1  0.42805800  0.57194200  0.32836900  1
  Ga  Ga43  1  0.76788300  0.23211700  0.75000000  1
  Ga  Ga44  1  0.57194200  0.42805800  0.82836900  1
  Ga  Ga45  1  0.74066700  0.25933300  0.84387100  1
  Ga  Ga46  1  0.23211700  0.76788300  0.25000000  1
  Ga  Ga47  1  0.79871600  0.20128400  0.92784300  1
  Ga  Ga48  1  0.65847500  0.34152500  0.96890500  1
  Ga  Ga49  1  0.51741800  0.48258200  0.91064600  1
  Ga  Ga50  1  0.81279600  0.59454500  0.04752600  1
  Ga  Ga51  1  0.59454500  0.81279600  0.54752600  1
  Ga  Ga52  1  0.81279600  0.59454500  0.45247400  1
  Ga  Ga53  1  0.59454500  0.81279600  0.95247400  1
  Ga  Ga54  1  0.68341300  0.74169600  0.25000000  1
  Ga  Ga55  1  0.74169600  0.68341300  0.75000000  1
  Ga  Ga56  1  0.62976000  0.96927100  0.20335400  1
  Ga  Ga57  1  0.62976000  0.96927100  0.29664600  1
  Ga  Ga58  1  0.96927100  0.62976000  0.79664600  1
  Ga  Ga59  1  0.96927100  0.62976000  0.70335400  1
  Ga  Ga60  1  0.75560400  0.85678600  0.03494400  1
  Ga  Ga61  1  0.85678600  0.75560400  0.53494400  1
  Ga  Ga62  1  0.75560400  0.85678600  0.46505600  1
  Ga  Ga63  1  0.85678600  0.75560400  0.96505600  1
