# generated using pymatgen
data_Bi2AuO5
_symmetry_space_group_name_H-M   'P 1'
_cell_length_a   8.75778200
_cell_length_b   8.75778200
_cell_length_c   5.87814900
_cell_angle_alpha   90.00000000
_cell_angle_beta   90.00000000
_cell_angle_gamma   90.00000000
_symmetry_Int_Tables_number   1
_chemical_formula_structural   Bi2AuO5
_chemical_formula_sum   'Bi8 Au4 O20'
_cell_volume   450.84665451
_cell_formula_units_Z   4
loop_
 _symmetry_equiv_pos_site_id
 _symmetry_equiv_pos_as_xyz
  1  'x, y, z'
loop_
 _atom_site_type_symbol
 _atom_site_label
 _atom_site_symmetry_multiplicity
 _atom_site_fract_x
 _atom_site_fract_y
 _atom_site_fract_z
 _atom_site_occupancy
  Bi  Bi0  1  0.35242900  0.64757100  0.25000000  1
  Bi  Bi1  1  0.85242900  0.14757100  0.75000000  1
  Bi  Bi2  1  0.64757100  0.64757100  0.75000000  1
  Bi  Bi3  1  0.64757100  0.35242900  0.25000000  1
  Bi  Bi4  1  0.85242900  0.85242900  0.25000000  1
  Bi  Bi5  1  0.14757100  0.85242900  0.75000000  1
  Bi  Bi6  1  0.35242900  0.35242900  0.75000000  1
  Bi  Bi7  1  0.14757100  0.14757100  0.25000000  1
  Au  Au8  1  0.50000000  0.00000000  0.40643000  1
  Au  Au9  1  0.50000000  0.00000000  0.90643000  1
  Au  Au10  1  0.00000000  0.50000000  0.09357000  1
  Au  Au11  1  0.00000000  0.50000000  0.59357000  1
  O  O12  1  0.08009100  0.28496200  0.60747400  1
  O  O13  1  0.91990900  0.28496200  0.10747400  1
  O  O14  1  0.91990900  0.71503800  0.60747400  1
  O  O15  1  0.71503800  0.91990900  0.89252600  1
  O  O16  1  0.21503800  0.58009100  0.60747400  1
  O  O17  1  0.41990900  0.78496200  0.89252600  1
  O  O18  1  0.41990900  0.21503800  0.39252600  1
  O  O19  1  0.78496200  0.58009100  0.10747400  1
  O  O20  1  0.28496200  0.91990900  0.39252600  1
  O  O21  1  0.58009100  0.21503800  0.89252600  1
  O  O22  1  0.50000000  0.50000000  0.00000000  1
  O  O23  1  0.50000000  0.50000000  0.50000000  1
  O  O24  1  0.78496200  0.41990900  0.60747400  1
  O  O25  1  0.08009100  0.71503800  0.10747400  1
  O  O26  1  0.28496200  0.08009100  0.89252600  1
  O  O27  1  0.58009100  0.78496200  0.39252600  1
  O  O28  1  0.21503800  0.41990900  0.10747400  1
  O  O29  1  0.00000000  0.00000000  0.00000000  1
  O  O30  1  0.00000000  0.00000000  0.50000000  1
  O  O31  1  0.71503800  0.08009100  0.39252600  1
