# generated using pymatgen
data_PH8N3O2
_symmetry_space_group_name_H-M   'P 1'
_cell_length_a   8.50897300
_cell_length_b   6.96105800
_cell_length_c   9.32760911
_cell_angle_alpha   67.73413917
_cell_angle_beta   90.00000000
_cell_angle_gamma   90.00000000
_symmetry_Int_Tables_number   1
_chemical_formula_structural   PH8N3O2
_chemical_formula_sum   'P4 H32 N12 O8'
_cell_volume   511.29195749
_cell_formula_units_Z   4
loop_
 _symmetry_equiv_pos_site_id
 _symmetry_equiv_pos_as_xyz
  1  'x, y, z'
loop_
 _atom_site_type_symbol
 _atom_site_label
 _atom_site_symmetry_multiplicity
 _atom_site_fract_x
 _atom_site_fract_y
 _atom_site_fract_z
 _atom_site_occupancy
  P  P0  1  0.67287300  0.69654100  0.57756400  1
  P  P1  1  0.17287300  0.30345900  0.92243600  1
  P  P2  1  0.32712700  0.30345900  0.42243600  1
  P  P3  1  0.82712700  0.69654100  0.07756400  1
  H  H4  1  0.50498300  0.87781200  0.67232800  1
  H  H5  1  0.00498300  0.12218800  0.82767200  1
  H  H6  1  0.49501700  0.12218800  0.32767200  1
  H  H7  1  0.99501700  0.87781200  0.17232800  1
  H  H8  1  0.54733700  0.37402800  0.26445100  1
  H  H9  1  0.04733700  0.62597200  0.23554900  1
  H  H10  1  0.45266300  0.62597200  0.73554900  1
  H  H11  1  0.95266300  0.37402800  0.76445100  1
  H  H12  1  0.48512600  0.71306700  0.39658300  1
  H  H13  1  0.98512600  0.28693300  0.10341700  1
  H  H14  1  0.51487400  0.28693300  0.60341700  1
  H  H15  1  0.01487400  0.71306700  0.89658300  1
  H  H16  1  0.65703500  0.80231000  0.31166000  1
  H  H17  1  0.15703500  0.19769000  0.18834000  1
  H  H18  1  0.34296500  0.19769000  0.68834000  1
  H  H19  1  0.84296500  0.80231000  0.81166000  1
  H  H20  1  0.67001200  0.33119500  0.84360200  1
  H  H21  1  0.17001200  0.66880500  0.65639800  1
  H  H22  1  0.32998800  0.66880500  0.15639800  1
  H  H23  1  0.82998800  0.33119500  0.34360200  1
  H  H24  1  0.67459500  0.09786800  0.00026900  1
  H  H25  1  0.17459500  0.90213200  0.49973100  1
  H  H26  1  0.32540500  0.90213200  0.99973100  1
  H  H27  1  0.82540500  0.09786800  0.50026900  1
  H  H28  1  0.51459500  0.24911000  0.96283100  1
  H  H29  1  0.01459500  0.75089000  0.53716900  1
  H  H30  1  0.48540500  0.75089000  0.03716900  1
  H  H31  1  0.98540500  0.24911000  0.46283100  1
  H  H32  1  0.68395700  0.33287600  0.02524000  1
  H  H33  1  0.18395700  0.66712400  0.47476000  1
  H  H34  1  0.31604300  0.66712400  0.97476000  1
  H  H35  1  0.81604300  0.33287600  0.52524000  1
  N  N36  1  0.54447000  0.72812800  0.70269200  1
  N  N37  1  0.04447000  0.27187200  0.79730800  1
  N  N38  1  0.45553000  0.27187200  0.29730800  1
  N  N39  1  0.95553000  0.72812800  0.20269200  1
  N  N40  1  0.58523300  0.79286500  0.40249300  1
  N  N41  1  0.08523300  0.20713500  0.09750700  1
  N  N42  1  0.41476700  0.20713500  0.59750700  1
  N  N43  1  0.91476700  0.79286500  0.90249300  1
  N  N44  1  0.63734300  0.25387500  0.95951300  1
  N  N45  1  0.13734300  0.74612500  0.54048700  1
  N  N46  1  0.36265700  0.74612500  0.04048700  1
  N  N47  1  0.86265700  0.25387500  0.45951300  1
  O  O48  1  0.68382900  0.83205300  0.06855100  1
  O  O49  1  0.18382900  0.16794700  0.43144900  1
  O  O50  1  0.31617100  0.16794700  0.93144900  1
  O  O51  1  0.81617100  0.83205300  0.56855100  1
  O  O52  1  0.70676400  0.46309500  0.63384600  1
  O  O53  1  0.20676400  0.53690500  0.86615400  1
  O  O54  1  0.29323600  0.53690500  0.36615400  1
  O  O55  1  0.79323600  0.46309500  0.13384600  1
