# generated using pymatgen
data_Ce10Se19
_symmetry_space_group_name_H-M   'P 1'
_cell_length_a   9.39427300
_cell_length_b   9.39427300
_cell_length_c   16.66787600
_cell_angle_alpha   90.00000000
_cell_angle_beta   90.00000000
_cell_angle_gamma   90.00000000
_symmetry_Int_Tables_number   1
_chemical_formula_structural   Ce10Se19
_chemical_formula_sum   'Ce20 Se38'
_cell_volume   1470.97947984
_cell_formula_units_Z   2
loop_
 _symmetry_equiv_pos_site_id
 _symmetry_equiv_pos_as_xyz
  1  'x, y, z'
loop_
 _atom_site_type_symbol
 _atom_site_label
 _atom_site_symmetry_multiplicity
 _atom_site_fract_x
 _atom_site_fract_y
 _atom_site_fract_z
 _atom_site_occupancy
  Ce  Ce0  1  0.00000000  0.50000000  0.13107800  1
  Ce  Ce1  1  0.19843700  0.89708300  0.14233800  1
  Ce  Ce2  1  0.00000000  0.50000000  0.63107800  1
  Ce  Ce3  1  0.50000000  0.00000000  0.86892200  1
  Ce  Ce4  1  0.10291700  0.19843700  0.85766200  1
  Ce  Ce5  1  0.20709000  0.90095200  0.63005400  1
  Ce  Ce6  1  0.59904800  0.70709000  0.13005400  1
  Ce  Ce7  1  0.80156300  0.10291700  0.14233800  1
  Ce  Ce8  1  0.09904800  0.20709000  0.36994600  1
  Ce  Ce9  1  0.30156300  0.60291700  0.35766200  1
  Ce  Ce10  1  0.90095200  0.79291000  0.36994600  1
  Ce  Ce11  1  0.79291000  0.09904800  0.63005400  1
  Ce  Ce12  1  0.69843700  0.39708300  0.35766200  1
  Ce  Ce13  1  0.60291700  0.69843700  0.64233800  1
  Ce  Ce14  1  0.40095200  0.29291000  0.13005400  1
  Ce  Ce15  1  0.70709000  0.40095200  0.86994600  1
  Ce  Ce16  1  0.50000000  0.00000000  0.36892200  1
  Ce  Ce17  1  0.29291000  0.59904800  0.86994600  1
  Ce  Ce18  1  0.89708300  0.80156300  0.85766200  1
  Ce  Ce19  1  0.39708300  0.30156300  0.64233800  1
  Se  Se20  1  0.69141100  0.88078100  0.50009600  1
  Se  Se21  1  0.50000000  0.00000000  0.68416100  1
  Se  Se22  1  0.77565700  0.57862200  0.49978900  1
  Se  Se23  1  0.22434300  0.42137800  0.49978900  1
  Se  Se24  1  0.80858900  0.61921900  0.99990400  1
  Se  Se25  1  0.11921900  0.69141100  0.49990400  1
  Se  Se26  1  0.57862200  0.22434300  0.50021100  1
  Se  Se27  1  0.00000000  0.50000000  0.31583900  1
  Se  Se28  1  0.39993800  0.30352400  0.31514600  1
  Se  Se29  1  0.00000000  0.50000000  0.81583900  1
  Se  Se30  1  0.42137800  0.77565700  0.50021100  1
  Se  Se31  1  0.61921900  0.19141100  0.00009600  1
  Se  Se32  1  0.80352400  0.10006200  0.81514600  1
  Se  Se33  1  0.72434300  0.92137800  0.00021100  1
  Se  Se34  1  0.90210000  0.79879200  0.67737100  1
  Se  Se35  1  0.70120800  0.40210000  0.17737100  1
  Se  Se36  1  0.07862200  0.72434300  0.99978900  1
  Se  Se37  1  0.29879200  0.59790000  0.17737100  1
  Se  Se38  1  0.09790000  0.20120800  0.67737100  1
  Se  Se39  1  0.88078100  0.30858900  0.49990400  1
  Se  Se40  1  0.27565700  0.07862200  0.00021100  1
  Se  Se41  1  0.79879200  0.09790000  0.32262900  1
  Se  Se42  1  0.10006200  0.19647600  0.18485400  1
  Se  Se43  1  0.59790000  0.70120800  0.82262900  1
  Se  Se44  1  0.19141100  0.38078100  0.99990400  1
  Se  Se45  1  0.00000000  0.00000000  0.50000000  1
  Se  Se46  1  0.30858900  0.11921900  0.50009600  1
  Se  Se47  1  0.20120800  0.90210000  0.32262900  1
  Se  Se48  1  0.92137800  0.27565700  0.99978900  1
  Se  Se49  1  0.69647600  0.39993800  0.68485400  1
  Se  Se50  1  0.38078100  0.80858900  0.00009600  1
  Se  Se51  1  0.40210000  0.29879200  0.82262900  1
  Se  Se52  1  0.19647600  0.89993800  0.81514600  1
  Se  Se53  1  0.30352400  0.60006200  0.68485400  1
  Se  Se54  1  0.60006200  0.69647600  0.31514600  1
  Se  Se55  1  0.89993800  0.80352400  0.18485400  1
  Se  Se56  1  0.50000000  0.00000000  0.18416100  1
  Se  Se57  1  0.50000000  0.50000000  0.00000000  1
