# generated using pymatgen
data_Nb5P7O30
_symmetry_space_group_name_H-M   'P 1'
_cell_length_a   8.87519700
_cell_length_b   8.93350448
_cell_length_c   15.89140022
_cell_angle_alpha   91.58790427
_cell_angle_beta   106.11292398
_cell_angle_gamma   90.03299148
_symmetry_Int_Tables_number   1
_chemical_formula_structural   Nb5P7O30
_chemical_formula_sum   'Nb10 P14 O60'
_cell_volume   1209.96947746
_cell_formula_units_Z   2
loop_
 _symmetry_equiv_pos_site_id
 _symmetry_equiv_pos_as_xyz
  1  'x, y, z'
loop_
 _atom_site_type_symbol
 _atom_site_label
 _atom_site_symmetry_multiplicity
 _atom_site_fract_x
 _atom_site_fract_y
 _atom_site_fract_z
 _atom_site_occupancy
  Nb  Nb0  1  0.20639900  0.96263900  0.90443900  1
  Nb  Nb1  1  0.79447600  0.03895700  0.09544800  1
  Nb  Nb2  1  0.29919000  0.53872800  0.09486800  1
  Nb  Nb3  1  0.91863700  0.55422900  0.32635400  1
  Nb  Nb4  1  0.59259200  0.94643400  0.67258800  1
  Nb  Nb5  1  0.40456500  0.05328800  0.32678800  1
  Nb  Nb6  1  0.69966100  0.46266800  0.90455000  1
  Nb  Nb7  1  0.49945100  0.50024700  0.49965300  1
  Nb  Nb8  1  0.99972500  0.00136400  0.49989800  1
  Nb  Nb9  1  0.07946200  0.44669500  0.67351600  1
  P  P10  1  0.25193800  0.40941300  0.28901900  1
  P  P11  1  0.32024000  0.23151200  0.59497600  1
  P  P12  1  0.55216700  0.10415200  0.88146000  1
  P  P13  1  0.67826400  0.76998300  0.40459200  1
  P  P14  1  0.44742200  0.89662100  0.11802600  1
  P  P15  1  0.02821400  0.25111800  0.99952100  1
  P  P16  1  0.97217200  0.75018100  0.00039300  1
  P  P17  1  0.03559100  0.90814700  0.28902300  1
  P  P18  1  0.72580500  0.26909400  0.40469100  1
  P  P19  1  0.33000700  0.60522200  0.88137700  1
  P  P20  1  0.27266200  0.73024600  0.59523300  1
  P  P21  1  0.74603500  0.59074200  0.71030500  1
  P  P22  1  0.96280300  0.09055600  0.71107200  1
  P  P23  1  0.66637200  0.39675600  0.11714500  1
  O  O24  1  0.20346100  0.92747900  0.28337900  1
  O  O25  1  0.33907500  0.93255100  0.02588900  1
  O  O26  1  0.71074000  0.49634700  0.78469300  1
  O  O27  1  0.42361700  0.72569100  0.13167400  1
  O  O28  1  0.89639200  0.33396300  0.93392200  1
  O  O29  1  0.61413800  0.66045800  0.46096100  1
  O  O30  1  0.72936500  0.67917700  0.33399200  1
  O  O31  1  0.89641100  0.86343500  0.05133800  1
  O  O32  1  0.37887800  0.08800900  0.88660700  1
  O  O33  1  0.60921100  0.91477900  0.56721400  1
  O  O34  1  0.97877000  0.02488600  0.62251100  1
  O  O35  1  0.17618900  0.14887700  0.53367500  1
  O  O36  1  0.28985300  0.50194900  0.21483500  1
  O  O37  1  0.41495400  0.99632600  0.18758600  1
  O  O38  1  0.10367800  0.13797400  0.94842300  1
  O  O39  1  0.07477500  0.99648600  0.78480000  1
  O  O40  1  0.26978100  0.32368200  0.66507300  1
  O  O41  1  0.71037100  0.75467700  0.72565400  1
  O  O42  1  0.58067400  0.00442800  0.81054100  1
  O  O43  1  0.35674000  0.47498200  0.37733100  1
  O  O44  1  0.70563900  0.22636400  0.13114500  1
  O  O45  1  0.91946500  0.57172800  0.71557200  1
  O  O46  1  0.96060200  0.41291300  0.56848600  1
  O  O47  1  0.82119200  0.85534000  0.46552100  1
  O  O48  1  0.84942600  0.16274900  0.46080600  1
  O  O49  1  0.38573500  0.33922700  0.53869500  1
  O  O50  1  0.68565600  0.43394600  0.02581900  1
  O  O51  1  0.22824500  0.50437700  0.81220100  1
  O  O52  1  0.07787100  0.42964400  0.28258500  1
  O  O53  1  0.60359600  0.17573200  0.33572400  1
  O  O54  1  0.76672000  0.49678200  0.18744700  1
  O  O55  1  0.57766400  0.27436900  0.86754600  1
  O  O56  1  0.03535800  0.58941900  0.43256200  1
  O  O57  1  0.44856100  0.12465700  0.64063100  1
  O  O58  1  0.98400900  0.74485700  0.27283300  1
  O  O59  1  0.15316700  0.84102200  0.54019000  1
  O  O60  1  0.92396300  0.00374400  0.21570700  1
  O  O61  1  0.96159600  0.16879100  0.06573300  1
  O  O62  1  0.39703600  0.81861300  0.66518800  1
  O  O63  1  0.64478500  0.35390500  0.46645600  1
  O  O64  1  0.48850400  0.41430200  0.11228600  1
  O  O65  1  0.50790400  0.58618300  0.88634900  1
  O  O66  1  0.84405800  0.63913200  0.94917500  1
  O  O67  1  0.03999800  0.83076100  0.93446700  1
  O  O68  1  0.64122600  0.52472200  0.62193000  1
  O  O69  1  0.62060700  0.91532100  0.11288800  1
  O  O70  1  0.02192500  0.97264000  0.37813000  1
  O  O71  1  0.28559100  0.24406900  0.27438400  1
  O  O72  1  0.18875400  0.62666100  0.64223000  1
  O  O73  1  0.54703900  0.87325700  0.35791500  1
  O  O74  1  0.35124000  0.64479700  0.53236100  1
  O  O75  1  0.01249000  0.25494400  0.72603300  1
  O  O76  1  0.29173000  0.77525800  0.86585200  1
  O  O77  1  0.80628300  0.37460600  0.35692300  1
  O  O78  1  0.39266400  0.08805200  0.43280400  1
  O  O79  1  0.15691000  0.36095100  0.05118000  1
  O  O80  1  0.66273500  0.06626700  0.97302100  1
  O  O81  1  0.10228800  0.66673400  0.06728100  1
  O  O82  1  0.30966100  0.57084500  0.97302800  1
  O  O83  1  0.79596600  0.07037100  0.71840000  1
