# generated using pymatgen
data_BaNa5Ca7P6(O8F)3
_symmetry_space_group_name_H-M   'P 1'
_cell_length_a   7.14595300
_cell_length_b   12.39156131
_cell_length_c   14.44894999
_cell_angle_alpha   98.33917910
_cell_angle_beta   104.15997043
_cell_angle_gamma   89.89127189
_symmetry_Int_Tables_number   1
_chemical_formula_structural   BaNa5Ca7P6(O8F)3
_chemical_formula_sum   'Ba2 Na10 Ca14 P12 O48 F6'
_cell_volume   1226.70441419
_cell_formula_units_Z   2
loop_
 _symmetry_equiv_pos_site_id
 _symmetry_equiv_pos_as_xyz
  1  'x, y, z'
loop_
 _atom_site_type_symbol
 _atom_site_label
 _atom_site_symmetry_multiplicity
 _atom_site_fract_x
 _atom_site_fract_y
 _atom_site_fract_z
 _atom_site_occupancy
  Ba  Ba0  1  0.99836400  0.99976700  0.99740100  1
  Ba  Ba1  1  0.50146500  0.50007000  0.00269900  1
  Na  Na2  1  0.71104400  0.39515800  0.41415200  1
  Na  Na3  1  0.94443400  0.15745800  0.41517000  1
  Na  Na4  1  0.02432200  0.33957200  0.58642100  1
  Na  Na5  1  0.56680900  0.34440800  0.59215300  1
  Na  Na6  1  0.80332300  0.10776400  0.59165400  1
  Na  Na7  1  0.44324200  0.66047200  0.40786700  1
  Na  Na8  1  0.20515900  0.88931400  0.41437300  1
  Na  Na9  1  0.96463700  0.66045100  0.40794100  1
  Na  Na10  1  0.53014300  0.84676300  0.58489900  1
  Na  Na11  1  0.05497200  0.84709000  0.58482100  1
  Ca  Ca12  1  0.83631300  0.28001600  0.18825400  1
  Ca  Ca13  1  0.35108700  0.28099200  0.18493500  1
  Ca  Ca14  1  0.59510000  0.03472800  0.18505300  1
  Ca  Ca15  1  0.47178900  0.15653500  0.41404300  1
  Ca  Ca16  1  0.14787500  0.22009700  0.81072200  1
  Ca  Ca17  1  0.90632500  0.46337600  0.81208200  1
  Ca  Ca18  1  0.66504700  0.22038100  0.81244800  1
  Ca  Ca19  1  0.33794200  0.77846400  0.18924700  1
  Ca  Ca20  1  0.09367400  0.53717500  0.18726500  1
  Ca  Ca21  1  0.85137100  0.77830200  0.18917700  1
  Ca  Ca22  1  0.29359600  0.60835900  0.58712000  1
  Ca  Ca23  1  0.65299700  0.72377500  0.81537400  1
  Ca  Ca24  1  0.40555700  0.96435300  0.81052600  1
  Ca  Ca25  1  0.16232100  0.72379800  0.81539000  1
  P  P26  1  0.12478500  0.04184900  0.25079700  1
  P  P27  1  0.30983400  0.10330700  0.62026900  1
  P  P28  1  0.48633200  0.16234300  0.97263600  1
  P  P29  1  0.62536100  0.54128000  0.25068000  1
  P  P30  1  0.81152000  0.60202400  0.62298400  1
  P  P31  1  0.98633400  0.66166700  0.97280200  1
  P  P32  1  0.01340500  0.33785400  0.02729500  1
  P  P33  1  0.18883500  0.39529700  0.37942700  1
  P  P34  1  0.37418200  0.45818600  0.74899700  1
  P  P35  1  0.51356800  0.83775700  0.02726800  1
  P  P36  1  0.68674400  0.89638400  0.37727200  1
  P  P37  1  0.87466800  0.95769600  0.74953100  1
  O  O38  1  0.18149400  0.06031500  0.36285600  1
  O  O39  1  0.37331200  0.12467500  0.73612000  1
  O  O40  1  0.64080000  0.09665200  0.93098700  1
  O  O41  1  0.46547100  0.27219500  0.93124500  1
  O  O42  1  0.29065600  0.09693300  0.93100900  1
  O  O43  1  0.54289900  0.18114800  0.08554400  1
  O  O44  1  0.60616900  0.41599100  0.21175900  1
  O  O45  1  0.92897800  0.09520200  0.21264900  1
  O  O46  1  0.28930300  0.09692000  0.21714200  1
  O  O47  1  0.68076300  0.56026600  0.36160100  1
  O  O48  1  0.02389000  0.34054500  0.40918700  1
  O  O49  1  0.38334800  0.33752700  0.40859700  1
  O  O50  1  0.69785700  0.02254800  0.40781800  1
  O  O51  1  0.79569500  0.47768400  0.59100800  1
  O  O52  1  0.11544300  0.15890100  0.59112500  1
  O  O53  1  0.47033800  0.15670400  0.58361500  1
  O  O54  1  0.86922100  0.62347600  0.73843600  1
  O  O55  1  0.21658000  0.40592000  0.78754300  1
  O  O56  1  0.57062200  0.40578900  0.78712000  1
  O  O57  1  0.89430900  0.08282600  0.78854700  1
  O  O58  1  0.96550200  0.77169000  0.93134200  1
  O  O59  1  0.14101400  0.59659300  0.93061200  1
  O  O60  1  0.95760600  0.31894100  0.91473300  1
  O  O61  1  0.79000000  0.59679900  0.93079700  1
  O  O62  1  0.20933700  0.40322200  0.06886500  1
  O  O63  1  0.04246100  0.68078700  0.08522600  1
  O  O64  1  0.03494900  0.22826700  0.06934100  1
  O  O65  1  0.85917600  0.40327200  0.06937900  1
  O  O66  1  0.10597800  0.91764900  0.21200400  1
  O  O67  1  0.42795000  0.59410800  0.21179200  1
  O  O68  1  0.78400700  0.59410400  0.21181000  1
  O  O69  1  0.13282100  0.38075900  0.26399700  1
  O  O70  1  0.52304800  0.84228400  0.40853200  1
  O  O71  1  0.88346900  0.84417600  0.40886100  1
  O  O72  1  0.21145900  0.51977200  0.41711200  1
  O  O73  1  0.29613300  0.97834600  0.59132700  1
  O  O74  1  0.61489300  0.65663000  0.59142600  1
  O  O75  1  0.97633500  0.65646100  0.59111300  1
  O  O76  1  0.31827500  0.43966600  0.63682500  1
  O  O77  1  0.71587200  0.90508300  0.78860700  1
  O  O78  1  0.07263500  0.90511900  0.78840700  1
  O  O79  1  0.39109300  0.58486600  0.78239200  1
  O  O80  1  0.45724200  0.81932800  0.91444400  1
  O  O81  1  0.70962000  0.90294000  0.06852300  1
  O  O82  1  0.35893500  0.90347800  0.06892800  1
  O  O83  1  0.53440100  0.72798000  0.06877000  1
  O  O84  1  0.63074600  0.87721200  0.26143700  1
  O  O85  1  0.81926700  0.93967600  0.63864800  1
  F  F86  1  0.63401800  0.21122400  0.28521400  1
  F  F87  1  0.74354400  0.24811500  0.49846400  1
  F  F88  1  0.85869100  0.28683000  0.71900900  1
  F  F89  1  0.14026300  0.71304800  0.28117100  1
  F  F90  1  0.25035300  0.74599300  0.50137600  1
  F  F91  1  0.35728300  0.77908400  0.71446000  1
