# generated using pymatgen
data_HI
_symmetry_space_group_name_H-M   'P 1'
_cell_length_a   8.74254715
_cell_length_b   8.74254715
_cell_length_c   9.86937165
_cell_angle_alpha   63.73762736
_cell_angle_beta   63.73762736
_cell_angle_gamma   89.60691248
_symmetry_Int_Tables_number   1
_chemical_formula_structural   HI
_chemical_formula_sum   'H8 I8'
_cell_volume   589.66688876
_cell_formula_units_Z   8
loop_
 _symmetry_equiv_pos_site_id
 _symmetry_equiv_pos_as_xyz
  1  'x, y, z'
loop_
 _atom_site_type_symbol
 _atom_site_label
 _atom_site_symmetry_multiplicity
 _atom_site_fract_x
 _atom_site_fract_y
 _atom_site_fract_z
 _atom_site_occupancy
  H  H0  1  0.56071400  0.75739500  0.02009200  1
  H  H1  1  0.24260500  0.43928600  0.47990800  1
  H  H2  1  0.43928600  0.24260500  0.97990800  1
  H  H3  1  0.75739500  0.56071400  0.52009200  1
  H  H4  1  0.76651400  0.43000500  0.99885900  1
  H  H5  1  0.56999500  0.23348600  0.50114100  1
  H  H6  1  0.23348600  0.56999500  0.00114100  1
  H  H7  1  0.43000500  0.76651400  0.49885900  1
  I  I8  1  0.74594800  0.74888000  0.02359000  1
  I  I9  1  0.25112000  0.25405200  0.47641000  1
  I  I10  1  0.25405200  0.25112000  0.97641000  1
  I  I11  1  0.74888000  0.74594800  0.52359000  1
  I  I12  1  0.76526800  0.24423700  0.99642500  1
  I  I13  1  0.75576300  0.23473200  0.50357500  1
  I  I14  1  0.23473200  0.75576300  0.00357500  1
  I  I15  1  0.24423700  0.76526800  0.49642500  1
