# generated using pymatgen
data_In2Br3
_symmetry_space_group_name_H-M   'P 1'
_cell_length_a   13.23699000
_cell_length_b   13.40572600
_cell_length_c   16.78481300
_cell_angle_alpha   90.00000000
_cell_angle_beta   90.00000000
_cell_angle_gamma   90.00000000
_symmetry_Int_Tables_number   1
_chemical_formula_structural   In2Br3
_chemical_formula_sum   'In32 Br48'
_cell_volume   2978.48958954
_cell_formula_units_Z   16
loop_
 _symmetry_equiv_pos_site_id
 _symmetry_equiv_pos_as_xyz
  1  'x, y, z'
loop_
 _atom_site_type_symbol
 _atom_site_label
 _atom_site_symmetry_multiplicity
 _atom_site_fract_x
 _atom_site_fract_y
 _atom_site_fract_z
 _atom_site_occupancy
  In  In0  1  0.77306200  0.82379200  0.74836500  1
  In  In1  1  0.78563100  0.51131500  0.24678300  1
  In  In2  1  0.86067900  0.19476300  0.66909600  1
  In  In3  1  0.86642800  0.19339300  0.83524900  1
  In  In4  1  0.89689500  0.52003200  0.94999000  1
  In  In5  1  0.93823400  0.89367900  0.05496400  1
  In  In6  1  0.92989200  0.88196000  0.44124800  1
  In  In7  1  0.93930200  0.65232000  0.24997100  1
  In  In8  1  0.06069800  0.15232000  0.25002900  1
  In  In9  1  0.07010800  0.38196000  0.05875200  1
  In  In10  1  0.06176600  0.39367900  0.44503600  1
  In  In11  1  0.10310500  0.02003200  0.55001000  1
  In  In12  1  0.13357200  0.69339300  0.66475100  1
  In  In13  1  0.13932100  0.69476300  0.83090400  1
  In  In14  1  0.21436900  0.01131500  0.25321700  1
  In  In15  1  0.22693800  0.32379200  0.75163500  1
  In  In16  1  0.27306200  0.67620800  0.25163500  1
  In  In17  1  0.28563100  0.98868500  0.75321700  1
  In  In18  1  0.36642800  0.30660700  0.16475100  1
  In  In19  1  0.36067900  0.30523700  0.33090400  1
  In  In20  1  0.39689500  0.97996800  0.05001000  1
  In  In21  1  0.43823400  0.60632100  0.94503600  1
  In  In22  1  0.42989200  0.61804000  0.55875200  1
  In  In23  1  0.43930200  0.84768000  0.75002900  1
  In  In24  1  0.56069800  0.34768000  0.74997100  1
  In  In25  1  0.57010800  0.11804000  0.94124800  1
  In  In26  1  0.56176600  0.10632100  0.55496400  1
  In  In27  1  0.60310500  0.47996800  0.44999000  1
  In  In28  1  0.63932100  0.80523700  0.16909600  1
  In  In29  1  0.63357200  0.80660700  0.33524900  1
  In  In30  1  0.71436900  0.48868500  0.74678300  1
  In  In31  1  0.72693800  0.17620800  0.24836500  1
  Br  Br32  1  0.76074300  0.69888300  0.08057300  1
  Br  Br33  1  0.75825400  0.69780500  0.41981400  1
  Br  Br34  1  0.80928300  0.38794800  0.12845700  1
  Br  Br35  1  0.80348400  0.39292400  0.37388000  1
  Br  Br36  1  0.82754700  0.01760000  0.60466900  1
  Br  Br37  1  0.82356000  0.01645900  0.89479500  1
  Br  Br38  1  0.90994700  0.84824300  0.24970100  1
  Br  Br39  1  0.90888700  0.46063700  0.75360200  1
  Br  Br40  1  0.93832300  0.13220700  0.12711400  1
  Br  Br41  1  0.93977700  0.13282500  0.37404500  1
  Br  Br42  1  0.95817800  0.74086300  0.60564300  1
  Br  Br43  1  0.95940600  0.73817400  0.89279100  1
  Br  Br44  1  0.04182200  0.24086300  0.89435700  1
  Br  Br45  1  0.04059400  0.23817400  0.60720900  1
  Br  Br46  1  0.06022300  0.63282500  0.12595500  1
  Br  Br47  1  0.06167700  0.63220700  0.37288600  1
  Br  Br48  1  0.09111300  0.96063700  0.74639800  1
  Br  Br49  1  0.09005300  0.34824300  0.25029900  1
  Br  Br50  1  0.17245300  0.51760000  0.89533100  1
  Br  Br51  1  0.17644000  0.51645900  0.60520500  1
  Br  Br52  1  0.19651600  0.89292400  0.12612000  1
  Br  Br53  1  0.19071700  0.88794800  0.37154300  1
  Br  Br54  1  0.24174600  0.19780500  0.08018600  1
  Br  Br55  1  0.23925700  0.19888300  0.41942700  1
  Br  Br56  1  0.25825400  0.80219500  0.58018600  1
  Br  Br57  1  0.26074300  0.80111700  0.91942700  1
  Br  Br58  1  0.30348400  0.10707600  0.62612000  1
  Br  Br59  1  0.30928300  0.11205200  0.87154300  1
  Br  Br60  1  0.32754700  0.48240000  0.39533100  1
  Br  Br61  1  0.32356000  0.48354100  0.10520500  1
  Br  Br62  1  0.40994700  0.65175700  0.75029900  1
  Br  Br63  1  0.40888700  0.03936300  0.24639800  1
  Br  Br64  1  0.43977700  0.36717500  0.62595500  1
  Br  Br65  1  0.43832300  0.36779300  0.87288600  1
  Br  Br66  1  0.45817800  0.75913700  0.39435700  1
  Br  Br67  1  0.45940600  0.76182600  0.10720900  1
  Br  Br68  1  0.54182200  0.25913700  0.10564300  1
  Br  Br69  1  0.54059400  0.26182600  0.39279100  1
  Br  Br70  1  0.56022300  0.86717500  0.87404500  1
  Br  Br71  1  0.56167700  0.86779300  0.62711400  1
  Br  Br72  1  0.59111300  0.53936300  0.25360200  1
  Br  Br73  1  0.59005300  0.15175700  0.74970100  1
  Br  Br74  1  0.67644000  0.98354100  0.39479500  1
  Br  Br75  1  0.67245300  0.98240000  0.10466900  1
  Br  Br76  1  0.69651600  0.60707600  0.87388000  1
  Br  Br77  1  0.69071700  0.61205200  0.62845700  1
  Br  Br78  1  0.73925700  0.30111700  0.58057300  1
  Br  Br79  1  0.74174600  0.30219500  0.91981400  1
