# generated using pymatgen
data_Eu2BrO2
_symmetry_space_group_name_H-M   'P 1'
_cell_length_a   6.77587531
_cell_length_b   6.77587531
_cell_length_c   9.73797366
_cell_angle_alpha   59.12852236
_cell_angle_beta   59.12852236
_cell_angle_gamma   34.33967384
_symmetry_Int_Tables_number   1
_chemical_formula_structural   Eu2BrO2
_chemical_formula_sum   'Eu4 Br2 O4'
_cell_volume   212.74803498
_cell_formula_units_Z   2
loop_
 _symmetry_equiv_pos_site_id
 _symmetry_equiv_pos_as_xyz
  1  'x, y, z'
loop_
 _atom_site_type_symbol
 _atom_site_label
 _atom_site_symmetry_multiplicity
 _atom_site_fract_x
 _atom_site_fract_y
 _atom_site_fract_z
 _atom_site_occupancy
  Eu  Eu0  1  0.34087000  0.34087000  0.55231400  1
  Eu  Eu1  1  0.04344800  0.04344800  0.19682600  1
  Eu  Eu2  1  0.95655200  0.95655200  0.80317400  1
  Eu  Eu3  1  0.65913000  0.65913000  0.44768600  1
  Br  Br4  1  0.66823400  0.66823400  0.87564100  1
  Br  Br5  1  0.33176600  0.33176600  0.12435900  1
  O  O6  1  0.14704500  0.14704500  0.57542200  1
  O  O7  1  0.85295500  0.85295500  0.42457800  1
  O  O8  1  0.55071800  0.55071800  0.31229200  1
  O  O9  1  0.44928200  0.44928200  0.68770800  1
