# generated using pymatgen
data_H2O
_symmetry_space_group_name_H-M   'P 1'
_cell_length_a   4.45057133
_cell_length_b   4.45057133
_cell_length_c   7.27885800
_cell_angle_alpha   90.00000000
_cell_angle_beta   90.00000000
_cell_angle_gamma   119.97308192
_symmetry_Int_Tables_number   1
_chemical_formula_structural   H2O
_chemical_formula_sum   'H8 O4'
_cell_volume   124.89445216
_cell_formula_units_Z   4
loop_
 _symmetry_equiv_pos_site_id
 _symmetry_equiv_pos_as_xyz
  1  'x, y, z'
loop_
 _atom_site_type_symbol
 _atom_site_label
 _atom_site_symmetry_multiplicity
 _atom_site_fract_x
 _atom_site_fract_y
 _atom_site_fract_z
 _atom_site_occupancy
  H  H0  1  0.66268400  0.33731600  0.69712500  1
  H  H1  1  0.33731600  0.66268400  0.19712500  1
  H  H2  1  0.54022400  0.45977600  0.51958300  1
  H  H3  1  0.45977600  0.54022400  0.01958300  1
  H  H4  1  0.44825500  0.90917000  0.48322600  1
  H  H5  1  0.09083000  0.55174500  0.48322600  1
  H  H6  1  0.55174500  0.09083000  0.98322600  1
  H  H7  1  0.90917000  0.44825500  0.98322600  1
  O  O8  1  0.66460900  0.33539100  0.56024900  1
  O  O9  1  0.33539100  0.66460900  0.06024900  1
  O  O10  1  0.33344400  0.66655600  0.43459100  1
  O  O11  1  0.66655600  0.33344400  0.93459100  1
