# generated using pymatgen
data_La(ReSi)2
_symmetry_space_group_name_H-M   'P 1'
_cell_length_a   10.99129474
_cell_length_b   10.99129474
_cell_length_c   10.99129474
_cell_angle_alpha   158.16274035
_cell_angle_beta   157.67604954
_cell_angle_gamma   31.42810261
_symmetry_Int_Tables_number   1
_chemical_formula_structural   La(ReSi)2
_chemical_formula_sum   'La2 Re4 Si4'
_cell_volume   187.47589688
_cell_formula_units_Z   2
loop_
 _symmetry_equiv_pos_site_id
 _symmetry_equiv_pos_as_xyz
  1  'x, y, z'
loop_
 _atom_site_type_symbol
 _atom_site_label
 _atom_site_symmetry_multiplicity
 _atom_site_fract_x
 _atom_site_fract_y
 _atom_site_fract_z
 _atom_site_occupancy
  La  La0  1  0.91331200  0.66331200  0.25000000  1
  La  La1  1  0.08668800  0.33668800  0.75000000  1
  Re  Re2  1  0.21130300  0.96130300  0.25000000  1
  Re  Re3  1  0.28554500  0.53554500  0.75000000  1
  Re  Re4  1  0.78869700  0.03869700  0.75000000  1
  Re  Re5  1  0.71445500  0.46445500  0.25000000  1
  Si  Si6  1  0.52845900  0.77845900  0.75000000  1
  Si  Si7  1  0.47154100  0.22154100  0.25000000  1
  Si  Si8  1  0.35375700  0.10375700  0.25000000  1
  Si  Si9  1  0.64624300  0.89624300  0.75000000  1
