# generated using pymatgen
data_Ba2Ta6Te2O21
_symmetry_space_group_name_H-M   'P 1'
_cell_length_a   8.91758157
_cell_length_b   8.91758157
_cell_length_c   9.74284072
_cell_angle_alpha   83.55973568
_cell_angle_beta   83.55973568
_cell_angle_gamma   37.59334020
_symmetry_Int_Tables_number   1
_chemical_formula_structural   Ba2Ta6Te2O21
_chemical_formula_sum   'Ba2 Ta6 Te2 O21'
_cell_volume   469.32886132
_cell_formula_units_Z   1
loop_
 _symmetry_equiv_pos_site_id
 _symmetry_equiv_pos_as_xyz
  1  'x, y, z'
loop_
 _atom_site_type_symbol
 _atom_site_label
 _atom_site_symmetry_multiplicity
 _atom_site_fract_x
 _atom_site_fract_y
 _atom_site_fract_z
 _atom_site_occupancy
  Ba  Ba0  1  0.13766800  0.13766800  0.47186900  1
  Ba  Ba1  1  0.86233200  0.86233200  0.52813100  1
  Ta  Ta2  1  0.90065600  0.90065600  0.91846300  1
  Ta  Ta3  1  0.09934400  0.09934400  0.08153700  1
  Ta  Ta4  1  0.47908900  0.47908900  0.66433100  1
  Ta  Ta5  1  0.52091100  0.52091100  0.33566900  1
  Ta  Ta6  1  0.67601000  0.67601000  0.82752900  1
  Ta  Ta7  1  0.32399000  0.32399000  0.17247100  1
  Te  Te8  1  0.27420000  0.27420000  0.75343600  1
  Te  Te9  1  0.72580000  0.72580000  0.24656400  1
  O  O10  1  0.41858700  0.41858700  0.27752600  1
  O  O11  1  0.58141300  0.58141300  0.72247400  1
  O  O12  1  0.20955000  0.20955000  0.15075200  1
  O  O13  1  0.79045000  0.79045000  0.84924800  1
  O  O14  1  0.00000000  0.00000000  0.00000000  1
  O  O15  1  0.17551400  0.69328900  0.77953000  1
  O  O16  1  0.30671100  0.82448600  0.22047000  1
  O  O17  1  0.82448600  0.30671100  0.22047000  1
  O  O18  1  0.69328900  0.17551400  0.77953000  1
  O  O19  1  0.89603800  0.39399100  0.94716700  1
  O  O20  1  0.27945300  0.72054700  0.50000000  1
  O  O21  1  0.72054700  0.27945300  0.50000000  1
  O  O22  1  0.64227800  0.64227800  0.39614200  1
  O  O23  1  0.35772200  0.35772200  0.60385800  1
  O  O24  1  0.54192200  0.02343300  0.32979300  1
  O  O25  1  0.97656700  0.45807800  0.67020700  1
  O  O26  1  0.45807800  0.97656700  0.67020700  1
  O  O27  1  0.02343300  0.54192200  0.32979300  1
  O  O28  1  0.39399100  0.89603800  0.94716700  1
  O  O29  1  0.10396200  0.60600900  0.05283300  1
  O  O30  1  0.60600900  0.10396200  0.05283300  1
