# generated using pymatgen
data_Sr5Re3ClO15
_symmetry_space_group_name_H-M   'P 1'
_cell_length_a   7.52361300
_cell_length_b   10.69220400
_cell_length_c   18.68288900
_cell_angle_alpha   90.00000000
_cell_angle_beta   90.00000000
_cell_angle_gamma   90.00000000
_symmetry_Int_Tables_number   1
_chemical_formula_structural   Sr5Re3ClO15
_chemical_formula_sum   'Sr20 Re12 Cl4 O60'
_cell_volume   1502.92641637
_cell_formula_units_Z   4
loop_
 _symmetry_equiv_pos_site_id
 _symmetry_equiv_pos_as_xyz
  1  'x, y, z'
loop_
 _atom_site_type_symbol
 _atom_site_label
 _atom_site_symmetry_multiplicity
 _atom_site_fract_x
 _atom_site_fract_y
 _atom_site_fract_z
 _atom_site_occupancy
  Sr  Sr0  1  0.27827500  0.48958500  0.75000000  1
  Sr  Sr1  1  0.26036900  0.38601100  0.11014700  1
  Sr  Sr2  1  0.49966200  0.75349600  0.41485300  1
  Sr  Sr3  1  0.00033800  0.25349600  0.58514700  1
  Sr  Sr4  1  0.50033800  0.24650400  0.58514700  1
  Sr  Sr5  1  0.73963100  0.61398900  0.88985300  1
  Sr  Sr6  1  0.50033800  0.24650400  0.91485300  1
  Sr  Sr7  1  0.23963100  0.88601100  0.61014700  1
  Sr  Sr8  1  0.73963100  0.61398900  0.61014700  1
  Sr  Sr9  1  0.49966200  0.75349600  0.08514700  1
  Sr  Sr10  1  0.26036900  0.38601100  0.38985300  1
  Sr  Sr11  1  0.99966200  0.74650400  0.08514700  1
  Sr  Sr12  1  0.22172500  0.98958500  0.25000000  1
  Sr  Sr13  1  0.72172500  0.51041500  0.25000000  1
  Sr  Sr14  1  0.77827500  0.01041500  0.75000000  1
  Sr  Sr15  1  0.76036900  0.11398900  0.11014700  1
  Sr  Sr16  1  0.00033800  0.25349600  0.91485300  1
  Sr  Sr17  1  0.76036900  0.11398900  0.38985300  1
  Sr  Sr18  1  0.23963100  0.88601100  0.88985300  1
  Sr  Sr19  1  0.99966200  0.74650400  0.41485300  1
  Re  Re20  1  0.79229200  0.44089400  0.05730200  1
  Re  Re21  1  0.22060600  0.14639300  0.75000000  1
  Re  Re22  1  0.29229200  0.05910600  0.44269800  1
  Re  Re23  1  0.29229200  0.05910600  0.05730200  1
  Re  Re24  1  0.70770800  0.94089400  0.55730200  1
  Re  Re25  1  0.79229200  0.44089400  0.44269800  1
  Re  Re26  1  0.77939400  0.85360700  0.25000000  1
  Re  Re27  1  0.27939400  0.64639300  0.25000000  1
  Re  Re28  1  0.20770800  0.55910600  0.55730200  1
  Re  Re29  1  0.70770800  0.94089400  0.94269800  1
  Re  Re30  1  0.20770800  0.55910600  0.94269800  1
  Re  Re31  1  0.72060600  0.35360700  0.75000000  1
  Cl  Cl32  1  0.87721400  0.24350200  0.25000000  1
  Cl  Cl33  1  0.62278600  0.74350200  0.75000000  1
  Cl  Cl34  1  0.37721400  0.25649800  0.25000000  1
  Cl  Cl35  1  0.12278600  0.75649800  0.75000000  1
  O  O36  1  0.92287400  0.92926000  0.18209300  1
  O  O37  1  0.73576700  0.60415400  0.03114800  1
  O  O38  1  0.08176000  0.56014300  0.25000000  1
  O  O39  1  0.74936700  0.72611800  0.18256000  1
  O  O40  1  0.42287400  0.57074000  0.31790700  1
  O  O41  1  0.44591700  0.19436900  0.05151700  1
  O  O42  1  0.03852600  0.48879900  0.88369600  1
  O  O43  1  0.22573900  0.09980900  0.53570200  1
  O  O44  1  0.77426100  0.90019100  0.03570200  1
  O  O45  1  0.91824000  0.43985700  0.75000000  1
  O  O46  1  0.27426100  0.59980900  0.03570200  1
  O  O47  1  0.03852600  0.48879900  0.61630400  1
  O  O48  1  0.23576700  0.89584600  0.03114800  1
  O  O49  1  0.96147400  0.51120100  0.38369600  1
  O  O50  1  0.72573900  0.40019100  0.53570200  1
  O  O51  1  0.72573900  0.40019100  0.96429800  1
  O  O52  1  0.55408300  0.80563100  0.94848300  1
  O  O53  1  0.62534800  0.38906600  0.38323700  1
  O  O54  1  0.12534800  0.11093400  0.11676300  1
  O  O55  1  0.12534800  0.11093400  0.38323700  1
  O  O56  1  0.87465200  0.88906600  0.61676300  1
  O  O57  1  0.05408300  0.69436900  0.55151700  1
  O  O58  1  0.26423300  0.39584600  0.53114800  1
  O  O59  1  0.53852600  0.01120100  0.88369600  1
  O  O60  1  0.96147400  0.51120100  0.11630400  1
  O  O61  1  0.57712600  0.42926000  0.81790700  1
  O  O62  1  0.27426100  0.59980900  0.46429800  1
  O  O63  1  0.37465200  0.61093400  0.88323700  1
  O  O64  1  0.25063300  0.27388200  0.68256000  1
  O  O65  1  0.77426100  0.90019100  0.46429800  1
  O  O66  1  0.44591700  0.19436900  0.44848300  1
  O  O67  1  0.26423300  0.39584600  0.96885200  1
  O  O68  1  0.42287400  0.57074000  0.18209300  1
  O  O69  1  0.74936700  0.72611800  0.31744000  1
  O  O70  1  0.53852600  0.01120100  0.61630400  1
  O  O71  1  0.73576700  0.60415400  0.46885200  1
  O  O72  1  0.92287400  0.92926000  0.31790700  1
  O  O73  1  0.87465200  0.88906600  0.88323700  1
  O  O74  1  0.22573900  0.09980900  0.96429800  1
  O  O75  1  0.25063300  0.27388200  0.81744000  1
  O  O76  1  0.46147400  0.98879900  0.11630400  1
  O  O77  1  0.94591700  0.30563100  0.05151700  1
  O  O78  1  0.62534800  0.38906600  0.11676300  1
  O  O79  1  0.55408300  0.80563100  0.55151700  1
  O  O80  1  0.58176000  0.93985700  0.25000000  1
  O  O81  1  0.75063300  0.22611800  0.68256000  1
  O  O82  1  0.07712600  0.07074000  0.81790700  1
  O  O83  1  0.41824000  0.06014300  0.75000000  1
  O  O84  1  0.57712600  0.42926000  0.68209300  1
  O  O85  1  0.24936700  0.77388200  0.18256000  1
  O  O86  1  0.76423300  0.10415400  0.96885200  1
  O  O87  1  0.24936700  0.77388200  0.31744000  1
  O  O88  1  0.23576700  0.89584600  0.46885200  1
  O  O89  1  0.75063300  0.22611800  0.81744000  1
  O  O90  1  0.05408300  0.69436900  0.94848300  1
  O  O91  1  0.37465200  0.61093400  0.61676300  1
  O  O92  1  0.76423300  0.10415400  0.53114800  1
  O  O93  1  0.94591700  0.30563100  0.44848300  1
  O  O94  1  0.46147400  0.98879900  0.38369600  1
  O  O95  1  0.07712600  0.07074000  0.68209300  1
