# generated using pymatgen
data_ZrGaPt
_symmetry_space_group_name_H-M   'P 1'
_cell_length_a   7.20971942
_cell_length_b   7.20971942
_cell_length_c   7.14947400
_cell_angle_alpha   90.00000000
_cell_angle_beta   90.00000000
_cell_angle_gamma   119.99999464
_symmetry_Int_Tables_number   1
_chemical_formula_structural   ZrGaPt
_chemical_formula_sum   'Zr6 Ga6 Pt6'
_cell_volume   321.84107717
_cell_formula_units_Z   6
loop_
 _symmetry_equiv_pos_site_id
 _symmetry_equiv_pos_as_xyz
  1  'x, y, z'
loop_
 _atom_site_type_symbol
 _atom_site_label
 _atom_site_symmetry_multiplicity
 _atom_site_fract_x
 _atom_site_fract_y
 _atom_site_fract_z
 _atom_site_occupancy
  Zr  Zr0  1  0.38675700  0.40848300  0.75000000  1
  Zr  Zr1  1  0.02172600  0.61324300  0.75000000  1
  Zr  Zr2  1  0.59151700  0.97827400  0.75000000  1
  Zr  Zr3  1  0.61324300  0.02172600  0.25000000  1
  Zr  Zr4  1  0.97827400  0.59151700  0.25000000  1
  Zr  Zr5  1  0.40848300  0.38675700  0.25000000  1
  Ga  Ga6  1  0.26731600  0.00000000  0.00000000  1
  Ga  Ga7  1  0.73268400  0.73268400  0.00000000  1
  Ga  Ga8  1  0.00000000  0.26731600  0.00000000  1
  Ga  Ga9  1  0.73268400  0.73268400  0.50000000  1
  Ga  Ga10  1  0.26731600  0.00000000  0.50000000  1
  Ga  Ga11  1  0.00000000  0.26731600  0.50000000  1
  Pt  Pt12  1  0.66666700  0.33333300  0.96942500  1
  Pt  Pt13  1  0.00000000  0.00000000  0.75000000  1
  Pt  Pt14  1  0.66666700  0.33333300  0.53057500  1
  Pt  Pt15  1  0.33333300  0.66666700  0.46942500  1
  Pt  Pt16  1  0.33333300  0.66666700  0.03057500  1
  Pt  Pt17  1  0.00000000  0.00000000  0.25000000  1
