# generated using pymatgen
data_KBaPO4
_symmetry_space_group_name_H-M   'P 1'
_cell_length_a   5.73751600
_cell_length_b   7.84121800
_cell_length_c   10.15060900
_cell_angle_alpha   90.00000000
_cell_angle_beta   90.00000000
_cell_angle_gamma   90.00000000
_symmetry_Int_Tables_number   1
_chemical_formula_structural   KBaPO4
_chemical_formula_sum   'K4 Ba4 P4 O16'
_cell_volume   456.66690278
_cell_formula_units_Z   4
loop_
 _symmetry_equiv_pos_site_id
 _symmetry_equiv_pos_as_xyz
  1  'x, y, z'
loop_
 _atom_site_type_symbol
 _atom_site_label
 _atom_site_symmetry_multiplicity
 _atom_site_fract_x
 _atom_site_fract_y
 _atom_site_fract_z
 _atom_site_occupancy
  K  K0  1  0.25000000  0.16156800  0.41758100  1
  K  K1  1  0.25000000  0.66156800  0.08241900  1
  K  K2  1  0.75000000  0.83843200  0.58241900  1
  K  K3  1  0.75000000  0.33843200  0.91758100  1
  Ba  Ba4  1  0.25000000  0.99371400  0.80634800  1
  Ba  Ba5  1  0.75000000  0.00628600  0.19365200  1
  Ba  Ba6  1  0.25000000  0.49371400  0.69365200  1
  Ba  Ba7  1  0.75000000  0.50628600  0.30634800  1
  P  P8  1  0.25000000  0.73458700  0.41697100  1
  P  P9  1  0.75000000  0.26541300  0.58302900  1
  P  P10  1  0.75000000  0.76541300  0.91697100  1
  P  P11  1  0.25000000  0.23458700  0.08302900  1
  O  O12  1  0.25000000  0.30250900  0.93778200  1
  O  O13  1  0.75000000  0.69749100  0.06221800  1
  O  O14  1  0.25000000  0.80250900  0.56221800  1
  O  O15  1  0.75000000  0.19749100  0.43778200  1
  O  O16  1  0.25000000  0.03531100  0.08268600  1
  O  O17  1  0.75000000  0.96468900  0.91731400  1
  O  O18  1  0.25000000  0.53531100  0.41731400  1
  O  O19  1  0.75000000  0.46468900  0.58268600  1
  O  O20  1  0.47327800  0.79938400  0.34523800  1
  O  O21  1  0.97327800  0.20061600  0.65476200  1
  O  O22  1  0.02672200  0.29938400  0.15476200  1
  O  O23  1  0.52672200  0.70061600  0.84523800  1
  O  O24  1  0.47327800  0.29938400  0.15476200  1
  O  O25  1  0.97327800  0.70061600  0.84523800  1
  O  O26  1  0.02672200  0.79938400  0.34523800  1
  O  O27  1  0.52672200  0.20061600  0.65476200  1
