# generated using pymatgen
data_Mn(ReO4)2
_symmetry_space_group_name_H-M   'P 1'
_cell_length_a   6.77380200
_cell_length_b   10.29419300
_cell_length_c   11.88671000
_cell_angle_alpha   90.00000000
_cell_angle_beta   90.00000000
_cell_angle_gamma   90.00000000
_symmetry_Int_Tables_number   1
_chemical_formula_structural   Mn(ReO4)2
_chemical_formula_sum   'Mn4 Re8 O32'
_cell_volume   828.87009640
_cell_formula_units_Z   4
loop_
 _symmetry_equiv_pos_site_id
 _symmetry_equiv_pos_as_xyz
  1  'x, y, z'
loop_
 _atom_site_type_symbol
 _atom_site_label
 _atom_site_symmetry_multiplicity
 _atom_site_fract_x
 _atom_site_fract_y
 _atom_site_fract_z
 _atom_site_occupancy
  Mn  Mn0  1  0.00000000  0.00000000  0.50000000  1
  Mn  Mn1  1  0.00000000  0.50000000  0.75000000  1
  Mn  Mn2  1  0.00000000  0.00000000  0.00000000  1
  Mn  Mn3  1  0.00000000  0.50000000  0.25000000  1
  Re  Re4  1  0.26960800  0.33333300  0.50000000  1
  Re  Re5  1  0.26960800  0.83333300  0.75000000  1
  Re  Re6  1  0.26960800  0.33333300  0.00000000  1
  Re  Re7  1  0.26960800  0.83333300  0.25000000  1
  Re  Re8  1  0.73039200  0.16666700  0.25000000  1
  Re  Re9  1  0.73039200  0.66666700  0.50000000  1
  Re  Re10  1  0.73039200  0.16666700  0.75000000  1
  Re  Re11  1  0.73039200  0.66666700  0.00000000  1
  O  O12  1  0.47451000  0.16666700  0.25000000  1
  O  O13  1  0.47451000  0.66666700  0.50000000  1
  O  O14  1  0.47451000  0.16666700  0.75000000  1
  O  O15  1  0.47451000  0.66666700  0.00000000  1
  O  O16  1  0.52549000  0.33333300  0.50000000  1
  O  O17  1  0.52549000  0.83333300  0.75000000  1
  O  O18  1  0.52549000  0.33333300  0.00000000  1
  O  O19  1  0.52549000  0.83333300  0.25000000  1
  O  O20  1  0.81696500  0.08155400  0.13153200  1
  O  O21  1  0.81696500  0.58155400  0.38153200  1
  O  O22  1  0.81696500  0.08155400  0.63153200  1
  O  O23  1  0.81696500  0.58155400  0.88153200  1
  O  O24  1  0.18303500  0.17230900  0.50460100  1
  O  O25  1  0.18303500  0.67230900  0.75460100  1
  O  O26  1  0.18303500  0.17230900  0.00460100  1
  O  O27  1  0.18303500  0.67230900  0.25460100  1
  O  O28  1  0.18303500  0.40924500  0.37693100  1
  O  O29  1  0.18303500  0.90924500  0.62693100  1
  O  O30  1  0.18303500  0.40924500  0.87693100  1
  O  O31  1  0.18303500  0.90924500  0.12693100  1
  O  O32  1  0.18303500  0.41844600  0.61846800  1
  O  O33  1  0.18303500  0.91844600  0.86846800  1
  O  O34  1  0.18303500  0.41844600  0.11846800  1
  O  O35  1  0.18303500  0.91844600  0.36846800  1
  O  O36  1  0.81696500  0.32769100  0.24539900  1
  O  O37  1  0.81696500  0.82769100  0.49539900  1
  O  O38  1  0.81696500  0.32769100  0.74539900  1
  O  O39  1  0.81696500  0.82769100  0.99539900  1
  O  O40  1  0.81696500  0.09075500  0.37306900  1
  O  O41  1  0.81696500  0.59075500  0.62306900  1
  O  O42  1  0.81696500  0.09075500  0.87306900  1
  O  O43  1  0.81696500  0.59075500  0.12306900  1
