# generated using pymatgen
data_Ca4MgAl3
_symmetry_space_group_name_H-M   'P 1'
_cell_length_a   5.85456700
_cell_length_b   6.17152700
_cell_length_c   24.18283400
_cell_angle_alpha   90.00000000
_cell_angle_beta   90.00000000
_cell_angle_gamma   90.00000000
_symmetry_Int_Tables_number   1
_chemical_formula_structural   Ca4MgAl3
_chemical_formula_sum   'Ca16 Mg4 Al12'
_cell_volume   873.76492783
_cell_formula_units_Z   4
loop_
 _symmetry_equiv_pos_site_id
 _symmetry_equiv_pos_as_xyz
  1  'x, y, z'
loop_
 _atom_site_type_symbol
 _atom_site_label
 _atom_site_symmetry_multiplicity
 _atom_site_fract_x
 _atom_site_fract_y
 _atom_site_fract_z
 _atom_site_occupancy
  Ca  Ca0  1  0.75000000  0.69569000  0.28978700  1
  Ca  Ca1  1  0.25000000  0.30431000  0.71021300  1
  Ca  Ca2  1  0.25000000  0.25216300  0.12246300  1
  Ca  Ca3  1  0.25000000  0.92769300  0.35901500  1
  Ca  Ca4  1  0.75000000  0.25216300  0.37753700  1
  Ca  Ca5  1  0.25000000  0.07230700  0.85901500  1
  Ca  Ca6  1  0.25000000  0.50085400  0.95501700  1
  Ca  Ca7  1  0.75000000  0.50085400  0.54498300  1
  Ca  Ca8  1  0.75000000  0.07230700  0.64098500  1
  Ca  Ca9  1  0.75000000  0.49914600  0.04498300  1
  Ca  Ca10  1  0.25000000  0.69569000  0.21021300  1
  Ca  Ca11  1  0.25000000  0.49914600  0.45501700  1
  Ca  Ca12  1  0.25000000  0.74783700  0.62246300  1
  Ca  Ca13  1  0.75000000  0.30431000  0.78978700  1
  Ca  Ca14  1  0.75000000  0.92769300  0.14098500  1
  Ca  Ca15  1  0.75000000  0.74783700  0.87753700  1
  Mg  Mg16  1  0.00000000  0.00000000  0.00000000  1
  Mg  Mg17  1  0.50000000  0.00000000  0.00000000  1
  Mg  Mg18  1  0.50000000  0.00000000  0.50000000  1
  Mg  Mg19  1  0.00000000  0.00000000  0.50000000  1
  Al  Al20  1  0.00000000  0.82028500  0.75000000  1
  Al  Al21  1  0.75000000  0.25285100  0.92381100  1
  Al  Al22  1  0.25000000  0.74714900  0.07618900  1
  Al  Al23  1  0.75000000  0.74714900  0.42381100  1
  Al  Al24  1  0.00000000  0.17971500  0.25000000  1
  Al  Al25  1  0.50000000  0.17971500  0.25000000  1
  Al  Al26  1  0.50000000  0.82028500  0.75000000  1
  Al  Al27  1  0.25000000  0.57757900  0.82371100  1
  Al  Al28  1  0.75000000  0.57757900  0.67628900  1
  Al  Al29  1  0.25000000  0.42242100  0.32371100  1
  Al  Al30  1  0.75000000  0.42242100  0.17628900  1
  Al  Al31  1  0.25000000  0.25285100  0.57618900  1
