# generated using pymatgen
data_H3BrO
_symmetry_space_group_name_H-M   'P 1'
_cell_length_a   4.29927170
_cell_length_b   4.29927170
_cell_length_c   4.29927177
_cell_angle_alpha   72.57868659
_cell_angle_beta   72.57868659
_cell_angle_gamma   72.57868633
_symmetry_Int_Tables_number   1
_chemical_formula_structural   H3BrO
_chemical_formula_sum   'H3 Br1 O1'
_cell_volume   70.39687315
_cell_formula_units_Z   1
loop_
 _symmetry_equiv_pos_site_id
 _symmetry_equiv_pos_as_xyz
  1  'x, y, z'
loop_
 _atom_site_type_symbol
 _atom_site_label
 _atom_site_symmetry_multiplicity
 _atom_site_fract_x
 _atom_site_fract_y
 _atom_site_fract_z
 _atom_site_occupancy
  H  H0  1  0.63330700  0.30218000  0.30218000  1
  H  H1  1  0.30218000  0.30218000  0.63330700  1
  H  H2  1  0.30218000  0.63330700  0.30218000  1
  Br  Br3  1  0.00651100  0.00651100  0.00651100  1
  O  O4  1  0.44667300  0.44667300  0.44667300  1
