# generated using pymatgen
data_Mg9(In13S24)2
_symmetry_space_group_name_H-M   'P 1'
_cell_length_a   7.69293157
_cell_length_b   7.69293157
_cell_length_c   37.59255810
_cell_angle_alpha   89.96191396
_cell_angle_beta   89.96191396
_cell_angle_gamma   60.26358080
_symmetry_Int_Tables_number   1
_chemical_formula_structural   Mg9(In13S24)2
_chemical_formula_sum   'Mg9 In26 S48'
_cell_volume   1931.80594117
_cell_formula_units_Z   1
loop_
 _symmetry_equiv_pos_site_id
 _symmetry_equiv_pos_as_xyz
  1  'x, y, z'
loop_
 _atom_site_type_symbol
 _atom_site_label
 _atom_site_symmetry_multiplicity
 _atom_site_fract_x
 _atom_site_fract_y
 _atom_site_fract_z
 _atom_site_occupancy
  Mg  Mg0  1  0.16540200  0.16540200  0.83319200  1
  Mg  Mg1  1  0.83317500  0.83317500  0.66669800  1
  Mg  Mg2  1  0.99980400  0.99980400  0.75002100  1
  Mg  Mg3  1  0.49983500  0.49983500  0.50005600  1
  Mg  Mg4  1  0.66662600  0.66662600  0.58342900  1
  Mg  Mg5  1  0.16661000  0.16661000  0.33358200  1
  Mg  Mg6  1  0.33327800  0.33327800  0.41678000  1
  Mg  Mg7  1  0.83444100  0.83444100  0.16730200  1
  Mg  Mg8  1  0.99995500  0.99995500  0.25011700  1
  In  In9  1  0.49987400  0.49987400  0.99380100  1
  In  In10  1  0.50391600  0.50391600  0.80977300  1
  In  In11  1  0.82075400  0.33959900  0.91827800  1
  In  In12  1  0.33959900  0.82075400  0.91827800  1
  In  In13  1  0.17099000  0.17099000  0.64476500  1
  In  In14  1  0.49974400  0.00009400  0.75000300  1
  In  In15  1  0.00009400  0.49974400  0.75000300  1
  In  In16  1  0.33940300  0.33940300  0.91837700  1
  In  In17  1  0.83245500  0.83245500  0.85602600  1
  In  In18  1  0.83767100  0.83767100  0.47809200  1
  In  In19  1  0.66665100  0.16613200  0.58340900  1
  In  In20  1  0.49556700  0.49556700  0.68886500  1
  In  In21  1  0.83333300  0.33303700  0.41686400  1
  In  In22  1  0.50446100  0.50446100  0.31154000  1
  In  In23  1  0.16613200  0.66665100  0.58340900  1
  In  In24  1  0.33303700  0.83333300  0.41686400  1
  In  In25  1  0.16212700  0.16212700  0.52230900  1
  In  In26  1  0.50047300  0.99915600  0.25037600  1
  In  In27  1  0.16738400  0.16738400  0.14609700  1
  In  In28  1  0.99915600  0.50047300  0.25037600  1
  In  In29  1  0.82887500  0.82887500  0.35558000  1
  In  In30  1  0.67161900  0.15658400  0.08282400  1
  In  In31  1  0.49620700  0.49620700  0.18921300  1
  In  In32  1  0.15658400  0.67161900  0.08282400  1
  In  In33  1  0.67131600  0.67131600  0.08283300  1
  In  In34  1  0.16618500  0.16618500  0.02043100  1
  S  S35  1  0.65981300  0.17936600  0.95663900  1
  S  S36  1  0.17936600  0.65981300  0.95663900  1
  S  S37  1  0.49992400  0.49992400  0.87593700  1
  S  S38  1  0.66047500  0.66047500  0.95651900  1
  S  S39  1  0.01334800  0.01334800  0.87603900  1
  S  S40  1  0.31701300  0.86045300  0.78998400  1
  S  S41  1  0.47186600  0.01426100  0.87593100  1
  S  S42  1  0.86045300  0.31701300  0.78998400  1
  S  S43  1  0.16614300  0.16614300  0.95451900  1
  S  S44  1  0.16378400  0.16378400  0.71207500  1
  S  S45  1  0.32107200  0.32107200  0.79084300  1
  S  S46  1  0.01426100  0.47186600  0.87593100  1
  S  S47  1  0.67807300  0.67807300  0.70876500  1
  S  S48  1  0.98413200  0.52595300  0.62360100  1
  S  S49  1  0.14012100  0.68254700  0.70960500  1
  S  S50  1  0.52595300  0.98413200  0.62360100  1
  S  S51  1  0.83562500  0.83562500  0.78776000  1
  S  S52  1  0.83065000  0.83065000  0.54552200  1
  S  S53  1  0.98832500  0.98832500  0.62438800  1
  S  S54  1  0.68254700  0.14012100  0.70960500  1
  S  S55  1  0.65055900  0.19290000  0.45689400  1
  S  S56  1  0.34474000  0.34474000  0.54202600  1
  S  S57  1  0.19290000  0.65055900  0.45689400  1
  S  S58  1  0.80677800  0.34929000  0.54285300  1
  S  S59  1  0.50245700  0.50245700  0.62094900  1
  S  S60  1  0.49731700  0.49731700  0.37885800  1
  S  S61  1  0.65500900  0.65500900  0.45770500  1
  S  S62  1  0.34929000  0.80677800  0.54285300  1
  S  S63  1  0.31741800  0.85899700  0.29027800  1
  S  S64  1  0.01136500  0.01136500  0.37532800  1
  S  S65  1  0.47356900  0.01592100  0.37617300  1
  S  S66  1  0.85899700  0.31741800  0.29027800  1
  S  S67  1  0.16919200  0.16919200  0.45421100  1
  S  S68  1  0.16408400  0.16408400  0.21303900  1
  S  S69  1  0.32192100  0.32192100  0.29111800  1
  S  S70  1  0.01592100  0.47356900  0.37617300  1
  S  S71  1  0.67842600  0.67842600  0.20874500  1
  S  S72  1  0.98860800  0.52210000  0.12539100  1
  S  S73  1  0.14043400  0.68216900  0.20952500  1
  S  S74  1  0.83588400  0.83588400  0.28748700  1
  S  S75  1  0.52210000  0.98860800  0.12539100  1
  S  S76  1  0.83337300  0.83337300  0.04642700  1
  S  S77  1  0.98935500  0.98935500  0.12529000  1
  S  S78  1  0.68216900  0.14043400  0.20952500  1
  S  S79  1  0.34466300  0.34466300  0.04356200  1
  S  S80  1  0.81005700  0.34493600  0.04346900  1
  S  S81  1  0.49980800  0.49980800  0.12071800  1
  S  S82  1  0.34493600  0.81005700  0.04346900  1
