# generated using pymatgen
data_Tl2Cl3
_symmetry_space_group_name_H-M   'P 1'
_cell_length_a   13.12115474
_cell_length_b   15.19630233
_cell_length_c   25.21376802
_cell_angle_alpha   90.00000000
_cell_angle_beta   90.00000000
_cell_angle_gamma   90.00000000
_symmetry_Int_Tables_number   1
_chemical_formula_structural   Tl2Cl3
_chemical_formula_sum   'Tl64 Cl96'
_cell_volume   5027.44971285
_cell_formula_units_Z   32
loop_
 _symmetry_equiv_pos_site_id
 _symmetry_equiv_pos_as_xyz
  1  'x, y, z'
loop_
 _atom_site_type_symbol
 _atom_site_label
 _atom_site_symmetry_multiplicity
 _atom_site_fract_x
 _atom_site_fract_y
 _atom_site_fract_z
 _atom_site_occupancy
  Tl  Tl0  1  0.25666325  0.92018720  0.66438808  1
  Tl  Tl1  1  0.22933412  0.39538459  0.65949736  1
  Tl  Tl2  1  0.42344708  0.12980409  0.25000000  1
  Tl  Tl3  1  0.24771436  0.39124720  0.00432088  1
  Tl  Tl4  1  0.42443178  0.11972731  0.44306966  1
  Tl  Tl5  1  0.59050789  0.36091929  0.52565159  1
  Tl  Tl6  1  0.75666325  0.57981280  0.83561192  1
  Tl  Tl7  1  0.74771436  0.10875280  0.00432088  1
  Tl  Tl8  1  0.07655292  0.62980409  0.75000000  1
  Tl  Tl9  1  0.75228564  0.60875280  0.99567912  1
  Tl  Tl10  1  0.92443178  0.38027269  0.05693034  1
  Tl  Tl11  1  0.08793214  0.13085003  0.75000000  1
  Tl  Tl12  1  0.58237150  0.35684731  0.16122559  1
  Tl  Tl13  1  0.90949211  0.86091929  0.02565159  1
  Tl  Tl14  1  0.24771436  0.39124720  0.49567912  1
  Tl  Tl15  1  0.57556822  0.88027269  0.94306966  1
  Tl  Tl16  1  0.57556822  0.88027269  0.55693034  1
  Tl  Tl17  1  0.08237150  0.14315269  0.16122559  1
  Tl  Tl18  1  0.92443178  0.38027269  0.44306966  1
  Tl  Tl19  1  0.27066588  0.89538459  0.15949736  1
  Tl  Tl20  1  0.27066588  0.89538459  0.34050264  1
  Tl  Tl21  1  0.90949211  0.86091929  0.47434841  1
  Tl  Tl22  1  0.75228564  0.60875280  0.50432088  1
  Tl  Tl23  1  0.57655292  0.87019591  0.75000000  1
  Tl  Tl24  1  0.75666325  0.57981280  0.66438808  1
  Tl  Tl25  1  0.59050789  0.36091929  0.97434841  1
  Tl  Tl26  1  0.07597878  0.67254251  0.15668876  1
  Tl  Tl27  1  0.25228564  0.89124720  0.50432088  1
  Tl  Tl28  1  0.57597878  0.82745749  0.34331124  1
  Tl  Tl29  1  0.74771436  0.10875280  0.49567912  1
  Tl  Tl30  1  0.24333675  0.42018720  0.16438808  1
  Tl  Tl31  1  0.57597878  0.82745749  0.15668876  1
  Tl  Tl32  1  0.22933412  0.39538459  0.84050264  1
  Tl  Tl33  1  0.25666325  0.92018720  0.83561192  1
  Tl  Tl34  1  0.08237150  0.14315269  0.33877441  1
  Tl  Tl35  1  0.72933412  0.10461541  0.65949736  1
  Tl  Tl36  1  0.24333675  0.42018720  0.33561192  1
  Tl  Tl37  1  0.07556822  0.61972731  0.94306966  1
  Tl  Tl38  1  0.42402122  0.17254251  0.84331124  1
  Tl  Tl39  1  0.91762850  0.85684731  0.66122559  1
  Tl  Tl40  1  0.09050789  0.13908071  0.97434841  1
  Tl  Tl41  1  0.77066588  0.60461541  0.34050264  1
  Tl  Tl42  1  0.07597878  0.67254251  0.34331124  1
  Tl  Tl43  1  0.41762850  0.64315269  0.66122559  1
  Tl  Tl44  1  0.92402122  0.32745749  0.65668876  1
  Tl  Tl45  1  0.92402122  0.32745749  0.84331124  1
  Tl  Tl46  1  0.41762850  0.64315269  0.83877441  1
  Tl  Tl47  1  0.91206786  0.86914997  0.25000000  1
  Tl  Tl48  1  0.77066588  0.60461541  0.15949736  1
  Tl  Tl49  1  0.09050789  0.13908071  0.52565159  1
  Tl  Tl50  1  0.40949211  0.63908071  0.47434841  1
  Tl  Tl51  1  0.91762850  0.85684731  0.83877441  1
  Tl  Tl52  1  0.42402122  0.17254251  0.65668876  1
  Tl  Tl53  1  0.25228564  0.89124720  0.99567912  1
  Tl  Tl54  1  0.42443178  0.11972731  0.05693034  1
  Tl  Tl55  1  0.58793214  0.36914997  0.75000000  1
  Tl  Tl56  1  0.92344708  0.37019591  0.25000000  1
  Tl  Tl57  1  0.07556822  0.61972731  0.55693034  1
  Tl  Tl58  1  0.74333675  0.07981280  0.16438808  1
  Tl  Tl59  1  0.58237150  0.35684731  0.33877441  1
  Tl  Tl60  1  0.74333675  0.07981280  0.33561192  1
  Tl  Tl61  1  0.41206786  0.63085003  0.25000000  1
  Tl  Tl62  1  0.72933412  0.10461541  0.84050264  1
  Tl  Tl63  1  0.40949211  0.63908071  0.02565159  1
  Cl  Cl64  1  0.34279208  0.77808318  0.92826137  1
  Cl  Cl65  1  0.91761299  0.62667636  0.05400543  1
  Cl  Cl66  1  0.08238701  0.37332364  0.94599457  1
  Cl  Cl67  1  0.25690709  0.54937535  0.75000000  1
  Cl  Cl68  1  0.51567236  0.97823605  0.82654694  1
  Cl  Cl69  1  0.68648012  0.48542116  0.43478995  1
  Cl  Cl70  1  0.91761299  0.62667636  0.44599457  1
  Cl  Cl71  1  0.15720792  0.27808318  0.07173863  1
  Cl  Cl72  1  0.59706498  0.18868680  0.75000000  1
  Cl  Cl73  1  0.16470293  0.76483567  0.45340842  1
  Cl  Cl74  1  0.84279208  0.72191682  0.92826137  1
  Cl  Cl75  1  0.21148437  0.59266678  0.25000000  1
  Cl  Cl76  1  0.81351988  0.98542116  0.93478995  1
  Cl  Cl77  1  0.08735058  0.90905443  0.56251347  1
  Cl  Cl78  1  0.59678603  0.35802708  0.85071543  1
  Cl  Cl79  1  0.89124776  0.70498106  0.75000000  1
  Cl  Cl80  1  0.40321397  0.64197292  0.14928457  1
  Cl  Cl81  1  0.39124776  0.79501894  0.75000000  1
  Cl  Cl82  1  0.78851563  0.40733322  0.75000000  1
  Cl  Cl83  1  0.71148437  0.90733322  0.25000000  1
  Cl  Cl84  1  0.36947049  0.23439321  0.32741088  1
  Cl  Cl85  1  0.16470293  0.76483567  0.04659158  1
  Cl  Cl86  1  0.60875224  0.20498106  0.25000000  1
  Cl  Cl87  1  0.90321397  0.85802708  0.14928457  1
  Cl  Cl88  1  0.48432764  0.02176395  0.32654694  1
  Cl  Cl89  1  0.58735058  0.59094557  0.56251347  1
  Cl  Cl90  1  0.58735058  0.59094557  0.93748653  1
  Cl  Cl91  1  0.40321397  0.64197292  0.35071543  1
  Cl  Cl92  1  0.44057267  0.45723777  0.25000000  1
  Cl  Cl93  1  0.01567236  0.52176395  0.67345306  1
  Cl  Cl94  1  0.86947049  0.26560679  0.17258912  1
  Cl  Cl95  1  0.90321397  0.85802708  0.35071543  1
  Cl  Cl96  1  0.40293502  0.81131320  0.25000000  1
  Cl  Cl97  1  0.59678603  0.35802708  0.64928457  1
  Cl  Cl98  1  0.08735058  0.90905443  0.93748653  1
  Cl  Cl99  1  0.81351988  0.98542116  0.56521005  1
  Cl  Cl100  1  0.83529707  0.23516433  0.54659158  1
  Cl  Cl101  1  0.98432764  0.47823605  0.32654694  1
  Cl  Cl102  1  0.41761299  0.87332364  0.05400543  1
  Cl  Cl103  1  0.68648012  0.48542116  0.06521005  1
  Cl  Cl104  1  0.65720792  0.22191682  0.07173863  1
  Cl  Cl105  1  0.84279208  0.72191682  0.57173863  1
  Cl  Cl106  1  0.18648012  0.01457884  0.43478995  1
  Cl  Cl107  1  0.24309291  0.04937535  0.25000000  1
  Cl  Cl108  1  0.51567236  0.97823605  0.67345306  1
  Cl  Cl109  1  0.08238701  0.37332364  0.55400543  1
  Cl  Cl110  1  0.34279208  0.77808318  0.57173863  1
  Cl  Cl111  1  0.09706498  0.31131320  0.75000000  1
  Cl  Cl112  1  0.94057267  0.04276223  0.25000000  1
  Cl  Cl113  1  0.66470293  0.73516433  0.45340842  1
  Cl  Cl114  1  0.09678603  0.14197292  0.64928457  1
  Cl  Cl115  1  0.98432764  0.47823605  0.17345306  1
  Cl  Cl116  1  0.61063437  0.66790208  0.25000000  1
  Cl  Cl117  1  0.41761299  0.87332364  0.44599457  1
  Cl  Cl118  1  0.33529707  0.26483567  0.54659158  1
  Cl  Cl119  1  0.83459736  0.47937751  0.55597420  1
  Cl  Cl120  1  0.91264942  0.09094557  0.43748653  1
  Cl  Cl121  1  0.33529707  0.26483567  0.95340842  1
  Cl  Cl122  1  0.31351988  0.51457884  0.93478995  1
  Cl  Cl123  1  0.11063437  0.83209792  0.25000000  1
  Cl  Cl124  1  0.13052951  0.73439321  0.82741088  1
  Cl  Cl125  1  0.01567236  0.52176395  0.82654694  1
  Cl  Cl126  1  0.91264942  0.09094557  0.06251347  1
  Cl  Cl127  1  0.65720792  0.22191682  0.42826137  1
  Cl  Cl128  1  0.90293502  0.68868680  0.25000000  1
  Cl  Cl129  1  0.66540264  0.97937751  0.44402580  1
  Cl  Cl130  1  0.10875224  0.29501894  0.25000000  1
  Cl  Cl131  1  0.75690709  0.95062465  0.75000000  1
  Cl  Cl132  1  0.86947049  0.26560679  0.32741088  1
  Cl  Cl133  1  0.63052951  0.76560679  0.82741088  1
  Cl  Cl134  1  0.58238701  0.12667636  0.55400543  1
  Cl  Cl135  1  0.18648012  0.01457884  0.06521005  1
  Cl  Cl136  1  0.16540264  0.52062249  0.05597420  1
  Cl  Cl137  1  0.33459736  0.02062249  0.55597420  1
  Cl  Cl138  1  0.33459736  0.02062249  0.94402580  1
  Cl  Cl139  1  0.55942733  0.54276223  0.75000000  1
  Cl  Cl140  1  0.58238701  0.12667636  0.94599457  1
  Cl  Cl141  1  0.15720792  0.27808318  0.42826137  1
  Cl  Cl142  1  0.48432764  0.02176395  0.17345306  1
  Cl  Cl143  1  0.41264942  0.40905443  0.43748653  1
  Cl  Cl144  1  0.36947049  0.23439321  0.17258912  1
  Cl  Cl145  1  0.41264942  0.40905443  0.06251347  1
  Cl  Cl146  1  0.16540264  0.52062249  0.44402580  1
  Cl  Cl147  1  0.13052951  0.73439321  0.67258912  1
  Cl  Cl148  1  0.28851563  0.09266678  0.75000000  1
  Cl  Cl149  1  0.31351988  0.51457884  0.56521005  1
  Cl  Cl150  1  0.74309291  0.45062465  0.25000000  1
  Cl  Cl151  1  0.38936563  0.33209792  0.75000000  1
  Cl  Cl152  1  0.83529707  0.23516433  0.95340842  1
  Cl  Cl153  1  0.83459736  0.47937751  0.94402580  1
  Cl  Cl154  1  0.66470293  0.73516433  0.04659158  1
  Cl  Cl155  1  0.63052951  0.76560679  0.67258912  1
  Cl  Cl156  1  0.88936563  0.16790208  0.75000000  1
  Cl  Cl157  1  0.66540264  0.97937751  0.05597420  1
  Cl  Cl158  1  0.09678603  0.14197292  0.85071543  1
  Cl  Cl159  1  0.05942733  0.95723777  0.75000000  1
