# generated using pymatgen
data_Sr4Al6MoO16
_symmetry_space_group_name_H-M   'P 1'
_cell_length_a   16.51842002
_cell_length_b   16.51842002
_cell_length_c   16.51842002
_cell_angle_alpha   109.76869778
_cell_angle_beta   109.32268715
_cell_angle_gamma   109.32268715
_symmetry_Int_Tables_number   1
_chemical_formula_structural   Sr4Al6MoO16
_chemical_formula_sum   'Sr32 Al48 Mo8 O128'
_cell_volume   3469.56348283
_cell_formula_units_Z   8
loop_
 _symmetry_equiv_pos_site_id
 _symmetry_equiv_pos_as_xyz
  1  'x, y, z'
loop_
 _atom_site_type_symbol
 _atom_site_label
 _atom_site_symmetry_multiplicity
 _atom_site_fract_x
 _atom_site_fract_y
 _atom_site_fract_z
 _atom_site_occupancy
  Sr  Sr0  1  0.50594218  0.75297109  0.50297109  1
  Sr  Sr1  1  0.75000000  0.49702891  0.00297109  1
  Sr  Sr2  1  0.00594218  0.00297109  0.25297109  1
  Sr  Sr3  1  0.25000000  0.74702891  0.75297109  1
  Sr  Sr4  1  0.49405782  0.24702891  0.49702891  1
  Sr  Sr5  1  0.25000000  0.50297109  0.99702891  1
  Sr  Sr6  1  0.99405782  0.99702891  0.74702891  1
  Sr  Sr7  1  0.75000000  0.25297109  0.24702891  1
  Sr  Sr8  1  0.00894840  0.50447420  0.25447420  1
  Sr  Sr9  1  0.75000000  0.74552580  0.75447420  1
  Sr  Sr10  1  0.50894840  0.75447420  0.00447420  1
  Sr  Sr11  1  0.25000000  0.99552580  0.50447420  1
  Sr  Sr12  1  0.99105160  0.49552580  0.74552580  1
  Sr  Sr13  1  0.25000000  0.25447420  0.24552580  1
  Sr  Sr14  1  0.49105160  0.24552580  0.99552580  1
  Sr  Sr15  1  0.75000000  0.00447420  0.49552580  1
  Sr  Sr16  1  0.24334843  0.73907122  0.24107313  1
  Sr  Sr17  1  0.50200191  0.49772469  0.74107313  1
  Sr  Sr18  1  0.74334843  0.74107313  0.23907122  1
  Sr  Sr19  1  0.49799809  0.99572278  0.73907122  1
  Sr  Sr20  1  0.75665157  0.26092878  0.75892687  1
  Sr  Sr21  1  0.49799809  0.50227531  0.25892687  1
  Sr  Sr22  1  0.25665157  0.25892687  0.76092878  1
  Sr  Sr23  1  0.50200191  0.00427722  0.26092878  1
  Sr  Sr24  1  0.99799809  0.23907122  0.49572278  1
  Sr  Sr25  1  0.25665157  0.99772469  0.99572278  1
  Sr  Sr26  1  0.00200191  0.24107313  0.99772469  1
  Sr  Sr27  1  0.75665157  0.49572278  0.49772469  1
  Sr  Sr28  1  0.00200191  0.76092878  0.50427722  1
  Sr  Sr29  1  0.74334843  0.00227531  0.00427722  1
  Sr  Sr30  1  0.99799809  0.75892687  0.00227531  1
  Sr  Sr31  1  0.24334843  0.50427722  0.50227531  1
  Al  Al32  1  0.87777758  0.50659482  0.87870872  1
  Al  Al33  1  0.37211391  0.50093114  0.37870872  1
  Al  Al34  1  0.37777758  0.37870872  0.00659482  1
  Al  Al35  1  0.62788609  0.12881723  0.50659482  1
  Al  Al36  1  0.12222242  0.49340518  0.12129128  1
  Al  Al37  1  0.62788609  0.49906886  0.62129128  1
  Al  Al38  1  0.62222242  0.62129128  0.99340518  1
  Al  Al39  1  0.37211391  0.87118277  0.49340518  1
  Al  Al40  1  0.12788609  0.00659482  0.62881723  1
  Al  Al41  1  0.62222242  0.00093114  0.12881723  1
  Al  Al42  1  0.87211391  0.87870872  0.00093114  1
  Al  Al43  1  0.12222242  0.62881723  0.50093114  1
  Al  Al44  1  0.87211391  0.99340518  0.37118277  1
  Al  Al45  1  0.37777758  0.99906886  0.87118277  1
  Al  Al46  1  0.12788609  0.12129128  0.99906886  1
  Al  Al47  1  0.87777758  0.37118277  0.49906886  1
  Al  Al48  1  0.87914233  0.37547348  0.00299011  1
  Al  Al49  1  0.62751663  0.62384778  0.50299011  1
  Al  Al50  1  0.37914233  0.50299011  0.87547348  1
  Al  Al51  1  0.37248337  0.99633115  0.37547348  1
  Al  Al52  1  0.12085767  0.62452652  0.99700989  1
  Al  Al53  1  0.37248337  0.37615222  0.49700989  1
  Al  Al54  1  0.62085767  0.49700989  0.12452652  1
  Al  Al55  1  0.62751663  0.00366885  0.62452652  1
  Al  Al56  1  0.87248337  0.87547348  0.49633115  1
  Al  Al57  1  0.62085767  0.12384778  0.99633115  1
  Al  Al58  1  0.12751663  0.00299011  0.12384778  1
  Al  Al59  1  0.12085767  0.49633115  0.62384778  1
  Al  Al60  1  0.12751663  0.12452652  0.50366885  1
  Al  Al61  1  0.37914233  0.87615222  0.00366885  1
  Al  Al62  1  0.87248337  0.99700989  0.87615222  1
  Al  Al63  1  0.87914233  0.50366885  0.37615222  1
  Al  Al64  1  0.25754220  0.62877110  0.37877110  1
  Al  Al65  1  0.75000000  0.62122890  0.87877110  1
  Al  Al66  1  0.75754220  0.87877110  0.12877110  1
  Al  Al67  1  0.25000000  0.87122890  0.62877110  1
  Al  Al68  1  0.74245780  0.37122890  0.62122890  1
  Al  Al69  1  0.25000000  0.37877110  0.12122890  1
  Al  Al70  1  0.24245780  0.12122890  0.87122890  1
  Al  Al71  1  0.75000000  0.12877110  0.37122890  1
  Al  Al72  1  0.75000000  0.87500000  0.62500000  1
  Al  Al73  1  0.75000000  0.37500000  0.12500000  1
  Al  Al74  1  0.25000000  0.12500000  0.37500000  1
  Al  Al75  1  0.25000000  0.62500000  0.87500000  1
  Al  Al76  1  0.75000000  0.12500000  0.87500000  1
  Al  Al77  1  0.75000000  0.62500000  0.37500000  1
  Al  Al78  1  0.25000000  0.37500000  0.62500000  1
  Al  Al79  1  0.25000000  0.87500000  0.12500000  1
  Mo  Mo80  1  0.50095769  0.75095769  0.25000000  1
  Mo  Mo81  1  0.49904231  0.24904231  0.75000000  1
  Mo  Mo82  1  0.00095769  0.75000000  0.25095769  1
  Mo  Mo83  1  0.50095769  0.75000000  0.75095769  1
  Mo  Mo84  1  0.99904231  0.25000000  0.74904231  1
  Mo  Mo85  1  0.49904231  0.25000000  0.24904231  1
  Mo  Mo86  1  0.00095769  0.25095769  0.25000000  1
  Mo  Mo87  1  0.99904231  0.74904231  0.75000000  1
  O  O88  1  0.99925265  0.58711709  0.91293448  1
  O  O89  1  0.32581740  0.41368183  0.41293448  1
  O  O90  1  0.49925265  0.41293448  0.08711709  1
  O  O91  1  0.67418260  0.08786443  0.58711709  1
  O  O92  1  0.00074735  0.41288291  0.08706552  1
  O  O93  1  0.67418260  0.58631817  0.58706552  1
  O  O94  1  0.50074735  0.58706552  0.91288291  1
  O  O95  1  0.32581740  0.91213557  0.41288291  1
  O  O96  1  0.17418260  0.08711709  0.58786443  1
  O  O97  1  0.50074735  0.91368183  0.08786443  1
  O  O98  1  0.82581740  0.91293448  0.91368183  1
  O  O99  1  0.00074735  0.58786443  0.41368183  1
  O  O100  1  0.82581740  0.91288291  0.41213557  1
  O  O101  1  0.49925265  0.08631817  0.91213557  1
  O  O102  1  0.17418260  0.08706552  0.08631817  1
  O  O103  1  0.99925265  0.41213557  0.58631817  1
  O  O104  1  0.85697078  0.42753320  0.92723818  1
  O  O105  1  0.49970498  0.57026740  0.42723818  1
  O  O106  1  0.35697078  0.42723818  0.92753320  1
  O  O107  1  0.50029502  0.07056241  0.42753320  1
  O  O108  1  0.14302922  0.57246680  0.07276182  1
  O  O109  1  0.50029502  0.42973260  0.57276182  1
  O  O110  1  0.64302922  0.57276182  0.07246680  1
  O  O111  1  0.49970498  0.92943759  0.57246680  1
  O  O112  1  0.00029502  0.92753320  0.57056241  1
  O  O113  1  0.64302922  0.07026740  0.07056241  1
  O  O114  1  0.99970498  0.92723818  0.07026740  1
  O  O115  1  0.14302922  0.57056241  0.57026740  1
  O  O116  1  0.99970498  0.07246680  0.42943759  1
  O  O117  1  0.35697078  0.92973260  0.92943759  1
  O  O118  1  0.00029502  0.07276182  0.92973260  1
  O  O119  1  0.85697078  0.42943759  0.42973260  1
  O  O120  1  0.83716247  0.58736042  0.92694861  1
  O  O121  1  0.33958819  0.58978614  0.42694861  1
  O  O122  1  0.33716247  0.42694861  0.08736042  1
  O  O123  1  0.66041181  0.25019795  0.58736042  1
  O  O124  1  0.16283753  0.41263958  0.07305139  1
  O  O125  1  0.66041181  0.41021386  0.57305139  1
  O  O126  1  0.66283753  0.57305139  0.91263958  1
  O  O127  1  0.33958819  0.74980205  0.41263958  1
  O  O128  1  0.16041181  0.08736042  0.75019795  1
  O  O129  1  0.66283753  0.08978614  0.25019795  1
  O  O130  1  0.83958819  0.92694861  0.08978614  1
  O  O131  1  0.16283753  0.75019795  0.58978614  1
  O  O132  1  0.83958819  0.91263958  0.24980205  1
  O  O133  1  0.33716247  0.91021386  0.74980205  1
  O  O134  1  0.16041181  0.07305139  0.91021386  1
  O  O135  1  0.83716247  0.24980205  0.41021386  1
  O  O136  1  0.83087490  0.41058638  0.08047889  1
  O  O137  1  0.66989251  0.74960399  0.58047889  1
  O  O138  1  0.33087490  0.58047889  0.91058638  1
  O  O139  1  0.33010749  0.07971148  0.41058638  1
  O  O140  1  0.16912510  0.58941362  0.91952111  1
  O  O141  1  0.33010749  0.25039601  0.41952111  1
  O  O142  1  0.66912510  0.41952111  0.08941362  1
  O  O143  1  0.66989251  0.92028852  0.58941362  1
  O  O144  1  0.83010749  0.91058638  0.57971148  1
  O  O145  1  0.66912510  0.24960399  0.07971148  1
  O  O146  1  0.16989251  0.08047889  0.24960399  1
  O  O147  1  0.16912510  0.57971148  0.74960399  1
  O  O148  1  0.16989251  0.08941362  0.42028852  1
  O  O149  1  0.33087490  0.75039601  0.92028852  1
  O  O150  1  0.83010749  0.91952111  0.75039601  1
  O  O151  1  0.83087490  0.42028852  0.25039601  1
  O  O152  1  0.16977487  0.74998959  0.08122534  1
  O  O153  1  0.33123575  0.41145048  0.58122534  1
  O  O154  1  0.66977487  0.58122534  0.24998959  1
  O  O155  1  0.66876425  0.08021472  0.74998959  1
  O  O156  1  0.83022513  0.25001041  0.91877466  1
  O  O157  1  0.66876425  0.58854952  0.41877466  1
  O  O158  1  0.33022513  0.41877466  0.75001041  1
  O  O159  1  0.33123575  0.91978528  0.25001041  1
  O  O160  1  0.16876425  0.24998959  0.58021472  1
  O  O161  1  0.33022513  0.91145048  0.08021472  1
  O  O162  1  0.83123575  0.08122534  0.91145048  1
  O  O163  1  0.83022513  0.58021472  0.41145048  1
  O  O164  1  0.83123575  0.75001041  0.41978528  1
  O  O165  1  0.66977487  0.08854952  0.91978528  1
  O  O166  1  0.16876425  0.91877466  0.08854952  1
  O  O167  1  0.16977487  0.41978528  0.58854952  1
  O  O168  1  0.17991217  0.57026372  0.25028029  1
  O  O169  1  0.68001657  0.57036812  0.75028029  1
  O  O170  1  0.67991217  0.75028029  0.07026372  1
  O  O171  1  0.31998343  0.89035155  0.57026372  1
  O  O172  1  0.82008783  0.42973628  0.74971971  1
  O  O173  1  0.31998343  0.42963188  0.24971971  1
  O  O174  1  0.32008783  0.24971971  0.92973628  1
  O  O175  1  0.68001657  0.10964845  0.42973628  1
  O  O176  1  0.81998343  0.07026372  0.39035155  1
  O  O177  1  0.32008783  0.07036812  0.89035155  1
  O  O178  1  0.18001657  0.25028029  0.07036812  1
  O  O179  1  0.82008783  0.39035155  0.57036812  1
  O  O180  1  0.18001657  0.92973628  0.60964845  1
  O  O181  1  0.67991217  0.92963188  0.10964845  1
  O  O182  1  0.81998343  0.74971971  0.92963188  1
  O  O183  1  0.17991217  0.60964845  0.42963188  1
  O  O184  1  0.55509121  0.88305297  0.32592725  1
  O  O185  1  0.44287428  0.27083604  0.82592725  1
  O  O186  1  0.05509121  0.82592725  0.38305297  1
  O  O187  1  0.55712572  0.82796176  0.88305297  1
  O  O188  1  0.44490879  0.11694703  0.67407275  1
  O  O189  1  0.55712572  0.72916396  0.17407275  1
  O  O190  1  0.94490879  0.17407275  0.61694703  1
  O  O191  1  0.44287428  0.17203824  0.11694703  1
  O  O192  1  0.05712572  0.38305297  0.32796176  1
  O  O193  1  0.94490879  0.77083604  0.82796176  1
  O  O194  1  0.94287428  0.32592725  0.77083604  1
  O  O195  1  0.44490879  0.32796176  0.27083604  1
  O  O196  1  0.94287428  0.61694703  0.67203824  1
  O  O197  1  0.05509121  0.22916396  0.17203824  1
  O  O198  1  0.05712572  0.67407275  0.22916396  1
  O  O199  1  0.55509121  0.67203824  0.72916396  1
  O  O200  1  0.36906345  0.69383787  0.17141624  1
  O  O201  1  0.47757838  0.30235279  0.67141624  1
  O  O202  1  0.86906345  0.67141624  0.19383787  1
  O  O203  1  0.52242162  0.82477441  0.69383787  1
  O  O204  1  0.63093655  0.30616213  0.82858376  1
  O  O205  1  0.52242162  0.69764721  0.32858376  1
  O  O206  1  0.13093655  0.32858376  0.80616213  1
  O  O207  1  0.47757838  0.17522559  0.30616213  1
  O  O208  1  0.02242162  0.19383787  0.32477441  1
  O  O209  1  0.13093655  0.80235279  0.82477441  1
  O  O210  1  0.97757838  0.17141624  0.80235279  1
  O  O211  1  0.63093655  0.32477441  0.30235279  1
  O  O212  1  0.97757838  0.80616213  0.67522559  1
  O  O213  1  0.86906345  0.19764721  0.17522559  1
  O  O214  1  0.02242162  0.82858376  0.19764721  1
  O  O215  1  0.36906345  0.67522559  0.69764721  1
