# generated using pymatgen
data_Ca3Ga3Rh2
_symmetry_space_group_name_H-M   'P 1'
_cell_length_a   5.84392700
_cell_length_b   8.12249300
_cell_length_c   14.99596600
_cell_angle_alpha   90.00000000
_cell_angle_beta   90.00000000
_cell_angle_gamma   90.00000000
_symmetry_Int_Tables_number   1
_chemical_formula_structural   Ca3Ga3Rh2
_chemical_formula_sum   'Ca12 Ga12 Rh8'
_cell_volume   711.81735934
_cell_formula_units_Z   4
loop_
 _symmetry_equiv_pos_site_id
 _symmetry_equiv_pos_as_xyz
  1  'x, y, z'
loop_
 _atom_site_type_symbol
 _atom_site_label
 _atom_site_symmetry_multiplicity
 _atom_site_fract_x
 _atom_site_fract_y
 _atom_site_fract_z
 _atom_site_occupancy
  Ca  Ca0  1  0.11441500  0.54619700  0.60904700  1
  Ca  Ca1  1  0.61834400  0.69738800  0.75000000  1
  Ca  Ca2  1  0.61441500  0.95380300  0.10904700  1
  Ca  Ca3  1  0.38558500  0.04619700  0.89095300  1
  Ca  Ca4  1  0.61441500  0.95380300  0.39095300  1
  Ca  Ca5  1  0.88165600  0.19738800  0.75000000  1
  Ca  Ca6  1  0.38165600  0.30261200  0.25000000  1
  Ca  Ca7  1  0.38558500  0.04619700  0.60904700  1
  Ca  Ca8  1  0.88558500  0.45380300  0.10904700  1
  Ca  Ca9  1  0.11441500  0.54619700  0.89095300  1
  Ca  Ca10  1  0.11834400  0.80261200  0.25000000  1
  Ca  Ca11  1  0.88558500  0.45380300  0.39095300  1
  Ga  Ga12  1  0.08109000  0.85263900  0.75000000  1
  Ga  Ga13  1  0.87680700  0.18050300  0.96028900  1
  Ga  Ga14  1  0.91891000  0.14736100  0.25000000  1
  Ga  Ga15  1  0.58109000  0.64736100  0.25000000  1
  Ga  Ga16  1  0.12319300  0.81949700  0.46028900  1
  Ga  Ga17  1  0.37680700  0.31949700  0.03971100  1
  Ga  Ga18  1  0.62319300  0.68050300  0.53971100  1
  Ga  Ga19  1  0.62319300  0.68050300  0.96028900  1
  Ga  Ga20  1  0.37680700  0.31949700  0.46028900  1
  Ga  Ga21  1  0.12319300  0.81949700  0.03971100  1
  Ga  Ga22  1  0.41891000  0.35263900  0.75000000  1
  Ga  Ga23  1  0.87680700  0.18050300  0.53971100  1
  Rh  Rh24  1  0.89544900  0.89143000  0.59726600  1
  Rh  Rh25  1  0.60455100  0.39143000  0.90273400  1
  Rh  Rh26  1  0.89544900  0.89143000  0.90273400  1
  Rh  Rh27  1  0.39544900  0.60857000  0.09726600  1
  Rh  Rh28  1  0.10455100  0.10857000  0.40273400  1
  Rh  Rh29  1  0.39544900  0.60857000  0.40273400  1
  Rh  Rh30  1  0.60455100  0.39143000  0.59726600  1
  Rh  Rh31  1  0.10455100  0.10857000  0.09726600  1
