# generated using pymatgen
data_K5InO4
_symmetry_space_group_name_H-M   'P 1'
_cell_length_a   13.45967600
_cell_length_b   16.91453655
_cell_length_c   17.09771726
_cell_angle_alpha   114.14836031
_cell_angle_beta   112.97889649
_cell_angle_gamma   90.25729865
_symmetry_Int_Tables_number   1
_chemical_formula_structural   K5InO4
_chemical_formula_sum   'K80 In16 O64'
_cell_volume   3206.97873755
_cell_formula_units_Z   16
loop_
 _symmetry_equiv_pos_site_id
 _symmetry_equiv_pos_as_xyz
  1  'x, y, z'
loop_
 _atom_site_type_symbol
 _atom_site_label
 _atom_site_symmetry_multiplicity
 _atom_site_fract_x
 _atom_site_fract_y
 _atom_site_fract_z
 _atom_site_occupancy
  K  K0  1  0.51626000  0.87541300  0.97075600  1
  K  K1  1  0.88986000  0.89192100  0.72009300  1
  K  K2  1  0.47204200  0.05038600  0.61090700  1
  K  K3  1  0.22033400  0.30857200  0.44591800  1
  K  K4  1  0.26834600  0.86533300  0.54601800  1
  K  K5  1  0.41640100  0.74736900  0.25583100  1
  K  K6  1  0.21107600  0.48715700  0.78635100  1
  K  K7  1  0.48652600  0.88621100  0.16121200  1
  K  K8  1  0.31600900  0.94453700  0.85803400  1
  K  K9  1  0.58596700  0.54510600  0.35178800  1
  K  K10  1  0.89659900  0.99052700  0.23095300  1
  K  K11  1  0.82290400  0.48845100  0.40129900  1
  K  K12  1  0.27165300  0.18926700  0.54741300  1
  K  K13  1  0.72834700  0.81073300  0.45258700  1
  K  K14  1  0.71211100  0.01658800  0.60702500  1
  K  K15  1  0.10517500  0.21329200  0.88516200  1
  K  K16  1  0.41403300  0.45489400  0.64821200  1
  K  K17  1  0.17709600  0.51154900  0.59870100  1
  K  K18  1  0.58261900  0.35077500  0.33386600  1
  K  K19  1  0.25783400  0.67097900  0.02191300  1
  K  K20  1  0.83070300  0.73286800  0.89964400  1
  K  K21  1  0.96769700  0.56450700  0.62833100  1
  K  K22  1  0.11014000  0.10807900  0.27990700  1
  K  K23  1  0.45495200  0.87417100  0.74615500  1
  K  K24  1  0.78892400  0.51284300  0.21364900  1
  K  K25  1  0.96636000  0.38071300  0.75650300  1
  K  K26  1  0.59659300  0.66635500  0.87600000  1
  K  K27  1  0.72371100  0.28729700  0.64536300  1
  K  K28  1  0.68080100  0.76402100  0.71757100  1
  K  K29  1  0.13315600  0.75606700  0.70090100  1
  K  K30  1  0.07392800  0.86343700  0.34454600  1
  K  K31  1  0.65226000  0.76415000  0.10893900  1
  K  K32  1  0.27628900  0.71270300  0.35463700  1
  K  K33  1  0.73165400  0.13466700  0.45398200  1
  K  K34  1  0.00492900  0.60616900  0.84234900  1
  K  K35  1  0.25292500  0.84638300  0.99559800  1
  K  K36  1  0.58602700  0.63430500  0.22394900  1
  K  K37  1  0.00047800  0.91668500  0.52311500  1
  K  K38  1  0.52795800  0.94961400  0.38909300  1
  K  K39  1  0.70282100  0.97809400  0.78042000  1
  K  K40  1  0.31103400  0.52101200  0.21306400  1
  K  K41  1  0.10340100  0.00947300  0.76904700  1
  K  K42  1  0.89482500  0.78670800  0.11483800  1
  K  K43  1  0.29717900  0.02190600  0.21958000  1
  K  K44  1  0.00745700  0.60596700  0.03293500  1
  K  K45  1  0.99952200  0.08331500  0.47688500  1
  K  K46  1  0.17098200  0.27352500  0.71780100  1
  K  K47  1  0.16929700  0.26713200  0.10035600  1
  K  K48  1  0.40340700  0.33364500  0.12400000  1
  K  K49  1  0.92607200  0.13656300  0.65545400  1
  K  K50  1  0.77966600  0.69142800  0.55408200  1
  K  K51  1  0.34774000  0.23585000  0.89106100  1
  K  K52  1  0.99099700  0.19837400  0.14585200  1
  K  K53  1  0.31919900  0.23597900  0.28242900  1
  K  K54  1  0.86684400  0.24393300  0.29909900  1
  K  K55  1  0.54504800  0.12582900  0.25384500  1
  K  K56  1  0.28788900  0.98341200  0.39297500  1
  K  K57  1  0.58359900  0.25263100  0.74416900  1
  K  K58  1  0.82901800  0.72647500  0.28219900  1
  K  K59  1  0.74216600  0.32902100  0.97808700  1
  K  K60  1  0.79129600  0.36076300  0.52000600  1
  K  K61  1  0.46550800  0.57370300  0.97033300  1
  K  K62  1  0.51347400  0.11378900  0.83878800  1
  K  K63  1  0.03230300  0.43549300  0.37166900  1
  K  K64  1  0.00900300  0.80162600  0.85414800  1
  K  K65  1  0.02144700  0.94697900  0.05930100  1
  K  K66  1  0.99507100  0.39383100  0.15765100  1
  K  K67  1  0.51791700  0.40873700  0.50673100  1
  K  K68  1  0.48208300  0.59126300  0.49326900  1
  K  K69  1  0.97855300  0.05302100  0.94069900  1
  K  K70  1  0.20870400  0.63923700  0.47999400  1
  K  K71  1  0.68896600  0.47898800  0.78693600  1
  K  K72  1  0.41397300  0.36569500  0.77605100  1
  K  K73  1  0.48374000  0.12458700  0.02924400  1
  K  K74  1  0.74707500  0.15361700  0.00440200  1
  K  K75  1  0.99254300  0.39403300  0.96706500  1
  K  K76  1  0.53449200  0.42629700  0.02966700  1
  K  K77  1  0.68399100  0.05546300  0.14196600  1
  K  K78  1  0.03364000  0.61928700  0.24349700  1
  K  K79  1  0.41738100  0.64922500  0.66613400  1
  In  In80  1  0.25259200  0.07320600  0.66642700  1
  In  In81  1  0.96930100  0.70128900  0.47679100  1
  In  In82  1  0.32825200  0.68808900  0.84165800  1
  In  In83  1  0.51412000  0.79821800  0.51581700  1
  In  In84  1  0.26032900  0.43974200  0.34620900  1
  In  In85  1  0.03069900  0.29871100  0.52320900  1
  In  In86  1  0.73967100  0.56025800  0.65379100  1
  In  In87  1  0.74740800  0.92679400  0.33357300  1
  In  In88  1  0.75523100  0.94314000  0.97576200  1
  In  In89  1  0.15583200  0.82133600  0.16116200  1
  In  In90  1  0.84416800  0.17866400  0.83883800  1
  In  In91  1  0.74668400  0.53989300  0.01288400  1
  In  In92  1  0.25331600  0.46010700  0.98711600  1
  In  In93  1  0.48588000  0.20178200  0.48418300  1
  In  In94  1  0.67174800  0.31191100  0.15834200  1
  In  In95  1  0.24476900  0.05686000  0.02423800  1
  O  O96  1  0.11292800  0.50584400  0.92037200  1
  O  O97  1  0.88707200  0.49415600  0.07962800  1
  O  O98  1  0.31928600  0.14997300  0.38969500  1
  O  O99  1  0.35846000  0.77929300  0.79422600  1
  O  O100  1  0.49887200  0.68560500  0.39159600  1
  O  O101  1  0.60549100  0.58904400  0.68944500  1
  O  O102  1  0.30760800  0.48831800  0.49520900  1
  O  O103  1  0.32155900  0.86179700  0.19557700  1
  O  O104  1  0.67844100  0.13820300  0.80442300  1
  O  O105  1  0.09661800  0.93513100  0.22376300  1
  O  O106  1  0.81989400  0.46794700  0.69555200  1
  O  O107  1  0.90338200  0.06486900  0.77623700  1
  O  O108  1  0.80682400  0.99061100  0.48308300  1
  O  O109  1  0.50112800  0.31439500  0.60840400  1
  O  O110  1  0.42591900  0.88504600  0.46851800  1
  O  O111  1  0.38311000  0.57286700  0.78286200  1
  O  O112  1  0.27611500  0.15639300  0.98842800  1
  O  O113  1  0.57498800  0.25587100  0.00946800  1
  O  O114  1  0.64154000  0.22070700  0.20577400  1
  O  O115  1  0.05700600  0.74539400  0.41752900  1
  O  O116  1  0.72388500  0.84360700  0.01157200  1
  O  O117  1  0.14773700  0.32202900  0.28067700  1
  O  O118  1  0.87071700  0.87927200  0.29115600  1
  O  O119  1  0.42501200  0.74412900  0.99053200  1
  O  O120  1  0.19317600  0.00938900  0.51691700  1
  O  O121  1  0.03497300  0.18922500  0.40552100  1
  O  O122  1  0.85226300  0.67797100  0.71932300  1
  O  O123  1  0.15771500  0.65505400  0.79990700  1
  O  O124  1  0.06168400  0.76741100  0.01056300  1
  O  O125  1  0.32145100  0.98708600  0.72518300  1
  O  O126  1  0.83177200  0.89895600  0.88246300  1
  O  O127  1  0.37675500  0.57087900  0.10028800  1
  O  O128  1  0.16822800  0.10104400  0.11753700  1
  O  O129  1  0.12928300  0.12072800  0.70884400  1
  O  O130  1  0.86333200  0.05574900  0.10219000  1
  O  O131  1  0.62324500  0.42912100  0.89971200  1
  O  O132  1  0.18010600  0.53205300  0.30444800  1
  O  O133  1  0.84228500  0.34494600  0.20009300  1
  O  O134  1  0.87245800  0.26802600  0.78990200  1
  O  O135  1  0.13666800  0.94425100  0.89781000  1
  O  O136  1  0.93831600  0.23258900  0.98943700  1
  O  O137  1  0.21125700  0.37493800  0.03553400  1
  O  O138  1  0.67854900  0.01291400  0.27481700  1
  O  O139  1  0.78874300  0.62506200  0.96446600  1
  O  O140  1  0.94299400  0.25460600  0.58247100  1
  O  O141  1  0.96502700  0.81077500  0.59447900  1
  O  O142  1  0.60865000  0.99210400  0.92559800  1
  O  O143  1  0.68071400  0.85002700  0.61030500  1
  O  O144  1  0.39135000  0.00789600  0.07440200  1
  O  O145  1  0.04167300  0.60706500  0.52025600  1
  O  O146  1  0.43095000  0.75109500  0.57694400  1
  O  O147  1  0.80069800  0.64509700  0.38173900  1
  O  O148  1  0.69239200  0.51168200  0.50479100  1
  O  O149  1  0.39450900  0.41095600  0.31055500  1
  O  O150  1  0.12754200  0.73197400  0.21009800  1
  O  O151  1  0.56905000  0.24890500  0.42305600  1
  O  O152  1  0.32075300  0.39661900  0.89002700  1
  O  O153  1  0.67924700  0.60338100  0.10997300  1
  O  O154  1  0.57408100  0.11495400  0.53148200  1
  O  O155  1  0.37664800  0.18334900  0.71965900  1
  O  O156  1  0.95832700  0.39293500  0.47974400  1
  O  O157  1  0.62335200  0.81665100  0.28034100  1
  O  O158  1  0.61689000  0.42713300  0.21713800  1
  O  O159  1  0.19930200  0.35490300  0.61826100  1
