# generated using pymatgen
data_Li4Ti5O12
_symmetry_space_group_name_H-M   'P 1'
_cell_length_a   5.96262877
_cell_length_b   5.96262877
_cell_length_c   13.33898705
_cell_angle_alpha   77.24143616
_cell_angle_beta   77.24143616
_cell_angle_gamma   89.83760677
_symmetry_Int_Tables_number   1
_chemical_formula_structural   Li4Ti5O12
_chemical_formula_sum   'Li8 Ti10 O24'
_cell_volume   450.58437089
_cell_formula_units_Z   2
loop_
 _symmetry_equiv_pos_site_id
 _symmetry_equiv_pos_as_xyz
  1  'x, y, z'
loop_
 _atom_site_type_symbol
 _atom_site_label
 _atom_site_symmetry_multiplicity
 _atom_site_fract_x
 _atom_site_fract_y
 _atom_site_fract_z
 _atom_site_occupancy
  Li  Li0  1  0.29503500  0.03803600  0.91701400  1
  Li  Li1  1  0.62485900  0.37514100  0.25000000  1
  Li  Li2  1  0.03803600  0.29503500  0.41701400  1
  Li  Li3  1  0.96196400  0.70496500  0.58298600  1
  Li  Li4  1  0.50000000  0.00000000  0.50000000  1
  Li  Li5  1  0.37514100  0.62485900  0.75000000  1
  Li  Li6  1  0.70496500  0.96196400  0.08298600  1
  Li  Li7  1  0.00000000  0.50000000  0.00000000  1
  Ti  Ti8  1  0.16164000  0.67073900  0.16070200  1
  Ti  Ti9  1  0.17320900  0.16497600  0.65676100  1
  Ti  Ti10  1  0.50000000  0.50000000  0.00000000  1
  Ti  Ti11  1  0.67073900  0.16164000  0.66070100  1
  Ti  Ti12  1  0.83502400  0.82679100  0.84323900  1
  Ti  Ti13  1  0.83836000  0.32926100  0.83929800  1
  Ti  Ti14  1  0.82679100  0.83502400  0.34323900  1
  Ti  Ti15  1  0.16497600  0.17320900  0.15676100  1
  Ti  Ti16  1  0.32926100  0.83836000  0.33929800  1
  Ti  Ti17  1  0.50000000  0.50000000  0.50000000  1
  O  O18  1  0.09007100  0.62247400  0.32196600  1
  O  O19  1  0.25905700  0.26389400  0.51138800  1
  O  O20  1  0.41369800  0.95644900  0.66819100  1
  O  O21  1  0.58187600  0.60485700  0.34147600  1
  O  O22  1  0.72355200  0.26177500  0.51264200  1
  O  O23  1  0.62247400  0.09007100  0.82196600  1
  O  O24  1  0.60485700  0.58187600  0.84147600  1
  O  O25  1  0.73822500  0.27644800  0.98735800  1
  O  O26  1  0.73610600  0.74094300  0.98861200  1
  O  O27  1  0.91573300  0.94342100  0.67093700  1
  O  O28  1  0.04355100  0.58630200  0.83180900  1
  O  O29  1  0.05657900  0.08426700  0.82906300  1
  O  O30  1  0.95644900  0.41369800  0.16819100  1
  O  O31  1  0.94342100  0.91573300  0.17093700  1
  O  O32  1  0.08426700  0.05657900  0.32906300  1
  O  O33  1  0.26177500  0.72355200  0.01264200  1
  O  O34  1  0.26389400  0.25905700  0.01138800  1
  O  O35  1  0.37752600  0.90992900  0.17803400  1
  O  O36  1  0.39514300  0.41812400  0.15852400  1
  O  O37  1  0.27644800  0.73822500  0.48735800  1
  O  O38  1  0.58630200  0.04355100  0.33180900  1
  O  O39  1  0.41812400  0.39514300  0.65852400  1
  O  O40  1  0.74094300  0.73610600  0.48861200  1
  O  O41  1  0.90992900  0.37752600  0.67803400  1
