# generated using pymatgen
data_TlSnF3
_symmetry_space_group_name_H-M   'P 1'
_cell_length_a   10.22689167
_cell_length_b   10.22689167
_cell_length_c   8.66113924
_cell_angle_alpha   71.96903396
_cell_angle_beta   71.96903396
_cell_angle_gamma   80.38286869
_symmetry_Int_Tables_number   1
_chemical_formula_structural   TlSnF3
_chemical_formula_sum   'Tl8 Sn8 F24'
_cell_volume   816.52520866
_cell_formula_units_Z   8
loop_
 _symmetry_equiv_pos_site_id
 _symmetry_equiv_pos_as_xyz
  1  'x, y, z'
loop_
 _atom_site_type_symbol
 _atom_site_label
 _atom_site_symmetry_multiplicity
 _atom_site_fract_x
 _atom_site_fract_y
 _atom_site_fract_z
 _atom_site_occupancy
  Tl  Tl0  1  0.97119700  0.51033600  0.74826900  1
  Tl  Tl1  1  0.84731200  0.89496600  0.54649800  1
  Tl  Tl2  1  0.10973300  0.14559400  0.95889300  1
  Tl  Tl3  1  0.48024500  0.01637500  0.75428600  1
  Tl  Tl4  1  0.51033600  0.97119700  0.24826900  1
  Tl  Tl5  1  0.89496600  0.84731200  0.04649800  1
  Tl  Tl6  1  0.14559400  0.10973300  0.45889300  1
  Tl  Tl7  1  0.01637500  0.48024500  0.25428600  1
  Sn  Sn8  1  0.38372900  0.37430200  0.95560100  1
  Sn  Sn9  1  0.73662300  0.21650500  0.77721100  1
  Sn  Sn10  1  0.25846700  0.73960500  0.75023200  1
  Sn  Sn11  1  0.63633400  0.61619400  0.54345600  1
  Sn  Sn12  1  0.37430200  0.38372900  0.45560100  1
  Sn  Sn13  1  0.73960500  0.25846700  0.25023200  1
  Sn  Sn14  1  0.21650500  0.73662300  0.27721100  1
  Sn  Sn15  1  0.61619400  0.63633400  0.04345600  1
  F  F16  1  0.68691200  0.83275600  0.91915400  1
  F  F17  1  0.82359600  0.27911700  0.95395400  1
  F  F18  1  0.70432600  0.62039600  0.76739500  1
  F  F19  1  0.17865100  0.43607600  0.95122200  1
  F  F20  1  0.24417300  0.95154800  0.72674100  1
  F  F21  1  0.91676100  0.08718000  0.74698200  1
  F  F22  1  0.05024400  0.76397200  0.75935900  1
  F  F23  1  0.56595800  0.82388300  0.54818500  1
  F  F24  1  0.83634500  0.38249800  0.60161300  1
  F  F25  1  0.38759700  0.30078600  0.72623900  1
  F  F26  1  0.83275600  0.68691200  0.41915400  1
  F  F27  1  0.72605100  0.17441700  0.53094100  1
  F  F28  1  0.27911700  0.82359600  0.45395400  1
  F  F29  1  0.17400900  0.32563000  0.57166900  1
  F  F30  1  0.62039600  0.70432600  0.26739500  1
  F  F31  1  0.43607600  0.17865100  0.45122200  1
  F  F32  1  0.95154800  0.24417300  0.22674100  1
  F  F33  1  0.08718000  0.91676100  0.24698200  1
  F  F34  1  0.76397200  0.05024400  0.25935900  1
  F  F35  1  0.82388300  0.56595800  0.04818500  1
  F  F36  1  0.38249800  0.83634500  0.10161300  1
  F  F37  1  0.30078600  0.38759700  0.22623900  1
  F  F38  1  0.17441700  0.72605100  0.03094100  1
  F  F39  1  0.32563000  0.17400900  0.07166900  1
