# generated using pymatgen
data_Cs3CrF7
_symmetry_space_group_name_H-M   'P 1'
_cell_length_a   8.51845800
_cell_length_b   8.51845800
_cell_length_c   6.37514600
_cell_angle_alpha   90.00000000
_cell_angle_beta   90.00000000
_cell_angle_gamma   90.00000000
_symmetry_Int_Tables_number   1
_chemical_formula_structural   Cs3CrF7
_chemical_formula_sum   'Cs6 Cr2 F14'
_cell_volume   462.60690206
_cell_formula_units_Z   2
loop_
 _symmetry_equiv_pos_site_id
 _symmetry_equiv_pos_as_xyz
  1  'x, y, z'
loop_
 _atom_site_type_symbol
 _atom_site_label
 _atom_site_symmetry_multiplicity
 _atom_site_fract_x
 _atom_site_fract_y
 _atom_site_fract_z
 _atom_site_occupancy
  Cs  Cs0  1  0.19333600  0.69333600  0.50000000  1
  Cs  Cs1  1  0.69333600  0.80666400  0.50000000  1
  Cs  Cs2  1  0.30666400  0.19333600  0.50000000  1
  Cs  Cs3  1  0.50000000  0.50000000  0.00000000  1
  Cs  Cs4  1  0.00000000  0.00000000  0.00000000  1
  Cs  Cs5  1  0.80666400  0.30666400  0.50000000  1
  Cr  Cr6  1  0.50000000  0.00000000  0.00000000  1
  Cr  Cr7  1  0.00000000  0.50000000  0.00000000  1
  F  F8  1  0.34619500  0.15380500  0.00000000  1
  F  F9  1  0.15380500  0.65380500  0.00000000  1
  F  F10  1  0.89128300  0.60871700  0.21065600  1
  F  F11  1  0.39128300  0.89128300  0.21065600  1
  F  F12  1  0.84619500  0.34619500  0.00000000  1
  F  F13  1  0.65380500  0.84619500  0.00000000  1
  F  F14  1  0.60871700  0.10871700  0.78934400  1
  F  F15  1  0.60871700  0.10871700  0.21065600  1
  F  F16  1  0.00000000  0.00000000  0.50000000  1
  F  F17  1  0.10871700  0.39128300  0.78934400  1
  F  F18  1  0.39128300  0.89128300  0.78934400  1
  F  F19  1  0.10871700  0.39128300  0.21065600  1
  F  F20  1  0.50000000  0.50000000  0.50000000  1
  F  F21  1  0.89128300  0.60871700  0.78934400  1
