# generated using pymatgen
data_In(HO)3
_symmetry_space_group_name_H-M   'P 1'
_cell_length_a   7.00957570
_cell_length_b   7.00957570
_cell_length_c   7.00957482
_cell_angle_alpha   109.53919158
_cell_angle_beta   109.53919158
_cell_angle_gamma   109.53918924
_symmetry_Int_Tables_number   1
_chemical_formula_structural   In(HO)3
_chemical_formula_sum   'In4 H12 O12'
_cell_volume   264.45726216
_cell_formula_units_Z   4
loop_
 _symmetry_equiv_pos_site_id
 _symmetry_equiv_pos_as_xyz
  1  'x, y, z'
loop_
 _atom_site_type_symbol
 _atom_site_label
 _atom_site_symmetry_multiplicity
 _atom_site_fract_x
 _atom_site_fract_y
 _atom_site_fract_z
 _atom_site_occupancy
  In  In0  1  0.50000000  0.00000000  0.00000000  1
  In  In1  1  0.00000000  0.50000000  0.00000000  1
  In  In2  1  0.00000000  0.00000000  0.50000000  1
  In  In3  1  0.50000000  0.50000000  0.50000000  1
  H  H4  1  0.44560900  0.82610400  0.27150600  1
  H  H5  1  0.55439100  0.17389600  0.72849400  1
  H  H6  1  0.31684900  0.04643300  0.36302000  1
  H  H7  1  0.68315100  0.95356700  0.63698000  1
  H  H8  1  0.82610400  0.27150600  0.44560900  1
  H  H9  1  0.17389600  0.72849400  0.55439100  1
  H  H10  1  0.04643300  0.36302000  0.31684900  1
  H  H11  1  0.95356700  0.63698000  0.68315100  1
  H  H12  1  0.27150600  0.44560900  0.82610400  1
  H  H13  1  0.72849400  0.55439100  0.17389600  1
  H  H14  1  0.36302000  0.31684900  0.04643300  1
  H  H15  1  0.63698000  0.68315100  0.95356700  1
  O  O16  1  0.32219100  0.83125400  0.15567200  1
  O  O17  1  0.67780900  0.16874600  0.84432800  1
  O  O18  1  0.32201800  0.16925500  0.49221300  1
  O  O19  1  0.67798200  0.83074500  0.50778700  1
  O  O20  1  0.83125400  0.15567200  0.32219100  1
  O  O21  1  0.16874600  0.84432800  0.67780900  1
  O  O22  1  0.16925500  0.49221300  0.32201800  1
  O  O23  1  0.83074500  0.50778700  0.67798200  1
  O  O24  1  0.15567200  0.32219100  0.83125400  1
  O  O25  1  0.84432800  0.67780900  0.16874600  1
  O  O26  1  0.49221300  0.32201800  0.16925500  1
  O  O27  1  0.50778700  0.67798200  0.83074500  1
