# generated using pymatgen
data_Cs3MgH5
_symmetry_space_group_name_H-M   'P 1'
_cell_length_a   8.74283410
_cell_length_b   8.74283410
_cell_length_c   8.74283410
_cell_angle_alpha   122.30328733
_cell_angle_beta   122.30328733
_cell_angle_gamma   86.05483681
_symmetry_Int_Tables_number   1
_chemical_formula_structural   Cs3MgH5
_chemical_formula_sum   'Cs6 Mg2 H10'
_cell_volume   454.91730720
_cell_formula_units_Z   2
loop_
 _symmetry_equiv_pos_site_id
 _symmetry_equiv_pos_as_xyz
  1  'x, y, z'
loop_
 _atom_site_type_symbol
 _atom_site_label
 _atom_site_symmetry_multiplicity
 _atom_site_fract_x
 _atom_site_fract_y
 _atom_site_fract_z
 _atom_site_occupancy
  Cs  Cs0  1  0.18242800  0.68242800  0.86485600  1
  Cs  Cs1  1  0.81757200  0.31757200  0.13514400  1
  Cs  Cs2  1  0.68242800  0.81757200  0.50000000  1
  Cs  Cs3  1  0.31757200  0.18242800  0.50000000  1
  Cs  Cs4  1  0.25000000  0.25000000  0.00000000  1
  Cs  Cs5  1  0.75000000  0.75000000  0.00000000  1
  Mg  Mg6  1  0.25000000  0.75000000  0.50000000  1
  Mg  Mg7  1  0.75000000  0.25000000  0.50000000  1
  H  H8  1  0.46257900  0.96257900  0.74925900  1
  H  H9  1  0.21331900  0.71331900  0.25074100  1
  H  H10  1  0.96257900  0.21331900  0.50000000  1
  H  H11  1  0.71331900  0.46257900  0.50000000  1
  H  H12  1  0.53742100  0.03742100  0.25074100  1
  H  H13  1  0.78668100  0.28668100  0.74925900  1
  H  H14  1  0.03742100  0.78668100  0.50000000  1
  H  H15  1  0.28668100  0.53742100  0.50000000  1
  H  H16  1  0.50000000  0.50000000  0.00000000  1
  H  H17  1  0.00000000  0.00000000  0.00000000  1
