# generated using pymatgen
data_Sm3Eu3S8
_symmetry_space_group_name_H-M   'P 1'
_cell_length_a   7.41044899
_cell_length_b   7.41044899
_cell_length_c   8.57249830
_cell_angle_alpha   54.96861168
_cell_angle_beta   54.96861168
_cell_angle_gamma   70.78574268
_symmetry_Int_Tables_number   1
_chemical_formula_structural   Sm3Eu3S8
_chemical_formula_sum   'Sm3 Eu3 S8'
_cell_volume   315.63999833
_cell_formula_units_Z   1
loop_
 _symmetry_equiv_pos_site_id
 _symmetry_equiv_pos_as_xyz
  1  'x, y, z'
loop_
 _atom_site_type_symbol
 _atom_site_label
 _atom_site_symmetry_multiplicity
 _atom_site_fract_x
 _atom_site_fract_y
 _atom_site_fract_z
 _atom_site_occupancy
  Sm  Sm0  1  0.62599600  0.12501100  0.87529200  1
  Sm  Sm1  1  0.37319500  0.62680500  0.00000000  1
  Sm  Sm2  1  0.87498900  0.37400400  0.12470800  1
  Eu  Eu3  1  0.12597300  0.87402700  0.50000000  1
  Eu  Eu4  1  0.74939600  0.75178000  0.37502100  1
  Eu  Eu5  1  0.24822000  0.25060400  0.62497900  1
  S  S6  1  0.50531300  0.15654700  0.23908800  1
  S  S7  1  0.99871100  0.84578000  0.90062100  1
  S  S8  1  0.15422000  0.00128900  0.09937900  1
  S  S9  1  0.99764100  0.35686100  0.39127400  1
  S  S10  1  0.50690900  0.64715600  0.23767400  1
  S  S11  1  0.84345300  0.49468700  0.76091200  1
  S  S12  1  0.64313900  0.00235900  0.60872600  1
  S  S13  1  0.35284400  0.49309100  0.76232600  1
