# generated using pymatgen
data_LaHO2
_symmetry_space_group_name_H-M   'P 1'
_cell_length_a   3.94023200
_cell_length_b   4.49418100
_cell_length_c   6.44094125
_cell_angle_alpha   72.32182140
_cell_angle_beta   90.00000000
_cell_angle_gamma   90.00000000
_symmetry_Int_Tables_number   1
_chemical_formula_structural   LaHO2
_chemical_formula_sum   'La2 H2 O4'
_cell_volume   108.67084623
_cell_formula_units_Z   2
loop_
 _symmetry_equiv_pos_site_id
 _symmetry_equiv_pos_as_xyz
  1  'x, y, z'
loop_
 _atom_site_type_symbol
 _atom_site_label
 _atom_site_symmetry_multiplicity
 _atom_site_fract_x
 _atom_site_fract_y
 _atom_site_fract_z
 _atom_site_occupancy
  La  La0  1  0.25000000  0.33138000  0.30737500  1
  La  La1  1  0.75000000  0.66862000  0.69262500  1
  H  H2  1  0.75000000  0.02264600  0.07953800  1
  H  H3  1  0.25000000  0.97735400  0.92046200  1
  O  O4  1  0.75000000  0.23820100  0.54282300  1
  O  O5  1  0.25000000  0.76179900  0.45717700  1
  O  O6  1  0.75000000  0.24596100  0.06295800  1
  O  O7  1  0.25000000  0.75403900  0.93704200  1
