# generated using pymatgen
data_NaSr3RuO6
_symmetry_space_group_name_H-M   'P 1'
_cell_length_a   6.83117998
_cell_length_b   6.83117998
_cell_length_c   6.83117998
_cell_angle_alpha   90.81839776
_cell_angle_beta   90.81839776
_cell_angle_gamma   90.81839546
_symmetry_Int_Tables_number   1
_chemical_formula_structural   NaSr3RuO6
_chemical_formula_sum   'Na2 Sr6 Ru2 O12'
_cell_volume   318.67865478
_cell_formula_units_Z   2
loop_
 _symmetry_equiv_pos_site_id
 _symmetry_equiv_pos_as_xyz
  1  'x, y, z'
loop_
 _atom_site_type_symbol
 _atom_site_label
 _atom_site_symmetry_multiplicity
 _atom_site_fract_x
 _atom_site_fract_y
 _atom_site_fract_z
 _atom_site_occupancy
  Na  Na0  1  0.25000000  0.25000000  0.25000000  1
  Na  Na1  1  0.75000000  0.75000000  0.75000000  1
  Sr  Sr2  1  0.75000000  0.39202100  0.10797900  1
  Sr  Sr3  1  0.10797900  0.75000000  0.39202100  1
  Sr  Sr4  1  0.39202100  0.10797900  0.75000000  1
  Sr  Sr5  1  0.25000000  0.60797900  0.89202100  1
  Sr  Sr6  1  0.89202100  0.25000000  0.60797900  1
  Sr  Sr7  1  0.60797900  0.89202100  0.25000000  1
  Ru  Ru8  1  0.00000000  0.00000000  0.00000000  1
  Ru  Ru9  1  0.50000000  0.50000000  0.50000000  1
  O  O10  1  0.44462400  0.77833200  0.57547000  1
  O  O11  1  0.57547000  0.44462400  0.77833200  1
  O  O12  1  0.77833200  0.57547000  0.44462400  1
  O  O13  1  0.05537600  0.92453000  0.72166800  1
  O  O14  1  0.72166800  0.05537600  0.92453000  1
  O  O15  1  0.92453000  0.72166800  0.05537600  1
  O  O16  1  0.55537600  0.22166800  0.42453000  1
  O  O17  1  0.42453000  0.55537600  0.22166800  1
  O  O18  1  0.22166800  0.42453000  0.55537600  1
  O  O19  1  0.94462400  0.07547000  0.27833200  1
  O  O20  1  0.07547000  0.27833200  0.94462400  1
  O  O21  1  0.27833200  0.94462400  0.07547000  1
