# generated using pymatgen
data_Ca3Be2Si3(HO6)2
_symmetry_space_group_name_H-M   'P 1'
_cell_length_a   9.89928400
_cell_length_b   9.89928400
_cell_length_c   9.95995300
_cell_angle_alpha   90.00000000
_cell_angle_beta   90.00000000
_cell_angle_gamma   90.00000000
_symmetry_Int_Tables_number   1
_chemical_formula_structural   Ca3Be2Si3(HO6)2
_chemical_formula_sum   'Ca12 Be8 Si12 H8 O48'
_cell_volume   976.03379837
_cell_formula_units_Z   4
loop_
 _symmetry_equiv_pos_site_id
 _symmetry_equiv_pos_as_xyz
  1  'x, y, z'
loop_
 _atom_site_type_symbol
 _atom_site_label
 _atom_site_symmetry_multiplicity
 _atom_site_fract_x
 _atom_site_fract_y
 _atom_site_fract_z
 _atom_site_occupancy
  Ca  Ca0  1  0.20594400  0.81433700  0.99028100  1
  Ca  Ca1  1  0.79405600  0.18566300  0.99028100  1
  Ca  Ca2  1  0.31433700  0.29405600  0.49028100  1
  Ca  Ca3  1  0.68566300  0.70594400  0.49028100  1
  Ca  Ca4  1  0.29405600  0.68566300  0.50971900  1
  Ca  Ca5  1  0.70594400  0.31433700  0.50971900  1
  Ca  Ca6  1  0.18566300  0.20594400  0.00971900  1
  Ca  Ca7  1  0.81433700  0.79405600  0.00971900  1
  Ca  Ca8  1  0.50000000  0.00000000  0.99032600  1
  Ca  Ca9  1  0.50000000  0.00000000  0.49032600  1
  Ca  Ca10  1  0.00000000  0.50000000  0.50967400  1
  Ca  Ca11  1  0.00000000  0.50000000  0.00967400  1
  Be  Be12  1  0.48203100  0.78748700  0.72345900  1
  Be  Be13  1  0.51796900  0.21251300  0.72345900  1
  Be  Be14  1  0.28748700  0.01796900  0.22345900  1
  Be  Be15  1  0.71251300  0.98203100  0.22345900  1
  Be  Be16  1  0.01796900  0.71251300  0.77654100  1
  Be  Be17  1  0.98203100  0.28748700  0.77654100  1
  Be  Be18  1  0.21251300  0.48203100  0.27654100  1
  Be  Be19  1  0.78748700  0.51796900  0.27654100  1
  Si  Si20  1  0.48706800  0.78843000  0.22070400  1
  Si  Si21  1  0.51293200  0.21157000  0.22070400  1
  Si  Si22  1  0.28843000  0.01293200  0.72070400  1
  Si  Si23  1  0.71157000  0.98706800  0.72070400  1
  Si  Si24  1  0.01293200  0.71157000  0.27929600  1
  Si  Si25  1  0.98706800  0.28843000  0.27929600  1
  Si  Si26  1  0.21157000  0.48706800  0.77929600  1
  Si  Si27  1  0.78843000  0.51293200  0.77929600  1
  Si  Si28  1  0.00000000  0.00000000  0.23946800  1
  Si  Si29  1  0.50000000  0.50000000  0.73946800  1
  Si  Si30  1  0.50000000  0.50000000  0.26053200  1
  Si  Si31  1  0.00000000  0.00000000  0.76053200  1
  H  H32  1  0.70604100  0.50450800  0.07029600  1
  H  H33  1  0.29395900  0.49549200  0.07029600  1
  H  H34  1  0.00450800  0.79395900  0.57029600  1
  H  H35  1  0.99549200  0.20604100  0.57029600  1
  H  H36  1  0.79395900  0.99549200  0.42970400  1
  H  H37  1  0.20604100  0.00450800  0.42970400  1
  H  H38  1  0.49549200  0.70604100  0.92970400  1
  H  H39  1  0.50450800  0.29395900  0.92970400  1
  O  O40  1  0.64081500  0.12308600  0.16281300  1
  O  O41  1  0.35918500  0.87691400  0.16281300  1
  O  O42  1  0.62308600  0.85918500  0.66281300  1
  O  O43  1  0.37691400  0.14081500  0.66281300  1
  O  O44  1  0.85918500  0.37691400  0.33718700  1
  O  O45  1  0.14081500  0.62308600  0.33718700  1
  O  O46  1  0.87691400  0.64081500  0.83718700  1
  O  O47  1  0.12308600  0.35918500  0.83718700  1
  O  O48  1  0.62536200  0.85573300  0.15638300  1
  O  O49  1  0.37463800  0.14426700  0.15638300  1
  O  O50  1  0.35573300  0.87463800  0.65638300  1
  O  O51  1  0.64426700  0.12536200  0.65638300  1
  O  O52  1  0.87463800  0.64426700  0.34361700  1
  O  O53  1  0.12536200  0.35573300  0.34361700  1
  O  O54  1  0.14426700  0.62536200  0.84361700  1
  O  O55  1  0.85573300  0.37463800  0.84361700  1
  O  O56  1  0.86300100  0.98250100  0.14931300  1
  O  O57  1  0.13699900  0.01749900  0.14931300  1
  O  O58  1  0.48250100  0.63699900  0.64931300  1
  O  O59  1  0.51749900  0.36300100  0.64931300  1
  O  O60  1  0.63699900  0.51749900  0.35068700  1
  O  O61  1  0.36300100  0.48250100  0.35068700  1
  O  O62  1  0.01749900  0.86300100  0.85068700  1
  O  O63  1  0.98250100  0.13699900  0.85068700  1
  O  O64  1  0.52271300  0.36825200  0.15977500  1
  O  O65  1  0.47728700  0.63174800  0.15977500  1
  O  O66  1  0.86825200  0.97728700  0.65977500  1
  O  O67  1  0.13174800  0.02271300  0.65977500  1
  O  O68  1  0.97728700  0.13174800  0.34022500  1
  O  O69  1  0.02271300  0.86825200  0.34022500  1
  O  O70  1  0.63174800  0.52271300  0.84022500  1
  O  O71  1  0.36825200  0.47728700  0.84022500  1
  O  O72  1  0.78525600  0.54162100  0.11525100  1
  O  O73  1  0.21474400  0.45837900  0.11525100  1
  O  O74  1  0.04162100  0.71474400  0.61525100  1
  O  O75  1  0.95837900  0.28525600  0.61525100  1
  O  O76  1  0.71474400  0.95837900  0.38474900  1
  O  O77  1  0.28525600  0.04162100  0.38474900  1
  O  O78  1  0.45837900  0.78525600  0.88474900  1
  O  O79  1  0.54162100  0.21474400  0.88474900  1
  O  O80  1  0.01660800  0.71664900  0.11580900  1
  O  O81  1  0.98339200  0.28335100  0.11580900  1
  O  O82  1  0.21664900  0.48339200  0.61580900  1
  O  O83  1  0.78335100  0.51660800  0.61580900  1
  O  O84  1  0.48339200  0.78335100  0.38419100  1
  O  O85  1  0.51660800  0.21664900  0.38419100  1
  O  O86  1  0.28335100  0.01660800  0.88419100  1
  O  O87  1  0.71664900  0.98339200  0.88419100  1
