# generated using pymatgen
data_La(CuSn)2
_symmetry_space_group_name_H-M   'P 1'
_cell_length_a   4.54087100
_cell_length_b   4.54087100
_cell_length_c   10.55881700
_cell_angle_alpha   90.00000000
_cell_angle_beta   90.00000000
_cell_angle_gamma   90.00000000
_symmetry_Int_Tables_number   1
_chemical_formula_structural   La(CuSn)2
_chemical_formula_sum   'La2 Cu4 Sn4'
_cell_volume   217.71762679
_cell_formula_units_Z   2
loop_
 _symmetry_equiv_pos_site_id
 _symmetry_equiv_pos_as_xyz
  1  'x, y, z'
loop_
 _atom_site_type_symbol
 _atom_site_label
 _atom_site_symmetry_multiplicity
 _atom_site_fract_x
 _atom_site_fract_y
 _atom_site_fract_z
 _atom_site_occupancy
  La  La0  1  0.50000000  0.00000000  0.76061200  1
  La  La1  1  0.00000000  0.50000000  0.23938800  1
  Cu  Cu2  1  0.00000000  0.50000000  0.63320900  1
  Cu  Cu3  1  0.50000000  0.00000000  0.36679100  1
  Cu  Cu4  1  0.00000000  0.00000000  0.00000000  1
  Cu  Cu5  1  0.50000000  0.50000000  0.00000000  1
  Sn  Sn6  1  0.50000000  0.50000000  0.50000000  1
  Sn  Sn7  1  0.00000000  0.50000000  0.87470700  1
  Sn  Sn8  1  0.50000000  0.00000000  0.12529300  1
  Sn  Sn9  1  0.00000000  0.00000000  0.50000000  1
