# generated using pymatgen
data_Ba(H2O3)2
_symmetry_space_group_name_H-M   'P 1'
_cell_length_a   6.12970586
_cell_length_b   6.12970586
_cell_length_c   8.82731434
_cell_angle_alpha   77.59074863
_cell_angle_beta   77.59074863
_cell_angle_gamma   60.41948304
_symmetry_Int_Tables_number   1
_chemical_formula_structural   Ba(H2O3)2
_chemical_formula_sum   'Ba2 H8 O12'
_cell_volume   279.38213671
_cell_formula_units_Z   2
loop_
 _symmetry_equiv_pos_site_id
 _symmetry_equiv_pos_as_xyz
  1  'x, y, z'
loop_
 _atom_site_type_symbol
 _atom_site_label
 _atom_site_symmetry_multiplicity
 _atom_site_fract_x
 _atom_site_fract_y
 _atom_site_fract_z
 _atom_site_occupancy
  Ba  Ba0  1  0.13754500  0.86245500  0.75000000  1
  Ba  Ba1  1  0.86245500  0.13754500  0.25000000  1
  H  H2  1  0.73257900  0.59807400  0.62438900  1
  H  H3  1  0.40192600  0.26742100  0.87561100  1
  H  H4  1  0.26742100  0.40192600  0.37561100  1
  H  H5  1  0.59807400  0.73257900  0.12438900  1
  H  H6  1  0.41414300  0.33265400  0.51550700  1
  H  H7  1  0.66734600  0.58585700  0.98449300  1
  H  H8  1  0.58585700  0.66734600  0.48449300  1
  H  H9  1  0.33265400  0.41414300  0.01550700  1
  O  O10  1  0.80481200  0.93000700  0.55727800  1
  O  O11  1  0.06999300  0.19518800  0.94272200  1
  O  O12  1  0.19518800  0.06999300  0.44272200  1
  O  O13  1  0.93000700  0.80481200  0.05727800  1
  O  O14  1  0.65060000  0.97943000  0.69426200  1
  O  O15  1  0.02057000  0.34940000  0.80573800  1
  O  O16  1  0.34940000  0.02057000  0.30573800  1
  O  O17  1  0.97943000  0.65060000  0.19426200  1
  O  O18  1  0.61778800  0.56152100  0.58573800  1
  O  O19  1  0.43847900  0.38221200  0.91426200  1
  O  O20  1  0.38221200  0.43847900  0.41426200  1
  O  O21  1  0.56152100  0.61778800  0.08573800  1
