# generated using pymatgen
data_Pr4Si4N7ClO3
_symmetry_space_group_name_H-M   'P 1'
_cell_length_a   10.42306400
_cell_length_b   10.49524100
_cell_length_c   10.61953200
_cell_angle_alpha   90.00000000
_cell_angle_beta   90.00000000
_cell_angle_gamma   90.00000000
_symmetry_Int_Tables_number   1
_chemical_formula_structural   Pr4Si4N7ClO3
_chemical_formula_sum   'Pr16 Si16 N28 Cl4 O12'
_cell_volume   1161.69788322
_cell_formula_units_Z   4
loop_
 _symmetry_equiv_pos_site_id
 _symmetry_equiv_pos_as_xyz
  1  'x, y, z'
loop_
 _atom_site_type_symbol
 _atom_site_label
 _atom_site_symmetry_multiplicity
 _atom_site_fract_x
 _atom_site_fract_y
 _atom_site_fract_z
 _atom_site_occupancy
  Pr  Pr0  1  0.81752300  0.68758200  0.04419900  1
  Pr  Pr1  1  0.10631900  0.10742900  0.10125900  1
  Pr  Pr2  1  0.19234200  0.44899100  0.17798700  1
  Pr  Pr3  1  0.45445800  0.18390200  0.18959000  1
  Pr  Pr4  1  0.54554200  0.68390200  0.31041000  1
  Pr  Pr5  1  0.80765800  0.94899100  0.32201300  1
  Pr  Pr6  1  0.89368100  0.60742900  0.39874100  1
  Pr  Pr7  1  0.18247700  0.18758200  0.45580100  1
  Pr  Pr8  1  0.68247700  0.31241800  0.54419900  1
  Pr  Pr9  1  0.39368100  0.89257100  0.60125900  1
  Pr  Pr10  1  0.30765800  0.55100900  0.67798700  1
  Pr  Pr11  1  0.04554200  0.81609800  0.68959000  1
  Pr  Pr12  1  0.95445800  0.31609800  0.81041000  1
  Pr  Pr13  1  0.69234200  0.05100900  0.82201300  1
  Pr  Pr14  1  0.60631900  0.39257100  0.89874100  1
  Pr  Pr15  1  0.31752300  0.81241800  0.95580100  1
  Si  Si16  1  0.57240000  0.92901700  0.07102400  1
  Si  Si17  1  0.74631200  0.19786700  0.07709600  1
  Si  Si18  1  0.08169000  0.74151800  0.19497000  1
  Si  Si19  1  0.30455200  0.91754600  0.24361000  1
  Si  Si20  1  0.69544800  0.41754600  0.25639000  1
  Si  Si21  1  0.91831000  0.24151800  0.30503000  1
  Si  Si22  1  0.25368800  0.69786700  0.42290400  1
  Si  Si23  1  0.42760000  0.42901700  0.42897600  1
  Si  Si24  1  0.92760000  0.07098300  0.57102400  1
  Si  Si25  1  0.75368800  0.80213300  0.57709600  1
  Si  Si26  1  0.41831000  0.25848200  0.69497000  1
  Si  Si27  1  0.19544800  0.08245400  0.74361000  1
  Si  Si28  1  0.80455200  0.58245400  0.75639000  1
  Si  Si29  1  0.58169000  0.75848200  0.80503000  1
  Si  Si30  1  0.24631200  0.30213300  0.92290400  1
  Si  Si31  1  0.07240000  0.57098300  0.92897600  1
  N  N32  1  0.63407500  0.07805500  0.05414900  1
  N  N33  1  0.28643900  0.25786000  0.07356200  1
  N  N34  1  0.05203100  0.63319500  0.07717000  1
  N  N35  1  0.64980700  0.32418300  0.13226400  1
  N  N36  1  0.42232900  0.94486300  0.13450600  1
  N  N37  1  0.17535700  0.86919100  0.15037800  1
  N  N38  1  0.86907700  0.15151600  0.17746700  1
  N  N39  1  0.13092300  0.65151700  0.32253300  1
  N  N40  1  0.82464300  0.36919100  0.34962200  1
  N  N41  1  0.57767100  0.44486300  0.36549400  1
  N  N42  1  0.35019300  0.82418300  0.36773600  1
  N  N43  1  0.94796900  0.13319500  0.42283000  1
  N  N44  1  0.71356100  0.75786000  0.42643800  1
  N  N45  1  0.36592500  0.57805500  0.44585100  1
  N  N46  1  0.86592500  0.92194500  0.55414900  1
  N  N47  1  0.21356100  0.74214000  0.57356200  1
  N  N48  1  0.44796900  0.36680500  0.57717000  1
  N  N49  1  0.85019300  0.67581700  0.63226400  1
  N  N50  1  0.07767100  0.05513700  0.63450600  1
  N  N51  1  0.32464300  0.13080900  0.65037800  1
  N  N52  1  0.63092300  0.84848300  0.67746700  1
  N  N53  1  0.36907700  0.34848400  0.82253300  1
  N  N54  1  0.67535700  0.63080900  0.84962200  1
  N  N55  1  0.92232900  0.55513700  0.86549400  1
  N  N56  1  0.14980700  0.17581700  0.86773600  1
  N  N57  1  0.55203100  0.86680500  0.92283000  1
  N  N58  1  0.78643900  0.24214000  0.92643800  1
  N  N59  1  0.13407500  0.42194500  0.94585100  1
  Cl  Cl60  1  0.42522000  0.57779700  0.07109100  1
  Cl  Cl61  1  0.57478000  0.07779700  0.42890900  1
  Cl  Cl62  1  0.07478000  0.42220300  0.57109100  1
  Cl  Cl63  1  0.92522000  0.92220300  0.92890900  1
  O  O64  1  0.66578900  0.83523100  0.15870500  1
  O  O65  1  0.73985600  0.56552300  0.21053200  1
  O  O66  1  0.93118000  0.78565100  0.23545800  1
  O  O67  1  0.06882000  0.28565100  0.26454200  1
  O  O68  1  0.26014400  0.06552300  0.28946800  1
  O  O69  1  0.33421100  0.33523100  0.34129500  1
  O  O70  1  0.83421100  0.16476900  0.65870500  1
  O  O71  1  0.76014400  0.43447700  0.71053200  1
  O  O72  1  0.56882000  0.21434900  0.73545800  1
  O  O73  1  0.43118000  0.71434900  0.76454200  1
  O  O74  1  0.23985600  0.93447700  0.78946800  1
  O  O75  1  0.16578900  0.66476900  0.84129500  1
