# generated using pymatgen
data_Ba2La3Si3O12F
_symmetry_space_group_name_H-M   'P 1'
_cell_length_a   10.01028100
_cell_length_b   10.01321106
_cell_length_c   14.90735236
_cell_angle_alpha   90.07861601
_cell_angle_beta   89.98893853
_cell_angle_gamma   119.66198988
_symmetry_Int_Tables_number   1
_chemical_formula_structural   Ba2La3Si3O12F
_chemical_formula_sum   'Ba8 La12 Si12 O48 F4'
_cell_volume   1298.43277895
_cell_formula_units_Z   4
loop_
 _symmetry_equiv_pos_site_id
 _symmetry_equiv_pos_as_xyz
  1  'x, y, z'
loop_
 _atom_site_type_symbol
 _atom_site_label
 _atom_site_symmetry_multiplicity
 _atom_site_fract_x
 _atom_site_fract_y
 _atom_site_fract_z
 _atom_site_occupancy
  Ba  Ba0  1  0.25553600  0.01731000  0.87494000  1
  Ba  Ba1  1  0.66822400  0.33222400  0.49828000  1
  Ba  Ba2  1  0.66698400  0.33385500  0.25177100  1
  Ba  Ba3  1  0.98360200  0.23656100  0.87435400  1
  Ba  Ba4  1  0.33269300  0.66613800  0.24980600  1
  Ba  Ba5  1  0.33026100  0.66523900  0.00143100  1
  Ba  Ba6  1  0.33421300  0.66814800  0.49988100  1
  Ba  Ba7  1  0.74723300  0.98359600  0.62425700  1
  La  La8  1  0.25823600  0.00808300  0.37610600  1
  La  La9  1  0.74522400  0.73815200  0.87395200  1
  La  La10  1  0.74750600  0.74138100  0.37488500  1
  La  La11  1  0.66603300  0.33134800  0.99919900  1
  La  La12  1  0.67064400  0.32803300  0.74738100  1
  La  La13  1  0.00839200  0.74955800  0.62740100  1
  La  La14  1  0.00781000  0.74678600  0.12208700  1
  La  La15  1  0.99340200  0.25352500  0.37713400  1
  La  La16  1  0.32994500  0.66519000  0.75273900  1
  La  La17  1  0.25781200  0.26396500  0.62692800  1
  La  La18  1  0.25557200  0.26198900  0.12342000  1
  La  La19  1  0.74043400  0.99296800  0.12413300  1
  Si  Si20  1  0.63243300  0.60223700  0.63050600  1
  Si  Si21  1  0.64147800  0.61056500  0.12243700  1
  Si  Si22  1  0.39292600  0.03419400  0.62748800  1
  Si  Si23  1  0.39126000  0.03339900  0.12591700  1
  Si  Si24  1  0.02650000  0.62898000  0.87262600  1
  Si  Si25  1  0.02550600  0.64068300  0.37490800  1
  Si  Si26  1  0.97189000  0.37049000  0.62712700  1
  Si  Si27  1  0.96578800  0.35797600  0.12546800  1
  Si  Si28  1  0.59915400  0.96594000  0.87570600  1
  Si  Si29  1  0.61308500  0.97277000  0.37115200  1
  Si  Si30  1  0.36069700  0.38495100  0.37479700  1
  Si  Si31  1  0.37824000  0.40207300  0.87335600  1
  O  O32  1  0.33289900  0.08273100  0.53572500  1
  O  O33  1  0.35270800  0.11340600  0.04052800  1
  O  O34  1  0.34243800  0.11021700  0.70977600  1
  O  O35  1  0.33760800  0.09452500  0.21472400  1
  O  O36  1  0.50827500  0.34430000  0.87449800  1
  O  O37  1  0.45555500  0.29115900  0.37535400  1
  O  O38  1  0.53537500  0.41162300  0.63135900  1
  O  O39  1  0.53232300  0.42041800  0.11927900  1
  O  O40  1  0.75214500  0.65493600  0.71745200  1
  O  O41  1  0.75939200  0.66502500  0.20958700  1
  O  O42  1  0.74672500  0.66764100  0.54189500  1
  O  O43  1  0.75363000  0.65299000  0.03244000  1
  O  O44  1  0.58107700  0.10983500  0.12093000  1
  O  O45  1  0.58112500  0.12316600  0.63229500  1
  O  O46  1  0.83681100  0.50657500  0.87445500  1
  O  O47  1  0.83722600  0.54626300  0.37541300  1
  O  O48  1  0.65583700  0.15365300  0.87561500  1
  O  O49  1  0.70721000  0.16047400  0.37502600  1
  O  O50  1  0.88860500  0.47940600  0.62761700  1
  O  O51  1  0.88874400  0.47200200  0.12049800  1
  O  O52  1  0.07611700  0.73811900  0.78161800  1
  O  O53  1  0.07258500  0.73603700  0.96440900  1
  O  O54  1  0.09130100  0.75624000  0.28656800  1
  O  O55  1  0.09180800  0.75576900  0.46396600  1
  O  O56  1  0.92768500  0.26853900  0.53394400  1
  O  O57  1  0.89218800  0.25756400  0.71328500  1
  O  O58  1  0.88676800  0.24049900  0.03980500  1
  O  O59  1  0.90630100  0.24504900  0.21457300  1
  O  O60  1  0.12662000  0.53990800  0.86687000  1
  O  O61  1  0.09745900  0.52362000  0.37419000  1
  O  O62  1  0.31319700  0.84461100  0.63572400  1
  O  O63  1  0.29957700  0.84570300  0.12351700  1
  O  O64  1  0.15379900  0.45443600  0.12339000  1
  O  O65  1  0.16085800  0.47614400  0.63631000  1
  O  O66  1  0.41135700  0.86841100  0.86766700  1
  O  O67  1  0.42495600  0.90438000  0.37296700  1
  O  O68  1  0.27001600  0.34104800  0.96378200  1
  O  O69  1  0.24597000  0.33743200  0.46370100  1
  O  O70  1  0.26937200  0.34720500  0.78274700  1
  O  O71  1  0.24454100  0.33585400  0.28658700  1
  O  O72  1  0.47210500  0.59273600  0.86944000  1
  O  O73  1  0.47816200  0.57283600  0.37420000  1
  O  O74  1  0.50921400  0.66487600  0.63716100  1
  O  O75  1  0.54192300  0.69904800  0.12354300  1
  O  O76  1  0.66487500  0.90564100  0.79305800  1
  O  O77  1  0.66361700  0.91856900  0.96630300  1
  O  O78  1  0.66159500  0.90840400  0.28117700  1
  O  O79  1  0.65978600  0.89672400  0.45486000  1
  F  F80  1  0.97621400  0.97183900  0.87409200  1
  F  F81  1  0.00161300  0.00049000  0.12186800  1
  F  F82  1  0.02477400  0.00365800  0.62734200  1
  F  F83  1  0.99922200  0.99996300  0.37530100  1
