# generated using pymatgen
data_Bi2Te4Pb
_symmetry_space_group_name_H-M   'P 1'
_cell_length_a   14.43277971
_cell_length_b   14.43277971
_cell_length_c   14.43278037
_cell_angle_alpha   17.99473149
_cell_angle_beta   17.99473149
_cell_angle_gamma   17.99473331
_symmetry_Int_Tables_number   1
_chemical_formula_structural   Bi2Te4Pb
_chemical_formula_sum   'Bi2 Te4 Pb1'
_cell_volume   250.52675570
_cell_formula_units_Z   1
loop_
 _symmetry_equiv_pos_site_id
 _symmetry_equiv_pos_as_xyz
  1  'x, y, z'
loop_
 _atom_site_type_symbol
 _atom_site_label
 _atom_site_symmetry_multiplicity
 _atom_site_fract_x
 _atom_site_fract_y
 _atom_site_fract_z
 _atom_site_occupancy
  Bi  Bi0  1  0.42791200  0.42791200  0.42791200  1
  Bi  Bi1  1  0.57208800  0.57208800  0.57208800  1
  Te  Te2  1  0.13404800  0.13404800  0.13404800  1
  Te  Te3  1  0.28667900  0.28667900  0.28667900  1
  Te  Te4  1  0.71332100  0.71332100  0.71332100  1
  Te  Te5  1  0.86595200  0.86595200  0.86595200  1
  Pb  Pb6  1  0.00000000  0.00000000  0.00000000  1
