# generated using pymatgen
data_Ti45Se16
_symmetry_space_group_name_H-M   'P 1'
_cell_length_a   3.46536314
_cell_length_b   16.45968269
_cell_length_c   17.78670843
_cell_angle_alpha   91.56831077
_cell_angle_beta   95.59008840
_cell_angle_gamma   90.00577845
_symmetry_Int_Tables_number   1
_chemical_formula_structural   Ti45Se16
_chemical_formula_sum   'Ti45 Se16'
_cell_volume   1009.32512817
_cell_formula_units_Z   1
loop_
 _symmetry_equiv_pos_site_id
 _symmetry_equiv_pos_as_xyz
  1  'x, y, z'
loop_
 _atom_site_type_symbol
 _atom_site_label
 _atom_site_symmetry_multiplicity
 _atom_site_fract_x
 _atom_site_fract_y
 _atom_site_fract_z
 _atom_site_occupancy
  Ti  Ti0  1  0.27208200  0.34364200  0.54403800  1
  Ti  Ti1  1  0.65862400  0.93246500  0.31500700  1
  Ti  Ti2  1  0.64801100  0.53029300  0.28766800  1
  Ti  Ti3  1  0.62268100  0.33274100  0.24310900  1
  Ti  Ti4  1  0.44085300  0.44065700  0.88093400  1
  Ti  Ti5  1  0.35854800  0.47006800  0.71307800  1
  Ti  Ti6  1  0.38116900  0.66789600  0.75651100  1
  Ti  Ti7  1  0.47338300  0.63172100  0.94227000  1
  Ti  Ti8  1  0.56785100  0.16572500  0.13417500  1
  Ti  Ti9  1  0.96564800  0.95520800  0.92648700  1
  Ti  Ti10  1  0.73343600  0.65796400  0.45605300  1
  Ti  Ti11  1  0.56169200  0.55887200  0.11884200  1
  Ti  Ti12  1  0.69781800  0.09988200  0.40099700  1
  Ti  Ti13  1  0.13437800  0.06622000  0.26846200  1
  Ti  Ti14  1  0.74024600  0.86088200  0.47348600  1
  Ti  Ti15  1  0.30271700  0.90080400  0.59898600  1
  Ti  Ti16  1  0.78208700  0.01970200  0.56196700  1
  Ti  Ti17  1  0.18493800  0.25136500  0.37278800  1
  Ti  Ti18  1  0.78202400  0.48562200  0.55900700  1
  Ti  Ti19  1  0.18394700  0.79553000  0.35979900  1
  Ti  Ti20  1  0.26202800  0.13976700  0.52653300  1
  Ti  Ti21  1  0.99481900  0.79626500  0.98615000  1
  Ti  Ti22  1  0.09235700  0.87505600  0.17863300  1
  Ti  Ti23  1  0.00076900  0.50012100  0.99966900  1
  Ti  Ti24  1  0.89765300  0.33638800  0.79390600  1
  Ti  Ti25  1  0.91276100  0.12526300  0.82108100  1
  Ti  Ti26  1  0.91565800  0.55066400  0.82750400  1
  Ti  Ti27  1  0.08822300  0.44943000  0.17296700  1
  Ti  Ti28  1  0.52320100  0.90882200  0.04239000  1
  Ti  Ti29  1  0.43500200  0.83447500  0.86573800  1
  Ti  Ti30  1  0.52890400  0.36870900  0.05775600  1
  Ti  Ti31  1  0.55473100  0.75387600  0.10471800  1
  Ti  Ti32  1  0.29322100  0.61464900  0.57961400  1
  Ti  Ti33  1  0.10667200  0.66332300  0.20611600  1
  Ti  Ti34  1  0.82145800  0.20570600  0.63997500  1
  Ti  Ti35  1  0.44731500  0.24611000  0.89512600  1
  Ti  Ti36  1  0.00737300  0.20353000  0.01351700  1
  Ti  Ti37  1  0.86831300  0.93469200  0.73016900  1
  Ti  Ti38  1  0.71170600  0.38629000  0.42064900  1
  Ti  Ti39  1  0.22361700  0.51547600  0.44090400  1
  Ti  Ti40  1  0.34497400  0.06876500  0.68385300  1
  Ti  Ti41  1  0.21880900  0.98060700  0.43720000  1
  Ti  Ti42  1  0.48025000  0.09133500  0.95644000  1
  Ti  Ti43  1  0.81795800  0.74945000  0.62775000  1
  Ti  Ti44  1  0.03841700  0.04504200  0.07239500  1
  Se  Se45  1  0.02939500  0.65024100  0.05400500  1
  Se  Se46  1  0.17961600  0.63639400  0.34717000  1
  Se  Se47  1  0.37648100  0.21850200  0.74989100  1
  Se  Se48  1  0.63873600  0.18435200  0.27897900  1
  Se  Se49  1  0.97262300  0.34958000  0.94617200  1
  Se  Se50  1  0.26359900  0.75832300  0.51852100  1
  Se  Se51  1  0.58943700  0.99788100  0.17486100  1
  Se  Se52  1  0.07087300  0.28887300  0.14050700  1
  Se  Se53  1  0.36423900  0.81654500  0.72109600  1
  Se  Se54  1  0.16150500  0.41538100  0.31854400  1
  Se  Se55  1  0.84372000  0.58473400  0.68175200  1
  Se  Se56  1  0.62898100  0.78187900  0.24991900  1
  Se  Se57  1  0.82739400  0.36468000  0.65301200  1
  Se  Se58  1  0.73946300  0.24264600  0.48207300  1
  Se  Se59  1  0.41465500  0.00271300  0.82380700  1
  Se  Se60  1  0.93200900  0.71122800  0.85915300  1
