# generated using pymatgen
data_YCBr
_symmetry_space_group_name_H-M   'P 1'
_cell_length_a   4.02928774
_cell_length_b   4.02928774
_cell_length_c   10.04420137
_cell_angle_alpha   81.51090581
_cell_angle_beta   81.51090581
_cell_angle_gamma   57.02514807
_symmetry_Int_Tables_number   1
_chemical_formula_structural   YCBr
_chemical_formula_sum   'Y2 C2 Br2'
_cell_volume   134.85604171
_cell_formula_units_Z   2
loop_
 _symmetry_equiv_pos_site_id
 _symmetry_equiv_pos_as_xyz
  1  'x, y, z'
loop_
 _atom_site_type_symbol
 _atom_site_label
 _atom_site_symmetry_multiplicity
 _atom_site_fract_x
 _atom_site_fract_y
 _atom_site_fract_z
 _atom_site_occupancy
  Y  Y0  1  0.40708400  0.40708400  0.85563800  1
  Y  Y1  1  0.59291600  0.59291600  0.14436200  1
  C  C2  1  0.08766700  0.08766700  0.96302700  1
  C  C3  1  0.91233300  0.91233300  0.03697300  1
  Br  Br4  1  0.79677400  0.79677400  0.66589700  1
  Br  Br5  1  0.20322600  0.20322600  0.33410300  1
