# generated using pymatgen
data_DyGaCo
_symmetry_space_group_name_H-M   'P 1'
_cell_length_a   4.39395000
_cell_length_b   6.90190400
_cell_length_c   7.01130000
_cell_angle_alpha   90.00000000
_cell_angle_beta   90.00000000
_cell_angle_gamma   90.00000000
_symmetry_Int_Tables_number   1
_chemical_formula_structural   DyGaCo
_chemical_formula_sum   'Dy4 Ga4 Co4'
_cell_volume   212.62903838
_cell_formula_units_Z   4
loop_
 _symmetry_equiv_pos_site_id
 _symmetry_equiv_pos_as_xyz
  1  'x, y, z'
loop_
 _atom_site_type_symbol
 _atom_site_label
 _atom_site_symmetry_multiplicity
 _atom_site_fract_x
 _atom_site_fract_y
 _atom_site_fract_z
 _atom_site_occupancy
  Dy  Dy0  1  0.25000000  0.19644700  0.51919100  1
  Dy  Dy1  1  0.25000000  0.30355300  0.01919100  1
  Dy  Dy2  1  0.75000000  0.69644700  0.98080900  1
  Dy  Dy3  1  0.75000000  0.80355300  0.48080900  1
  Ga  Ga4  1  0.25000000  0.89563300  0.19462700  1
  Ga  Ga5  1  0.75000000  0.39563300  0.30537300  1
  Ga  Ga6  1  0.25000000  0.60436700  0.69462700  1
  Ga  Ga7  1  0.75000000  0.10436700  0.80537300  1
  Co  Co8  1  0.25000000  0.93391800  0.84246200  1
  Co  Co9  1  0.25000000  0.56608200  0.34246200  1
  Co  Co10  1  0.75000000  0.06608200  0.15753800  1
  Co  Co11  1  0.75000000  0.43391800  0.65753800  1
