# generated using pymatgen
data_Ru4Pb4O13
_symmetry_space_group_name_H-M   'P 1'
_cell_length_a   7.33939786
_cell_length_b   7.33939786
_cell_length_c   7.33939786
_cell_angle_alpha   60.00000000
_cell_angle_beta   60.00000000
_cell_angle_gamma   60.00000000
_symmetry_Int_Tables_number   1
_chemical_formula_structural   Ru4Pb4O13
_chemical_formula_sum   'Ru4 Pb4 O13'
_cell_volume   279.55437659
_cell_formula_units_Z   1
loop_
 _symmetry_equiv_pos_site_id
 _symmetry_equiv_pos_as_xyz
  1  'x, y, z'
loop_
 _atom_site_type_symbol
 _atom_site_label
 _atom_site_symmetry_multiplicity
 _atom_site_fract_x
 _atom_site_fract_y
 _atom_site_fract_z
 _atom_site_occupancy
  Ru  Ru0  1  0.87508600  0.37474100  0.87508600  1
  Ru  Ru1  1  0.87508600  0.87508600  0.37474100  1
  Ru  Ru2  1  0.87508600  0.87508600  0.87508600  1
  Ru  Ru3  1  0.37474100  0.87508600  0.87508600  1
  Pb  Pb4  1  0.88070900  0.37309700  0.37309700  1
  Pb  Pb5  1  0.37309700  0.37309700  0.37309700  1
  Pb  Pb6  1  0.37309700  0.37309700  0.88070900  1
  Pb  Pb7  1  0.37309700  0.88070900  0.37309700  1
  O  O8  1  0.19785800  0.80214200  0.80214200  1
  O  O9  1  0.19785800  0.80214200  0.19785800  1
  O  O10  1  0.55452700  0.94547300  0.94547300  1
  O  O11  1  0.55452700  0.94547300  0.55452700  1
  O  O12  1  0.94547300  0.94547300  0.55452700  1
  O  O13  1  0.80214200  0.80214200  0.19785800  1
  O  O14  1  0.55452700  0.55452700  0.94547300  1
  O  O15  1  0.80214200  0.19785800  0.80214200  1
  O  O16  1  0.80214200  0.19785800  0.19785800  1
  O  O17  1  0.94547300  0.55452700  0.94547300  1
  O  O18  1  0.94547300  0.55452700  0.55452700  1
  O  O19  1  0.19785800  0.19785800  0.80214200  1
  O  O20  1  0.50000000  0.50000000  0.50000000  1
