# generated using pymatgen
data_Cs2Ti(Si2O5)3
_symmetry_space_group_name_H-M   'P 1'
_cell_length_a   7.62074860
_cell_length_b   7.62074860
_cell_length_c   15.45940215
_cell_angle_alpha   76.39560851
_cell_angle_beta   76.39560851
_cell_angle_gamma   60.14956383
_symmetry_Int_Tables_number   1
_chemical_formula_structural   Cs2Ti(Si2O5)3
_chemical_formula_sum   'Cs4 Ti2 Si12 O30'
_cell_volume   749.38440538
_cell_formula_units_Z   2
loop_
 _symmetry_equiv_pos_site_id
 _symmetry_equiv_pos_as_xyz
  1  'x, y, z'
loop_
 _atom_site_type_symbol
 _atom_site_label
 _atom_site_symmetry_multiplicity
 _atom_site_fract_x
 _atom_site_fract_y
 _atom_site_fract_z
 _atom_site_occupancy
  Cs  Cs0  1  0.85510100  0.58074400  0.30655800  1
  Cs  Cs1  1  0.58074400  0.85510100  0.80655800  1
  Cs  Cs2  1  0.11271000  0.37124900  0.98119400  1
  Cs  Cs3  1  0.37124900  0.11271000  0.48119400  1
  Ti  Ti4  1  0.70290200  0.22127300  0.90055700  1
  Ti  Ti5  1  0.22127300  0.70290200  0.40055700  1
  Si  Si6  1  0.58885100  0.45183400  0.53959700  1
  Si  Si7  1  0.45183400  0.58885100  0.03959700  1
  Si  Si8  1  0.01855000  0.34506800  0.74065900  1
  Si  Si9  1  0.34506800  0.01855000  0.24065900  1
  Si  Si10  1  0.86641600  0.62898500  0.55332800  1
  Si  Si11  1  0.62898500  0.86641600  0.05332800  1
  Si  Si12  1  0.36115100  0.47021100  0.74366700  1
  Si  Si13  1  0.47021100  0.36115100  0.24366700  1
  Si  Si14  1  0.98069300  0.91845000  0.06259700  1
  Si  Si15  1  0.91845000  0.98069300  0.56259700  1
  Si  Si16  1  0.06581400  0.93356100  0.74955400  1
  Si  Si17  1  0.93356100  0.06581400  0.24955400  1
  O  O18  1  0.56739800  0.05484800  0.97328000  1
  O  O19  1  0.05484800  0.56739800  0.47328000  1
  O  O20  1  0.51685200  0.31244800  0.81271800  1
  O  O21  1  0.31244800  0.51685200  0.31271800  1
  O  O22  1  0.90270600  0.97567200  0.83937800  1
  O  O23  1  0.97567200  0.90270600  0.33937800  1
  O  O24  1  0.51004200  0.45700800  0.96078500  1
  O  O25  1  0.45700800  0.51004200  0.46078500  1
  O  O26  1  0.78806900  0.22592500  0.53053900  1
  O  O27  1  0.22592500  0.78806900  0.03053900  1
  O  O28  1  0.84324100  0.37280400  0.82587100  1
  O  O29  1  0.37280400  0.84324100  0.32587100  1
  O  O30  1  0.15477800  0.10295500  0.72293100  1
  O  O31  1  0.10295500  0.15477800  0.22293100  1
  O  O32  1  0.67357600  0.61925900  0.52787500  1
  O  O33  1  0.61925900  0.67357600  0.02787500  1
  O  O34  1  0.92398700  0.48077000  0.64868500  1
  O  O35  1  0.48077000  0.92398700  0.14868500  1
  O  O36  1  0.88227900  0.12498900  0.99403700  1
  O  O37  1  0.12498900  0.88227900  0.49403700  1
  O  O38  1  0.70909700  0.27086600  0.25892000  1
  O  O39  1  0.27086600  0.70909700  0.75892000  1
  O  O40  1  0.44376400  0.46000100  0.13921700  1
  O  O41  1  0.46000100  0.44376400  0.63921700  1
  O  O42  1  0.94782200  0.96019200  0.16576900  1
  O  O43  1  0.96019200  0.94782200  0.66576900  1
  O  O44  1  0.77431700  0.86871400  0.57004900  1
  O  O45  1  0.86871400  0.77431700  0.07004900  1
  O  O46  1  0.42066600  0.16743200  0.26279400  1
  O  O47  1  0.16743200  0.42066600  0.76279400  1
