# generated using pymatgen
data_CsGaCl4
_symmetry_space_group_name_H-M   'P 1'
_cell_length_a   7.33287400
_cell_length_b   9.67561400
_cell_length_c   11.96779000
_cell_angle_alpha   90.00000000
_cell_angle_beta   90.00000000
_cell_angle_gamma   90.00000000
_symmetry_Int_Tables_number   1
_chemical_formula_structural   CsGaCl4
_chemical_formula_sum   'Cs4 Ga4 Cl16'
_cell_volume   849.11539864
_cell_formula_units_Z   4
loop_
 _symmetry_equiv_pos_site_id
 _symmetry_equiv_pos_as_xyz
  1  'x, y, z'
loop_
 _atom_site_type_symbol
 _atom_site_label
 _atom_site_symmetry_multiplicity
 _atom_site_fract_x
 _atom_site_fract_y
 _atom_site_fract_z
 _atom_site_occupancy
  Cs  Cs0  1  0.75000000  0.66721800  0.31958100  1
  Cs  Cs1  1  0.75000000  0.83278200  0.81958100  1
  Cs  Cs2  1  0.25000000  0.16721800  0.18041900  1
  Cs  Cs3  1  0.25000000  0.33278200  0.68041900  1
  Ga  Ga4  1  0.75000000  0.30740000  0.93022500  1
  Ga  Ga5  1  0.25000000  0.80740000  0.56977500  1
  Ga  Ga6  1  0.25000000  0.69260000  0.06977500  1
  Ga  Ga7  1  0.75000000  0.19260000  0.43022500  1
  Cl  Cl8  1  0.25000000  0.55166600  0.21416000  1
  Cl  Cl9  1  0.75000000  0.05166600  0.28584000  1
  Cl  Cl10  1  0.25000000  0.91552300  0.40897000  1
  Cl  Cl11  1  0.50667700  0.32777600  0.41872400  1
  Cl  Cl12  1  0.75000000  0.08447700  0.59103000  1
  Cl  Cl13  1  0.75000000  0.41552300  0.09103000  1
  Cl  Cl14  1  0.25000000  0.58447700  0.90897000  1
  Cl  Cl15  1  0.49332300  0.82777600  0.08127600  1
  Cl  Cl16  1  0.99332300  0.32777600  0.41872400  1
  Cl  Cl17  1  0.49332300  0.67222400  0.58127600  1
  Cl  Cl18  1  0.99332300  0.17222400  0.91872400  1
  Cl  Cl19  1  0.50667700  0.17222400  0.91872400  1
  Cl  Cl20  1  0.75000000  0.44833400  0.78584000  1
  Cl  Cl21  1  0.00667700  0.82777600  0.08127600  1
  Cl  Cl22  1  0.00667700  0.67222400  0.58127600  1
  Cl  Cl23  1  0.25000000  0.94833400  0.71416000  1
