# generated using pymatgen
data_Ce5(In2Pt)2
_symmetry_space_group_name_H-M   'P 1'
_cell_length_a   3.82430200
_cell_length_b   8.15299000
_cell_length_c   18.41542700
_cell_angle_alpha   90.00000000
_cell_angle_beta   90.00000000
_cell_angle_gamma   90.00000000
_symmetry_Int_Tables_number   1
_chemical_formula_structural   Ce5(In2Pt)2
_chemical_formula_sum   'Ce10 In8 Pt4'
_cell_volume   574.18373180
_cell_formula_units_Z   2
loop_
 _symmetry_equiv_pos_site_id
 _symmetry_equiv_pos_as_xyz
  1  'x, y, z'
loop_
 _atom_site_type_symbol
 _atom_site_label
 _atom_site_symmetry_multiplicity
 _atom_site_fract_x
 _atom_site_fract_y
 _atom_site_fract_z
 _atom_site_occupancy
  Ce  Ce0  1  0.50000000  0.62600400  0.42071000  1
  Ce  Ce1  1  0.50000000  0.25784300  0.77752900  1
  Ce  Ce2  1  0.50000000  0.74215700  0.22247100  1
  Ce  Ce3  1  0.50000000  0.37399600  0.57929000  1
  Ce  Ce4  1  0.50000000  0.12600400  0.07929000  1
  Ce  Ce5  1  0.50000000  0.50000000  0.00000000  1
  Ce  Ce6  1  0.50000000  0.87399600  0.92071000  1
  Ce  Ce7  1  0.50000000  0.24215700  0.27752900  1
  Ce  Ce8  1  0.50000000  0.00000000  0.50000000  1
  Ce  Ce9  1  0.50000000  0.75784300  0.72247100  1
  In  In10  1  0.00000000  0.06804600  0.64793600  1
  In  In11  1  0.00000000  0.93195400  0.35206400  1
  In  In12  1  0.00000000  0.78979300  0.06989600  1
  In  In13  1  0.00000000  0.21020700  0.93010400  1
  In  In14  1  0.00000000  0.71020700  0.56989600  1
  In  In15  1  0.00000000  0.56804600  0.85206400  1
  In  In16  1  0.00000000  0.43195400  0.14793600  1
  In  In17  1  0.00000000  0.28979300  0.43010400  1
  Pt  Pt18  1  0.00000000  0.47828600  0.69522300  1
  Pt  Pt19  1  0.00000000  0.02171400  0.19522300  1
  Pt  Pt20  1  0.00000000  0.97828600  0.80477700  1
  Pt  Pt21  1  0.00000000  0.52171400  0.30477700  1
