# generated using pymatgen
data_K3AsO4
_symmetry_space_group_name_H-M   'P 1'
_cell_length_a   8.16226455
_cell_length_b   8.16226455
_cell_length_c   18.22160200
_cell_angle_alpha   90.00000000
_cell_angle_beta   90.00000000
_cell_angle_gamma   95.37631247
_symmetry_Int_Tables_number   1
_chemical_formula_structural   K3AsO4
_chemical_formula_sum   'K24 As8 O32'
_cell_volume   1208.62930637
_cell_formula_units_Z   8
loop_
 _symmetry_equiv_pos_site_id
 _symmetry_equiv_pos_as_xyz
  1  'x, y, z'
loop_
 _atom_site_type_symbol
 _atom_site_label
 _atom_site_symmetry_multiplicity
 _atom_site_fract_x
 _atom_site_fract_y
 _atom_site_fract_z
 _atom_site_occupancy
  K  K0  1  0.00000000  0.00000000  0.60099400  1
  K  K1  1  0.00000000  0.50000000  0.84592900  1
  K  K2  1  0.00000000  0.00000000  0.39900600  1
  K  K3  1  0.50000000  0.00000000  0.89173700  1
  K  K4  1  0.69556000  0.19327500  0.50000000  1
  K  K5  1  0.50000000  0.00000000  0.34592900  1
  K  K6  1  0.20371200  0.20371200  0.75000000  1
  K  K7  1  0.79628800  0.79628800  0.75000000  1
  K  K8  1  0.00000000  0.50000000  0.15407100  1
  K  K9  1  0.80672500  0.30444000  0.00000000  1
  K  K10  1  0.50000000  0.00000000  0.10826300  1
  K  K11  1  0.50000000  0.50000000  0.36352800  1
  K  K12  1  0.00000000  0.50000000  0.39173700  1
  K  K13  1  0.50000000  0.50000000  0.13647200  1
  K  K14  1  0.50000000  0.00000000  0.65407100  1
  K  K15  1  0.00000000  0.00000000  0.89900600  1
  K  K16  1  0.20371200  0.20371200  0.25000000  1
  K  K17  1  0.00000000  0.50000000  0.60826300  1
  K  K18  1  0.50000000  0.50000000  0.86352800  1
  K  K19  1  0.79628800  0.79628800  0.25000000  1
  K  K20  1  0.30444000  0.80672500  0.50000000  1
  K  K21  1  0.50000000  0.50000000  0.63647200  1
  K  K22  1  0.00000000  0.00000000  0.10099400  1
  K  K23  1  0.19327500  0.69556000  0.00000000  1
  As  As24  1  0.25507700  0.27992800  0.50000000  1
  As  As25  1  0.74492300  0.72007200  0.50000000  1
  As  As26  1  0.26264000  0.73736000  0.25000000  1
  As  As27  1  0.26264000  0.73736000  0.75000000  1
  As  As28  1  0.73736000  0.26264000  0.75000000  1
  As  As29  1  0.73736000  0.26264000  0.25000000  1
  As  As30  1  0.72007200  0.74492300  0.00000000  1
  As  As31  1  0.27992800  0.25507700  0.00000000  1
  O  O32  1  0.22115100  0.52815500  0.26452800  1
  O  O33  1  0.80388800  0.15956700  0.67404100  1
  O  O34  1  0.19772200  0.34033000  0.07711200  1
  O  O35  1  0.52815500  0.22115100  0.23547200  1
  O  O36  1  0.49187200  0.28378400  0.00000000  1
  O  O37  1  0.15956700  0.80388800  0.17404100  1
  O  O38  1  0.19611200  0.84043300  0.32595900  1
  O  O39  1  0.19611200  0.84043300  0.67404100  1
  O  O40  1  0.77884900  0.47184500  0.73547200  1
  O  O41  1  0.04322800  0.22936100  0.50000000  1
  O  O42  1  0.50812800  0.71621600  0.00000000  1
  O  O43  1  0.84043300  0.19611200  0.17404100  1
  O  O44  1  0.71621600  0.50812800  0.50000000  1
  O  O45  1  0.80227800  0.65967000  0.92288800  1
  O  O46  1  0.95677200  0.77063900  0.50000000  1
  O  O47  1  0.65967000  0.80227800  0.57711200  1
  O  O48  1  0.34033000  0.19772200  0.42288800  1
  O  O49  1  0.84043300  0.19611200  0.82595900  1
  O  O50  1  0.19772200  0.34033000  0.92288800  1
  O  O51  1  0.28378400  0.49187200  0.50000000  1
  O  O52  1  0.22115100  0.52815500  0.73547200  1
  O  O53  1  0.34033000  0.19772200  0.57711200  1
  O  O54  1  0.52815500  0.22115100  0.76452800  1
  O  O55  1  0.80227800  0.65967000  0.07711200  1
  O  O56  1  0.77063900  0.95677200  0.00000000  1
  O  O57  1  0.77884900  0.47184500  0.26452800  1
  O  O58  1  0.15956700  0.80388800  0.82595900  1
  O  O59  1  0.47184500  0.77884900  0.23547200  1
  O  O60  1  0.22936100  0.04322800  0.00000000  1
  O  O61  1  0.80388800  0.15956700  0.32595900  1
  O  O62  1  0.47184500  0.77884900  0.76452800  1
  O  O63  1  0.65967000  0.80227800  0.42288800  1
