# generated using pymatgen
data_Cs3NaLi2(BO3)2
_symmetry_space_group_name_H-M   'P 1'
_cell_length_a   6.81487800
_cell_length_b   7.41804284
_cell_length_c   10.39734171
_cell_angle_alpha   96.60860169
_cell_angle_beta   101.48876141
_cell_angle_gamma   103.86843805
_symmetry_Int_Tables_number   1
_chemical_formula_structural   Cs3NaLi2(BO3)2
_chemical_formula_sum   'Cs6 Na2 Li4 B4 O12'
_cell_volume   492.69241286
_cell_formula_units_Z   2
loop_
 _symmetry_equiv_pos_site_id
 _symmetry_equiv_pos_as_xyz
  1  'x, y, z'
loop_
 _atom_site_type_symbol
 _atom_site_label
 _atom_site_symmetry_multiplicity
 _atom_site_fract_x
 _atom_site_fract_y
 _atom_site_fract_z
 _atom_site_occupancy
  Cs  Cs0  1  0.64704700  0.26879000  0.92441600  1
  Cs  Cs1  1  0.81692900  0.69634100  0.51706500  1
  Cs  Cs2  1  0.35295300  0.73121000  0.07558400  1
  Cs  Cs3  1  0.18307100  0.30365900  0.48293500  1
  Cs  Cs4  1  0.78589000  0.77418000  0.87091500  1
  Cs  Cs5  1  0.21411000  0.22582000  0.12908500  1
  Na  Na6  1  0.32696400  0.82654100  0.41632800  1
  Na  Na7  1  0.67303600  0.17345900  0.58367200  1
  Li  Li8  1  0.20234700  0.08966400  0.76393100  1
  Li  Li9  1  0.22624500  0.59795200  0.75884900  1
  Li  Li10  1  0.77375500  0.40204800  0.24115100  1
  Li  Li11  1  0.79765300  0.91033600  0.23606900  1
  B  B12  1  0.34934600  0.86862100  0.68661400  1
  B  B13  1  0.03232300  0.31325500  0.78150500  1
  B  B14  1  0.65065400  0.13137900  0.31338600  1
  B  B15  1  0.96767700  0.68674500  0.21849500  1
  O  O16  1  0.24803100  0.36941600  0.83746300  1
  O  O17  1  0.30659700  0.87494600  0.81477900  1
  O  O18  1  0.07230100  0.87835900  0.23748700  1
  O  O19  1  0.69340300  0.12505400  0.18522100  1
  O  O20  1  0.34751300  0.02504600  0.62432700  1
  O  O21  1  0.37796800  0.70267300  0.62557800  1
  O  O22  1  0.75196900  0.63058400  0.16253700  1
  O  O23  1  0.65248700  0.97495400  0.37567300  1
  O  O24  1  0.93161800  0.44671800  0.73937200  1
  O  O25  1  0.92769900  0.12164100  0.76251300  1
  O  O26  1  0.62203200  0.29732700  0.37442200  1
  O  O27  1  0.06838200  0.55328200  0.26062800  1
