# generated using pymatgen
data_Na2Zn(SiO3)2
_symmetry_space_group_name_H-M   'P 1'
_cell_length_a   11.46795981
_cell_length_b   11.41403851
_cell_length_c   5.22044967
_cell_angle_alpha   77.38890502
_cell_angle_beta   76.23649740
_cell_angle_gamma   26.37459759
_symmetry_Int_Tables_number   1
_chemical_formula_structural   Na2Zn(SiO3)2
_chemical_formula_sum   'Na4 Zn2 Si4 O12'
_cell_volume   294.82543429
_cell_formula_units_Z   2
loop_
 _symmetry_equiv_pos_site_id
 _symmetry_equiv_pos_as_xyz
  1  'x, y, z'
loop_
 _atom_site_type_symbol
 _atom_site_label
 _atom_site_symmetry_multiplicity
 _atom_site_fract_x
 _atom_site_fract_y
 _atom_site_fract_z
 _atom_site_occupancy
  Na  Na0  1  0.66565900  0.17911100  0.28800300  1
  Na  Na1  1  0.28800300  0.86722700  0.66565900  1
  Na  Na2  1  0.38277300  0.96199700  0.07088900  1
  Na  Na3  1  0.07088900  0.58434100  0.38277300  1
  Zn  Zn4  1  0.24856900  0.75143100  0.24856900  1
  Zn  Zn5  1  0.49856900  0.00143100  0.49856900  1
  Si  Si6  1  0.22644000  0.60706300  0.82009800  1
  Si  Si7  1  0.82009800  0.34639900  0.22644000  1
  Si  Si8  1  0.90360100  0.42990200  0.64293700  1
  Si  Si9  1  0.64293700  0.02356000  0.90360100  1
  O  O10  1  0.30413000  0.65998200  0.90235300  1
  O  O11  1  0.90235300  0.13353500  0.30413000  1
  O  O12  1  0.11646500  0.34764700  0.59001800  1
  O  O13  1  0.59001800  0.94587000  0.11646500  1
  O  O14  1  0.92152300  0.83759400  0.96125600  1
  O  O15  1  0.96125600  0.27962700  0.92152300  1
  O  O16  1  0.97037300  0.28874400  0.41240600  1
  O  O17  1  0.41240600  0.32847700  0.97037300  1
  O  O18  1  0.25325500  0.59044400  0.50451400  1
  O  O19  1  0.50451400  0.65178700  0.25325500  1
  O  O20  1  0.65955600  0.99674500  0.59821300  1
  O  O21  1  0.59821300  0.74548600  0.65955600  1
