# generated using pymatgen
data_K3Nd2(NO3)9
_symmetry_space_group_name_H-M   'P 1'
_cell_length_a   13.71011600
_cell_length_b   13.71011600
_cell_length_c   13.71011600
_cell_angle_alpha   90.00000000
_cell_angle_beta   90.00000000
_cell_angle_gamma   90.00000000
_symmetry_Int_Tables_number   1
_chemical_formula_structural   K3Nd2(NO3)9
_chemical_formula_sum   'K12 Nd8 N36 O108'
_cell_volume   2577.05322306
_cell_formula_units_Z   4
loop_
 _symmetry_equiv_pos_site_id
 _symmetry_equiv_pos_as_xyz
  1  'x, y, z'
loop_
 _atom_site_type_symbol
 _atom_site_label
 _atom_site_symmetry_multiplicity
 _atom_site_fract_x
 _atom_site_fract_y
 _atom_site_fract_z
 _atom_site_occupancy
  K  K0  1  0.87500000  0.81181600  0.56181600  1
  K  K1  1  0.43818400  0.37500000  0.68818400  1
  K  K2  1  0.37500000  0.68818400  0.43818400  1
  K  K3  1  0.31181600  0.93818400  0.12500000  1
  K  K4  1  0.56181600  0.87500000  0.81181600  1
  K  K5  1  0.18818400  0.06181600  0.62500000  1
  K  K6  1  0.06181600  0.62500000  0.18818400  1
  K  K7  1  0.12500000  0.31181600  0.93818400  1
  K  K8  1  0.68818400  0.43818400  0.37500000  1
  K  K9  1  0.62500000  0.18818400  0.06181600  1
  K  K10  1  0.81181600  0.56181600  0.87500000  1
  K  K11  1  0.93818400  0.12500000  0.31181600  1
  Nd  Nd12  1  0.05010800  0.44989200  0.55010800  1
  Nd  Nd13  1  0.55010800  0.05010800  0.44989200  1
  Nd  Nd14  1  0.44989200  0.55010800  0.05010800  1
  Nd  Nd15  1  0.30010800  0.30010800  0.30010800  1
  Nd  Nd16  1  0.94989200  0.94989200  0.94989200  1
  Nd  Nd17  1  0.80010800  0.19989200  0.69989200  1
  Nd  Nd18  1  0.19989200  0.69989200  0.80010800  1
  Nd  Nd19  1  0.69989200  0.80010800  0.19989200  1
  N  N20  1  0.09863500  0.08668100  0.86115600  1
  N  N21  1  0.40136500  0.91331900  0.36115600  1
  N  N22  1  0.90136500  0.58668100  0.63884400  1
  N  N23  1  0.41331900  0.13884400  0.59863500  1
  N  N24  1  0.48615400  0.76384600  0.12500000  1
  N  N25  1  0.87500000  0.98615400  0.73615400  1
  N  N26  1  0.11115600  0.83668100  0.65136500  1
  N  N27  1  0.38884400  0.16331900  0.15136500  1
  N  N28  1  0.65136500  0.11115600  0.83668100  1
  N  N29  1  0.16331900  0.15136500  0.38884400  1
  N  N30  1  0.61115600  0.66331900  0.34863500  1
  N  N31  1  0.83668100  0.65136500  0.11115600  1
  N  N32  1  0.73615400  0.87500000  0.98615400  1
  N  N33  1  0.08668100  0.86115600  0.09863500  1
  N  N34  1  0.37500000  0.51384600  0.26384600  1
  N  N35  1  0.98615400  0.73615400  0.87500000  1
  N  N36  1  0.26384600  0.37500000  0.51384600  1
  N  N37  1  0.36115600  0.40136500  0.91331900  1
  N  N38  1  0.91331900  0.36115600  0.40136500  1
  N  N39  1  0.88884400  0.33668100  0.84863500  1
  N  N40  1  0.23615400  0.62500000  0.01384600  1
  N  N41  1  0.76384600  0.12500000  0.48615400  1
  N  N42  1  0.59863500  0.41331900  0.13884400  1
  N  N43  1  0.62500000  0.01384600  0.23615400  1
  N  N44  1  0.51384600  0.26384600  0.37500000  1
  N  N45  1  0.86115600  0.09863500  0.08668100  1
  N  N46  1  0.01384600  0.23615400  0.62500000  1
  N  N47  1  0.12500000  0.48615400  0.76384600  1
  N  N48  1  0.13884400  0.59863500  0.41331900  1
  N  N49  1  0.33668100  0.84863500  0.88884400  1
  N  N50  1  0.63884400  0.90136500  0.58668100  1
  N  N51  1  0.84863500  0.88884400  0.33668100  1
  N  N52  1  0.66331900  0.34863500  0.61115600  1
  N  N53  1  0.34863500  0.61115600  0.66331900  1
  N  N54  1  0.15136500  0.38884400  0.16331900  1
  N  N55  1  0.58668100  0.63884400  0.90136500  1
  O  O56  1  0.50256300  0.67507800  0.91882200  1
  O  O57  1  0.99254800  0.15310100  0.65690600  1
  O  O58  1  0.19721600  0.37500000  0.44721600  1
  O  O59  1  0.14040300  0.19782300  0.31099800  1
  O  O60  1  0.40802900  0.57252600  0.60628700  1
  O  O61  1  0.09197100  0.42747400  0.10628700  1
  O  O62  1  0.84689900  0.15690600  0.50745200  1
  O  O63  1  0.59689900  0.24254800  0.40690600  1
  O  O64  1  0.94782300  0.60959700  0.56099800  1
  O  O65  1  0.31099800  0.14040300  0.19782300  1
  O  O66  1  0.06099800  0.55217700  0.39040300  1
  O  O67  1  0.33117800  0.57492200  0.74743700  1
  O  O68  1  0.17747400  0.65802900  0.35628700  1
  O  O69  1  0.81099800  0.35959700  0.80217700  1
  O  O70  1  0.05217700  0.10959700  0.93900200  1
  O  O71  1  0.17507800  0.58117800  0.49743700  1
  O  O72  1  0.80217700  0.81099800  0.35959700  1
  O  O73  1  0.49254800  0.34689900  0.34309400  1
  O  O74  1  0.84309400  0.00745200  0.65310100  1
  O  O75  1  0.84197100  0.64371300  0.67747400  1
  O  O76  1  0.05278400  0.80278400  0.87500000  1
  O  O77  1  0.15802900  0.14371300  0.82252600  1
  O  O78  1  0.30278400  0.62500000  0.94721600  1
  O  O79  1  0.82252600  0.15802900  0.14371300  1
  O  O80  1  0.68900200  0.64040300  0.30217700  1
  O  O81  1  0.60959700  0.56099800  0.94782300  1
  O  O82  1  0.56099800  0.94782300  0.60959700  1
  O  O83  1  0.83117800  0.92507800  0.25256300  1
  O  O84  1  0.80278400  0.87500000  0.05278400  1
  O  O85  1  0.92747400  0.39371300  0.90802900  1
  O  O86  1  0.50745200  0.84689900  0.15690600  1
  O  O87  1  0.89371300  0.59197100  0.07252600  1
  O  O88  1  0.49743700  0.17507800  0.58117800  1
  O  O89  1  0.44721600  0.19721600  0.37500000  1
  O  O90  1  0.57252600  0.60628700  0.40802900  1
  O  O91  1  0.74254800  0.09309400  0.40310100  1
  O  O92  1  0.10628700  0.09197100  0.42747400  1
  O  O93  1  0.25745200  0.59309400  0.09689900  1
  O  O94  1  0.91882200  0.50256300  0.67507800  1
  O  O95  1  0.59309400  0.09689900  0.25745200  1
  O  O96  1  0.69782300  0.18900200  0.85959700  1
  O  O97  1  0.94721600  0.30278400  0.62500000  1
  O  O98  1  0.34689900  0.34309400  0.49254800  1
  O  O99  1  0.55278400  0.69721600  0.12500000  1
  O  O100  1  0.92507800  0.25256300  0.83117800  1
  O  O101  1  0.09689900  0.25745200  0.59309400  1
  O  O102  1  0.90690600  0.90310100  0.75745200  1
  O  O103  1  0.40690600  0.59689900  0.24254800  1
  O  O104  1  0.32252600  0.34197100  0.85628700  1
  O  O105  1  0.64040300  0.30217700  0.68900200  1
  O  O106  1  0.75256300  0.66882200  0.07492200  1
  O  O107  1  0.62500000  0.94721600  0.30278400  1
  O  O108  1  0.24254800  0.40690600  0.59689900  1
  O  O109  1  0.08117800  0.00256300  0.82492200  1
  O  O110  1  0.15310100  0.65690600  0.99254800  1
  O  O111  1  0.14371300  0.82252600  0.15802900  1
  O  O112  1  0.85628700  0.32252600  0.34197100  1
  O  O113  1  0.15690600  0.50745200  0.84689900  1
  O  O114  1  0.59197100  0.07252600  0.89371300  1
  O  O115  1  0.07252600  0.89371300  0.59197100  1
  O  O116  1  0.65802900  0.35628700  0.17747400  1
  O  O117  1  0.40310100  0.74254800  0.09309400  1
  O  O118  1  0.66882200  0.07492200  0.75256300  1
  O  O119  1  0.25256300  0.83117800  0.92507800  1
  O  O120  1  0.19782300  0.31099800  0.14040300  1
  O  O121  1  0.93900200  0.05217700  0.10959700  1
  O  O122  1  0.30217700  0.68900200  0.64040300  1
  O  O123  1  0.44782300  0.89040300  0.43900200  1
  O  O124  1  0.07492200  0.75256300  0.66882200  1
  O  O125  1  0.35959700  0.80217700  0.81099800  1
  O  O126  1  0.82492200  0.08117800  0.00256300  1
  O  O127  1  0.34197100  0.85628700  0.32252600  1
  O  O128  1  0.60628700  0.40802900  0.57252600  1
  O  O129  1  0.58117800  0.49743700  0.17507800  1
  O  O130  1  0.39040300  0.06099800  0.55217700  1
  O  O131  1  0.64371300  0.67747400  0.84197100  1
  O  O132  1  0.12500000  0.55278400  0.69721600  1
  O  O133  1  0.39371300  0.90802900  0.92747400  1
  O  O134  1  0.42507800  0.24743700  0.16882200  1
  O  O135  1  0.41882200  0.99743700  0.32492200  1
  O  O136  1  0.65690600  0.99254800  0.15310100  1
  O  O137  1  0.10959700  0.93900200  0.05217700  1
  O  O138  1  0.90802900  0.92747400  0.39371300  1
  O  O139  1  0.75745200  0.90690600  0.90310100  1
  O  O140  1  0.57492200  0.74743700  0.33117800  1
  O  O141  1  0.99743700  0.32492200  0.41882200  1
  O  O142  1  0.32492200  0.41882200  0.99743700  1
  O  O143  1  0.90310100  0.75745200  0.90690600  1
  O  O144  1  0.67747400  0.84197100  0.64371300  1
  O  O145  1  0.42747400  0.10628700  0.09197100  1
  O  O146  1  0.00745200  0.65310100  0.84309400  1
  O  O147  1  0.00256300  0.82492200  0.08117800  1
  O  O148  1  0.67507800  0.91882200  0.50256300  1
  O  O149  1  0.16882200  0.42507800  0.24743700  1
  O  O150  1  0.34309400  0.49254800  0.34689900  1
  O  O151  1  0.65310100  0.84309400  0.00745200  1
  O  O152  1  0.24743700  0.16882200  0.42507800  1
  O  O153  1  0.37500000  0.44721600  0.19721600  1
  O  O154  1  0.18900200  0.85959700  0.69782300  1
  O  O155  1  0.87500000  0.05278400  0.80278400  1
  O  O156  1  0.55217700  0.39040300  0.06099800  1
  O  O157  1  0.89040300  0.43900200  0.44782300  1
  O  O158  1  0.43900200  0.44782300  0.89040300  1
  O  O159  1  0.09309400  0.40310100  0.74254800  1
  O  O160  1  0.69721600  0.12500000  0.55278400  1
  O  O161  1  0.74743700  0.33117800  0.57492200  1
  O  O162  1  0.35628700  0.17747400  0.65802900  1
  O  O163  1  0.85959700  0.69782300  0.18900200  1
