# generated using pymatgen
data_In2Se3
_symmetry_space_group_name_H-M   'P 1'
_cell_length_a   7.34149150
_cell_length_b   7.34149150
_cell_length_c   19.76637500
_cell_angle_alpha   90.00000000
_cell_angle_beta   90.00000000
_cell_angle_gamma   119.99999552
_symmetry_Int_Tables_number   1
_chemical_formula_structural   In2Se3
_chemical_formula_sum   'In12 Se18'
_cell_volume   922.62726103
_cell_formula_units_Z   6
loop_
 _symmetry_equiv_pos_site_id
 _symmetry_equiv_pos_as_xyz
  1  'x, y, z'
loop_
 _atom_site_type_symbol
 _atom_site_label
 _atom_site_symmetry_multiplicity
 _atom_site_fract_x
 _atom_site_fract_y
 _atom_site_fract_z
 _atom_site_occupancy
  In  In0  1  0.32611100  0.98575500  0.99961300  1
  In  In1  1  0.01424500  0.34035600  0.33294700  1
  In  In2  1  0.01067800  0.69634800  0.47206600  1
  In  In3  1  0.98932200  0.30365200  0.97206600  1
  In  In4  1  0.98575500  0.65964400  0.83294700  1
  In  In5  1  0.34035600  0.32611100  0.16628000  1
  In  In6  1  0.65964400  0.67388900  0.66628000  1
  In  In7  1  0.67388900  0.01424500  0.49961300  1
  In  In8  1  0.31432900  0.01067800  0.63873300  1
  In  In9  1  0.30365200  0.31432900  0.80539900  1
  In  In10  1  0.68567100  0.98932200  0.13873300  1
  In  In11  1  0.69634800  0.68567100  0.30539900  1
  Se  Se12  1  0.69529800  0.04011800  0.63492900  1
  Se  Se13  1  0.63834600  0.66470700  0.45434400  1
  Se  Se14  1  0.93188000  0.27896300  0.82696400  1
  Se  Se15  1  0.97363900  0.63834600  0.62101100  1
  Se  Se16  1  0.34482000  0.30470200  0.30159500  1
  Se  Se17  1  0.06812000  0.72103700  0.32696400  1
  Se  Se18  1  0.95988200  0.65518000  0.96826200  1
  Se  Se19  1  0.66470700  0.02636100  0.28767700  1
  Se  Se20  1  0.30470200  0.95988200  0.13492900  1
  Se  Se21  1  0.27896300  0.34708300  0.66029700  1
  Se  Se22  1  0.65291700  0.93188000  0.99363100  1
  Se  Se23  1  0.34708300  0.06812000  0.49363100  1
  Se  Se24  1  0.65518000  0.69529800  0.80159500  1
  Se  Se25  1  0.33529300  0.97363900  0.78767700  1
  Se  Se26  1  0.72103700  0.65291700  0.16029700  1
  Se  Se27  1  0.36165400  0.33529300  0.95434400  1
  Se  Se28  1  0.02636100  0.36165400  0.12101100  1
  Se  Se29  1  0.04011800  0.34482000  0.46826200  1
