# generated using pymatgen
data_H9BrO4
_symmetry_space_group_name_H-M   'P 1'
_cell_length_a   7.04670100
_cell_length_b   7.37337472
_cell_length_c   11.58779672
_cell_angle_alpha   89.88889872
_cell_angle_beta   90.93213738
_cell_angle_gamma   111.68283622
_symmetry_Int_Tables_number   1
_chemical_formula_structural   H9BrO4
_chemical_formula_sum   'H36 Br4 O16'
_cell_volume   559.39786750
_cell_formula_units_Z   4
loop_
 _symmetry_equiv_pos_site_id
 _symmetry_equiv_pos_as_xyz
  1  'x, y, z'
loop_
 _atom_site_type_symbol
 _atom_site_label
 _atom_site_symmetry_multiplicity
 _atom_site_fract_x
 _atom_site_fract_y
 _atom_site_fract_z
 _atom_site_occupancy
  H  H0  1  0.32910800  0.01901500  0.66497400  1
  H  H1  1  0.20438900  0.84257700  0.74842700  1
  H  H2  1  0.90616800  0.99655600  0.23695700  1
  H  H3  1  0.67884500  0.02534200  0.17329100  1
  H  H4  1  0.96454900  0.15157800  0.81692300  1
  H  H5  1  0.80235500  0.95586700  0.74618900  1
  H  H6  1  0.07452400  0.03527600  0.73328100  1
  H  H7  1  0.01851600  0.85182700  0.31257300  1
  H  H8  1  0.18369000  0.03249300  0.24271100  1
  H  H9  1  0.56547500  0.80067600  0.83921700  1
  H  H10  1  0.63611800  0.66622100  0.75604900  1
  H  H11  1  0.44795400  0.19791700  0.33435100  1
  H  H12  1  0.38153400  0.32844000  0.24639900  1
  H  H13  1  0.62052100  0.38070300  0.82523700  1
  H  H14  1  0.63985500  0.36894500  0.68814200  1
  H  H15  1  0.07568700  0.48117800  0.25810000  1
  H  H16  1  0.36830000  0.64368200  0.18447200  1
  H  H17  1  0.38487600  0.62413400  0.32183900  1
  H  H18  1  0.12830900  0.53603000  0.84182600  1
  H  H19  1  0.94690300  0.53915200  0.76178500  1
  H  H20  1  0.82247300  0.20325800  0.25707500  1
  H  H21  1  0.90349200  0.49263400  0.34258900  1
  H  H22  1  0.16348100  0.34040000  0.55862000  1
  H  H23  1  0.19718300  0.51192400  0.66830500  1
  H  H24  1  0.35343200  0.56506700  0.55137500  1
  H  H25  1  0.64272200  0.44189200  0.05310100  1
  H  H26  1  0.80818400  0.50435500  0.16868600  1
  H  H27  1  0.83297600  0.66832700  0.05762000  1
  H  H28  1  0.50092300  0.84458700  0.47577000  1
  H  H29  1  0.62635100  0.70532400  0.46575500  1
  H  H30  1  0.49667200  0.15948900  0.97558600  1
  H  H31  1  0.36522900  0.29298200  0.96525200  1
  H  H32  1  0.02488100  0.05560400  0.49323100  1
  H  H33  1  0.88352100  0.17780800  0.49649000  1
  H  H34  1  0.97367200  0.94829300  0.99884700  1
  H  H35  1  0.10959600  0.82111300  0.99557700  1
  Br  Br36  1  0.94190000  0.71381700  0.48770400  1
  Br  Br37  1  0.04729400  0.28717100  0.98843900  1
  Br  Br38  1  0.55373900  0.15837300  0.52083800  1
  Br  Br39  1  0.45018300  0.85034000  0.02158000  1
  O  O40  1  0.24528800  0.98561300  0.73557600  1
  O  O41  1  0.76809500  0.05617400  0.24305300  1
  O  O42  1  0.94296900  0.07981600  0.74090500  1
  O  O43  1  0.03866900  0.92631400  0.23869600  1
  O  O44  1  0.61317000  0.79207100  0.76006400  1
  O  O45  1  0.39896100  0.20175600  0.25371300  1
  O  O46  1  0.69101400  0.45470700  0.75626100  1
  O  O47  1  0.31933700  0.55261800  0.24980500  1
  O  O48  1  0.10084500  0.58869500  0.76755900  1
  O  O49  1  0.92121500  0.43533800  0.26777700  1
  O  O50  1  0.26798500  0.45771000  0.60712200  1
  O  O51  1  0.73051500  0.55269500  0.10745500  1
  O  O52  1  0.48519600  0.70716500  0.45860600  1
  O  O53  1  0.50790000  0.29601100  0.95953200  1
  O  O54  1  0.02663300  0.18930900  0.48225000  1
  O  O55  1  0.96731200  0.81421300  0.98245100  1
