# generated using pymatgen
data_Re2Cl7O3
_symmetry_space_group_name_H-M   'P 1'
_cell_length_a   11.10006100
_cell_length_b   6.30431700
_cell_length_c   17.15808797
_cell_angle_alpha   73.43593291
_cell_angle_beta   90.00000000
_cell_angle_gamma   90.00000000
_symmetry_Int_Tables_number   1
_chemical_formula_structural   Re2Cl7O3
_chemical_formula_sum   'Re8 Cl28 O12'
_cell_volume   1150.86695430
_cell_formula_units_Z   4
loop_
 _symmetry_equiv_pos_site_id
 _symmetry_equiv_pos_as_xyz
  1  'x, y, z'
loop_
 _atom_site_type_symbol
 _atom_site_label
 _atom_site_symmetry_multiplicity
 _atom_site_fract_x
 _atom_site_fract_y
 _atom_site_fract_z
 _atom_site_occupancy
  Re  Re0  1  0.08453800  0.47869200  0.69066800  1
  Re  Re1  1  0.66054000  0.66717100  0.46810600  1
  Re  Re2  1  0.33946000  0.33282900  0.53189400  1
  Re  Re3  1  0.91546200  0.52130800  0.30933200  1
  Re  Re4  1  0.83946000  0.66717100  0.96810600  1
  Re  Re5  1  0.58453800  0.52130800  0.80933200  1
  Re  Re6  1  0.41546200  0.47869200  0.19066800  1
  Re  Re7  1  0.16054000  0.33282900  0.03189400  1
  Cl  Cl8  1  0.02478700  0.66994500  0.05355400  1
  Cl  Cl9  1  0.50286400  0.18394000  0.15775400  1
  Cl  Cl10  1  0.72512100  0.25722800  0.80556500  1
  Cl  Cl11  1  0.02413300  0.70340600  0.56612700  1
  Cl  Cl12  1  0.47586700  0.70340600  0.06612700  1
  Cl  Cl13  1  0.52478700  0.33005500  0.44644600  1
  Cl  Cl14  1  0.47521300  0.66994500  0.55355400  1
  Cl  Cl15  1  0.46011100  0.13246300  0.63380100  1
  Cl  Cl16  1  0.00286400  0.81606000  0.34224600  1
  Cl  Cl17  1  0.22512100  0.74277200  0.69443500  1
  Cl  Cl18  1  0.22309900  0.60518500  0.92124600  1
  Cl  Cl19  1  0.70519900  0.77371000  0.71882700  1
  Cl  Cl20  1  0.27690100  0.60518500  0.42124600  1
  Cl  Cl21  1  0.97586700  0.29659400  0.43387300  1
  Cl  Cl22  1  0.77690100  0.39481500  0.07875400  1
  Cl  Cl23  1  0.52413300  0.29659400  0.93387300  1
  Cl  Cl24  1  0.20519900  0.22629000  0.78117300  1
  Cl  Cl25  1  0.79480100  0.77371000  0.21882700  1
  Cl  Cl26  1  0.77487900  0.25722800  0.30556500  1
  Cl  Cl27  1  0.49713600  0.81606000  0.84224600  1
  Cl  Cl28  1  0.53988900  0.86753700  0.36619900  1
  Cl  Cl29  1  0.97521300  0.33005500  0.94644600  1
  Cl  Cl30  1  0.03988900  0.13246300  0.13380100  1
  Cl  Cl31  1  0.99713600  0.18394000  0.65775400  1
  Cl  Cl32  1  0.72309900  0.39481500  0.57875400  1
  Cl  Cl33  1  0.29480100  0.22629000  0.28117300  1
  Cl  Cl34  1  0.27487900  0.74277200  0.19443500  1
  Cl  Cl35  1  0.96011100  0.86753700  0.86619900  1
  O  O36  1  0.26357300  0.39879100  0.09829400  1
  O  O37  1  0.02233900  0.46721500  0.24770700  1
  O  O38  1  0.52233900  0.53278500  0.25229300  1
  O  O39  1  0.72267300  0.88439100  0.49499500  1
  O  O40  1  0.27732700  0.11560900  0.50500500  1
  O  O41  1  0.23642700  0.39879100  0.59829400  1
  O  O42  1  0.22267300  0.11560900  0.00500500  1
  O  O43  1  0.73642700  0.60120900  0.90170600  1
  O  O44  1  0.77732700  0.88439100  0.99499500  1
  O  O45  1  0.97766100  0.53278500  0.75229300  1
  O  O46  1  0.76357300  0.60120900  0.40170600  1
  O  O47  1  0.47766100  0.46721500  0.74770700  1
