# generated using pymatgen
data_Ba3Ce2C5O15F2
_symmetry_space_group_name_H-M   'P 1'
_cell_length_a   11.16861496
_cell_length_b   11.16861496
_cell_length_c   14.34470186
_cell_angle_alpha   82.59512935
_cell_angle_beta   82.59512935
_cell_angle_gamma   26.96253894
_symmetry_Int_Tables_number   1
_chemical_formula_structural   Ba3Ce2C5O15F2
_chemical_formula_sum   'Ba6 Ce4 C10 O30 F4'
_cell_volume   804.13911601
_cell_formula_units_Z   2
loop_
 _symmetry_equiv_pos_site_id
 _symmetry_equiv_pos_as_xyz
  1  'x, y, z'
loop_
 _atom_site_type_symbol
 _atom_site_label
 _atom_site_symmetry_multiplicity
 _atom_site_fract_x
 _atom_site_fract_y
 _atom_site_fract_z
 _atom_site_occupancy
  Ba  Ba0  1  0.48877600  0.48877600  0.46905000  1
  Ba  Ba1  1  0.30075500  0.30075500  0.08825400  1
  Ba  Ba2  1  0.82260100  0.82260100  0.55460100  1
  Ba  Ba3  1  0.99755900  0.99755900  0.98731200  1
  Ba  Ba4  1  0.69566300  0.69566300  0.89103000  1
  Ba  Ba5  1  0.17267100  0.17267100  0.39072900  1
  Ce  Ce6  1  0.39705000  0.39705000  0.79843500  1
  Ce  Ce7  1  0.88728000  0.88728000  0.25453500  1
  Ce  Ce8  1  0.59446600  0.59446600  0.15705500  1
  Ce  Ce9  1  0.10653300  0.10653300  0.69582800  1
  C  C10  1  0.15438000  0.15438000  0.06992600  1
  C  C11  1  0.45211500  0.45211500  0.16355900  1
  C  C12  1  0.65972300  0.65972300  0.54606800  1
  C  C13  1  0.84318500  0.84318500  0.90531400  1
  C  C14  1  0.04014300  0.04014300  0.29941800  1
  C  C15  1  0.34298300  0.34298300  0.40675400  1
  C  C16  1  0.95296100  0.95296100  0.66658800  1
  C  C17  1  0.74579600  0.74579600  0.25023300  1
  C  C18  1  0.54191100  0.54191100  0.80734700  1
  C  C19  1  0.24144000  0.24144000  0.73656700  1
  O  O20  1  0.26688200  0.69659700  0.14912400  1
  O  O21  1  0.96727100  0.40128400  0.06099800  1
  O  O22  1  0.39351800  0.39351800  0.19541100  1
  O  O23  1  0.72723300  0.29689500  0.82221300  1
  O  O24  1  0.13598500  0.70847100  0.67571700  1
  O  O25  1  0.56344900  0.99091000  0.24629400  1
  O  O26  1  0.01155300  0.01155300  0.64157900  1
  O  O27  1  0.90212300  0.90212300  0.87560000  1
  O  O28  1  0.71103600  0.71103600  0.49054600  1
  O  O29  1  0.85541000  0.28602300  0.28638500  1
  O  O30  1  0.40128400  0.96727100  0.06099800  1
  O  O31  1  0.42291200  0.99702000  0.73489900  1
  O  O32  1  0.59610300  0.03178800  0.91728200  1
  O  O33  1  0.69659700  0.26688200  0.14912400  1
  O  O34  1  0.28602300  0.85541000  0.28638500  1
  O  O35  1  0.03178800  0.59610300  0.91728200  1
  O  O36  1  0.58995100  0.15795000  0.38886700  1
  O  O37  1  0.29689500  0.72723300  0.82221300  1
  O  O38  1  0.28657000  0.28657000  0.44177100  1
  O  O39  1  0.98140300  0.98140300  0.32541500  1
  O  O40  1  0.60020900  0.60020900  0.77401800  1
  O  O41  1  0.68585600  0.68585600  0.26028500  1
  O  O42  1  0.99702000  0.42291200  0.73489900  1
  O  O43  1  0.29991100  0.29991100  0.73979500  1
  O  O44  1  0.41647800  0.84822000  0.57158900  1
  O  O45  1  0.15795000  0.58995100  0.38886700  1
  O  O46  1  0.99091000  0.56344900  0.24629400  1
  O  O47  1  0.70847100  0.13598500  0.67571700  1
  O  O48  1  0.84822000  0.41647800  0.57158900  1
  O  O49  1  0.09473800  0.09473800  0.09102400  1
  F  F50  1  0.37427200  0.37427200  0.55696700  1
  F  F51  1  0.87537900  0.87537900  0.08832000  1
  F  F52  1  0.57542000  0.57542000  0.99158800  1
  F  F53  1  0.05319000  0.05319000  0.46234100  1
