# generated using pymatgen
data_K3Y3(BO3)4
_symmetry_space_group_name_H-M   'P 1'
_cell_length_a   17.67154100
_cell_length_b   10.66447400
_cell_length_c   14.03317677
_cell_angle_alpha   69.50756292
_cell_angle_beta   90.00000000
_cell_angle_gamma   90.00000000
_symmetry_Int_Tables_number   1
_chemical_formula_structural   K3Y3(BO3)4
_chemical_formula_sum   'K24 Y24 B32 O96'
_cell_volume   2477.30177072
_cell_formula_units_Z   8
loop_
 _symmetry_equiv_pos_site_id
 _symmetry_equiv_pos_as_xyz
  1  'x, y, z'
loop_
 _atom_site_type_symbol
 _atom_site_label
 _atom_site_symmetry_multiplicity
 _atom_site_fract_x
 _atom_site_fract_y
 _atom_site_fract_z
 _atom_site_occupancy
  K  K0  1  0.82755900  0.91899200  0.90617100  1
  K  K1  1  0.17749200  0.90993700  0.40678500  1
  K  K2  1  0.46671800  0.70028800  0.39896500  1
  K  K3  1  0.71086500  0.39382100  0.45983100  1
  K  K4  1  0.21086500  0.60617900  0.04016900  1
  K  K5  1  0.32755900  0.08100800  0.59382900  1
  K  K6  1  0.17244100  0.08100800  0.09382900  1
  K  K7  1  0.53690100  0.70694600  0.89956300  1
  K  K8  1  0.71097300  0.60641500  0.04473700  1
  K  K9  1  0.28902700  0.39358500  0.95526300  1
  K  K10  1  0.78913500  0.39382100  0.95983100  1
  K  K11  1  0.82250800  0.09006300  0.59321500  1
  K  K12  1  0.96309900  0.70694600  0.39956300  1
  K  K13  1  0.78902700  0.60641500  0.54473700  1
  K  K14  1  0.21097300  0.39358500  0.45526300  1
  K  K15  1  0.96671800  0.29971200  0.10103500  1
  K  K16  1  0.32250800  0.90993700  0.90678500  1
  K  K17  1  0.46309900  0.29305400  0.10043700  1
  K  K18  1  0.03690100  0.29305400  0.60043700  1
  K  K19  1  0.67749200  0.09006300  0.09321500  1
  K  K20  1  0.03328200  0.70028800  0.89896500  1
  K  K21  1  0.28913500  0.60617900  0.54016900  1
  K  K22  1  0.53328200  0.29971200  0.60103500  1
  K  K23  1  0.67244100  0.91899200  0.40617100  1
  Y  Y24  1  0.84667200  0.70889600  0.75238400  1
  Y  Y25  1  0.85572300  0.29024200  0.75019200  1
  Y  Y26  1  0.51523200  0.83219600  0.61141000  1
  Y  Y27  1  0.34667200  0.29110400  0.74761600  1
  Y  Y28  1  0.14427700  0.70975800  0.24980800  1
  Y  Y29  1  0.62078900  0.47660800  0.76034000  1
  Y  Y30  1  0.12078900  0.52339200  0.73966000  1
  Y  Y31  1  0.15540400  0.99918500  0.74529400  1
  Y  Y32  1  0.98476800  0.83219600  0.11141000  1
  Y  Y33  1  0.15332800  0.29110400  0.24761600  1
  Y  Y34  1  0.84459600  0.00081500  0.25470600  1
  Y  Y35  1  0.87921100  0.47660800  0.26034000  1
  Y  Y36  1  0.48629400  0.84298100  0.11982400  1
  Y  Y37  1  0.01523200  0.16780400  0.88859000  1
  Y  Y38  1  0.35572300  0.70975800  0.74980800  1
  Y  Y39  1  0.01370600  0.84298100  0.61982400  1
  Y  Y40  1  0.65540400  0.00081500  0.75470600  1
  Y  Y41  1  0.65332800  0.70889600  0.25238400  1
  Y  Y42  1  0.34459600  0.99918500  0.24529400  1
  Y  Y43  1  0.98629400  0.15701900  0.38017600  1
  Y  Y44  1  0.51370600  0.15701900  0.88017600  1
  Y  Y45  1  0.48476800  0.16780400  0.38859000  1
  Y  Y46  1  0.64427700  0.29024200  0.25019200  1
  Y  Y47  1  0.37921100  0.52339200  0.23966000  1
  B  B48  1  0.80559900  0.76958800  0.21895700  1
  B  B49  1  0.95551100  0.50198800  0.75329200  1
  B  B50  1  0.61797400  0.62285200  0.51440400  1
  B  B51  1  0.38582500  0.61679300  0.01751400  1
  B  B52  1  0.46107000  0.99973500  0.75763900  1
  B  B53  1  0.96107000  0.00026500  0.74236100  1
  B  B54  1  0.30559900  0.23041200  0.28104300  1
  B  B55  1  0.87755400  0.88185400  0.50079900  1
  B  B56  1  0.29630000  0.76553000  0.22020500  1
  B  B57  1  0.03893000  0.99973500  0.25763900  1
  B  B58  1  0.45551100  0.49801200  0.74670800  1
  B  B59  1  0.70370000  0.23447000  0.77979500  1
  B  B60  1  0.61417500  0.38320700  0.98248600  1
  B  B61  1  0.11417500  0.61679300  0.51751400  1
  B  B62  1  0.79630000  0.23447000  0.27979500  1
  B  B63  1  0.53893000  0.00026500  0.24236100  1
  B  B64  1  0.88582500  0.38320700  0.48248600  1
  B  B65  1  0.61719200  0.13179200  0.51654900  1
  B  B66  1  0.38280800  0.86820800  0.48345100  1
  B  B67  1  0.62244600  0.88185400  0.00079900  1
  B  B68  1  0.12244600  0.11814600  0.49920100  1
  B  B69  1  0.88280800  0.13179200  0.01654900  1
  B  B70  1  0.38202600  0.37714800  0.48559600  1
  B  B71  1  0.19440100  0.23041200  0.78104300  1
  B  B72  1  0.37755400  0.11814600  0.99920100  1
  B  B73  1  0.11797400  0.37714800  0.98559600  1
  B  B74  1  0.88202600  0.62285200  0.01440400  1
  B  B75  1  0.11719200  0.86820800  0.98345100  1
  B  B76  1  0.04448900  0.49801200  0.24670800  1
  B  B77  1  0.20370000  0.76553000  0.72020500  1
  B  B78  1  0.54448900  0.50198800  0.25329200  1
  B  B79  1  0.69440100  0.76958800  0.71895700  1
  O  O80  1  0.21919900  0.35094200  0.78400300  1
  O  O81  1  0.36318900  0.65359800  0.91606100  1
  O  O82  1  0.94453300  0.04516400  0.04327300  1
  O  O83  1  0.24924100  0.14003300  0.77049800  1
  O  O84  1  0.61947600  0.80955100  0.71599600  1
  O  O85  1  0.87046900  0.50245800  0.09293400  1
  O  O86  1  0.07504000  0.27507400  0.97211500  1
  O  O87  1  0.92357900  0.98854500  0.49918500  1
  O  O88  1  0.15106900  0.35570400  0.08031200  1
  O  O89  1  0.28080100  0.35094200  0.28400300  1
  O  O90  1  0.38983700  0.23341400  0.91341100  1
  O  O91  1  0.25530200  0.86020200  0.72911800  1
  O  O92  1  0.86363000  0.50581200  0.41292200  1
  O  O93  1  0.61266300  0.22597700  0.41768900  1
  O  O94  1  0.53315300  0.99398000  0.79735100  1
  O  O95  1  0.37687400  0.50076800  0.74701200  1
  O  O96  1  0.74924100  0.85996700  0.72950200  1
  O  O97  1  0.03315300  0.00602000  0.70264900  1
  O  O98  1  0.34893100  0.35570400  0.58031200  1
  O  O99  1  0.43409000  0.89787300  0.72592500  1
  O  O100  1  0.63681100  0.34640200  0.08393900  1
  O  O101  1  0.38733700  0.77402300  0.58231100  1
  O  O102  1  0.88733700  0.22597700  0.91768900  1
  O  O103  1  0.87687400  0.49923200  0.75298800  1
  O  O104  1  0.74469800  0.13979800  0.27088200  1
  O  O105  1  0.57242600  0.29636700  0.94847500  1
  O  O106  1  0.37046900  0.49754200  0.40706600  1
  O  O107  1  0.36363000  0.49418800  0.08707800  1
  O  O108  1  0.42757400  0.70363300  0.05152500  1
  O  O109  1  0.32785400  0.86656100  0.41626800  1
  O  O110  1  0.17214600  0.86656100  0.91626800  1
  O  O111  1  0.07642100  0.01145500  0.50081500  1
  O  O112  1  0.82785400  0.13343900  0.08373200  1
  O  O113  1  0.88052400  0.80955100  0.21599600  1
  O  O114  1  0.63637000  0.50581200  0.91292200  1
  O  O115  1  0.07242600  0.70363300  0.55152500  1
  O  O116  1  0.42357900  0.01145500  0.00081500  1
  O  O117  1  0.87323100  0.21342600  0.27789300  1
  O  O118  1  0.25075900  0.14003300  0.27049800  1
  O  O119  1  0.62676900  0.21342600  0.77789300  1
  O  O120  1  0.71919900  0.64905800  0.71599700  1
  O  O121  1  0.00678100  0.38298100  0.24913600  1
  O  O122  1  0.12676900  0.78657400  0.72210700  1
  O  O123  1  0.23254600  0.64791200  0.71434700  1
  O  O124  1  0.06591000  0.89787300  0.22592500  1
  O  O125  1  0.61016300  0.76658600  0.08658900  1
  O  O126  1  0.11947600  0.19044900  0.78400400  1
  O  O127  1  0.88983700  0.76658600  0.58658900  1
  O  O128  1  0.41891000  0.11052700  0.75589100  1
  O  O129  1  0.99556300  0.38817200  0.75611300  1
  O  O130  1  0.12953100  0.49754200  0.90706600  1
  O  O131  1  0.92757400  0.29636700  0.44847500  1
  O  O132  1  0.76745400  0.35208800  0.28565300  1
  O  O133  1  0.46684700  0.00602000  0.20264900  1
  O  O134  1  0.91891000  0.88947300  0.74410900  1
  O  O135  1  0.75530200  0.13979800  0.77088200  1
  O  O136  1  0.08109000  0.11052700  0.25589100  1
  O  O137  1  0.65106900  0.64429600  0.41968800  1
  O  O138  1  0.12312600  0.50076800  0.24701200  1
  O  O139  1  0.58109000  0.88947300  0.24410900  1
  O  O140  1  0.24469800  0.86020200  0.22911800  1
  O  O141  1  0.57642100  0.98854500  0.99918500  1
  O  O142  1  0.38052400  0.19044900  0.28400400  1
  O  O143  1  0.55546700  0.04516400  0.54327300  1
  O  O144  1  0.62312600  0.49923200  0.25298800  1
  O  O145  1  0.42496000  0.27507400  0.47211500  1
  O  O146  1  0.67250300  0.88366700  0.92575900  1
  O  O147  1  0.00443700  0.61182800  0.24388700  1
  O  O148  1  0.78080100  0.64905800  0.21599700  1
  O  O149  1  0.11016300  0.23341400  0.41341100  1
  O  O150  1  0.17250300  0.11633300  0.57424100  1
  O  O151  1  0.32749700  0.11633300  0.07424100  1
  O  O152  1  0.13637000  0.49418800  0.58707800  1
  O  O153  1  0.93409000  0.10212700  0.77407500  1
  O  O154  1  0.57504000  0.72492600  0.52788500  1
  O  O155  1  0.49321900  0.38298100  0.74913600  1
  O  O156  1  0.75075900  0.85996700  0.22950200  1
  O  O157  1  0.62953100  0.50245800  0.59293400  1
  O  O158  1  0.67214600  0.13343900  0.58373200  1
  O  O159  1  0.50678100  0.61701900  0.25086400  1
  O  O160  1  0.86318900  0.34640200  0.58393900  1
  O  O161  1  0.96684700  0.99398000  0.29735100  1
  O  O162  1  0.73254600  0.35208800  0.78565300  1
  O  O163  1  0.84893100  0.64429600  0.91968800  1
  O  O164  1  0.92496000  0.72492600  0.02788500  1
  O  O165  1  0.82749700  0.88366700  0.42575900  1
  O  O166  1  0.13681100  0.65359800  0.41606100  1
  O  O167  1  0.99321900  0.61701900  0.75086400  1
  O  O168  1  0.26745400  0.64791200  0.21434700  1
  O  O169  1  0.50443700  0.38817200  0.25611300  1
  O  O170  1  0.49556300  0.61182800  0.74388700  1
  O  O171  1  0.44453300  0.95483600  0.45672700  1
  O  O172  1  0.37323100  0.78657400  0.22210700  1
  O  O173  1  0.11266300  0.77402300  0.08231100  1
  O  O174  1  0.56591000  0.10212700  0.27407500  1
  O  O175  1  0.05546700  0.95483600  0.95672700  1
