# generated using pymatgen
data_CsTaCo(OF2)2
_symmetry_space_group_name_H-M   'P 1'
_cell_length_a   7.52160339
_cell_length_b   7.51971067
_cell_length_c   7.55343314
_cell_angle_alpha   61.06729881
_cell_angle_beta   118.93900978
_cell_angle_gamma   88.38146121
_symmetry_Int_Tables_number   1
_chemical_formula_structural   CsTaCo(OF2)2
_chemical_formula_sum   'Cs2 Ta2 Co2 O4 F8'
_cell_volume   307.42198533
_cell_formula_units_Z   2
loop_
 _symmetry_equiv_pos_site_id
 _symmetry_equiv_pos_as_xyz
  1  'x, y, z'
loop_
 _atom_site_type_symbol
 _atom_site_label
 _atom_site_symmetry_multiplicity
 _atom_site_fract_x
 _atom_site_fract_y
 _atom_site_fract_z
 _atom_site_occupancy
  Cs  Cs0  1  0.12713200  0.62255300  0.75442500  1
  Cs  Cs1  1  0.88016100  0.37013700  0.26001000  1
  Ta  Ta2  1  0.52556100  0.48468800  0.51778300  1
  Ta  Ta3  1  0.49220600  0.99765000  0.51776400  1
  Co  Co4  1  0.50058300  0.99760200  0.99877800  1
  Co  Co5  1  0.99821100  0.00341200  0.99888200  1
  O  O6  1  0.53711100  0.71281700  0.57441300  1
  O  O7  1  0.44514300  0.30504700  0.39002800  1
  O  O8  1  0.80727100  0.31242200  0.75931700  1
  O  O9  1  0.45110000  0.92878600  0.75853200  1
  F  F10  1  0.82137000  0.92750100  0.14265000  1
  F  F11  1  0.18563900  0.06558800  0.87141700  1
  F  F12  1  0.81300800  0.92277900  0.73125800  1
  F  F13  1  0.41812300  0.34594200  0.73109200  1
  F  F14  1  0.57643200  0.65763500  0.25694600  1
  F  F15  1  0.18067100  0.08568300  0.25670400  1
  F  F16  1  0.55269300  0.07934400  0.24028200  1
  F  F17  1  0.18758800  0.68041400  0.23971900  1
