# generated using pymatgen
data_FeHO2
_symmetry_space_group_name_H-M   'P 1'
_cell_length_a   3.05611900
_cell_length_b   4.64196100
_cell_length_c   10.05552300
_cell_angle_alpha   89.99864878
_cell_angle_beta   89.99999431
_cell_angle_gamma   90.00068307
_symmetry_Int_Tables_number   1
_chemical_formula_structural   FeHO2
_chemical_formula_sum   'Fe4 H4 O8'
_cell_volume   142.65152273
_cell_formula_units_Z   4
loop_
 _symmetry_equiv_pos_site_id
 _symmetry_equiv_pos_as_xyz
  1  'x, y, z'
loop_
 _atom_site_type_symbol
 _atom_site_label
 _atom_site_symmetry_multiplicity
 _atom_site_fract_x
 _atom_site_fract_y
 _atom_site_fract_z
 _atom_site_occupancy
  Fe  Fe0  1  0.75120800  0.44302200  0.35534900  1
  Fe  Fe1  1  0.74881300  0.05697100  0.85535400  1
  Fe  Fe2  1  0.25117100  0.55697200  0.64465200  1
  Fe  Fe3  1  0.24884600  0.94303600  0.14465100  1
  H  H4  1  0.25289900  0.89621500  0.40905900  1
  H  H5  1  0.24708800  0.60377800  0.90906000  1
  H  H6  1  0.75290000  0.10376800  0.59094300  1
  H  H7  1  0.74708500  0.39624400  0.09094100  1
  O  O8  1  0.25064600  0.19026900  0.30428900  1
  O  O9  1  0.24936100  0.30973100  0.80428900  1
  O  O10  1  0.75061800  0.80972700  0.69570600  1
  O  O11  1  0.74937800  0.69026900  0.19570800  1
  O  O12  1  0.25304500  0.69327900  0.44329600  1
  O  O13  1  0.24695100  0.80671200  0.94329900  1
  O  O14  1  0.75304100  0.30670100  0.55670100  1
  O  O15  1  0.74694900  0.19330600  0.05670300  1
