# generated using pymatgen
data_Ta6Co16Ge7
_symmetry_space_group_name_H-M   'P 1'
_cell_length_a   8.02926114
_cell_length_b   8.02926114
_cell_length_c   8.02926114
_cell_angle_alpha   60.00000000
_cell_angle_beta   60.00000000
_cell_angle_gamma   60.00000000
_symmetry_Int_Tables_number   1
_chemical_formula_structural   Ta6Co16Ge7
_chemical_formula_sum   'Ta6 Co16 Ge7'
_cell_volume   366.02584422
_cell_formula_units_Z   1
loop_
 _symmetry_equiv_pos_site_id
 _symmetry_equiv_pos_as_xyz
  1  'x, y, z'
loop_
 _atom_site_type_symbol
 _atom_site_label
 _atom_site_symmetry_multiplicity
 _atom_site_fract_x
 _atom_site_fract_y
 _atom_site_fract_z
 _atom_site_occupancy
  Ta  Ta0  1  0.70001400  0.29998600  0.29998600  1
  Ta  Ta1  1  0.70001400  0.29998600  0.70001400  1
  Ta  Ta2  1  0.29998600  0.70001400  0.70001400  1
  Ta  Ta3  1  0.29998600  0.70001400  0.29998600  1
  Ta  Ta4  1  0.29998600  0.29998600  0.70001400  1
  Ta  Ta5  1  0.70001400  0.70001400  0.29998600  1
  Co  Co6  1  0.88120400  0.88120400  0.88120400  1
  Co  Co7  1  0.99563100  0.33479000  0.33479000  1
  Co  Co8  1  0.11879600  0.11879600  0.64361300  1
  Co  Co9  1  0.66521000  0.66521000  0.00436900  1
  Co  Co10  1  0.33479000  0.33479000  0.99563100  1
  Co  Co11  1  0.66521000  0.66521000  0.66521000  1
  Co  Co12  1  0.33479000  0.33479000  0.33479000  1
  Co  Co13  1  0.88120400  0.88120400  0.35638700  1
  Co  Co14  1  0.33479000  0.99563100  0.33479000  1
  Co  Co15  1  0.11879600  0.11879600  0.11879600  1
  Co  Co16  1  0.88120400  0.35638700  0.88120400  1
  Co  Co17  1  0.64361300  0.11879600  0.11879600  1
  Co  Co18  1  0.11879600  0.64361300  0.11879600  1
  Co  Co19  1  0.66521000  0.00436900  0.66521000  1
  Co  Co20  1  0.35638700  0.88120400  0.88120400  1
  Co  Co21  1  0.00436900  0.66521000  0.66521000  1
  Ge  Ge22  1  0.50000000  0.50000000  0.00000000  1
  Ge  Ge23  1  0.00000000  0.50000000  0.00000000  1
  Ge  Ge24  1  0.00000000  0.00000000  0.00000000  1
  Ge  Ge25  1  0.50000000  0.00000000  0.50000000  1
  Ge  Ge26  1  0.00000000  0.00000000  0.50000000  1
  Ge  Ge27  1  0.00000000  0.50000000  0.50000000  1
  Ge  Ge28  1  0.50000000  0.00000000  0.00000000  1
