# generated using pymatgen
data_Re6Te7Se8
_symmetry_space_group_name_H-M   'P 1'
_cell_length_a   12.85930000
_cell_length_b   12.90630100
_cell_length_c   14.38382300
_cell_angle_alpha   90.00000000
_cell_angle_beta   90.00000000
_cell_angle_gamma   90.00000000
_symmetry_Int_Tables_number   1
_chemical_formula_structural   Re6Te7Se8
_chemical_formula_sum   'Re24 Te28 Se32'
_cell_volume   2387.22551695
_cell_formula_units_Z   4
loop_
 _symmetry_equiv_pos_site_id
 _symmetry_equiv_pos_as_xyz
  1  'x, y, z'
loop_
 _atom_site_type_symbol
 _atom_site_label
 _atom_site_symmetry_multiplicity
 _atom_site_fract_x
 _atom_site_fract_y
 _atom_site_fract_z
 _atom_site_occupancy
  Re  Re0  1  0.50791300  0.36568000  0.44955900  1
  Re  Re1  1  0.99208700  0.36568000  0.94955900  1
  Re  Re2  1  0.44008200  0.54782900  0.38906500  1
  Re  Re3  1  0.13270700  0.97025100  0.45220000  1
  Re  Re4  1  0.99208700  0.86568000  0.55044100  1
  Re  Re5  1  0.49208700  0.63432000  0.55044100  1
  Re  Re6  1  0.50791300  0.86568000  0.05044100  1
  Re  Re7  1  0.86729300  0.02974900  0.54780000  1
  Re  Re8  1  0.49208700  0.13432000  0.94955900  1
  Re  Re9  1  0.36729300  0.47025100  0.54780000  1
  Re  Re10  1  0.00791300  0.13432000  0.44955900  1
  Re  Re11  1  0.05991800  0.04782900  0.61093500  1
  Re  Re12  1  0.13270700  0.47025100  0.04780000  1
  Re  Re13  1  0.94008200  0.45217100  0.11093500  1
  Re  Re14  1  0.55991800  0.95217100  0.88906500  1
  Re  Re15  1  0.94008200  0.95217100  0.38906500  1
  Re  Re16  1  0.05991800  0.54782900  0.88906500  1
  Re  Re17  1  0.00791300  0.63432000  0.05044100  1
  Re  Re18  1  0.36729300  0.97025100  0.95220000  1
  Re  Re19  1  0.63270700  0.52974900  0.45220000  1
  Re  Re20  1  0.55991800  0.45217100  0.61093500  1
  Re  Re21  1  0.63270700  0.02974900  0.04780000  1
  Re  Re22  1  0.44008200  0.04782900  0.11093500  1
  Re  Re23  1  0.86729300  0.52974900  0.95220000  1
  Te  Te24  1  0.67554800  0.07718500  0.62496400  1
  Te  Te25  1  0.17554800  0.92281500  0.87503600  1
  Te  Te26  1  0.54440400  0.17574200  0.36722700  1
  Te  Te27  1  0.95559600  0.17574200  0.86722700  1
  Te  Te28  1  0.00000000  0.50000000  0.50000000  1
  Te  Te29  1  0.50000000  0.00000000  0.50000000  1
  Te  Te30  1  0.64411800  0.38527300  0.77727400  1
  Te  Te31  1  0.67554800  0.57718500  0.87503600  1
  Te  Te32  1  0.35588200  0.11472700  0.27727400  1
  Te  Te33  1  0.64411800  0.88527300  0.72272600  1
  Te  Te34  1  0.45559600  0.32425800  0.86722700  1
  Te  Te35  1  0.82445200  0.57718500  0.37503600  1
  Te  Te36  1  0.82445200  0.07718500  0.12496400  1
  Te  Te37  1  0.45559600  0.82425800  0.63277300  1
  Te  Te38  1  0.85588200  0.88527300  0.22272600  1
  Te  Te39  1  0.04440400  0.32425800  0.36722700  1
  Te  Te40  1  0.00000000  0.00000000  0.00000000  1
  Te  Te41  1  0.14411800  0.61472700  0.72272600  1
  Te  Te42  1  0.32445200  0.92281500  0.37503600  1
  Te  Te43  1  0.32445200  0.42281500  0.12496400  1
  Te  Te44  1  0.04440400  0.82425800  0.13277300  1
  Te  Te45  1  0.95559600  0.67574200  0.63277300  1
  Te  Te46  1  0.14411800  0.11472700  0.77727400  1
  Te  Te47  1  0.85588200  0.38527300  0.27727400  1
  Te  Te48  1  0.17554800  0.42281500  0.62496400  1
  Te  Te49  1  0.50000000  0.50000000  0.00000000  1
  Te  Te50  1  0.35588200  0.61472700  0.22272600  1
  Te  Te51  1  0.54440400  0.67574200  0.13277300  1
  Se  Se52  1  0.32240000  0.88879600  0.10796000  1
  Se  Se53  1  0.42327700  0.55344100  0.70010300  1
  Se  Se54  1  0.17760000  0.38879600  0.89204000  1
  Se  Se55  1  0.57672300  0.44655900  0.29989700  1
  Se  Se56  1  0.82240000  0.61120400  0.10796000  1
  Se  Se57  1  0.43919500  0.29576700  0.60198900  1
  Se  Se58  1  0.32240000  0.38879600  0.39204000  1
  Se  Se59  1  0.69336800  0.35417200  0.51317300  1
  Se  Se60  1  0.30663200  0.64582800  0.48682700  1
  Se  Se61  1  0.19336800  0.64582800  0.98682700  1
  Se  Se62  1  0.06080500  0.79576700  0.39801100  1
  Se  Se63  1  0.07672300  0.55344100  0.20010300  1
  Se  Se64  1  0.67760000  0.11120400  0.89204000  1
  Se  Se65  1  0.93919500  0.20423300  0.60198900  1
  Se  Se66  1  0.06080500  0.29576700  0.10198900  1
  Se  Se67  1  0.92327700  0.44655900  0.79989700  1
  Se  Se68  1  0.56080500  0.70423300  0.39801100  1
  Se  Se69  1  0.67760000  0.61120400  0.60796000  1
  Se  Se70  1  0.93919500  0.70423300  0.89801100  1
  Se  Se71  1  0.69336800  0.85417200  0.98682700  1
  Se  Se72  1  0.80663200  0.35417200  0.01317300  1
  Se  Se73  1  0.80663200  0.85417200  0.48682700  1
  Se  Se74  1  0.92327700  0.94655900  0.70010300  1
  Se  Se75  1  0.30663200  0.14582800  0.01317300  1
  Se  Se76  1  0.82240000  0.11120400  0.39204000  1
  Se  Se77  1  0.07672300  0.05344100  0.29989700  1
  Se  Se78  1  0.43919500  0.79576700  0.89801100  1
  Se  Se79  1  0.19336800  0.14582800  0.51317300  1
  Se  Se80  1  0.56080500  0.20423300  0.10198900  1
  Se  Se81  1  0.42327700  0.05344100  0.79989700  1
  Se  Se82  1  0.17760000  0.88879600  0.60796000  1
  Se  Se83  1  0.57672300  0.94655900  0.20010300  1
