# generated using pymatgen
data_CsHo2Cu3Se5
_symmetry_space_group_name_H-M   'P 1'
_cell_length_a   4.12493900
_cell_length_b   7.64470586
_cell_length_c   17.36245685
_cell_angle_alpha   90.01584775
_cell_angle_beta   90.03408221
_cell_angle_gamma   105.59232038
_symmetry_Int_Tables_number   1
_chemical_formula_structural   CsHo2Cu3Se5
_chemical_formula_sum   'Cs2 Ho4 Cu6 Se10'
_cell_volume   527.35760389
_cell_formula_units_Z   2
loop_
 _symmetry_equiv_pos_site_id
 _symmetry_equiv_pos_as_xyz
  1  'x, y, z'
loop_
 _atom_site_type_symbol
 _atom_site_label
 _atom_site_symmetry_multiplicity
 _atom_site_fract_x
 _atom_site_fract_y
 _atom_site_fract_z
 _atom_site_occupancy
  Cs  Cs0  1  0.94667800  0.87962500  0.74939700  1
  Cs  Cs1  1  0.06021800  0.11986400  0.24964800  1
  Ho  Ho2  1  0.80815200  0.61816200  0.09103800  1
  Ho  Ho3  1  0.19020900  0.38471300  0.59096600  1
  Ho  Ho4  1  0.19388800  0.38655300  0.90880300  1
  Ho  Ho5  1  0.80120100  0.61498000  0.40893200  1
  Cu  Cu6  1  0.42103300  0.83396000  0.53383900  1
  Cu  Cu7  1  0.34837500  0.68608300  0.24908400  1
  Cu  Cu8  1  0.66781200  0.31495200  0.75081400  1
  Cu  Cu9  1  0.59120100  0.16966500  0.03243500  1
  Cu  Cu10  1  0.57712300  0.16515700  0.46643900  1
  Cu  Cu11  1  0.41836300  0.83682200  0.96715600  1
  Se  Se12  1  0.83204800  0.66398600  0.56989700  1
  Se  Se13  1  0.16351300  0.33765200  0.42944400  1
  Se  Se14  1  0.76859700  0.52723200  0.24979100  1
  Se  Se15  1  0.56190600  0.12538100  0.61114300  1
  Se  Se16  1  0.17192100  0.33874100  0.06995300  1
  Se  Se17  1  0.43217000  0.87494500  0.38884800  1
  Se  Se18  1  0.43628300  0.87827800  0.11146200  1
  Se  Se19  1  0.56426800  0.12763500  0.88820100  1
  Se  Se20  1  0.24605200  0.47518800  0.74972600  1
  Se  Se21  1  0.83305000  0.66583500  0.92983300  1
