# generated using pymatgen
data_UI4
_symmetry_space_group_name_H-M   'P 1'
_cell_length_a   8.74184449
_cell_length_b   8.74184449
_cell_length_c   7.69438492
_cell_angle_alpha   88.25332978
_cell_angle_beta   88.25332978
_cell_angle_gamma   61.36108670
_symmetry_Int_Tables_number   1
_chemical_formula_structural   UI4
_chemical_formula_sum   'U2 I8'
_cell_volume   515.74174313
_cell_formula_units_Z   2
loop_
 _symmetry_equiv_pos_site_id
 _symmetry_equiv_pos_as_xyz
  1  'x, y, z'
loop_
 _atom_site_type_symbol
 _atom_site_label
 _atom_site_symmetry_multiplicity
 _atom_site_fract_x
 _atom_site_fract_y
 _atom_site_fract_z
 _atom_site_occupancy
  U  U0  1  0.14331500  0.85668500  0.25000000  1
  U  U1  1  0.85668500  0.14331500  0.75000000  1
  I  I2  1  0.99961600  0.77510300  0.92783600  1
  I  I3  1  0.22489700  0.00038400  0.57216400  1
  I  I4  1  0.00038400  0.22489700  0.07216400  1
  I  I5  1  0.77510300  0.99961600  0.42783600  1
  I  I6  1  0.48691300  0.76039800  0.11026500  1
  I  I7  1  0.23960200  0.51308700  0.38973500  1
  I  I8  1  0.51308700  0.23960200  0.88973500  1
  I  I9  1  0.76039800  0.48691300  0.61026500  1
