# generated using pymatgen
data_In4SnS4
_symmetry_space_group_name_H-M   'P 1'
_cell_length_a   12.64147900
_cell_length_b   12.64147900
_cell_length_c   12.64147900
_cell_angle_alpha   90.00000000
_cell_angle_beta   90.00000000
_cell_angle_gamma   90.00000000
_symmetry_Int_Tables_number   1
_chemical_formula_structural   In4SnS4
_chemical_formula_sum   'In32 Sn8 S32'
_cell_volume   2020.19672467
_cell_formula_units_Z   8
loop_
 _symmetry_equiv_pos_site_id
 _symmetry_equiv_pos_as_xyz
  1  'x, y, z'
loop_
 _atom_site_type_symbol
 _atom_site_label
 _atom_site_symmetry_multiplicity
 _atom_site_fract_x
 _atom_site_fract_y
 _atom_site_fract_z
 _atom_site_occupancy
  In  In0  1  0.76879300  0.02589700  0.43266800  1
  In  In1  1  0.52589700  0.43266800  0.73120700  1
  In  In2  1  0.23120700  0.97410300  0.56733200  1
  In  In3  1  0.22983900  0.72983900  0.77016100  1
  In  In4  1  0.56733200  0.26879300  0.47410300  1
  In  In5  1  0.76879300  0.47410300  0.93266800  1
  In  In6  1  0.22983900  0.77016100  0.27016100  1
  In  In7  1  0.43266800  0.76879300  0.02589700  1
  In  In8  1  0.93266800  0.76879300  0.47410300  1
  In  In9  1  0.47410300  0.56733200  0.26879300  1
  In  In10  1  0.26879300  0.02589700  0.06733200  1
  In  In11  1  0.93266800  0.73120700  0.97410300  1
  In  In12  1  0.77016100  0.27016100  0.22983900  1
  In  In13  1  0.02589700  0.43266800  0.76879300  1
  In  In14  1  0.56733200  0.23120700  0.97410300  1
  In  In15  1  0.26879300  0.47410300  0.56733200  1
  In  In16  1  0.73120700  0.52589700  0.43266800  1
  In  In17  1  0.72983900  0.72983900  0.72983900  1
  In  In18  1  0.23120700  0.52589700  0.06733200  1
  In  In19  1  0.02589700  0.06733200  0.26879300  1
  In  In20  1  0.52589700  0.06733200  0.23120700  1
  In  In21  1  0.97410300  0.93266800  0.73120700  1
  In  In22  1  0.27016100  0.22983900  0.77016100  1
  In  In23  1  0.43266800  0.73120700  0.52589700  1
  In  In24  1  0.72983900  0.77016100  0.22983900  1
  In  In25  1  0.47410300  0.93266800  0.76879300  1
  In  In26  1  0.73120700  0.97410300  0.93266800  1
  In  In27  1  0.77016100  0.22983900  0.72983900  1
  In  In28  1  0.06733200  0.23120700  0.52589700  1
  In  In29  1  0.97410300  0.56733200  0.23120700  1
  In  In30  1  0.06733200  0.26879300  0.02589700  1
  In  In31  1  0.27016100  0.27016100  0.27016100  1
  Sn  Sn32  1  0.60040000  0.89960000  0.10040000  1
  Sn  Sn33  1  0.60040000  0.60040000  0.60040000  1
  Sn  Sn34  1  0.39960000  0.10040000  0.89960000  1
  Sn  Sn35  1  0.89960000  0.10040000  0.60040000  1
  Sn  Sn36  1  0.89960000  0.39960000  0.10040000  1
  Sn  Sn37  1  0.10040000  0.89960000  0.39960000  1
  Sn  Sn38  1  0.10040000  0.60040000  0.89960000  1
  Sn  Sn39  1  0.39960000  0.39960000  0.39960000  1
  S  S40  1  0.07421400  0.25600000  0.32435600  1
  S  S41  1  0.42578600  0.75600000  0.32435600  1
  S  S42  1  0.75600000  0.17564400  0.92578600  1
  S  S43  1  0.25600000  0.32435600  0.07421400  1
  S  S44  1  0.92578600  0.75600000  0.17564400  1
  S  S45  1  0.57509100  0.42490900  0.92490900  1
  S  S46  1  0.74400000  0.82435600  0.42578600  1
  S  S47  1  0.92578600  0.74400000  0.67564400  1
  S  S48  1  0.67564400  0.92578600  0.74400000  1
  S  S49  1  0.42578600  0.74400000  0.82435600  1
  S  S50  1  0.17564400  0.92578600  0.75600000  1
  S  S51  1  0.57421400  0.25600000  0.17564400  1
  S  S52  1  0.07421400  0.24400000  0.82435600  1
  S  S53  1  0.75600000  0.32435600  0.42578600  1
  S  S54  1  0.82435600  0.07421400  0.24400000  1
  S  S55  1  0.07509100  0.42490900  0.57509100  1
  S  S56  1  0.17564400  0.57421400  0.25600000  1
  S  S57  1  0.82435600  0.42578600  0.74400000  1
  S  S58  1  0.57509100  0.07509100  0.42490900  1
  S  S59  1  0.07509100  0.07509100  0.07509100  1
  S  S60  1  0.25600000  0.17564400  0.57421400  1
  S  S61  1  0.67564400  0.57421400  0.24400000  1
  S  S62  1  0.42490900  0.57509100  0.07509100  1
  S  S63  1  0.24400000  0.67564400  0.57421400  1
  S  S64  1  0.74400000  0.67564400  0.92578600  1
  S  S65  1  0.32435600  0.42578600  0.75600000  1
  S  S66  1  0.32435600  0.07421400  0.25600000  1
  S  S67  1  0.24400000  0.82435600  0.07421400  1
  S  S68  1  0.42490900  0.92490900  0.57509100  1
  S  S69  1  0.92490900  0.92490900  0.92490900  1
  S  S70  1  0.57421400  0.24400000  0.67564400  1
  S  S71  1  0.92490900  0.57509100  0.42490900  1
