# generated using pymatgen
data_AlP3(NCl3)3
_symmetry_space_group_name_H-M   'P 1'
_cell_length_a   11.02806000
_cell_length_b   12.03436500
_cell_length_c   12.32055700
_cell_angle_alpha   90.00000000
_cell_angle_beta   90.00000000
_cell_angle_gamma   90.00000000
_symmetry_Int_Tables_number   1
_chemical_formula_structural   AlP3(NCl3)3
_chemical_formula_sum   'Al4 P12 N12 Cl36'
_cell_volume   1635.13133780
_cell_formula_units_Z   4
loop_
 _symmetry_equiv_pos_site_id
 _symmetry_equiv_pos_as_xyz
  1  'x, y, z'
loop_
 _atom_site_type_symbol
 _atom_site_label
 _atom_site_symmetry_multiplicity
 _atom_site_fract_x
 _atom_site_fract_y
 _atom_site_fract_z
 _atom_site_occupancy
  Al  Al0  1  0.10214000  0.84538500  0.00000000  1
  Al  Al1  1  0.60214000  0.15461500  0.50000000  1
  Al  Al2  1  0.56996900  0.59601500  0.00000000  1
  Al  Al3  1  0.06996900  0.40398500  0.50000000  1
  P  P4  1  0.95941600  0.34182500  0.00000000  1
  P  P5  1  0.03324600  0.96785100  0.50000000  1
  P  P6  1  0.82336700  0.02630600  0.38401600  1
  P  P7  1  0.82336700  0.02630600  0.61598400  1
  P  P8  1  0.80075900  0.48172800  0.11628300  1
  P  P9  1  0.32336700  0.97369400  0.88401600  1
  P  P10  1  0.45941600  0.65817500  0.50000000  1
  P  P11  1  0.32336700  0.97369400  0.11598400  1
  P  P12  1  0.30075900  0.51827200  0.61628300  1
  P  P13  1  0.80075900  0.48172800  0.88371700  1
  P  P14  1  0.30075900  0.51827200  0.38371700  1
  P  P15  1  0.53324600  0.03214900  0.00000000  1
  N  N16  1  0.96265100  0.99700900  0.60931700  1
  N  N17  1  0.46265100  0.00299100  0.10931700  1
  N  N18  1  0.23168700  0.48535600  0.50000000  1
  N  N19  1  0.46265100  0.00299100  0.89068300  1
  N  N20  1  0.96265100  0.99700900  0.39068300  1
  N  N21  1  0.75716800  0.06525000  0.50000000  1
  N  N22  1  0.90153700  0.38866400  0.10938000  1
  N  N23  1  0.73168700  0.51464400  0.00000000  1
  N  N24  1  0.25716800  0.93475000  0.00000000  1
  N  N25  1  0.40153700  0.61133600  0.60938000  1
  N  N26  1  0.40153700  0.61133600  0.39062000  1
  N  N27  1  0.90153700  0.38866400  0.89062000  1
  Cl  Cl28  1  0.99957900  0.89051800  0.85976600  1
  Cl  Cl29  1  0.06354800  0.30273800  0.35814800  1
  Cl  Cl30  1  0.49957900  0.10948200  0.35976600  1
  Cl  Cl31  1  0.23046900  0.10252900  0.82246700  1
  Cl  Cl32  1  0.17476700  0.56649200  0.72141900  1
  Cl  Cl33  1  0.86899100  0.62025900  0.81857800  1
  Cl  Cl34  1  0.19502200  0.04070800  0.50000000  1
  Cl  Cl35  1  0.56354800  0.69726200  0.85814800  1
  Cl  Cl36  1  0.79929200  0.14675700  0.72337900  1
  Cl  Cl37  1  0.56354800  0.69726200  0.14185200  1
  Cl  Cl38  1  0.43741000  0.46614300  0.00000000  1
  Cl  Cl39  1  0.99957900  0.89051800  0.14023400  1
  Cl  Cl40  1  0.73046900  0.89747100  0.32246700  1
  Cl  Cl41  1  0.69502200  0.95929200  0.00000000  1
  Cl  Cl42  1  0.36899100  0.37974100  0.68142200  1
  Cl  Cl43  1  0.67476700  0.43350800  0.22141900  1
  Cl  Cl44  1  0.49957900  0.10948200  0.64023400  1
  Cl  Cl45  1  0.36899100  0.37974100  0.31857800  1
  Cl  Cl46  1  0.67476700  0.43350800  0.77858100  1
  Cl  Cl47  1  0.29929200  0.85324300  0.22337900  1
  Cl  Cl48  1  0.23046900  0.10252900  0.17753300  1
  Cl  Cl49  1  0.86899100  0.62025900  0.18142200  1
  Cl  Cl50  1  0.79929200  0.14675700  0.27662100  1
  Cl  Cl51  1  0.17476700  0.56649200  0.27858100  1
  Cl  Cl52  1  0.63904400  0.63229600  0.50000000  1
  Cl  Cl53  1  0.44896300  0.82477000  0.50000000  1
  Cl  Cl54  1  0.93741000  0.53385700  0.50000000  1
  Cl  Cl55  1  0.07563800  0.80431500  0.50000000  1
  Cl  Cl56  1  0.57563800  0.19568500  0.00000000  1
  Cl  Cl57  1  0.06354800  0.30273800  0.64185200  1
  Cl  Cl58  1  0.29929200  0.85324300  0.77662100  1
  Cl  Cl59  1  0.94896300  0.17523000  0.00000000  1
  Cl  Cl60  1  0.73046900  0.89747100  0.67753300  1
  Cl  Cl61  1  0.15635500  0.67524100  0.00000000  1
  Cl  Cl62  1  0.65635500  0.32475900  0.50000000  1
  Cl  Cl63  1  0.13904400  0.36770400  0.00000000  1
