# generated using pymatgen
data_VP(H2O3)2
_symmetry_space_group_name_H-M   'P 1'
_cell_length_a   9.98106700
_cell_length_b   5.33993000
_cell_length_c   10.19467525
_cell_angle_alpha   60.02821686
_cell_angle_beta   90.00000000
_cell_angle_gamma   90.00000000
_symmetry_Int_Tables_number   1
_chemical_formula_structural   VP(H2O3)2
_chemical_formula_sum   'V4 P4 H16 O24'
_cell_volume   470.69542376
_cell_formula_units_Z   4
loop_
 _symmetry_equiv_pos_site_id
 _symmetry_equiv_pos_as_xyz
  1  'x, y, z'
loop_
 _atom_site_type_symbol
 _atom_site_label
 _atom_site_symmetry_multiplicity
 _atom_site_fract_x
 _atom_site_fract_y
 _atom_site_fract_z
 _atom_site_occupancy
  V  V0  1  0.82344800  0.39480600  0.69735500  1
  V  V1  1  0.67655200  0.39480600  0.19735500  1
  V  V2  1  0.17655200  0.60519400  0.30264500  1
  V  V3  1  0.32344800  0.60519400  0.80264500  1
  P  P4  1  0.64381400  0.77099400  0.81992000  1
  P  P5  1  0.85618600  0.77099400  0.31992000  1
  P  P6  1  0.35618600  0.22900600  0.18008000  1
  P  P7  1  0.14381400  0.22900600  0.68008000  1
  H  H8  1  0.03890200  0.61703300  0.72440500  1
  H  H9  1  0.46109800  0.61703300  0.22440500  1
  H  H10  1  0.96109800  0.38296700  0.27559500  1
  H  H11  1  0.53890200  0.38296700  0.77559500  1
  H  H12  1  0.94342200  0.90309500  0.66863300  1
  H  H13  1  0.55657800  0.90309500  0.16863300  1
  H  H14  1  0.05657800  0.09690500  0.33136700  1
  H  H15  1  0.44342200  0.09690500  0.83136700  1
  H  H16  1  0.84212700  0.20953700  0.00062800  1
  H  H17  1  0.65787300  0.20953700  0.50062800  1
  H  H18  1  0.15787300  0.79046300  0.99937200  1
  H  H19  1  0.34212700  0.79046300  0.49937200  1
  H  H20  1  0.83544100  0.93972700  0.97564000  1
  H  H21  1  0.66455900  0.93972700  0.47564000  1
  H  H22  1  0.16455900  0.06027300  0.02436000  1
  H  H23  1  0.33544100  0.06027300  0.52436000  1
  O  O24  1  0.66554700  0.58595500  0.74169800  1
  O  O25  1  0.83445300  0.58595500  0.24169800  1
  O  O26  1  0.33445300  0.41404500  0.25830200  1
  O  O27  1  0.16554700  0.41404500  0.75830200  1
  O  O28  1  0.71929200  0.63891800  0.97257100  1
  O  O29  1  0.78070800  0.63891800  0.47257100  1
  O  O30  1  0.28070800  0.36108200  0.02742900  1
  O  O31  1  0.21929200  0.36108200  0.52742900  1
  O  O32  1  0.69747900  0.08042200  0.71341100  1
  O  O33  1  0.80252100  0.08042200  0.21341100  1
  O  O34  1  0.30252100  0.91957800  0.28658900  1
  O  O35  1  0.19747900  0.91957800  0.78658900  1
  O  O36  1  0.48997200  0.78543100  0.84222700  1
  O  O37  1  0.01002800  0.78543100  0.34222700  1
  O  O38  1  0.51002800  0.21456900  0.15777300  1
  O  O39  1  0.98997200  0.21456900  0.65777300  1
  O  O40  1  0.94563300  0.69724500  0.69292900  1
  O  O41  1  0.55436700  0.69724500  0.19292900  1
  O  O42  1  0.05436700  0.30275500  0.30707100  1
  O  O43  1  0.44563300  0.30275500  0.80707100  1
  O  O44  1  0.86208300  0.14539100  0.92740700  1
  O  O45  1  0.63791700  0.14539100  0.42740700  1
  O  O46  1  0.13791700  0.85460900  0.07259300  1
  O  O47  1  0.36208300  0.85460900  0.57259300  1
