# generated using pymatgen
data_B2Pb2S5
_symmetry_space_group_name_H-M   'P 1'
_cell_length_a   9.74697600
_cell_length_b   9.74697600
_cell_length_c   15.76290700
_cell_angle_alpha   90.00000000
_cell_angle_beta   90.00000000
_cell_angle_gamma   90.00000000
_symmetry_Int_Tables_number   1
_chemical_formula_structural   B2Pb2S5
_chemical_formula_sum   'B16 Pb16 S40'
_cell_volume   1497.53198373
_cell_formula_units_Z   8
loop_
 _symmetry_equiv_pos_site_id
 _symmetry_equiv_pos_as_xyz
  1  'x, y, z'
loop_
 _atom_site_type_symbol
 _atom_site_label
 _atom_site_symmetry_multiplicity
 _atom_site_fract_x
 _atom_site_fract_y
 _atom_site_fract_z
 _atom_site_occupancy
  B  B0  1  0.92633000  0.77118000  0.43122800  1
  B  B1  1  0.57013600  0.59246000  0.81588700  1
  B  B2  1  0.77118000  0.92633000  0.56877200  1
  B  B3  1  0.72882000  0.42633000  0.68122800  1
  B  B4  1  0.90754000  0.07013600  0.06588700  1
  B  B5  1  0.57367000  0.27118000  0.81877200  1
  B  B6  1  0.09246000  0.92986400  0.56588700  1
  B  B7  1  0.40754000  0.42986400  0.68411300  1
  B  B8  1  0.59246000  0.57013600  0.18411300  1
  B  B9  1  0.07367000  0.22882000  0.93122800  1
  B  B10  1  0.27118000  0.57367000  0.18122800  1
  B  B11  1  0.22882000  0.07367000  0.06877200  1
  B  B12  1  0.92986400  0.09246000  0.43411300  1
  B  B13  1  0.42633000  0.72882000  0.31877200  1
  B  B14  1  0.42986400  0.40754000  0.31588700  1
  B  B15  1  0.07013600  0.90754000  0.93411300  1
  Pb  Pb16  1  0.73018200  0.45059400  0.42900700  1
  Pb  Pb17  1  0.55824500  0.85689500  0.08764000  1
  Pb  Pb18  1  0.04940600  0.23018200  0.67900700  1
  Pb  Pb19  1  0.94175500  0.35689500  0.16236000  1
  Pb  Pb20  1  0.54940600  0.26981800  0.07099300  1
  Pb  Pb21  1  0.05824500  0.64310500  0.66236000  1
  Pb  Pb22  1  0.85689500  0.55824500  0.91236000  1
  Pb  Pb23  1  0.44175500  0.14310500  0.58764000  1
  Pb  Pb24  1  0.64310500  0.05824500  0.33764000  1
  Pb  Pb25  1  0.76981800  0.95059400  0.82099300  1
  Pb  Pb26  1  0.14310500  0.44175500  0.41236000  1
  Pb  Pb27  1  0.26981800  0.54940600  0.92900700  1
  Pb  Pb28  1  0.23018200  0.04940600  0.32099300  1
  Pb  Pb29  1  0.35689500  0.94175500  0.83764000  1
  Pb  Pb30  1  0.95059400  0.76981800  0.17900700  1
  Pb  Pb31  1  0.45059400  0.73018200  0.57099300  1
  S  S32  1  0.93178200  0.93289000  0.36001300  1
  S  S33  1  0.73438300  0.59459400  0.74789100  1
  S  S34  1  0.57628100  0.75021900  0.88781700  1
  S  S35  1  0.23540700  0.23540700  0.00000000  1
  S  S36  1  0.23438300  0.90540600  0.00210900  1
  S  S37  1  0.25021900  0.92371900  0.63781700  1
  S  S38  1  0.90540600  0.23438300  0.99789100  1
  S  S39  1  0.56821800  0.43289000  0.88998700  1
  S  S40  1  0.42902300  0.88322700  0.39508400  1
  S  S41  1  0.06821800  0.06711000  0.86001300  1
  S  S42  1  0.09459400  0.76561700  0.49789100  1
  S  S43  1  0.93289000  0.93178200  0.63998700  1
  S  S44  1  0.42371900  0.24978100  0.38781700  1
  S  S45  1  0.07628100  0.74978100  0.86218300  1
  S  S46  1  0.61677300  0.92902300  0.64508400  1
  S  S47  1  0.09608700  0.09608700  0.50000000  1
  S  S48  1  0.40540600  0.26561700  0.75210900  1
  S  S49  1  0.43289000  0.56821800  0.11001300  1
  S  S50  1  0.26561700  0.40540600  0.24789100  1
  S  S51  1  0.76561700  0.09459400  0.50210900  1
  S  S52  1  0.74978100  0.07628100  0.13781700  1
  S  S53  1  0.40391300  0.59608700  0.75000000  1
  S  S54  1  0.38322700  0.07097700  0.14508400  1
  S  S55  1  0.26459300  0.73540700  0.25000000  1
  S  S56  1  0.59608700  0.40391300  0.25000000  1
  S  S57  1  0.59459400  0.73438300  0.25210900  1
  S  S58  1  0.43178200  0.56711000  0.38998700  1
  S  S59  1  0.24978100  0.42371900  0.61218300  1
  S  S60  1  0.90391300  0.90391300  0.00000000  1
  S  S61  1  0.92902300  0.61677300  0.35491600  1
  S  S62  1  0.73540700  0.26459300  0.75000000  1
  S  S63  1  0.06711000  0.06821800  0.13998700  1
  S  S64  1  0.56711000  0.43178200  0.61001300  1
  S  S65  1  0.11677300  0.57097700  0.10491600  1
  S  S66  1  0.76459300  0.76459300  0.50000000  1
  S  S67  1  0.75021900  0.57628100  0.11218300  1
  S  S68  1  0.07097700  0.38322700  0.85491600  1
  S  S69  1  0.57097700  0.11677300  0.89508400  1
  S  S70  1  0.92371900  0.25021900  0.36218300  1
  S  S71  1  0.88322700  0.42902300  0.60491600  1
