# generated using pymatgen
data_Cd7Te7Cl8O17
_symmetry_space_group_name_H-M   'P 1'
_cell_length_a   6.81130800
_cell_length_b   14.79659500
_cell_length_c   28.55554100
_cell_angle_alpha   90.00000000
_cell_angle_beta   90.00000000
_cell_angle_gamma   90.00000000
_symmetry_Int_Tables_number   1
_chemical_formula_structural   Cd7Te7Cl8O17
_chemical_formula_sum   'Cd28 Te28 Cl32 O68'
_cell_volume   2877.94638140
_cell_formula_units_Z   4
loop_
 _symmetry_equiv_pos_site_id
 _symmetry_equiv_pos_as_xyz
  1  'x, y, z'
loop_
 _atom_site_type_symbol
 _atom_site_label
 _atom_site_symmetry_multiplicity
 _atom_site_fract_x
 _atom_site_fract_y
 _atom_site_fract_z
 _atom_site_occupancy
  Cd  Cd0  1  0.38910600  0.41010700  0.08225800  1
  Cd  Cd1  1  0.09477300  0.88934100  0.14949200  1
  Cd  Cd2  1  0.10372800  0.92693800  0.01001000  1
  Cd  Cd3  1  0.36256600  0.07810600  0.30811500  1
  Cd  Cd4  1  0.36256600  0.42189400  0.80811500  1
  Cd  Cd5  1  0.09623200  0.90135100  0.73389600  1
  Cd  Cd6  1  0.90376800  0.09864900  0.23389600  1
  Cd  Cd7  1  0.90376800  0.40135100  0.73389600  1
  Cd  Cd8  1  0.38276300  0.07389300  0.44466300  1
  Cd  Cd9  1  0.90522700  0.11065900  0.64949200  1
  Cd  Cd10  1  0.63743400  0.92189400  0.80811500  1
  Cd  Cd11  1  0.89627200  0.42693800  0.01001000  1
  Cd  Cd12  1  0.61089400  0.91010700  0.08225800  1
  Cd  Cd13  1  0.86342100  0.43338200  0.87099100  1
  Cd  Cd14  1  0.10372800  0.57306200  0.51001000  1
  Cd  Cd15  1  0.63743400  0.57810600  0.30811500  1
  Cd  Cd16  1  0.61723700  0.57389300  0.44466300  1
  Cd  Cd17  1  0.86342100  0.06661800  0.37099100  1
  Cd  Cd18  1  0.38276300  0.42610700  0.94466300  1
  Cd  Cd19  1  0.89627200  0.07306200  0.51001000  1
  Cd  Cd20  1  0.38910600  0.08989300  0.58225800  1
  Cd  Cd21  1  0.09477300  0.61065900  0.64949200  1
  Cd  Cd22  1  0.61723700  0.92610700  0.94466300  1
  Cd  Cd23  1  0.13657900  0.93338200  0.87099100  1
  Cd  Cd24  1  0.13657900  0.56661800  0.37099100  1
  Cd  Cd25  1  0.09623200  0.59864900  0.23389600  1
  Cd  Cd26  1  0.90522700  0.38934100  0.14949200  1
  Cd  Cd27  1  0.61089400  0.58989300  0.58225800  1
  Te  Te28  1  0.04102700  0.88123800  0.43380200  1
  Te  Te29  1  0.02634600  0.60445800  0.78521600  1
  Te  Te30  1  0.42439800  0.40707900  0.23541500  1
  Te  Te31  1  0.57804200  0.88859800  0.51859700  1
  Te  Te32  1  0.95897300  0.11876200  0.93380200  1
  Te  Te33  1  0.97365400  0.39554200  0.28521600  1
  Te  Te34  1  0.57560200  0.90707900  0.23541500  1
  Te  Te35  1  0.96420100  0.09560800  0.09919900  1
  Te  Te36  1  0.95897300  0.38123800  0.43380200  1
  Te  Te37  1  0.42815500  0.08131800  0.15184200  1
  Te  Te38  1  0.42195800  0.11140200  0.01859700  1
  Te  Te39  1  0.42195800  0.38859800  0.51859700  1
  Te  Te40  1  0.48975800  0.38043200  0.38142000  1
  Te  Te41  1  0.02634600  0.89554200  0.28521600  1
  Te  Te42  1  0.97365400  0.10445800  0.78521600  1
  Te  Te43  1  0.57184500  0.58131800  0.15184200  1
  Te  Te44  1  0.57184500  0.91868200  0.65184200  1
  Te  Te45  1  0.48975800  0.11956800  0.88142000  1
  Te  Te46  1  0.51024200  0.88043200  0.38142000  1
  Te  Te47  1  0.03579900  0.90439200  0.59919900  1
  Te  Te48  1  0.03579900  0.59560800  0.09919900  1
  Te  Te49  1  0.04102700  0.61876200  0.93380200  1
  Te  Te50  1  0.51024200  0.61956800  0.88142000  1
  Te  Te51  1  0.57560200  0.59292100  0.73541500  1
  Te  Te52  1  0.57804200  0.61140200  0.01859700  1
  Te  Te53  1  0.96420100  0.40439200  0.59919900  1
  Te  Te54  1  0.42815500  0.41868200  0.65184200  1
  Te  Te55  1  0.42439800  0.09292100  0.73541500  1
  Cl  Cl56  1  0.21400500  0.31299300  0.00672700  1
  Cl  Cl57  1  0.21631100  0.30726000  0.74933100  1
  Cl  Cl58  1  0.78599500  0.81299300  0.00672700  1
  Cl  Cl59  1  0.22126400  0.29606300  0.13559200  1
  Cl  Cl60  1  0.71825000  0.18996700  0.56750700  1
  Cl  Cl61  1  0.26283200  0.74394300  0.19079600  1
  Cl  Cl62  1  0.18933100  0.32226500  0.87911800  1
  Cl  Cl63  1  0.21631100  0.19274000  0.24933100  1
  Cl  Cl64  1  0.73716800  0.24394300  0.19079600  1
  Cl  Cl65  1  0.71590800  0.33789500  0.94166000  1
  Cl  Cl66  1  0.28409200  0.83789500  0.94166000  1
  Cl  Cl67  1  0.78368900  0.69274000  0.24933100  1
  Cl  Cl68  1  0.78599500  0.68700700  0.50672700  1
  Cl  Cl69  1  0.31025600  0.67712800  0.31193200  1
  Cl  Cl70  1  0.28175000  0.68996700  0.56750700  1
  Cl  Cl71  1  0.77873600  0.79606300  0.13559200  1
  Cl  Cl72  1  0.71590800  0.16210500  0.44166000  1
  Cl  Cl73  1  0.22126400  0.20393700  0.63559200  1
  Cl  Cl74  1  0.68974400  0.17712800  0.31193200  1
  Cl  Cl75  1  0.68974400  0.32287200  0.81193200  1
  Cl  Cl76  1  0.81066900  0.82226500  0.87911800  1
  Cl  Cl77  1  0.26283200  0.75605700  0.69079600  1
  Cl  Cl78  1  0.18933100  0.17773500  0.37911800  1
  Cl  Cl79  1  0.81066900  0.67773500  0.37911800  1
  Cl  Cl80  1  0.77873600  0.70393700  0.63559200  1
  Cl  Cl81  1  0.78368900  0.80726000  0.74933100  1
  Cl  Cl82  1  0.31025600  0.82287200  0.81193200  1
  Cl  Cl83  1  0.28409200  0.66210500  0.44166000  1
  Cl  Cl84  1  0.71825000  0.31003300  0.06750700  1
  Cl  Cl85  1  0.28175000  0.81003300  0.06750700  1
  Cl  Cl86  1  0.21400500  0.18700700  0.50672700  1
  Cl  Cl87  1  0.73716800  0.25605700  0.69079600  1
  O  O88  1  0.50059300  0.98832800  0.01815000  1
  O  O89  1  0.21206700  0.62177600  0.87750000  1
  O  O90  1  0.83743200  0.58543400  0.99937800  1
  O  O91  1  0.53152100  0.11567500  0.94869000  1
  O  O92  1  0.96711700  0.98132200  0.80592500  1
  O  O93  1  0.39853000  0.95353400  0.15076700  1
  O  O94  1  0.96125800  0.92652300  0.22262900  1
  O  O95  1  0.78793300  0.12177600  0.87750000  1
  O  O96  1  0.39840000  0.96558000  0.72332600  1
  O  O97  1  0.05120100  0.43314300  0.66008500  1
  O  O98  1  0.39853000  0.54646600  0.65076700  1
  O  O99  1  0.16256800  0.41456600  0.49937800  1
  O  O100  1  0.49940700  0.01167200  0.51815000  1
  O  O101  1  0.27949200  0.09706500  0.79456300  1
  O  O102  1  0.49217600  0.50845900  0.37356600  1
  O  O103  1  0.94879900  0.93314300  0.66008500  1
  O  O104  1  0.49940700  0.48832800  0.01815000  1
  O  O105  1  0.65746300  0.43037400  0.27279100  1
  O  O106  1  0.96711700  0.51867800  0.30592500  1
  O  O107  1  0.95755600  0.52649600  0.57832300  1
  O  O108  1  0.34253700  0.93037400  0.27279100  1
  O  O109  1  0.60160000  0.03442000  0.22332600  1
  O  O110  1  0.60147000  0.45353400  0.15076700  1
  O  O111  1  0.34253700  0.56962600  0.77279100  1
  O  O112  1  0.91061500  0.99507900  0.94718100  1
  O  O113  1  0.66494500  0.43305100  0.61341300  1
  O  O114  1  0.91061500  0.50492100  0.44718100  1
  O  O115  1  0.94879900  0.56685700  0.16008500  1
  O  O116  1  0.03874200  0.42652300  0.22262900  1
  O  O117  1  0.60160000  0.46558000  0.72332600  1
  O  O118  1  0.49217600  0.99154100  0.87356600  1
  O  O119  1  0.04244400  0.02649600  0.57832300  1
  O  O120  1  0.50782400  0.49154100  0.87356600  1
  O  O121  1  0.50782400  0.00845900  0.37356600  1
  O  O122  1  0.46847900  0.61567500  0.94869000  1
  O  O123  1  0.72050800  0.90293500  0.29456300  1
  O  O124  1  0.65746300  0.06962600  0.77279100  1
  O  O125  1  0.33505500  0.56694900  0.11341300  1
  O  O126  1  0.66494500  0.06694900  0.11341300  1
  O  O127  1  0.60147000  0.04646600  0.65076700  1
  O  O128  1  0.08938500  0.49507900  0.94718100  1
  O  O129  1  0.03874200  0.07347700  0.72262900  1
  O  O130  1  0.16256800  0.08543400  0.99937800  1
  O  O131  1  0.78793300  0.37822400  0.37750000  1
  O  O132  1  0.39840000  0.53442000  0.22332600  1
  O  O133  1  0.21206700  0.87822400  0.37750000  1
  O  O134  1  0.82829000  0.58737400  0.89340800  1
  O  O135  1  0.28925500  0.40586400  0.58814900  1
  O  O136  1  0.17171000  0.41262600  0.39340800  1
  O  O137  1  0.71074500  0.59413600  0.08814900  1
  O  O138  1  0.33505500  0.93305100  0.61341300  1
  O  O139  1  0.53152100  0.38432500  0.44869000  1
  O  O140  1  0.27949200  0.40293500  0.29456300  1
  O  O141  1  0.46847900  0.88432500  0.44869000  1
  O  O142  1  0.05120100  0.06685700  0.16008500  1
  O  O143  1  0.04244400  0.47350400  0.07832300  1
  O  O144  1  0.72050800  0.59706500  0.79456300  1
  O  O145  1  0.28925500  0.09413600  0.08814900  1
  O  O146  1  0.03288300  0.01867800  0.30592500  1
  O  O147  1  0.83743200  0.91456600  0.49937800  1
  O  O148  1  0.82829000  0.91262600  0.39340800  1
  O  O149  1  0.50059300  0.51167200  0.51815000  1
  O  O150  1  0.96125800  0.57347700  0.72262900  1
  O  O151  1  0.03288300  0.48132200  0.80592500  1
  O  O152  1  0.71074500  0.90586400  0.58814900  1
  O  O153  1  0.17171000  0.08737400  0.89340800  1
  O  O154  1  0.08938500  0.00492100  0.44718100  1
  O  O155  1  0.95755600  0.97350400  0.07832300  1
