# generated using pymatgen
data_K3CaP2HO8
_symmetry_space_group_name_H-M   'P 1'
_cell_length_a   5.77567645
_cell_length_b   5.77567645
_cell_length_c   7.52155213
_cell_angle_alpha   86.00061077
_cell_angle_beta   86.00061077
_cell_angle_gamma   60.41966383
_symmetry_Int_Tables_number   1
_chemical_formula_structural   K3CaP2HO8
_chemical_formula_sum   'K3 Ca1 P2 H1 O8'
_cell_volume   217.49327937
_cell_formula_units_Z   1
loop_
 _symmetry_equiv_pos_site_id
 _symmetry_equiv_pos_as_xyz
  1  'x, y, z'
loop_
 _atom_site_type_symbol
 _atom_site_label
 _atom_site_symmetry_multiplicity
 _atom_site_fract_x
 _atom_site_fract_y
 _atom_site_fract_z
 _atom_site_occupancy
  K  K0  1  0.00000000  0.00000000  0.50000000  1
  K  K1  1  0.33030700  0.33030700  0.19049300  1
  K  K2  1  0.66969300  0.66969300  0.80950700  1
  Ca  Ca3  1  0.00000000  0.00000000  0.00000000  1
  P  P4  1  0.34024900  0.34024900  0.74861400  1
  P  P5  1  0.65975100  0.65975100  0.25138600  1
  H  H6  1  0.50000000  0.50000000  0.50000000  1
  O  O7  1  0.18518100  0.18518100  0.78091100  1
  O  O8  1  0.81481900  0.81481900  0.21908900  1
  O  O9  1  0.37919000  0.37919000  0.54022300  1
  O  O10  1  0.62081000  0.62081000  0.45977700  1
  O  O11  1  0.18222700  0.62044200  0.82827200  1
  O  O12  1  0.62044200  0.18222700  0.82827200  1
  O  O13  1  0.81777300  0.37955800  0.17172800  1
  O  O14  1  0.37955800  0.81777300  0.17172800  1
