# generated using pymatgen
data_Li2Y5In9
_symmetry_space_group_name_H-M   'P 1'
_cell_length_a   10.31266600
_cell_length_b   10.31266600
_cell_length_c   15.42166700
_cell_angle_alpha   90.00000000
_cell_angle_beta   90.00000000
_cell_angle_gamma   90.00000000
_symmetry_Int_Tables_number   1
_chemical_formula_structural   Li2Y5In9
_chemical_formula_sum   'Li8 Y20 In36'
_cell_volume   1640.11094128
_cell_formula_units_Z   4
loop_
 _symmetry_equiv_pos_site_id
 _symmetry_equiv_pos_as_xyz
  1  'x, y, z'
loop_
 _atom_site_type_symbol
 _atom_site_label
 _atom_site_symmetry_multiplicity
 _atom_site_fract_x
 _atom_site_fract_y
 _atom_site_fract_z
 _atom_site_occupancy
  Li  Li0  1  0.50000000  0.50000000  0.89951600  1
  Li  Li1  1  0.00000000  0.00000000  0.40902500  1
  Li  Li2  1  0.50000000  0.50000000  0.40902500  1
  Li  Li3  1  0.00000000  0.00000000  0.59097500  1
  Li  Li4  1  0.50000000  0.50000000  0.59097500  1
  Li  Li5  1  0.00000000  0.00000000  0.89951600  1
  Li  Li6  1  0.00000000  0.00000000  0.10048400  1
  Li  Li7  1  0.50000000  0.50000000  0.10048400  1
  Y  Y8  1  0.78003100  0.28003100  0.62664100  1
  Y  Y9  1  0.78252900  0.28252900  0.12768300  1
  Y  Y10  1  0.28003100  0.21996900  0.37335900  1
  Y  Y11  1  0.71747100  0.21747100  0.87231700  1
  Y  Y12  1  0.00000000  0.50000000  0.30573800  1
  Y  Y13  1  0.78252900  0.71747100  0.12768300  1
  Y  Y14  1  0.71996900  0.78003100  0.37335900  1
  Y  Y15  1  0.50000000  0.00000000  0.16783300  1
  Y  Y16  1  0.28252900  0.78252900  0.87231700  1
  Y  Y17  1  0.71996900  0.21996900  0.37335900  1
  Y  Y18  1  0.28252900  0.21747100  0.87231700  1
  Y  Y19  1  0.78003100  0.71996900  0.62664100  1
  Y  Y20  1  0.21747100  0.28252900  0.12768300  1
  Y  Y21  1  0.21996900  0.71996900  0.62664100  1
  Y  Y22  1  0.28003100  0.78003100  0.37335900  1
  Y  Y23  1  0.71747100  0.78252900  0.87231700  1
  Y  Y24  1  0.21996900  0.28003100  0.62664100  1
  Y  Y25  1  0.21747100  0.71747100  0.12768300  1
  Y  Y26  1  0.50000000  0.00000000  0.69426200  1
  Y  Y27  1  0.00000000  0.50000000  0.83216700  1
  In  In28  1  0.77176400  0.50000000  0.47251400  1
  In  In29  1  0.30001100  0.50000000  0.26865400  1
  In  In30  1  0.50000000  0.00000000  0.38056900  1
  In  In31  1  0.00000000  0.50000000  0.09443400  1
  In  In32  1  0.20840500  0.00000000  0.23150500  1
  In  In33  1  0.50000000  0.77176400  0.52748600  1
  In  In34  1  0.50000000  0.24965800  0.02462400  1
  In  In35  1  0.00000000  0.74965800  0.97537600  1
  In  In36  1  0.19998900  0.00000000  0.73134600  1
  In  In37  1  0.50000000  0.29159500  0.23150500  1
  In  In38  1  0.00000000  0.79159500  0.76849500  1
  In  In39  1  0.00000000  0.19998900  0.26865400  1
  In  In40  1  0.80001100  0.00000000  0.73134600  1
  In  In41  1  0.00000000  0.50000000  0.61943100  1
  In  In42  1  0.79159500  0.00000000  0.23150500  1
  In  In43  1  0.50000000  0.75034200  0.02462400  1
  In  In44  1  0.00000000  0.72823600  0.47251400  1
  In  In45  1  0.00000000  0.25034200  0.97537600  1
  In  In46  1  0.50000000  0.30001100  0.73134600  1
  In  In47  1  0.50000000  0.00000000  0.90556600  1
  In  In48  1  0.24965800  0.50000000  0.97537600  1
  In  In49  1  0.29159500  0.50000000  0.76849500  1
  In  In50  1  0.50000000  0.22823600  0.52748600  1
  In  In51  1  0.00000000  0.80001100  0.26865400  1
  In  In52  1  0.72823600  0.00000000  0.52748600  1
  In  In53  1  0.27176400  0.00000000  0.52748600  1
  In  In54  1  0.00000000  0.20840500  0.76849500  1
  In  In55  1  0.70840500  0.50000000  0.76849500  1
  In  In56  1  0.69998900  0.50000000  0.26865400  1
  In  In57  1  0.50000000  0.70840500  0.23150500  1
  In  In58  1  0.75034200  0.50000000  0.97537600  1
  In  In59  1  0.74965800  0.00000000  0.02462400  1
  In  In60  1  0.25034200  0.00000000  0.02462400  1
  In  In61  1  0.50000000  0.69998900  0.73134600  1
  In  In62  1  0.22823600  0.50000000  0.47251400  1
  In  In63  1  0.00000000  0.27176400  0.47251400  1
