# generated using pymatgen
data_RbH2N
_symmetry_space_group_name_H-M   'P 1'
_cell_length_a   4.22672800
_cell_length_b   4.88270200
_cell_length_c   6.46361511
_cell_angle_alpha   81.49359282
_cell_angle_beta   90.00000000
_cell_angle_gamma   90.00000000
_symmetry_Int_Tables_number   1
_chemical_formula_structural   RbH2N
_chemical_formula_sum   'Rb2 H4 N2'
_cell_volume   131.92770397
_cell_formula_units_Z   2
loop_
 _symmetry_equiv_pos_site_id
 _symmetry_equiv_pos_as_xyz
  1  'x, y, z'
loop_
 _atom_site_type_symbol
 _atom_site_label
 _atom_site_symmetry_multiplicity
 _atom_site_fract_x
 _atom_site_fract_y
 _atom_site_fract_z
 _atom_site_occupancy
  Rb  Rb0  1  0.75000000  0.80464600  0.29560400  1
  Rb  Rb1  1  0.25000000  0.19535400  0.70439600  1
  H  H2  1  0.56170900  0.65612800  0.84591300  1
  H  H3  1  0.06170900  0.34387200  0.15408700  1
  H  H4  1  0.43829100  0.34387200  0.15408700  1
  H  H5  1  0.93829100  0.65612800  0.84591300  1
  N  N6  1  0.75000000  0.73630700  0.75415000  1
  N  N7  1  0.25000000  0.26369300  0.24585000  1
