# generated using pymatgen
data_Cs3Mn3V4O16
_symmetry_space_group_name_H-M   'P 1'
_cell_length_a   5.28381500
_cell_length_b   7.62535026
_cell_length_c   11.63993932
_cell_angle_alpha   102.21418954
_cell_angle_beta   89.76748262
_cell_angle_gamma   97.45168144
_symmetry_Int_Tables_number   1
_chemical_formula_structural   Cs3Mn3V4O16
_chemical_formula_sum   'Cs3 Mn3 V4 O16'
_cell_volume   454.36456097
_cell_formula_units_Z   1
loop_
 _symmetry_equiv_pos_site_id
 _symmetry_equiv_pos_as_xyz
  1  'x, y, z'
loop_
 _atom_site_type_symbol
 _atom_site_label
 _atom_site_symmetry_multiplicity
 _atom_site_fract_x
 _atom_site_fract_y
 _atom_site_fract_z
 _atom_site_occupancy
  Cs  Cs0  1  0.88588900  0.25974600  0.51459600  1
  Cs  Cs1  1  0.00000000  0.00000000  0.00000000  1
  Cs  Cs2  1  0.11411100  0.74025400  0.48540400  1
  Mn  Mn3  1  0.00846100  0.55993100  0.13249800  1
  Mn  Mn4  1  0.99153900  0.44006900  0.86750200  1
  Mn  Mn5  1  0.50000000  0.50000000  0.00000000  1
  V  V6  1  0.47375000  0.67268900  0.76187600  1
  V  V7  1  0.52703200  0.86615300  0.23321100  1
  V  V8  1  0.52625000  0.32731100  0.23812400  1
  V  V9  1  0.47296800  0.13384700  0.76678900  1
  O  O10  1  0.65983700  0.60380700  0.86821700  1
  O  O11  1  0.78998300  0.23532600  0.76456200  1
  O  O12  1  0.34016300  0.39619300  0.13178300  1
  O  O13  1  0.38574600  0.36024700  0.36721200  1
  O  O14  1  0.30561400  0.27304900  0.87059300  1
  O  O15  1  0.61425400  0.63975300  0.63278800  1
  O  O16  1  0.83064400  0.45214600  0.25644900  1
  O  O17  1  0.34638500  0.10505000  0.63192100  1
  O  O18  1  0.69438600  0.72695100  0.12940700  1
  O  O19  1  0.45420800  0.91527600  0.81166300  1
  O  O20  1  0.19515500  0.61322100  0.99225300  1
  O  O21  1  0.65361500  0.89495000  0.36807900  1
  O  O22  1  0.21001700  0.76467400  0.23543800  1
  O  O23  1  0.54579200  0.08472400  0.18833700  1
  O  O24  1  0.80484500  0.38677900  0.00774700  1
  O  O25  1  0.16935600  0.54785400  0.74355100  1
