# generated using pymatgen
data_KNbCl6
_symmetry_space_group_name_H-M   'P 1'
_cell_length_a   10.34924600
_cell_length_b   7.33926000
_cell_length_c   7.36500921
_cell_angle_alpha   89.96713179
_cell_angle_beta   90.00000000
_cell_angle_gamma   90.00000000
_symmetry_Int_Tables_number   1
_chemical_formula_structural   KNbCl6
_chemical_formula_sum   'K2 Nb2 Cl12'
_cell_volume   559.41512766
_cell_formula_units_Z   2
loop_
 _symmetry_equiv_pos_site_id
 _symmetry_equiv_pos_as_xyz
  1  'x, y, z'
loop_
 _atom_site_type_symbol
 _atom_site_label
 _atom_site_symmetry_multiplicity
 _atom_site_fract_x
 _atom_site_fract_y
 _atom_site_fract_z
 _atom_site_occupancy
  K  K0  1  0.71898100  0.25562500  0.31540900  1
  K  K1  1  0.21898100  0.74437500  0.68459100  1
  Nb  Nb2  1  0.99515600  0.24744200  0.76272500  1
  Nb  Nb3  1  0.49515600  0.75255800  0.23727500  1
  Cl  Cl4  1  0.49762700  0.97877100  0.47668500  1
  Cl  Cl5  1  0.76420300  0.24811000  0.75268300  1
  Cl  Cl6  1  0.99517800  0.01786000  0.98692400  1
  Cl  Cl7  1  0.99534600  0.48066000  0.98393600  1
  Cl  Cl8  1  0.49517800  0.98214000  0.01307600  1
  Cl  Cl9  1  0.72553800  0.74752800  0.25102600  1
  Cl  Cl10  1  0.26420300  0.75189000  0.24731700  1
  Cl  Cl11  1  0.49242500  0.52417400  0.47767400  1
  Cl  Cl12  1  0.99762600  0.02122900  0.52331500  1
  Cl  Cl13  1  0.99242500  0.47582600  0.52232600  1
  Cl  Cl14  1  0.22553800  0.25247200  0.74897400  1
  Cl  Cl15  1  0.49534600  0.51934000  0.01606400  1
