# generated using pymatgen
data_Co3TeO6
_symmetry_space_group_name_H-M   'P 1'
_cell_length_a   8.69621534
_cell_length_b   8.69621534
_cell_length_c   10.49144301
_cell_angle_alpha   85.57216607
_cell_angle_beta   85.57216607
_cell_angle_gamma   61.82489023
_symmetry_Int_Tables_number   1
_chemical_formula_structural   Co3TeO6
_chemical_formula_sum   'Co18 Te6 O36'
_cell_volume   696.55737107
_cell_formula_units_Z   6
loop_
 _symmetry_equiv_pos_site_id
 _symmetry_equiv_pos_as_xyz
  1  'x, y, z'
loop_
 _atom_site_type_symbol
 _atom_site_label
 _atom_site_symmetry_multiplicity
 _atom_site_fract_x
 _atom_site_fract_y
 _atom_site_fract_z
 _atom_site_occupancy
  Co  Co0  1  0.86770500  0.17859200  0.96187500  1
  Co  Co1  1  0.21467400  0.50583100  0.26913600  1
  Co  Co2  1  0.43565000  0.15655600  0.42753300  1
  Co  Co3  1  0.82140800  0.13229500  0.53812500  1
  Co  Co4  1  0.49416900  0.78532600  0.23086400  1
  Co  Co5  1  0.36805700  0.95997500  0.94792000  1
  Co  Co6  1  0.13229500  0.82140800  0.03812500  1
  Co  Co7  1  0.63194300  0.04002500  0.05208000  1
  Co  Co8  1  0.50583100  0.21467400  0.76913600  1
  Co  Co9  1  0.56435000  0.84344400  0.57246700  1
  Co  Co10  1  0.68664700  0.31335300  0.25000000  1
  Co  Co11  1  0.78532600  0.49416900  0.73086400  1
  Co  Co12  1  0.95997500  0.36805700  0.44792000  1
  Co  Co13  1  0.04002500  0.63194300  0.55208000  1
  Co  Co14  1  0.17859200  0.86770500  0.46187500  1
  Co  Co15  1  0.15655600  0.43565000  0.92753300  1
  Co  Co16  1  0.84344400  0.56435000  0.07246700  1
  Co  Co17  1  0.31335300  0.68664700  0.75000000  1
  Te  Te18  1  0.83756800  0.83867800  0.29939400  1
  Te  Te19  1  0.83867800  0.83756800  0.79939400  1
  Te  Te20  1  0.16243200  0.16132200  0.70060600  1
  Te  Te21  1  0.50000000  0.50000000  0.50000000  1
  Te  Te22  1  0.16132200  0.16243200  0.20060600  1
  Te  Te23  1  0.50000000  0.50000000  0.00000000  1
  O  O24  1  0.44407800  0.41523600  0.16417100  1
  O  O25  1  0.39063900  0.06313300  0.11078000  1
  O  O26  1  0.72458500  0.77640700  0.16728300  1
  O  O27  1  0.60901200  0.91065100  0.39282300  1
  O  O28  1  0.08934900  0.39098800  0.10717700  1
  O  O29  1  0.06283400  0.75040800  0.70075400  1
  O  O30  1  0.06313300  0.39063900  0.61078000  1
  O  O31  1  0.26160400  0.59260300  0.93773800  1
  O  O32  1  0.26060800  0.94418200  0.30407000  1
  O  O33  1  0.75040800  0.06283400  0.20075400  1
  O  O34  1  0.91065100  0.60901200  0.89282300  1
  O  O35  1  0.26541100  0.58882200  0.43377400  1
  O  O36  1  0.77640700  0.72458500  0.66728300  1
  O  O37  1  0.06890000  0.09458400  0.56043700  1
  O  O38  1  0.93110000  0.90541600  0.43956300  1
  O  O39  1  0.58882200  0.26541100  0.93377400  1
  O  O40  1  0.60936100  0.93686700  0.88922000  1
  O  O41  1  0.09458400  0.06890000  0.06043700  1
  O  O42  1  0.73839600  0.40739700  0.06226200  1
  O  O43  1  0.41117800  0.73458900  0.06622600  1
  O  O44  1  0.73458900  0.41117800  0.56622600  1
  O  O45  1  0.22359300  0.27541500  0.33271700  1
  O  O46  1  0.41523600  0.44407800  0.66417100  1
  O  O47  1  0.94418200  0.26060800  0.80407000  1
  O  O48  1  0.24959200  0.93716600  0.79924600  1
  O  O49  1  0.55592200  0.58476400  0.83582900  1
  O  O50  1  0.93716600  0.24959200  0.29924600  1
  O  O51  1  0.73939200  0.05581800  0.69593000  1
  O  O52  1  0.58476400  0.55592200  0.33582900  1
  O  O53  1  0.40739700  0.73839600  0.56226200  1
  O  O54  1  0.59260300  0.26160400  0.43773800  1
  O  O55  1  0.90541600  0.93110000  0.93956300  1
  O  O56  1  0.27541500  0.22359300  0.83271700  1
  O  O57  1  0.05581800  0.73939200  0.19593000  1
  O  O58  1  0.39098800  0.08934900  0.60717700  1
  O  O59  1  0.93686700  0.60936100  0.38922000  1
