# generated using pymatgen
data_Ba3CaRu2O9
_symmetry_space_group_name_H-M   'P 1'
_cell_length_a   5.97431340
_cell_length_b   5.97431340
_cell_length_c   14.91738400
_cell_angle_alpha   90.00000000
_cell_angle_beta   90.00000000
_cell_angle_gamma   119.99999334
_symmetry_Int_Tables_number   1
_chemical_formula_structural   Ba3CaRu2O9
_chemical_formula_sum   'Ba6 Ca2 Ru4 O18'
_cell_volume   461.10446978
_cell_formula_units_Z   2
loop_
 _symmetry_equiv_pos_site_id
 _symmetry_equiv_pos_as_xyz
  1  'x, y, z'
loop_
 _atom_site_type_symbol
 _atom_site_label
 _atom_site_symmetry_multiplicity
 _atom_site_fract_x
 _atom_site_fract_y
 _atom_site_fract_z
 _atom_site_occupancy
  Ba  Ba0  1  0.33333300  0.66666700  0.40059700  1
  Ba  Ba1  1  0.66666700  0.33333300  0.90059700  1
  Ba  Ba2  1  0.66666700  0.33333300  0.59940300  1
  Ba  Ba3  1  0.33333300  0.66666700  0.09940300  1
  Ba  Ba4  1  0.00000000  0.00000000  0.75000000  1
  Ba  Ba5  1  0.00000000  0.00000000  0.25000000  1
  Ca  Ca6  1  0.00000000  0.00000000  0.00000000  1
  Ca  Ca7  1  0.00000000  0.00000000  0.50000000  1
  Ru  Ru8  1  0.66666700  0.33333300  0.34267300  1
  Ru  Ru9  1  0.33333300  0.66666700  0.84267300  1
  Ru  Ru10  1  0.66666700  0.33333300  0.15732700  1
  Ru  Ru11  1  0.33333300  0.66666700  0.65732700  1
  O  O12  1  0.82389300  0.64778500  0.40939300  1
  O  O13  1  0.35221500  0.17610700  0.40939300  1
  O  O14  1  0.82389300  0.17610700  0.40939300  1
  O  O15  1  0.17610700  0.82389300  0.90939300  1
  O  O16  1  0.17610700  0.82389300  0.59060700  1
  O  O17  1  0.17610700  0.35221500  0.90939300  1
  O  O18  1  0.64778500  0.82389300  0.90939300  1
  O  O19  1  0.35221500  0.17610700  0.09060700  1
  O  O20  1  0.82389300  0.64778500  0.09060700  1
  O  O21  1  0.17610700  0.35221500  0.59060700  1
  O  O22  1  0.64778500  0.82389300  0.59060700  1
  O  O23  1  0.82389300  0.17610700  0.09060700  1
  O  O24  1  0.51602900  0.48397100  0.25000000  1
  O  O25  1  0.03205800  0.51602900  0.75000000  1
  O  O26  1  0.48397100  0.96794200  0.75000000  1
  O  O27  1  0.51602900  0.03205800  0.25000000  1
  O  O28  1  0.96794200  0.48397100  0.25000000  1
  O  O29  1  0.48397100  0.51602900  0.75000000  1
