# generated using pymatgen
data_NbP2S2Cl5
_symmetry_space_group_name_H-M   'P 1'
_cell_length_a   13.55571400
_cell_length_b   6.56110400
_cell_length_c   27.67611019
_cell_angle_alpha   79.99324379
_cell_angle_beta   90.00000000
_cell_angle_gamma   90.00000000
_symmetry_Int_Tables_number   1
_chemical_formula_structural   NbP2S2Cl5
_chemical_formula_sum   'Nb8 P16 S16 Cl40'
_cell_volume   2424.07915116
_cell_formula_units_Z   8
loop_
 _symmetry_equiv_pos_site_id
 _symmetry_equiv_pos_as_xyz
  1  'x, y, z'
loop_
 _atom_site_type_symbol
 _atom_site_label
 _atom_site_symmetry_multiplicity
 _atom_site_fract_x
 _atom_site_fract_y
 _atom_site_fract_z
 _atom_site_occupancy
  Nb  Nb0  1  0.29159200  0.75274300  0.47474600  1
  Nb  Nb1  1  0.61294400  0.01901200  0.29919600  1
  Nb  Nb2  1  0.70840800  0.24725700  0.52525400  1
  Nb  Nb3  1  0.11294400  0.98098800  0.20080400  1
  Nb  Nb4  1  0.79159200  0.24725700  0.02525400  1
  Nb  Nb5  1  0.20840800  0.75274300  0.97474600  1
  Nb  Nb6  1  0.38705600  0.98098800  0.70080400  1
  Nb  Nb7  1  0.88705600  0.01901200  0.79919600  1
  P  P8  1  0.92305400  0.53689500  0.38110100  1
  P  P9  1  0.34241200  0.67089700  0.90112500  1
  P  P10  1  0.91166200  0.24491600  0.70317800  1
  P  P11  1  0.06960100  0.93838300  0.35875800  1
  P  P12  1  0.08833800  0.75508400  0.29682200  1
  P  P13  1  0.84241200  0.32910300  0.59887500  1
  P  P14  1  0.56960100  0.06161700  0.14124200  1
  P  P15  1  0.43039900  0.93838300  0.85875800  1
  P  P16  1  0.93039900  0.06161700  0.64124200  1
  P  P17  1  0.57694600  0.53689500  0.88110100  1
  P  P18  1  0.07694600  0.46310500  0.61889900  1
  P  P19  1  0.42305400  0.46310500  0.11889900  1
  P  P20  1  0.58833800  0.24491600  0.20317800  1
  P  P21  1  0.65758800  0.32910300  0.09887500  1
  P  P22  1  0.15758800  0.67089700  0.40112500  1
  P  P23  1  0.41166200  0.75508400  0.79682200  1
  S  S24  1  0.96987800  0.54180600  0.30680600  1
  S  S25  1  0.04909200  0.44429100  0.42640300  1
  S  S26  1  0.71837300  0.38401900  0.16710100  1
  S  S27  1  0.92616300  0.86408400  0.38204600  1
  S  S28  1  0.07383700  0.13591600  0.61795400  1
  S  S29  1  0.57383700  0.86408400  0.88204600  1
  S  S30  1  0.03012200  0.45819400  0.69319400  1
  S  S31  1  0.54909200  0.55570900  0.07359700  1
  S  S32  1  0.53012200  0.54180600  0.80680600  1
  S  S33  1  0.28162700  0.61598100  0.83289900  1
  S  S34  1  0.95090800  0.55570900  0.57359700  1
  S  S35  1  0.42616300  0.13591600  0.11795400  1
  S  S36  1  0.21837300  0.61598100  0.33289900  1
  S  S37  1  0.78162700  0.38401900  0.66710100  1
  S  S38  1  0.46987800  0.45819400  0.19319400  1
  S  S39  1  0.45090800  0.44429100  0.92640300  1
  Cl  Cl40  1  0.86041500  0.11425800  0.50242500  1
  Cl  Cl41  1  0.52950600  0.13018700  0.72815800  1
  Cl  Cl42  1  0.90492500  0.40977700  0.06998300  1
  Cl  Cl43  1  0.36041500  0.88574200  0.99757500  1
  Cl  Cl44  1  0.24001600  0.42361400  0.51367200  1
  Cl  Cl45  1  0.75453500  0.25062500  0.79980000  1
  Cl  Cl46  1  0.78961600  0.83303500  0.75105200  1
  Cl  Cl47  1  0.13958500  0.88574200  0.49757500  1
  Cl  Cl48  1  0.25453500  0.74937500  0.70020000  1
  Cl  Cl49  1  0.10933300  0.83671600  0.03493300  1
  Cl  Cl50  1  0.48851600  0.72941600  0.67579300  1
  Cl  Cl51  1  0.47049400  0.86981300  0.27184200  1
  Cl  Cl52  1  0.39066700  0.83671600  0.53493300  1
  Cl  Cl53  1  0.97049400  0.13018700  0.22815800  1
  Cl  Cl54  1  0.51148400  0.27058400  0.32420700  1
  Cl  Cl55  1  0.18973500  0.05622100  0.91639800  1
  Cl  Cl56  1  0.31026500  0.05622100  0.41639800  1
  Cl  Cl57  1  0.98851600  0.27058400  0.82420700  1
  Cl  Cl58  1  0.89066700  0.16328400  0.96506700  1
  Cl  Cl59  1  0.75998400  0.57638600  0.48632800  1
  Cl  Cl60  1  0.28961600  0.16696500  0.74894800  1
  Cl  Cl61  1  0.74546500  0.25062500  0.29980000  1
  Cl  Cl62  1  0.21038400  0.16696500  0.24894800  1
  Cl  Cl63  1  0.02950600  0.86981300  0.77184200  1
  Cl  Cl64  1  0.71038400  0.83303500  0.25105200  1
  Cl  Cl65  1  0.68973500  0.94377900  0.58360200  1
  Cl  Cl66  1  0.74001600  0.57638600  0.98632800  1
  Cl  Cl67  1  0.40492500  0.59022300  0.43001700  1
  Cl  Cl68  1  0.60933300  0.16328400  0.46506700  1
  Cl  Cl69  1  0.09507500  0.59022300  0.93001700  1
  Cl  Cl70  1  0.63819400  0.80007300  0.37170200  1
  Cl  Cl71  1  0.24546500  0.74937500  0.20020000  1
  Cl  Cl72  1  0.63958500  0.11425800  0.00242500  1
  Cl  Cl73  1  0.36180600  0.19992700  0.62829800  1
  Cl  Cl74  1  0.01148400  0.72941600  0.17579300  1
  Cl  Cl75  1  0.13819400  0.19992700  0.12829800  1
  Cl  Cl76  1  0.81026500  0.94377900  0.08360200  1
  Cl  Cl77  1  0.25998400  0.42361400  0.01367200  1
  Cl  Cl78  1  0.86180600  0.80007300  0.87170200  1
  Cl  Cl79  1  0.59507500  0.40977700  0.56998300  1
