# generated using pymatgen
data_Cr(Bi7O12)2
_symmetry_space_group_name_H-M   'P 1'
_cell_length_a   8.89417700
_cell_length_b   8.89740945
_cell_length_c   10.46863503
_cell_angle_alpha   114.14514045
_cell_angle_beta   114.44590870
_cell_angle_gamma   90.63093280
_symmetry_Int_Tables_number   1
_chemical_formula_structural   Cr(Bi7O12)2
_chemical_formula_sum   'Cr1 Bi14 O24'
_cell_volume   671.78545888
_cell_formula_units_Z   1
loop_
 _symmetry_equiv_pos_site_id
 _symmetry_equiv_pos_as_xyz
  1  'x, y, z'
loop_
 _atom_site_type_symbol
 _atom_site_label
 _atom_site_symmetry_multiplicity
 _atom_site_fract_x
 _atom_site_fract_y
 _atom_site_fract_z
 _atom_site_occupancy
  Cr  Cr0  1  0.00826200  0.04106000  0.04533800  1
  Bi  Bi1  1  0.05617700  0.87082700  0.33578300  1
  Bi  Bi2  1  0.53201700  0.94523600  0.66679500  1
  Bi  Bi3  1  0.66280700  0.66096800  0.32386300  1
  Bi  Bi4  1  0.13061900  0.72699700  0.67177000  1
  Bi  Bi5  1  0.56410600  0.78469700  0.00085900  1
  Bi  Bi6  1  0.27838600  0.47450600  0.34200600  1
  Bi  Bi7  1  0.72323800  0.53450100  0.66754300  1
  Bi  Bi8  1  0.21830200  0.55907600  0.00208300  1
  Bi  Bi9  1  0.87046200  0.28364900  0.33631900  1
  Bi  Bi10  1  0.33967400  0.34212400  0.67570500  1
  Bi  Bi11  1  0.78408000  0.43864000  0.00020100  1
  Bi  Bi12  1  0.47214000  0.06050500  0.33910100  1
  Bi  Bi13  1  0.94385100  0.13302200  0.66802800  1
  Bi  Bi14  1  0.43713400  0.21445500  0.99887600  1
  O  O15  1  0.89500600  0.85323900  0.98380000  1
  O  O16  1  0.66962600  0.00153800  0.50553900  1
  O  O17  1  0.45892800  0.76575300  0.16072600  1
  O  O18  1  0.76234500  0.70358600  0.16460200  1
  O  O19  1  0.99766100  0.83233600  0.50295500  1
  O  O20  1  0.37929100  0.88967100  0.77200100  1
  O  O21  1  0.11564400  0.61906100  0.23190500  1
  O  O22  1  0.50124100  0.67211600  0.50468200  1
  O  O23  1  0.39610600  0.46201100  0.15996100  1
  O  O24  1  0.69341500  0.40361400  0.16129100  1
  O  O25  1  0.17143700  0.50889600  0.50982800  1
  O  O26  1  0.82751100  0.50306900  0.49659500  1
  O  O27  1  0.30481400  0.60197900  0.84134000  1
  O  O28  1  0.59680300  0.53741700  0.83637000  1
  O  O29  1  0.87843300  0.17364300  0.01900800  1
  O  O30  1  0.50392600  0.33399400  0.50393200  1
  O  O31  1  0.88293200  0.38287800  0.76880000  1
  O  O32  1  0.62147700  0.11452300  0.22880300  1
  O  O33  1  0.13330300  0.11798600  0.24002400  1
  O  O34  1  0.99711900  0.16665700  0.49940000  1
  O  O35  1  0.23549900  0.30159200  0.83932500  1
  O  O36  1  0.53633300  0.23753400  0.83658700  1
  O  O37  1  0.33312100  0.99685800  0.49938300  1
  O  O38  1  0.12447300  0.02848700  0.95227200  1
