# generated using pymatgen
data_LiSn5Rh3
_symmetry_space_group_name_H-M   'P 1'
_cell_length_a   5.46885900
_cell_length_b   9.91133400
_cell_length_c   12.96388900
_cell_angle_alpha   90.00000000
_cell_angle_beta   90.00000000
_cell_angle_gamma   90.00000000
_symmetry_Int_Tables_number   1
_chemical_formula_structural   LiSn5Rh3
_chemical_formula_sum   'Li4 Sn20 Rh12'
_cell_volume   702.69059654
_cell_formula_units_Z   4
loop_
 _symmetry_equiv_pos_site_id
 _symmetry_equiv_pos_as_xyz
  1  'x, y, z'
loop_
 _atom_site_type_symbol
 _atom_site_label
 _atom_site_symmetry_multiplicity
 _atom_site_fract_x
 _atom_site_fract_y
 _atom_site_fract_z
 _atom_site_occupancy
  Li  Li0  1  0.59783300  0.10871300  0.25000000  1
  Li  Li1  1  0.59783300  0.39128700  0.75000000  1
  Li  Li2  1  0.40216700  0.60871300  0.25000000  1
  Li  Li3  1  0.40216700  0.89128700  0.75000000  1
  Sn  Sn4  1  0.86642300  0.12694400  0.06295900  1
  Sn  Sn5  1  0.62585900  0.82631700  0.11284000  1
  Sn  Sn6  1  0.13357700  0.87305600  0.56295900  1
  Sn  Sn7  1  0.62585900  0.67368300  0.61284000  1
  Sn  Sn8  1  0.86642300  0.12694400  0.43704100  1
  Sn  Sn9  1  0.13357700  0.62694400  0.06295900  1
  Sn  Sn10  1  0.37414100  0.32631700  0.11284000  1
  Sn  Sn11  1  0.62585900  0.82631700  0.38716000  1
  Sn  Sn12  1  0.13357700  0.87305600  0.93704100  1
  Sn  Sn13  1  0.37414100  0.17368300  0.88716000  1
  Sn  Sn14  1  0.62585900  0.67368300  0.88716000  1
  Sn  Sn15  1  0.37414100  0.32631700  0.38716000  1
  Sn  Sn16  1  0.37414100  0.17368300  0.61284000  1
  Sn  Sn17  1  0.86642300  0.37305600  0.93704100  1
  Sn  Sn18  1  0.84280000  0.42410700  0.25000000  1
  Sn  Sn19  1  0.15720000  0.57589300  0.75000000  1
  Sn  Sn20  1  0.13357700  0.62694400  0.43704100  1
  Sn  Sn21  1  0.84280000  0.07589300  0.75000000  1
  Sn  Sn22  1  0.15720000  0.92410700  0.25000000  1
  Sn  Sn23  1  0.86642300  0.37305600  0.56295900  1
  Rh  Rh24  1  0.64677400  0.55228200  0.42164400  1
  Rh  Rh25  1  0.35322600  0.44771800  0.92164400  1
  Rh  Rh26  1  0.64677400  0.55228200  0.07835600  1
  Rh  Rh27  1  0.64677400  0.94771800  0.92164400  1
  Rh  Rh28  1  0.09464600  0.30540400  0.75000000  1
  Rh  Rh29  1  0.35322600  0.05228200  0.07835600  1
  Rh  Rh30  1  0.35322600  0.05228200  0.42164400  1
  Rh  Rh31  1  0.64677400  0.94771800  0.57835600  1
  Rh  Rh32  1  0.90535400  0.80540400  0.75000000  1
  Rh  Rh33  1  0.90535400  0.69459600  0.25000000  1
  Rh  Rh34  1  0.35322600  0.44771800  0.57835600  1
  Rh  Rh35  1  0.09464600  0.19459600  0.25000000  1
