# generated using pymatgen
data_Na2Pr4Br9NO
_symmetry_space_group_name_H-M   'P 1'
_cell_length_a   11.82613200
_cell_length_b   8.80105700
_cell_length_c   9.84724261
_cell_angle_alpha   73.51550405
_cell_angle_beta   90.00000000
_cell_angle_gamma   90.00000000
_symmetry_Int_Tables_number   1
_chemical_formula_structural   Na2Pr4Br9NO
_chemical_formula_sum   'Na4 Pr8 Br18 N2 O2'
_cell_volume   982.79729268
_cell_formula_units_Z   2
loop_
 _symmetry_equiv_pos_site_id
 _symmetry_equiv_pos_as_xyz
  1  'x, y, z'
loop_
 _atom_site_type_symbol
 _atom_site_label
 _atom_site_symmetry_multiplicity
 _atom_site_fract_x
 _atom_site_fract_y
 _atom_site_fract_z
 _atom_site_occupancy
  Na  Na0  1  0.98956400  0.71989800  0.57278000  1
  Na  Na1  1  0.51289000  0.72115400  0.57237000  1
  Na  Na2  1  0.48956400  0.28010200  0.42722000  1
  Na  Na3  1  0.01289000  0.27884600  0.42763000  1
  Pr  Pr4  1  0.75215900  0.90663200  0.83576200  1
  Pr  Pr5  1  0.75196400  0.89357800  0.21114800  1
  Pr  Pr6  1  0.03827700  0.79460000  0.04693100  1
  Pr  Pr7  1  0.45192000  0.79996500  0.04573300  1
  Pr  Pr8  1  0.53827700  0.20540000  0.95306800  1
  Pr  Pr9  1  0.95192000  0.20003500  0.95426700  1
  Pr  Pr10  1  0.25196400  0.10642200  0.78885200  1
  Pr  Pr11  1  0.25215900  0.09336800  0.16423800  1
  Br  Br12  1  0.00478900  0.99205500  0.30458800  1
  Br  Br13  1  0.49879700  0.99289200  0.30443900  1
  Br  Br14  1  0.75241000  0.85314700  0.53416200  1
  Br  Br15  1  0.24961300  0.75263800  0.85471600  1
  Br  Br16  1  0.59638300  0.61702100  0.88066300  1
  Br  Br17  1  0.90366300  0.61427500  0.87769800  1
  Br  Br18  1  0.24973000  0.73321300  0.26115900  1
  Br  Br19  1  0.58989300  0.60332300  0.30977300  1
  Br  Br20  1  0.91146500  0.60049900  0.31357600  1
  Br  Br21  1  0.08989300  0.39667700  0.69022700  1
  Br  Br22  1  0.41146500  0.39950100  0.68642400  1
  Br  Br23  1  0.74973000  0.26678700  0.73884100  1
  Br  Br24  1  0.40366300  0.38572500  0.12230200  1
  Br  Br25  1  0.09638300  0.38297900  0.11933700  1
  Br  Br26  1  0.74961300  0.24736200  0.14528400  1
  Br  Br27  1  0.25241000  0.14685300  0.46583800  1
  Br  Br28  1  0.50478900  0.00794500  0.69541200  1
  Br  Br29  1  0.99879700  0.00710800  0.69556100  1
  N  N30  1  0.87370300  0.94250900  0.01469100  1
  N  N31  1  0.37370300  0.05749100  0.98530900  1
  O  O32  1  0.62278000  0.94366800  0.01454800  1
  O  O33  1  0.12278000  0.05633200  0.98545200  1
