# generated using pymatgen
data_Ce5C2Br9
_symmetry_space_group_name_H-M   'P 1'
_cell_length_a   9.91549100
_cell_length_b   11.28439400
_cell_length_c   16.58025700
_cell_angle_alpha   90.00000000
_cell_angle_beta   90.00000000
_cell_angle_gamma   90.00000000
_symmetry_Int_Tables_number   1
_chemical_formula_structural   Ce5C2Br9
_chemical_formula_sum   'Ce20 C8 Br36'
_cell_volume   1855.17004831
_cell_formula_units_Z   4
loop_
 _symmetry_equiv_pos_site_id
 _symmetry_equiv_pos_as_xyz
  1  'x, y, z'
loop_
 _atom_site_type_symbol
 _atom_site_label
 _atom_site_symmetry_multiplicity
 _atom_site_fract_x
 _atom_site_fract_y
 _atom_site_fract_z
 _atom_site_occupancy
  Ce  Ce0  1  0.04757400  0.69059600  0.45047800  1
  Ce  Ce1  1  0.25000000  0.42847600  0.15918100  1
  Ce  Ce2  1  0.25000000  0.46316700  0.93586800  1
  Ce  Ce3  1  0.75000000  0.36373000  0.35060500  1
  Ce  Ce4  1  0.75000000  0.57152400  0.84081900  1
  Ce  Ce5  1  0.54757400  0.80940400  0.95047800  1
  Ce  Ce6  1  0.75000000  0.86373000  0.14939500  1
  Ce  Ce7  1  0.04757400  0.19059600  0.04952200  1
  Ce  Ce8  1  0.25000000  0.13627000  0.85060500  1
  Ce  Ce9  1  0.45242600  0.69059600  0.45047800  1
  Ce  Ce10  1  0.75000000  0.53683300  0.06413200  1
  Ce  Ce11  1  0.75000000  0.03683300  0.43586800  1
  Ce  Ce12  1  0.25000000  0.63627000  0.64939500  1
  Ce  Ce13  1  0.25000000  0.92847600  0.34081900  1
  Ce  Ce14  1  0.75000000  0.07152400  0.65918100  1
  Ce  Ce15  1  0.95242600  0.30940400  0.54952200  1
  Ce  Ce16  1  0.54757400  0.30940400  0.54952200  1
  Ce  Ce17  1  0.45242600  0.19059600  0.04952200  1
  Ce  Ce18  1  0.95242600  0.80940400  0.95047800  1
  Ce  Ce19  1  0.25000000  0.96316700  0.56413200  1
  C  C20  1  0.25000000  0.24525700  0.97081400  1
  C  C21  1  0.75000000  0.25474300  0.47081400  1
  C  C22  1  0.75000000  0.68122000  0.95711500  1
  C  C23  1  0.75000000  0.18122000  0.54288500  1
  C  C24  1  0.25000000  0.81878000  0.45711500  1
  C  C25  1  0.25000000  0.31878000  0.04288500  1
  C  C26  1  0.25000000  0.74525700  0.52918600  1
  C  C27  1  0.75000000  0.75474300  0.02918600  1
  Br  Br28  1  0.53428000  0.06847600  0.88825100  1
  Br  Br29  1  0.75000000  0.83922000  0.78878000  1
  Br  Br30  1  0.42771900  0.61388400  0.06108500  1
  Br  Br31  1  0.75000000  0.11341300  0.05910300  1
  Br  Br32  1  0.96572000  0.56847600  0.61174900  1
  Br  Br33  1  0.53428000  0.56847600  0.61174900  1
  Br  Br34  1  0.57228100  0.88611600  0.56108500  1
  Br  Br35  1  0.25000000  0.66078000  0.28878000  1
  Br  Br36  1  0.05135400  0.13517800  0.67529300  1
  Br  Br37  1  0.25000000  0.88658700  0.94089700  1
  Br  Br38  1  0.92771900  0.38611600  0.93891500  1
  Br  Br39  1  0.96572000  0.06847600  0.88825100  1
  Br  Br40  1  0.42771900  0.11388400  0.43891500  1
  Br  Br41  1  0.25000000  0.37204500  0.77175200  1
  Br  Br42  1  0.05135400  0.63517800  0.82470700  1
  Br  Br43  1  0.94864600  0.86482200  0.32470700  1
  Br  Br44  1  0.57228100  0.38611600  0.93891500  1
  Br  Br45  1  0.75000000  0.33922000  0.71122000  1
  Br  Br46  1  0.07228100  0.11388400  0.43891500  1
  Br  Br47  1  0.94864600  0.36482200  0.17529300  1
  Br  Br48  1  0.92771900  0.88611600  0.56108500  1
  Br  Br49  1  0.55135400  0.86482200  0.32470700  1
  Br  Br50  1  0.07228100  0.61388400  0.06108500  1
  Br  Br51  1  0.25000000  0.38658700  0.55910300  1
  Br  Br52  1  0.55135400  0.36482200  0.17529300  1
  Br  Br53  1  0.25000000  0.87204500  0.72824800  1
  Br  Br54  1  0.46572000  0.43152400  0.38825100  1
  Br  Br55  1  0.75000000  0.61341300  0.44089700  1
  Br  Br56  1  0.75000000  0.12795500  0.27175200  1
  Br  Br57  1  0.44864600  0.63517800  0.82470700  1
  Br  Br58  1  0.03428000  0.43152400  0.38825100  1
  Br  Br59  1  0.46572000  0.93152400  0.11174900  1
  Br  Br60  1  0.44864600  0.13517800  0.67529300  1
  Br  Br61  1  0.75000000  0.62795500  0.22824800  1
  Br  Br62  1  0.25000000  0.16078000  0.21122000  1
  Br  Br63  1  0.03428000  0.93152400  0.11174900  1
