# generated using pymatgen
data_Yb2(SeO4)3
_symmetry_space_group_name_H-M   'P 1'
_cell_length_a   9.87727600
_cell_length_b   9.56402500
_cell_length_c   16.27036294
_cell_angle_alpha   55.38493033
_cell_angle_beta   90.00000000
_cell_angle_gamma   90.00000000
_symmetry_Int_Tables_number   1
_chemical_formula_structural   Yb2(SeO4)3
_chemical_formula_sum   'Yb8 Se12 O48'
_cell_volume   1264.93468699
_cell_formula_units_Z   4
loop_
 _symmetry_equiv_pos_site_id
 _symmetry_equiv_pos_as_xyz
  1  'x, y, z'
loop_
 _atom_site_type_symbol
 _atom_site_label
 _atom_site_symmetry_multiplicity
 _atom_site_fract_x
 _atom_site_fract_y
 _atom_site_fract_z
 _atom_site_occupancy
  Yb  Yb0  1  0.46530200  0.86762200  0.88329200  1
  Yb  Yb1  1  0.96530200  0.13237800  0.61670800  1
  Yb  Yb2  1  0.03469800  0.86762200  0.38329200  1
  Yb  Yb3  1  0.53469800  0.13237800  0.11670800  1
  Yb  Yb4  1  0.53389000  0.36942100  0.38240100  1
  Yb  Yb5  1  0.96611000  0.36942100  0.88240100  1
  Yb  Yb6  1  0.46611000  0.63057900  0.61759900  1
  Yb  Yb7  1  0.03389000  0.63057900  0.11759900  1
  Se  Se8  1  0.88329000  0.96478500  0.14323500  1
  Se  Se9  1  0.38329000  0.03521500  0.35676500  1
  Se  Se10  1  0.11671000  0.03521500  0.85676500  1
  Se  Se11  1  0.87988300  0.25517300  0.34854200  1
  Se  Se12  1  0.75295600  0.54200000  0.49487100  1
  Se  Se13  1  0.74704400  0.54200000  0.99487100  1
  Se  Se14  1  0.25295600  0.45800000  0.00512900  1
  Se  Se15  1  0.24704400  0.45800000  0.50512900  1
  Se  Se16  1  0.12011700  0.74482700  0.65145800  1
  Se  Se17  1  0.62011700  0.25517300  0.84854200  1
  Se  Se18  1  0.37988300  0.74482700  0.15145800  1
  Se  Se19  1  0.61671000  0.96478500  0.64323500  1
  O  O20  1  0.71612700  0.30418200  0.32215000  1
  O  O21  1  0.87060700  0.52245400  0.07018700  1
  O  O22  1  0.78387300  0.30418200  0.82215000  1
  O  O23  1  0.50476200  0.90262600  0.73406900  1
  O  O24  1  0.89160300  0.83388300  0.10643100  1
  O  O25  1  0.39160300  0.16611700  0.39356900  1
  O  O26  1  0.99523800  0.90262600  0.23406900  1
  O  O27  1  0.91799800  0.11689700  0.32031900  1
  O  O28  1  0.97599000  0.42824500  0.28002200  1
  O  O29  1  0.33152900  0.27322100  0.05319500  1
  O  O30  1  0.02401000  0.57175500  0.71997800  1
  O  O31  1  0.81024800  0.53126500  0.90327400  1
  O  O32  1  0.12939300  0.47754600  0.92981300  1
  O  O33  1  0.27289100  0.03817800  0.81652900  1
  O  O34  1  0.37060700  0.47754600  0.42981300  1
  O  O35  1  0.13802500  0.61610100  0.43648700  1
  O  O36  1  0.41799800  0.88310300  0.17968100  1
  O  O37  1  0.10839700  0.16611700  0.89356900  1
  O  O38  1  0.68975200  0.53126500  0.40327400  1
  O  O39  1  0.31024800  0.46873500  0.59672600  1
  O  O40  1  0.86197500  0.38389900  0.56351300  1
  O  O41  1  0.57905200  0.16270700  0.54778100  1
  O  O42  1  0.62939300  0.52245400  0.57018700  1
  O  O43  1  0.72710900  0.96182200  0.18347100  1
  O  O44  1  0.22710900  0.03817800  0.31652900  1
  O  O45  1  0.16847100  0.27322100  0.55319500  1
  O  O46  1  0.63802500  0.38389900  0.06351300  1
  O  O47  1  0.28387300  0.69581800  0.67785000  1
  O  O48  1  0.09104000  0.82944300  0.53094400  1
  O  O49  1  0.60839700  0.83388300  0.60643100  1
  O  O50  1  0.21612700  0.69581800  0.17785000  1
  O  O51  1  0.42094800  0.83729300  0.45221900  1
  O  O52  1  0.83152900  0.72677900  0.44680500  1
  O  O53  1  0.90896000  0.17055700  0.46905600  1
  O  O54  1  0.92094800  0.16270700  0.04778100  1
  O  O55  1  0.49523800  0.09737400  0.26593100  1
  O  O56  1  0.52401000  0.42824500  0.78002200  1
  O  O57  1  0.36197500  0.61610100  0.93648700  1
  O  O58  1  0.58200200  0.11689700  0.82031900  1
  O  O59  1  0.00476200  0.09737400  0.76593100  1
  O  O60  1  0.77289100  0.96182200  0.68347100  1
  O  O61  1  0.18975200  0.46873500  0.09672600  1
  O  O62  1  0.59104000  0.17055700  0.96905600  1
  O  O63  1  0.08200200  0.88310300  0.67968100  1
  O  O64  1  0.40896000  0.82944300  0.03094400  1
  O  O65  1  0.66847100  0.72677900  0.94680500  1
  O  O66  1  0.07905200  0.83729300  0.95221900  1
  O  O67  1  0.47599000  0.57175500  0.21997800  1
