# generated using pymatgen
data_Cs3Bi2I9
_symmetry_space_group_name_H-M   'P 1'
_cell_length_a   8.64940895
_cell_length_b   8.64940895
_cell_length_c   22.00995998
_cell_angle_alpha   89.44690146
_cell_angle_beta   89.44690146
_cell_angle_gamma   119.84295665
_symmetry_Int_Tables_number   1
_chemical_formula_structural   Cs3Bi2I9
_chemical_formula_sum   'Cs6 Bi4 I18'
_cell_volume   1427.99688971
_cell_formula_units_Z   2
loop_
 _symmetry_equiv_pos_site_id
 _symmetry_equiv_pos_as_xyz
  1  'x, y, z'
loop_
 _atom_site_type_symbol
 _atom_site_label
 _atom_site_symmetry_multiplicity
 _atom_site_fract_x
 _atom_site_fract_y
 _atom_site_fract_z
 _atom_site_occupancy
  Cs  Cs0  1  0.99721700  0.00278300  0.75000000  1
  Cs  Cs1  1  0.66642300  0.33072700  0.07744700  1
  Cs  Cs2  1  0.00278300  0.99721700  0.25000000  1
  Cs  Cs3  1  0.33072700  0.66642300  0.57744700  1
  Cs  Cs4  1  0.33357700  0.66927300  0.92255300  1
  Cs  Cs5  1  0.66927300  0.33357700  0.42255300  1
  Bi  Bi6  1  0.65402200  0.32356300  0.65575800  1
  Bi  Bi7  1  0.34597800  0.67643700  0.34424200  1
  Bi  Bi8  1  0.32356300  0.65402200  0.15575800  1
  Bi  Bi9  1  0.67643700  0.34597800  0.84424200  1
  I  I10  1  0.64779900  0.81383400  0.07504900  1
  I  I11  1  0.35220100  0.18616600  0.92495100  1
  I  I12  1  0.49605000  0.99938800  0.75681700  1
  I  I13  1  0.18638700  0.85398600  0.41712600  1
  I  I14  1  0.85398600  0.18638700  0.91712600  1
  I  I15  1  0.81383400  0.64779900  0.57504900  1
  I  I16  1  0.81361300  0.14601400  0.58287400  1
  I  I17  1  0.31010800  0.15132000  0.58934300  1
  I  I18  1  0.50395000  0.00061200  0.24318300  1
  I  I19  1  0.00061200  0.50395000  0.74318300  1
  I  I20  1  0.14601400  0.81361300  0.08287400  1
  I  I21  1  0.99938800  0.49605000  0.25681700  1
  I  I22  1  0.49719300  0.50280700  0.75000000  1
  I  I23  1  0.84868000  0.68989200  0.91065700  1
  I  I24  1  0.15132000  0.31010800  0.08934300  1
  I  I25  1  0.68989200  0.84868000  0.41065700  1
  I  I26  1  0.50280700  0.49719300  0.25000000  1
  I  I27  1  0.18616600  0.35220100  0.42495100  1
