# generated using pymatgen
data_NaFe3H6(SO7)2
_symmetry_space_group_name_H-M   'P 1'
_cell_length_a   7.03275443
_cell_length_b   7.03275443
_cell_length_c   7.03275465
_cell_angle_alpha   63.59791621
_cell_angle_beta   63.59791621
_cell_angle_gamma   63.59791594
_symmetry_Int_Tables_number   1
_chemical_formula_structural   NaFe3H6(SO7)2
_chemical_formula_sum   'Na1 Fe3 H6 S2 O14'
_cell_volume   265.51178757
_cell_formula_units_Z   1
loop_
 _symmetry_equiv_pos_site_id
 _symmetry_equiv_pos_as_xyz
  1  'x, y, z'
loop_
 _atom_site_type_symbol
 _atom_site_label
 _atom_site_symmetry_multiplicity
 _atom_site_fract_x
 _atom_site_fract_y
 _atom_site_fract_z
 _atom_site_occupancy
  Na  Na0  1  0.00000000  0.00000000  0.00000000  1
  Fe  Fe1  1  0.00000000  0.00000000  0.50000000  1
  Fe  Fe2  1  0.50000000  0.00000000  0.00000000  1
  Fe  Fe3  1  0.00000000  0.50000000  0.00000000  1
  H  H4  1  0.71710300  0.30588800  0.30588800  1
  H  H5  1  0.28289700  0.69411200  0.69411200  1
  H  H6  1  0.69411200  0.28289700  0.69411200  1
  H  H7  1  0.30588800  0.30588800  0.71710300  1
  H  H8  1  0.69411200  0.69411200  0.28289700  1
  H  H9  1  0.30588800  0.71710300  0.30588800  1
  S  S10  1  0.68715200  0.68715200  0.68715200  1
  S  S11  1  0.31284800  0.31284800  0.31284800  1
  O  O12  1  0.25706300  0.88154300  0.25706300  1
  O  O13  1  0.17326500  0.17326500  0.50266800  1
  O  O14  1  0.88154300  0.25706300  0.25706300  1
  O  O15  1  0.82673500  0.49733200  0.82673500  1
  O  O16  1  0.74293700  0.11845700  0.74293700  1
  O  O17  1  0.11845700  0.74293700  0.74293700  1
  O  O18  1  0.40113400  0.40113400  0.40113400  1
  O  O19  1  0.49733200  0.82673500  0.82673500  1
  O  O20  1  0.74293700  0.74293700  0.11845700  1
  O  O21  1  0.25706300  0.25706300  0.88154300  1
  O  O22  1  0.59886600  0.59886600  0.59886600  1
  O  O23  1  0.82673500  0.82673500  0.49733200  1
  O  O24  1  0.50266800  0.17326500  0.17326500  1
  O  O25  1  0.17326500  0.50266800  0.17326500  1
