# generated using pymatgen
data_Na6Mg2C4SO16
_symmetry_space_group_name_H-M   'P 1'
_cell_length_a   9.93960486
_cell_length_b   9.93960486
_cell_length_c   9.93960486
_cell_angle_alpha   60.00000000
_cell_angle_beta   60.00000000
_cell_angle_gamma   60.00000000
_symmetry_Int_Tables_number   1
_chemical_formula_structural   Na6Mg2C4SO16
_chemical_formula_sum   'Na12 Mg4 C8 S2 O32'
_cell_volume   694.37225856
_cell_formula_units_Z   2
loop_
 _symmetry_equiv_pos_site_id
 _symmetry_equiv_pos_as_xyz
  1  'x, y, z'
loop_
 _atom_site_type_symbol
 _atom_site_label
 _atom_site_symmetry_multiplicity
 _atom_site_fract_x
 _atom_site_fract_y
 _atom_site_fract_z
 _atom_site_occupancy
  Na  Na0  1  0.71805400  0.28194600  0.71805400  1
  Na  Na1  1  0.71805400  0.71805400  0.28194600  1
  Na  Na2  1  0.28194600  0.71805400  0.71805400  1
  Na  Na3  1  0.71805400  0.28194600  0.28194600  1
  Na  Na4  1  0.28194600  0.28194600  0.71805400  1
  Na  Na5  1  0.28194600  0.71805400  0.28194600  1
  Na  Na6  1  0.53194600  0.96805400  0.53194600  1
  Na  Na7  1  0.53194600  0.53194600  0.96805400  1
  Na  Na8  1  0.96805400  0.53194600  0.53194600  1
  Na  Na9  1  0.53194600  0.96805400  0.96805400  1
  Na  Na10  1  0.96805400  0.96805400  0.53194600  1
  Na  Na11  1  0.96805400  0.53194600  0.96805400  1
  Mg  Mg12  1  0.62500000  0.12500000  0.12500000  1
  Mg  Mg13  1  0.12500000  0.12500000  0.62500000  1
  Mg  Mg14  1  0.12500000  0.62500000  0.12500000  1
  Mg  Mg15  1  0.12500000  0.12500000  0.12500000  1
  C  C16  1  0.34272900  0.34272900  0.97181200  1
  C  C17  1  0.90727100  0.90727100  0.90727100  1
  C  C18  1  0.90727100  0.27818800  0.90727100  1
  C  C19  1  0.27818800  0.90727100  0.90727100  1
  C  C20  1  0.90727100  0.90727100  0.27818800  1
  C  C21  1  0.34272900  0.34272900  0.34272900  1
  C  C22  1  0.34272900  0.97181200  0.34272900  1
  C  C23  1  0.97181200  0.34272900  0.34272900  1
  S  S24  1  0.50000000  0.50000000  0.50000000  1
  S  S25  1  0.75000000  0.75000000  0.75000000  1
  O  O26  1  0.31536600  0.56154500  0.56154500  1
  O  O27  1  0.68845500  0.68845500  0.93463400  1
  O  O28  1  0.93463400  0.68845500  0.68845500  1
  O  O29  1  0.56154500  0.56154500  0.56154500  1
  O  O30  1  0.56154500  0.31536600  0.56154500  1
  O  O31  1  0.56154500  0.56154500  0.31536600  1
  O  O32  1  0.68845500  0.93463400  0.68845500  1
  O  O33  1  0.68845500  0.68845500  0.68845500  1
  O  O34  1  0.97015300  0.22975600  0.31393500  1
  O  O35  1  0.22975600  0.97015300  0.48615600  1
  O  O36  1  0.31393500  0.48615600  0.97015300  1
  O  O37  1  0.22975600  0.31393500  0.97015300  1
  O  O38  1  0.97015300  0.31393500  0.48615600  1
  O  O39  1  0.97015300  0.48615600  0.22975600  1
  O  O40  1  0.31393500  0.97015300  0.22975600  1
  O  O41  1  0.48615600  0.22975600  0.97015300  1
  O  O42  1  0.48615600  0.97015300  0.31393500  1
  O  O43  1  0.31393500  0.22975600  0.48615600  1
  O  O44  1  0.76384400  0.93606500  0.02024400  1
  O  O45  1  0.02024400  0.76384400  0.93606500  1
  O  O46  1  0.93606500  0.02024400  0.76384400  1
  O  O47  1  0.76384400  0.27984700  0.93606500  1
  O  O48  1  0.76384400  0.02024400  0.27984700  1
  O  O49  1  0.93606500  0.27984700  0.02024400  1
  O  O50  1  0.27984700  0.76384400  0.02024400  1
  O  O51  1  0.27984700  0.93606500  0.76384400  1
  O  O52  1  0.02024400  0.93606500  0.27984700  1
  O  O53  1  0.93606500  0.76384400  0.27984700  1
  O  O54  1  0.02024400  0.27984700  0.76384400  1
  O  O55  1  0.27984700  0.02024400  0.93606500  1
  O  O56  1  0.48615600  0.31393500  0.22975600  1
  O  O57  1  0.22975600  0.48615600  0.31393500  1
