# generated using pymatgen
data_ErNi2B2C
_symmetry_space_group_name_H-M   'P 1'
_cell_length_a   5.77805085
_cell_length_b   5.77805085
_cell_length_c   5.77805085
_cell_angle_alpha   144.61195925
_cell_angle_beta   144.61195925
_cell_angle_gamma   50.91317207
_symmetry_Int_Tables_number   1
_chemical_formula_structural   ErNi2B2C
_chemical_formula_sum   'Er1 Ni2 B2 C1'
_cell_volume   64.35860974
_cell_formula_units_Z   1
loop_
 _symmetry_equiv_pos_site_id
 _symmetry_equiv_pos_as_xyz
  1  'x, y, z'
loop_
 _atom_site_type_symbol
 _atom_site_label
 _atom_site_symmetry_multiplicity
 _atom_site_fract_x
 _atom_site_fract_y
 _atom_site_fract_z
 _atom_site_occupancy
  Er  Er0  1  0.00000000  0.00000000  0.00000000  1
  Ni  Ni1  1  0.75000000  0.25000000  0.50000000  1
  Ni  Ni2  1  0.25000000  0.75000000  0.50000000  1
  B  B3  1  0.35723600  0.35723600  0.00000000  1
  B  B4  1  0.64276400  0.64276400  0.00000000  1
  C  C5  1  0.50000000  0.50000000  0.00000000  1
