# generated using pymatgen
data_BaSi2(NO)2
_symmetry_space_group_name_H-M   'P 1'
_cell_length_a   4.88007000
_cell_length_b   5.40355100
_cell_length_c   14.56127300
_cell_angle_alpha   90.00000000
_cell_angle_beta   90.00000000
_cell_angle_gamma   90.00000000
_symmetry_Int_Tables_number   1
_chemical_formula_structural   BaSi2(NO)2
_chemical_formula_sum   'Ba4 Si8 N8 O8'
_cell_volume   383.97650443
_cell_formula_units_Z   4
loop_
 _symmetry_equiv_pos_site_id
 _symmetry_equiv_pos_as_xyz
  1  'x, y, z'
loop_
 _atom_site_type_symbol
 _atom_site_label
 _atom_site_symmetry_multiplicity
 _atom_site_fract_x
 _atom_site_fract_y
 _atom_site_fract_z
 _atom_site_occupancy
  Ba  Ba0  1  0.75000000  0.75370200  0.00000000  1
  Ba  Ba1  1  0.25000000  0.74629800  0.50000000  1
  Ba  Ba2  1  0.25000000  0.24629800  0.00000000  1
  Ba  Ba3  1  0.75000000  0.25370200  0.50000000  1
  Si  Si4  1  0.30052300  0.66018700  0.79968100  1
  Si  Si5  1  0.30052300  0.16018700  0.70031900  1
  Si  Si6  1  0.80052300  0.33981300  0.79968100  1
  Si  Si7  1  0.19947700  0.16018700  0.29968100  1
  Si  Si8  1  0.69947700  0.33981300  0.20031900  1
  Si  Si9  1  0.69947700  0.83981300  0.29968100  1
  Si  Si10  1  0.19947700  0.66018700  0.20031900  1
  Si  Si11  1  0.80052300  0.83981300  0.70031900  1
  N  N12  1  0.15362600  0.36893800  0.77796300  1
  N  N13  1  0.15362600  0.86893800  0.72203700  1
  N  N14  1  0.65362600  0.13106200  0.72203700  1
  N  N15  1  0.34637400  0.36893800  0.22203700  1
  N  N16  1  0.84637400  0.13106200  0.27796300  1
  N  N17  1  0.84637400  0.63106200  0.22203700  1
  N  N18  1  0.34637400  0.86893800  0.27796300  1
  N  N19  1  0.65362600  0.63106200  0.77796300  1
  O  O20  1  0.24858700  0.73352000  0.90684500  1
  O  O21  1  0.74858700  0.76648000  0.59315500  1
  O  O22  1  0.25141300  0.73352000  0.09315500  1
  O  O23  1  0.75141300  0.76648000  0.40684500  1
  O  O24  1  0.75141300  0.26648000  0.09315500  1
  O  O25  1  0.25141300  0.23352000  0.40684500  1
  O  O26  1  0.24858700  0.23352000  0.59315500  1
  O  O27  1  0.74858700  0.26648000  0.90684500  1
