# generated using pymatgen
data_K49Tl108
_symmetry_space_group_name_H-M   'P 1'
_cell_length_a   17.77957643
_cell_length_b   17.77957643
_cell_length_c   17.77957643
_cell_angle_alpha   90.00000000
_cell_angle_beta   90.00000000
_cell_angle_gamma   90.00000000
_symmetry_Int_Tables_number   1
_chemical_formula_structural   K49Tl108
_chemical_formula_sum   'K49 Tl108'
_cell_volume   5620.36125405
_cell_formula_units_Z   1
loop_
 _symmetry_equiv_pos_site_id
 _symmetry_equiv_pos_as_xyz
  1  'x, y, z'
loop_
 _atom_site_type_symbol
 _atom_site_label
 _atom_site_symmetry_multiplicity
 _atom_site_fract_x
 _atom_site_fract_y
 _atom_site_fract_z
 _atom_site_occupancy
  K  K0  1  0.00000000  0.87724955  0.69501481  1
  K  K1  1  0.20512706  0.63464805  0.50000000  1
  K  K2  1  0.87724955  0.69501481  0.00000000  1
  K  K3  1  0.81270414  0.81270414  0.81270414  1
  K  K4  1  0.36535195  0.50000000  0.20512706  1
  K  K5  1  0.18729586  0.18729586  0.18729586  1
  K  K6  1  0.63464805  0.50000000  0.79487294  1
  K  K7  1  0.00000000  0.12275045  0.30498519  1
  K  K8  1  0.50000000  0.79487294  0.63464805  1
  K  K9  1  0.68955618  0.68955618  0.31044382  1
  K  K10  1  0.68955618  0.68955618  0.68955618  1
  K  K11  1  0.79487294  0.63464805  0.50000000  1
  K  K12  1  0.50000000  0.50000000  0.00000000  1
  K  K13  1  0.00000000  0.22913368  0.50000000  1
  K  K14  1  0.81270414  0.18729586  0.18729586  1
  K  K15  1  0.18729586  0.81270414  0.81270414  1
  K  K16  1  0.36535195  0.50000000  0.79487294  1
  K  K17  1  0.50000000  0.20512706  0.63464805  1
  K  K18  1  0.31044382  0.31044382  0.31044382  1
  K  K19  1  0.50000000  0.00000000  0.50000000  1
  K  K20  1  0.50000000  0.79487294  0.36535195  1
  K  K21  1  0.63464805  0.50000000  0.20512706  1
  K  K22  1  0.68955618  0.31044382  0.68955618  1
  K  K23  1  0.18729586  0.81270414  0.18729586  1
  K  K24  1  0.18729586  0.18729586  0.81270414  1
  K  K25  1  0.68955618  0.31044382  0.31044382  1
  K  K26  1  0.81270414  0.18729586  0.81270414  1
  K  K27  1  0.30498519  0.00000000  0.12275045  1
  K  K28  1  0.69501481  0.00000000  0.12275045  1
  K  K29  1  0.31044382  0.31044382  0.68955618  1
  K  K30  1  0.22913368  0.50000000  0.00000000  1
  K  K31  1  0.81270414  0.81270414  0.18729586  1
  K  K32  1  0.77086632  0.50000000  0.00000000  1
  K  K33  1  0.50000000  0.00000000  0.77086632  1
  K  K34  1  0.00000000  0.50000000  0.50000000  1
  K  K35  1  0.31044382  0.68955618  0.68955618  1
  K  K36  1  0.20512706  0.36535195  0.50000000  1
  K  K37  1  0.00000000  0.12275045  0.69501481  1
  K  K38  1  0.87724955  0.30498519  0.00000000  1
  K  K39  1  0.12275045  0.69501481  0.00000000  1
  K  K40  1  0.50000000  0.20512706  0.36535195  1
  K  K41  1  0.50000000  0.00000000  0.22913368  1
  K  K42  1  0.30498519  0.00000000  0.87724955  1
  K  K43  1  0.31044382  0.68955618  0.31044382  1
  K  K44  1  0.00000000  0.87724955  0.30498519  1
  K  K45  1  0.69501481  0.00000000  0.87724955  1
  K  K46  1  0.79487294  0.36535195  0.50000000  1
  K  K47  1  0.00000000  0.77086632  0.50000000  1
  K  K48  1  0.12275045  0.30498519  0.00000000  1
  Tl  Tl49  1  0.17861555  0.16284201  0.40803736  1
  Tl  Tl50  1  0.59196264  0.82138445  0.16284201  1
  Tl  Tl51  1  0.50000000  0.34065172  0.82284129  1
  Tl  Tl52  1  0.33424430  0.09157380  0.66918721  1
  Tl  Tl53  1  0.82138445  0.16284201  0.40803736  1
  Tl  Tl54  1  0.82284129  0.50000000  0.34065172  1
  Tl  Tl55  1  0.09157380  0.33081279  0.66575570  1
  Tl  Tl56  1  0.50000000  0.34065172  0.17715871  1
  Tl  Tl57  1  0.90842620  0.33081279  0.66575570  1
  Tl  Tl58  1  0.17390604  0.00000000  0.31848228  1
  Tl  Tl59  1  0.16284201  0.40803736  0.17861555  1
  Tl  Tl60  1  0.31848228  0.82609396  0.00000000  1
  Tl  Tl61  1  0.82138445  0.83715799  0.40803736  1
  Tl  Tl62  1  0.33424430  0.90842620  0.66918721  1
  Tl  Tl63  1  0.00000000  0.50000000  0.09165971  1
  Tl  Tl64  1  0.27631081  0.00000000  0.50000000  1
  Tl  Tl65  1  0.50000000  0.27631081  0.00000000  1
  Tl  Tl66  1  0.17861555  0.83715799  0.40803736  1
  Tl  Tl67  1  0.66575570  0.90842620  0.66918721  1
  Tl  Tl68  1  0.66918721  0.33424430  0.90842620  1
  Tl  Tl69  1  0.34869023  0.50000000  0.59078158  1
  Tl  Tl70  1  0.82138445  0.83715799  0.59196264  1
  Tl  Tl71  1  0.83715799  0.59196264  0.82138445  1
  Tl  Tl72  1  0.82609396  0.00000000  0.31848228  1
  Tl  Tl73  1  0.82609396  0.00000000  0.68151772  1
  Tl  Tl74  1  0.50000000  0.90834029  0.00000000  1
  Tl  Tl75  1  0.17390604  0.00000000  0.68151772  1
  Tl  Tl76  1  0.66575570  0.09157380  0.33081279  1
  Tl  Tl77  1  0.00000000  0.68151772  0.17390604  1
  Tl  Tl78  1  0.16284201  0.59196264  0.17861555  1
  Tl  Tl79  1  0.00000000  0.31848228  0.17390604  1
  Tl  Tl80  1  0.50000000  0.65934828  0.17715871  1
  Tl  Tl81  1  0.17715871  0.50000000  0.34065172  1
  Tl  Tl82  1  0.00000000  0.68151772  0.82609396  1
  Tl  Tl83  1  0.66918721  0.66575570  0.90842620  1
  Tl  Tl84  1  0.66575570  0.90842620  0.33081279  1
  Tl  Tl85  1  0.33424430  0.09157380  0.33081279  1
  Tl  Tl86  1  0.90781624  0.00000000  0.15101685  1
  Tl  Tl87  1  0.40921842  0.65130977  0.50000000  1
  Tl  Tl88  1  0.50000000  0.59078158  0.34869023  1
  Tl  Tl89  1  0.66575570  0.09157380  0.66918721  1
  Tl  Tl90  1  0.50000000  0.59078158  0.65130977  1
  Tl  Tl91  1  0.09218376  0.00000000  0.15101685  1
  Tl  Tl92  1  0.31848228  0.17390604  0.00000000  1
  Tl  Tl93  1  0.34065172  0.82284129  0.50000000  1
  Tl  Tl94  1  0.65130977  0.50000000  0.59078158  1
  Tl  Tl95  1  0.33081279  0.33424430  0.09157380  1
  Tl  Tl96  1  0.84898315  0.09218376  0.00000000  1
  Tl  Tl97  1  0.50000000  0.72368919  0.00000000  1
  Tl  Tl98  1  0.66918721  0.66575570  0.09157380  1
  Tl  Tl99  1  0.50000000  0.65934828  0.82284129  1
  Tl  Tl100  1  0.68151772  0.17390604  0.00000000  1
  Tl  Tl101  1  0.40803736  0.82138445  0.16284201  1
  Tl  Tl102  1  0.66918721  0.33424430  0.09157380  1
  Tl  Tl103  1  0.33424430  0.90842620  0.33081279  1
  Tl  Tl104  1  0.83715799  0.59196264  0.17861555  1
  Tl  Tl105  1  0.33081279  0.33424430  0.90842620  1
  Tl  Tl106  1  0.82284129  0.50000000  0.65934828  1
  Tl  Tl107  1  0.00000000  0.31848228  0.82609396  1
  Tl  Tl108  1  0.65934828  0.82284129  0.50000000  1
  Tl  Tl109  1  0.09165971  0.00000000  0.50000000  1
  Tl  Tl110  1  0.16284201  0.59196264  0.82138445  1
  Tl  Tl111  1  0.09157380  0.66918721  0.66575570  1
  Tl  Tl112  1  0.83715799  0.40803736  0.82138445  1
  Tl  Tl113  1  0.34065172  0.17715871  0.50000000  1
  Tl  Tl114  1  0.09218376  0.00000000  0.84898315  1
  Tl  Tl115  1  0.59196264  0.82138445  0.83715799  1
  Tl  Tl116  1  0.33081279  0.66575570  0.09157380  1
  Tl  Tl117  1  0.15101685  0.09218376  0.00000000  1
  Tl  Tl118  1  0.09157380  0.66918721  0.33424430  1
  Tl  Tl119  1  0.90781624  0.00000000  0.84898315  1
  Tl  Tl120  1  0.34869023  0.50000000  0.40921842  1
  Tl  Tl121  1  0.82138445  0.16284201  0.59196264  1
  Tl  Tl122  1  0.40803736  0.82138445  0.83715799  1
  Tl  Tl123  1  0.00000000  0.15101685  0.09218376  1
  Tl  Tl124  1  0.90842620  0.33081279  0.33424430  1
  Tl  Tl125  1  0.84898315  0.90781624  0.00000000  1
  Tl  Tl126  1  0.59196264  0.17861555  0.83715799  1
  Tl  Tl127  1  0.17861555  0.16284201  0.59196264  1
  Tl  Tl128  1  0.40921842  0.34869023  0.50000000  1
  Tl  Tl129  1  0.40803736  0.17861555  0.83715799  1
  Tl  Tl130  1  0.09157380  0.33081279  0.33424430  1
  Tl  Tl131  1  0.00000000  0.84898315  0.90781624  1
  Tl  Tl132  1  0.17861555  0.83715799  0.59196264  1
  Tl  Tl133  1  0.16284201  0.40803736  0.82138445  1
  Tl  Tl134  1  0.00000000  0.50000000  0.27631081  1
  Tl  Tl135  1  0.90834029  0.00000000  0.50000000  1
  Tl  Tl136  1  0.50000000  0.09165971  0.00000000  1
  Tl  Tl137  1  0.17715871  0.50000000  0.65934828  1
  Tl  Tl138  1  0.68151772  0.82609396  0.00000000  1
  Tl  Tl139  1  0.40803736  0.17861555  0.16284201  1
  Tl  Tl140  1  0.72368919  0.00000000  0.50000000  1
  Tl  Tl141  1  0.00000000  0.84898315  0.09218376  1
  Tl  Tl142  1  0.90842620  0.66918721  0.66575570  1
  Tl  Tl143  1  0.65934828  0.17715871  0.50000000  1
  Tl  Tl144  1  0.00000000  0.50000000  0.90834029  1
  Tl  Tl145  1  0.83715799  0.40803736  0.17861555  1
  Tl  Tl146  1  0.00000000  0.15101685  0.90781624  1
  Tl  Tl147  1  0.90842620  0.66918721  0.33424430  1
  Tl  Tl148  1  0.59196264  0.17861555  0.16284201  1
  Tl  Tl149  1  0.50000000  0.40921842  0.34869023  1
  Tl  Tl150  1  0.00000000  0.50000000  0.72368919  1
  Tl  Tl151  1  0.59078158  0.65130977  0.50000000  1
  Tl  Tl152  1  0.15101685  0.90781624  0.00000000  1
  Tl  Tl153  1  0.65130977  0.50000000  0.40921842  1
  Tl  Tl154  1  0.50000000  0.40921842  0.65130977  1
  Tl  Tl155  1  0.59078158  0.34869023  0.50000000  1
  Tl  Tl156  1  0.33081279  0.66575570  0.90842620  1
