# generated using pymatgen
data_TlV3(SeO6)2
_symmetry_space_group_name_H-M   'P 1'
_cell_length_a   7.16142973
_cell_length_b   7.16142973
_cell_length_c   11.82018200
_cell_angle_alpha   90.00000000
_cell_angle_beta   90.00000000
_cell_angle_gamma   119.99999754
_symmetry_Int_Tables_number   1
_chemical_formula_structural   TlV3(SeO6)2
_chemical_formula_sum   'Tl2 V6 Se4 O24'
_cell_volume   524.99392290
_cell_formula_units_Z   2
loop_
 _symmetry_equiv_pos_site_id
 _symmetry_equiv_pos_as_xyz
  1  'x, y, z'
loop_
 _atom_site_type_symbol
 _atom_site_label
 _atom_site_symmetry_multiplicity
 _atom_site_fract_x
 _atom_site_fract_y
 _atom_site_fract_z
 _atom_site_occupancy
  Tl  Tl0  1  0.66666700  0.33333300  0.43441900  1
  Tl  Tl1  1  0.33333300  0.66666700  0.93441900  1
  V  V2  1  0.79452100  0.66669000  0.10718600  1
  V  V3  1  0.66669000  0.87216800  0.60718600  1
  V  V4  1  0.33331000  0.12783200  0.10718600  1
  V  V5  1  0.87216800  0.20547900  0.10718600  1
  V  V6  1  0.12783200  0.79452100  0.60718600  1
  V  V7  1  0.20547900  0.33331000  0.60718600  1
  Se  Se8  1  0.00000000  0.00000000  0.32747300  1
  Se  Se9  1  0.33333300  0.66666700  0.38345800  1
  Se  Se10  1  0.00000000  0.00000000  0.82747300  1
  Se  Se11  1  0.66666700  0.33333300  0.88345800  1
  O  O12  1  0.41364900  0.21482500  0.94526700  1
  O  O13  1  0.08353900  0.54197700  0.63331100  1
  O  O14  1  0.12425000  0.25159900  0.07492200  1
  O  O15  1  0.87265100  0.12425000  0.57492200  1
  O  O16  1  0.87575000  0.74840100  0.57492200  1
  O  O17  1  0.74636500  0.86678000  0.76400100  1
  O  O18  1  0.78517500  0.19882300  0.94526700  1
  O  O19  1  0.25363500  0.13322000  0.26400100  1
  O  O20  1  0.58635100  0.78517500  0.44526700  1
  O  O21  1  0.12041600  0.25363500  0.76400100  1
  O  O22  1  0.54156300  0.08353900  0.13331100  1
  O  O23  1  0.25159900  0.12734900  0.57492200  1
  O  O24  1  0.80117700  0.58635100  0.94526700  1
  O  O25  1  0.45802300  0.54156300  0.63331100  1
  O  O26  1  0.21482500  0.80117700  0.44526700  1
  O  O27  1  0.86678000  0.12041600  0.26400100  1
  O  O28  1  0.87958400  0.74636500  0.26400100  1
  O  O29  1  0.91646100  0.45802300  0.13331100  1
  O  O30  1  0.19882300  0.41364900  0.44526700  1
  O  O31  1  0.74840100  0.87265100  0.07492200  1
  O  O32  1  0.12734900  0.87575000  0.07492200  1
  O  O33  1  0.13322000  0.87958400  0.76400100  1
  O  O34  1  0.45843700  0.91646100  0.63331100  1
  O  O35  1  0.54197700  0.45843700  0.13331100  1
