# generated using pymatgen
data_In3Ir
_symmetry_space_group_name_H-M   'P 1'
_cell_length_a   5.47108900
_cell_length_b   7.57001700
_cell_length_c   8.37780600
_cell_angle_alpha   90.00000000
_cell_angle_beta   90.00000000
_cell_angle_gamma   90.00000000
_symmetry_Int_Tables_number   1
_chemical_formula_structural   In3Ir
_chemical_formula_sum   'In12 Ir4'
_cell_volume   346.97719665
_cell_formula_units_Z   4
loop_
 _symmetry_equiv_pos_site_id
 _symmetry_equiv_pos_as_xyz
  1  'x, y, z'
loop_
 _atom_site_type_symbol
 _atom_site_label
 _atom_site_symmetry_multiplicity
 _atom_site_fract_x
 _atom_site_fract_y
 _atom_site_fract_z
 _atom_site_occupancy
  In  In0  1  0.63668400  0.32940200  0.55594300  1
  In  In1  1  0.09522700  0.47972800  0.75000000  1
  In  In2  1  0.86331600  0.82940200  0.94405700  1
  In  In3  1  0.90477300  0.52027200  0.25000000  1
  In  In4  1  0.13668400  0.17059800  0.05594300  1
  In  In5  1  0.40477300  0.97972800  0.75000000  1
  In  In6  1  0.36331600  0.67059800  0.44405700  1
  In  In7  1  0.59522700  0.02027200  0.25000000  1
  In  In8  1  0.86331600  0.82940200  0.55594300  1
  In  In9  1  0.63668400  0.32940200  0.94405700  1
  In  In10  1  0.13668400  0.17059800  0.44405700  1
  In  In11  1  0.36331600  0.67059800  0.05594300  1
  Ir  Ir12  1  0.44038700  0.37326100  0.25000000  1
  Ir  Ir13  1  0.55961300  0.62673900  0.75000000  1
  Ir  Ir14  1  0.94038700  0.12673900  0.75000000  1
  Ir  Ir15  1  0.05961300  0.87326100  0.25000000  1
