# generated using pymatgen
data_KCuP2Se5
_symmetry_space_group_name_H-M   'P 1'
_cell_length_a   7.85722200
_cell_length_b   10.76485000
_cell_length_c   13.30895203
_cell_angle_alpha   59.15041374
_cell_angle_beta   90.00000000
_cell_angle_gamma   90.00000000
_symmetry_Int_Tables_number   1
_chemical_formula_structural   KCuP2Se5
_chemical_formula_sum   'K4 Cu4 P8 Se20'
_cell_volume   966.42794167
_cell_formula_units_Z   4
loop_
 _symmetry_equiv_pos_site_id
 _symmetry_equiv_pos_as_xyz
  1  'x, y, z'
loop_
 _atom_site_type_symbol
 _atom_site_label
 _atom_site_symmetry_multiplicity
 _atom_site_fract_x
 _atom_site_fract_y
 _atom_site_fract_z
 _atom_site_occupancy
  K  K0  1  0.62641400  0.62038700  0.77858000  1
  K  K1  1  0.37358600  0.37961300  0.22142000  1
  K  K2  1  0.87358600  0.62038700  0.27858000  1
  K  K3  1  0.12641400  0.37961300  0.72142000  1
  Cu  Cu4  1  0.33666600  0.85259800  0.33051200  1
  Cu  Cu5  1  0.83666600  0.14740200  0.16948800  1
  Cu  Cu6  1  0.16333400  0.85259800  0.83051200  1
  Cu  Cu7  1  0.66333400  0.14740200  0.66948800  1
  P  P8  1  0.65196500  0.19507500  0.92154000  1
  P  P9  1  0.93448400  0.82857100  0.45715500  1
  P  P10  1  0.06551600  0.17142900  0.54284500  1
  P  P11  1  0.84803500  0.19507500  0.42154000  1
  P  P12  1  0.34803500  0.80492500  0.07846000  1
  P  P13  1  0.15196500  0.80492500  0.57846000  1
  P  P14  1  0.56551600  0.82857100  0.95715500  1
  P  P15  1  0.43448400  0.17142900  0.04284500  1
  Se  Se16  1  0.69003300  0.61946600  0.03482000  1
  Se  Se17  1  0.56411400  0.30524900  0.74029600  1
  Se  Se18  1  0.13235000  0.70729900  0.03897500  1
  Se  Se19  1  0.46790500  0.92907500  0.77528000  1
  Se  Se20  1  0.19003300  0.38053400  0.46518000  1
  Se  Se21  1  0.36765000  0.70729900  0.53897500  1
  Se  Se22  1  0.30996700  0.38053400  0.96518000  1
  Se  Se23  1  0.96790500  0.07092500  0.72472000  1
  Se  Se24  1  0.75701200  0.96446300  0.99181300  1
  Se  Se25  1  0.25701200  0.03553700  0.50818700  1
  Se  Se26  1  0.86765000  0.29270100  0.96102500  1
  Se  Se27  1  0.74298800  0.96446300  0.49181300  1
  Se  Se28  1  0.06411400  0.69475100  0.75970400  1
  Se  Se29  1  0.03209500  0.92907500  0.27528000  1
  Se  Se30  1  0.63235000  0.29270100  0.46102500  1
  Se  Se31  1  0.43588600  0.69475100  0.25970400  1
  Se  Se32  1  0.93588600  0.30524900  0.24029600  1
  Se  Se33  1  0.53209500  0.07092500  0.22472000  1
  Se  Se34  1  0.24298800  0.03553700  0.00818700  1
  Se  Se35  1  0.80996700  0.61946600  0.53482000  1
