# generated using pymatgen
data_Sr2CrClO4
_symmetry_space_group_name_H-M   'P 1'
_cell_length_a   6.61654300
_cell_length_b   7.56652400
_cell_length_c   11.58551500
_cell_angle_alpha   90.00000000
_cell_angle_beta   90.00000000
_cell_angle_gamma   90.00000000
_symmetry_Int_Tables_number   1
_chemical_formula_structural   Sr2CrClO4
_chemical_formula_sum   'Sr8 Cr4 Cl4 O16'
_cell_volume   580.01990392
_cell_formula_units_Z   4
loop_
 _symmetry_equiv_pos_site_id
 _symmetry_equiv_pos_as_xyz
  1  'x, y, z'
loop_
 _atom_site_type_symbol
 _atom_site_label
 _atom_site_symmetry_multiplicity
 _atom_site_fract_x
 _atom_site_fract_y
 _atom_site_fract_z
 _atom_site_occupancy
  Sr  Sr0  1  0.13626100  0.46525700  0.25000000  1
  Sr  Sr1  1  0.62231800  0.25000000  0.00000000  1
  Sr  Sr2  1  0.37768200  0.75000000  0.00000000  1
  Sr  Sr3  1  0.62231800  0.25000000  0.50000000  1
  Sr  Sr4  1  0.13626100  0.03474300  0.75000000  1
  Sr  Sr5  1  0.86373900  0.96525700  0.25000000  1
  Sr  Sr6  1  0.86373900  0.53474300  0.75000000  1
  Sr  Sr7  1  0.37768200  0.75000000  0.50000000  1
  Cr  Cr8  1  0.87535200  0.75000000  0.50000000  1
  Cr  Cr9  1  0.12464800  0.25000000  0.00000000  1
  Cr  Cr10  1  0.87535200  0.75000000  0.00000000  1
  Cr  Cr11  1  0.12464800  0.25000000  0.50000000  1
  Cl  Cl12  1  0.51685900  0.82313900  0.75000000  1
  Cl  Cl13  1  0.48314100  0.32313900  0.75000000  1
  Cl  Cl14  1  0.51685900  0.67686100  0.25000000  1
  Cl  Cl15  1  0.48314100  0.17686100  0.25000000  1
  O  O16  1  0.03394900  0.73087400  0.38161800  1
  O  O17  1  0.96605100  0.26912600  0.61838200  1
  O  O18  1  0.28413700  0.07672000  0.96783300  1
  O  O19  1  0.96605100  0.23087400  0.11838200  1
  O  O20  1  0.71586300  0.57672000  0.96783300  1
  O  O21  1  0.71586300  0.92328000  0.03216700  1
  O  O22  1  0.03394900  0.76912600  0.61838200  1
  O  O23  1  0.96605100  0.23087400  0.38161800  1
  O  O24  1  0.71586300  0.92328000  0.46783300  1
  O  O25  1  0.96605100  0.26912600  0.88161800  1
  O  O26  1  0.28413700  0.42328000  0.03216700  1
  O  O27  1  0.71586300  0.57672000  0.53216700  1
  O  O28  1  0.28413700  0.42328000  0.46783300  1
  O  O29  1  0.03394900  0.73087400  0.11838200  1
  O  O30  1  0.28413700  0.07672000  0.53216700  1
  O  O31  1  0.03394900  0.76912600  0.88161800  1
