# generated using pymatgen
data_U2Se3
_symmetry_space_group_name_H-M   'P 1'
_cell_length_a   3.98649000
_cell_length_b   10.99466800
_cell_length_c   11.06962300
_cell_angle_alpha   90.00000000
_cell_angle_beta   90.00000000
_cell_angle_gamma   90.00000000
_symmetry_Int_Tables_number   1
_chemical_formula_structural   U2Se3
_chemical_formula_sum   'U8 Se12'
_cell_volume   485.18305981
_cell_formula_units_Z   4
loop_
 _symmetry_equiv_pos_site_id
 _symmetry_equiv_pos_as_xyz
  1  'x, y, z'
loop_
 _atom_site_type_symbol
 _atom_site_label
 _atom_site_symmetry_multiplicity
 _atom_site_fract_x
 _atom_site_fract_y
 _atom_site_fract_z
 _atom_site_occupancy
  U  U0  1  0.75000000  0.81599900  0.48685300  1
  U  U1  1  0.75000000  0.49064600  0.31027800  1
  U  U2  1  0.25000000  0.99064600  0.18972200  1
  U  U3  1  0.75000000  0.00935400  0.81027800  1
  U  U4  1  0.25000000  0.31599900  0.01314700  1
  U  U5  1  0.75000000  0.68400100  0.98685300  1
  U  U6  1  0.25000000  0.50935400  0.68972200  1
  U  U7  1  0.25000000  0.18400100  0.51314700  1
  Se  Se8  1  0.25000000  0.55492100  0.12494500  1
  Se  Se9  1  0.75000000  0.37139000  0.55158600  1
  Se  Se10  1  0.25000000  0.62861000  0.44841400  1
  Se  Se11  1  0.25000000  0.29515000  0.27467200  1
  Se  Se12  1  0.25000000  0.20485000  0.77467200  1
  Se  Se13  1  0.75000000  0.12861000  0.05158600  1
  Se  Se14  1  0.75000000  0.70485000  0.72532800  1
  Se  Se15  1  0.25000000  0.87139000  0.94841400  1
  Se  Se16  1  0.75000000  0.79515000  0.22532800  1
  Se  Se17  1  0.75000000  0.05492100  0.37505500  1
  Se  Se18  1  0.75000000  0.44507900  0.87505500  1
  Se  Se19  1  0.25000000  0.94507900  0.62494500  1
