# generated using pymatgen
data_BaBi2(MoO4)4
_symmetry_space_group_name_H-M   'P 1'
_cell_length_a   7.06314870
_cell_length_b   7.06314870
_cell_length_c   19.69881875
_cell_angle_alpha   89.46087252
_cell_angle_beta   89.46087252
_cell_angle_gamma   135.06047182
_symmetry_Int_Tables_number   1
_chemical_formula_structural   BaBi2(MoO4)4
_chemical_formula_sum   'Ba2 Bi4 Mo8 O32'
_cell_volume   693.95510878
_cell_formula_units_Z   2
loop_
 _symmetry_equiv_pos_site_id
 _symmetry_equiv_pos_as_xyz
  1  'x, y, z'
loop_
 _atom_site_type_symbol
 _atom_site_label
 _atom_site_symmetry_multiplicity
 _atom_site_fract_x
 _atom_site_fract_y
 _atom_site_fract_z
 _atom_site_occupancy
  Ba  Ba0  1  0.02995300  0.97004700  0.75000000  1
  Ba  Ba1  1  0.97004700  0.02995300  0.25000000  1
  Bi  Bi2  1  0.15165400  0.85277700  0.53768400  1
  Bi  Bi3  1  0.85277700  0.15165400  0.03768400  1
  Bi  Bi4  1  0.14722300  0.84834600  0.96231600  1
  Bi  Bi5  1  0.84834600  0.14722300  0.46231600  1
  Mo  Mo6  1  0.42262900  0.54029500  0.59209400  1
  Mo  Mo7  1  0.73456000  0.25636600  0.84839600  1
  Mo  Mo8  1  0.54029500  0.42262900  0.09209400  1
  Mo  Mo9  1  0.74363400  0.26544000  0.65160400  1
  Mo  Mo10  1  0.45970500  0.57737100  0.90790600  1
  Mo  Mo11  1  0.57737100  0.45970500  0.40790600  1
  Mo  Mo12  1  0.25636600  0.73456000  0.34839600  1
  Mo  Mo13  1  0.26544000  0.74363400  0.15160400  1
  O  O14  1  0.08584900  0.38316200  0.36239900  1
  O  O15  1  0.91415100  0.61683800  0.63760100  1
  O  O16  1  0.90197800  0.51618000  0.78730100  1
  O  O17  1  0.21226700  0.29603700  0.10695300  1
  O  O18  1  0.75238400  0.72161100  0.03604800  1
  O  O19  1  0.08341900  0.59127200  0.06999500  1
  O  O20  1  0.91658100  0.40872800  0.93000500  1
  O  O21  1  0.27838900  0.24761600  0.46395200  1
  O  O22  1  0.51618000  0.90197800  0.28730100  1
  O  O23  1  0.46494200  0.30006600  0.33026100  1
  O  O24  1  0.53505800  0.69993400  0.66973900  1
  O  O25  1  0.02197500  0.73865400  0.32210900  1
  O  O26  1  0.72161100  0.75238400  0.53604800  1
  O  O27  1  0.29603700  0.21226700  0.60695300  1
  O  O28  1  0.24761600  0.27838900  0.96395200  1
  O  O29  1  0.59127200  0.08341900  0.56999500  1
  O  O30  1  0.51976600  0.17387800  0.04918000  1
  O  O31  1  0.48382000  0.09802200  0.71269900  1
  O  O32  1  0.09802200  0.48382000  0.21269900  1
  O  O33  1  0.69993400  0.53505800  0.16973900  1
  O  O34  1  0.26134600  0.97802500  0.17789100  1
  O  O35  1  0.70396300  0.78773300  0.39304700  1
  O  O36  1  0.40872800  0.91658100  0.43000500  1
  O  O37  1  0.38316200  0.08584900  0.86239900  1
  O  O38  1  0.97802500  0.26134600  0.67789100  1
  O  O39  1  0.17387800  0.51976600  0.54918000  1
  O  O40  1  0.82612200  0.48023400  0.45082000  1
  O  O41  1  0.78773300  0.70396300  0.89304700  1
  O  O42  1  0.30006600  0.46494200  0.83026100  1
  O  O43  1  0.48023400  0.82612200  0.95082000  1
  O  O44  1  0.61683800  0.91415100  0.13760100  1
  O  O45  1  0.73865400  0.02197500  0.82210900  1
