# generated using pymatgen
data_K2MgSi5O12
_symmetry_space_group_name_H-M   'P 1'
_cell_length_a   13.83558000
_cell_length_b   13.23993400
_cell_length_c   13.35674766
_cell_angle_alpha   88.22144405
_cell_angle_beta   90.00000000
_cell_angle_gamma   90.00000000
_symmetry_Int_Tables_number   1
_chemical_formula_structural   K2MgSi5O12
_chemical_formula_sum   'K16 Mg8 Si40 O96'
_cell_volume   2445.53925281
_cell_formula_units_Z   8
loop_
 _symmetry_equiv_pos_site_id
 _symmetry_equiv_pos_as_xyz
  1  'x, y, z'
loop_
 _atom_site_type_symbol
 _atom_site_label
 _atom_site_symmetry_multiplicity
 _atom_site_fract_x
 _atom_site_fract_y
 _atom_site_fract_z
 _atom_site_occupancy
  K  K0  1  0.38915000  0.40537700  0.11464600  1
  K  K1  1  0.88915000  0.09462300  0.88535400  1
  K  K2  1  0.14038700  0.12483300  0.36793100  1
  K  K3  1  0.13164800  0.35395700  0.85355700  1
  K  K4  1  0.64038700  0.37516700  0.63206900  1
  K  K5  1  0.11085000  0.90537700  0.11464600  1
  K  K6  1  0.39583500  0.14828700  0.62912900  1
  K  K7  1  0.35961300  0.62483300  0.36793100  1
  K  K8  1  0.63164800  0.14604300  0.14644300  1
  K  K9  1  0.60416500  0.85171300  0.37087100  1
  K  K10  1  0.89583500  0.35171300  0.37087100  1
  K  K11  1  0.86835200  0.64604300  0.14644300  1
  K  K12  1  0.36835200  0.85395700  0.85355700  1
  K  K13  1  0.10416500  0.64828700  0.62912900  1
  K  K14  1  0.61085000  0.59462300  0.88535400  1
  K  K15  1  0.85961300  0.87516700  0.63206900  1
  Mg  Mg16  1  0.57047800  0.88945100  0.64291700  1
  Mg  Mg17  1  0.06515100  0.86900200  0.81452700  1
  Mg  Mg18  1  0.92952200  0.38945100  0.64291700  1
  Mg  Mg19  1  0.56515100  0.63099800  0.18547300  1
  Mg  Mg20  1  0.93484900  0.13099800  0.18547300  1
  Mg  Mg21  1  0.42952200  0.11054900  0.35708300  1
  Mg  Mg22  1  0.07047800  0.61054900  0.35708300  1
  Mg  Mg23  1  0.43484900  0.36900200  0.81452700  1
  Si  Si24  1  0.31981800  0.56842200  0.89075100  1
  Si  Si25  1  0.86159200  0.37578200  0.86916300  1
  Si  Si26  1  0.88908500  0.16273200  0.60743200  1
  Si  Si27  1  0.81535500  0.59653100  0.64355300  1
  Si  Si28  1  0.90172800  0.85027900  0.32326800  1
  Si  Si29  1  0.15087600  0.18663500  0.09417100  1
  Si  Si30  1  0.85741400  0.63084400  0.42372000  1
  Si  Si31  1  0.40386100  0.90295500  0.14994100  1
  Si  Si32  1  0.40172800  0.64972100  0.67673200  1
  Si  Si33  1  0.18464500  0.40346900  0.35644700  1
  Si  Si34  1  0.38908500  0.33726800  0.39256800  1
  Si  Si35  1  0.90386100  0.59704500  0.85005900  1
  Si  Si36  1  0.09613900  0.40295500  0.14994100  1
  Si  Si37  1  0.68018200  0.43157800  0.10924900  1
  Si  Si38  1  0.31535500  0.90346900  0.35644700  1
  Si  Si39  1  0.34912400  0.68663500  0.09417100  1
  Si  Si40  1  0.11095300  0.63641100  0.90070300  1
  Si  Si41  1  0.68464500  0.09653100  0.64355300  1
  Si  Si42  1  0.14258600  0.36915600  0.57628000  1
  Si  Si43  1  0.84912400  0.81336500  0.90582900  1
  Si  Si44  1  0.35741400  0.86915600  0.57628000  1
  Si  Si45  1  0.13840800  0.62421800  0.13083700  1
  Si  Si46  1  0.61091500  0.66273200  0.60743200  1
  Si  Si47  1  0.65087600  0.31336500  0.90582900  1
  Si  Si48  1  0.64258600  0.13084400  0.42372000  1
  Si  Si49  1  0.85989300  0.05247500  0.40865100  1
  Si  Si50  1  0.64010700  0.55247500  0.40865100  1
  Si  Si51  1  0.88904700  0.36358900  0.09929700  1
  Si  Si52  1  0.18018200  0.06842200  0.89075100  1
  Si  Si53  1  0.11091500  0.83726800  0.39256800  1
  Si  Si54  1  0.14010700  0.94752500  0.59134900  1
  Si  Si55  1  0.36159200  0.12421800  0.13083700  1
  Si  Si56  1  0.35989300  0.44752500  0.59134900  1
  Si  Si57  1  0.81981800  0.93157800  0.10924900  1
  Si  Si58  1  0.61095300  0.86358900  0.09929700  1
  Si  Si59  1  0.38904700  0.13641100  0.90070300  1
  Si  Si60  1  0.63840800  0.87578200  0.86916300  1
  Si  Si61  1  0.59827200  0.35027900  0.32326800  1
  Si  Si62  1  0.59613900  0.09704500  0.85005900  1
  Si  Si63  1  0.09827200  0.14972100  0.67673200  1
  O  O64  1  0.14243400  0.07340200  0.59465200  1
  O  O65  1  0.06829500  0.89582300  0.67009400  1
  O  O66  1  0.20780200  0.86091300  0.32225500  1
  O  O67  1  0.14230400  0.12900400  0.78829400  1
  O  O68  1  0.39046700  0.42766700  0.47456100  1
  O  O69  1  0.60848400  0.13364600  0.73213300  1
  O  O70  1  0.33590500  0.00102200  0.12288500  1
  O  O71  1  0.12898500  0.96150600  0.90788000  1
  O  O72  1  0.51931300  0.63727500  0.68505700  1
  O  O73  1  0.42646300  0.62254200  0.15688800  1
  O  O74  1  0.35769600  0.62900400  0.78829400  1
  O  O75  1  0.92646300  0.87745800  0.84311200  1
  O  O76  1  0.85118200  0.66368600  0.54291400  1
  O  O77  1  0.89046700  0.07233300  0.52543900  1
  O  O78  1  0.29219800  0.36091300  0.32225500  1
  O  O79  1  0.66409500  0.99897800  0.87711500  1
  O  O80  1  0.61849400  0.76645600  0.17104400  1
  O  O81  1  0.64881800  0.16368600  0.54291400  1
  O  O82  1  0.10528900  0.72576800  0.44003400  1
  O  O83  1  0.12957200  0.31039900  0.07896500  1
  O  O84  1  0.25278300  0.91432300  0.61069800  1
  O  O85  1  0.13323100  0.26254900  0.64383500  1
  O  O86  1  0.62957200  0.18960100  0.92103500  1
  O  O87  1  0.98408100  0.43487000  0.12660400  1
  O  O88  1  0.60953300  0.57233300  0.52543900  1
  O  O89  1  0.63323100  0.23745100  0.35616500  1
  O  O90  1  0.51591900  0.93487000  0.12660400  1
  O  O91  1  0.11849400  0.73354400  0.82895600  1
  O  O92  1  0.01591900  0.56513000  0.87339600  1
  O  O93  1  0.75678800  0.32099500  0.85008000  1
  O  O94  1  0.38150600  0.23354400  0.82895600  1
  O  O95  1  0.74721700  0.08567700  0.38930200  1
  O  O96  1  0.34104000  0.65175200  0.97713600  1
  O  O97  1  0.43170500  0.39582300  0.67009400  1
  O  O98  1  0.62898500  0.53849400  0.09212000  1
  O  O99  1  0.10848400  0.36635400  0.26786700  1
  O  O100  1  0.93959800  0.34955000  0.78647000  1
  O  O101  1  0.48068700  0.36272500  0.31494300  1
  O  O102  1  0.84104000  0.84824800  0.02286300  1
  O  O103  1  0.75278300  0.58567700  0.38930200  1
  O  O104  1  0.79219800  0.13908700  0.67774500  1
  O  O105  1  0.85756600  0.92659800  0.40534800  1
  O  O106  1  0.39913600  0.16519400  0.01937400  1
  O  O107  1  0.10086400  0.66519400  0.01937400  1
  O  O108  1  0.14881800  0.33631400  0.45708600  1
  O  O109  1  0.10953300  0.92766700  0.47456100  1
  O  O110  1  0.89913600  0.33480600  0.98062600  1
  O  O111  1  0.60086400  0.83480600  0.98062600  1
  O  O112  1  0.37101500  0.46150600  0.90788000  1
  O  O113  1  0.15896000  0.15175200  0.97713600  1
  O  O114  1  0.24321200  0.67900500  0.14992000  1
  O  O115  1  0.89471100  0.27423200  0.55996600  1
  O  O116  1  0.29909300  0.05527500  0.88436300  1
  O  O117  1  0.31700000  0.02187100  0.37103200  1
  O  O118  1  0.85769600  0.87099600  0.21170600  1
  O  O119  1  0.98068700  0.13727500  0.68505700  1
  O  O120  1  0.36676900  0.76254900  0.64383500  1
  O  O121  1  0.64230400  0.37099600  0.21170600  1
  O  O122  1  0.06040200  0.65045000  0.21353000  1
  O  O123  1  0.35756600  0.57340200  0.59465200  1
  O  O124  1  0.56829500  0.60417700  0.32990600  1
  O  O125  1  0.70780200  0.63908700  0.67774500  1
  O  O126  1  0.07353700  0.12254200  0.15688800  1
  O  O127  1  0.81700000  0.47812900  0.62896800  1
  O  O128  1  0.37042800  0.81039900  0.07896500  1
  O  O129  1  0.94317900  0.55615200  0.39681600  1
  O  O130  1  0.89151600  0.63364600  0.73213300  1
  O  O131  1  0.39151600  0.86635400  0.26786700  1
  O  O132  1  0.56040200  0.84955000  0.78647000  1
  O  O133  1  0.74321200  0.82099500  0.85008000  1
  O  O134  1  0.25678800  0.17900500  0.14992000  1
  O  O135  1  0.55682100  0.05615200  0.39681600  1
  O  O136  1  0.79909300  0.44472500  0.11563700  1
  O  O137  1  0.05682100  0.44384800  0.60318400  1
  O  O138  1  0.70090700  0.94472500  0.11563700  1
  O  O139  1  0.87101500  0.03849400  0.09212000  1
  O  O140  1  0.93170500  0.10417700  0.32990600  1
  O  O141  1  0.64243400  0.42659800  0.40534800  1
  O  O142  1  0.68300000  0.97812900  0.62896800  1
  O  O143  1  0.01931300  0.86272500  0.31494300  1
  O  O144  1  0.24721700  0.41432300  0.61069800  1
  O  O145  1  0.20090700  0.55527500  0.88436300  1
  O  O146  1  0.65896000  0.34824800  0.02286300  1
  O  O147  1  0.57353700  0.37745800  0.84311200  1
  O  O148  1  0.44317900  0.94384800  0.60318400  1
  O  O149  1  0.83590500  0.49897800  0.87711500  1
  O  O150  1  0.86676900  0.73745100  0.35616500  1
  O  O151  1  0.60528900  0.77423200  0.55996600  1
  O  O152  1  0.43959800  0.15045000  0.21353000  1
  O  O153  1  0.16409500  0.50102200  0.12288500  1
  O  O154  1  0.48408100  0.06513000  0.87339600  1
  O  O155  1  0.39471100  0.22576800  0.44003400  1
  O  O156  1  0.18300000  0.52187100  0.37103200  1
  O  O157  1  0.87042800  0.68960100  0.92103500  1
  O  O158  1  0.35118200  0.83631400  0.45708600  1
  O  O159  1  0.88150600  0.26645600  0.17104400  1
