# generated using pymatgen
data_Hf6Co16Si7
_symmetry_space_group_name_H-M   'P 1'
_cell_length_a   8.03054100
_cell_length_b   8.03054100
_cell_length_c   8.03054100
_cell_angle_alpha   60.00000000
_cell_angle_beta   60.00000000
_cell_angle_gamma   60.00000000
_symmetry_Int_Tables_number   1
_chemical_formula_structural   Hf6Co16Si7
_chemical_formula_sum   'Hf6 Co16 Si7'
_cell_volume   366.20090555
_cell_formula_units_Z   1
loop_
 _symmetry_equiv_pos_site_id
 _symmetry_equiv_pos_as_xyz
  1  'x, y, z'
loop_
 _atom_site_type_symbol
 _atom_site_label
 _atom_site_symmetry_multiplicity
 _atom_site_fract_x
 _atom_site_fract_y
 _atom_site_fract_z
 _atom_site_occupancy
  Hf  Hf0  1  0.20515700  0.79484300  0.79484300  1
  Hf  Hf1  1  0.79484300  0.79484300  0.20515700  1
  Hf  Hf2  1  0.79484300  0.20515700  0.20515700  1
  Hf  Hf3  1  0.20515700  0.20515700  0.79484300  1
  Hf  Hf4  1  0.79484300  0.20515700  0.79484300  1
  Hf  Hf5  1  0.20515700  0.79484300  0.20515700  1
  Co  Co6  1  0.61944400  0.61944400  0.14166900  1
  Co  Co7  1  0.17046100  0.48861800  0.17046100  1
  Co  Co8  1  0.85833100  0.38055600  0.38055600  1
  Co  Co9  1  0.51138200  0.82953900  0.82953900  1
  Co  Co10  1  0.48861800  0.17046100  0.17046100  1
  Co  Co11  1  0.82953900  0.82953900  0.51138200  1
  Co  Co12  1  0.17046100  0.17046100  0.48861800  1
  Co  Co13  1  0.14166900  0.61944400  0.61944400  1
  Co  Co14  1  0.17046100  0.17046100  0.17046100  1
  Co  Co15  1  0.38055600  0.38055600  0.85833100  1
  Co  Co16  1  0.61944400  0.61944400  0.61944400  1
  Co  Co17  1  0.38055600  0.85833100  0.38055600  1
  Co  Co18  1  0.38055600  0.38055600  0.38055600  1
  Co  Co19  1  0.82953900  0.82953900  0.82953900  1
  Co  Co20  1  0.61944400  0.14166900  0.61944400  1
  Co  Co21  1  0.82953900  0.51138200  0.82953900  1
  Si  Si22  1  0.50000000  0.00000000  0.50000000  1
  Si  Si23  1  0.50000000  0.50000000  0.00000000  1
  Si  Si24  1  0.50000000  0.50000000  0.50000000  1
  Si  Si25  1  0.00000000  0.00000000  0.50000000  1
  Si  Si26  1  0.00000000  0.50000000  0.00000000  1
  Si  Si27  1  0.00000000  0.50000000  0.50000000  1
  Si  Si28  1  0.50000000  0.00000000  0.00000000  1
