# generated using pymatgen
data_Er2Fe3Si5
_symmetry_space_group_name_H-M   'P 1'
_cell_length_a   10.32537500
_cell_length_b   10.32537500
_cell_length_c   5.44261500
_cell_angle_alpha   90.00000000
_cell_angle_beta   90.00000000
_cell_angle_gamma   90.00000000
_symmetry_Int_Tables_number   1
_chemical_formula_structural   Er2Fe3Si5
_chemical_formula_sum   'Er8 Fe12 Si20'
_cell_volume   580.25552072
_cell_formula_units_Z   4
loop_
 _symmetry_equiv_pos_site_id
 _symmetry_equiv_pos_as_xyz
  1  'x, y, z'
loop_
 _atom_site_type_symbol
 _atom_site_label
 _atom_site_symmetry_multiplicity
 _atom_site_fract_x
 _atom_site_fract_y
 _atom_site_fract_z
 _atom_site_occupancy
  Er  Er0  1  0.07025800  0.76425000  0.00000000  1
  Er  Er1  1  0.76425000  0.92974200  0.00000000  1
  Er  Er2  1  0.73575000  0.42974200  0.50000000  1
  Er  Er3  1  0.23575000  0.07025800  0.00000000  1
  Er  Er4  1  0.26425000  0.57025800  0.50000000  1
  Er  Er5  1  0.42974200  0.26425000  0.50000000  1
  Er  Er6  1  0.57025800  0.73575000  0.50000000  1
  Er  Er7  1  0.92974200  0.23575000  0.00000000  1
  Fe  Fe8  1  0.62275300  0.35500300  0.00000000  1
  Fe  Fe9  1  0.64499700  0.62275300  0.00000000  1
  Fe  Fe10  1  0.85500300  0.12275300  0.50000000  1
  Fe  Fe11  1  0.37724700  0.64499700  0.00000000  1
  Fe  Fe12  1  0.14499700  0.87724700  0.50000000  1
  Fe  Fe13  1  0.35500300  0.37724700  0.00000000  1
  Fe  Fe14  1  0.87724700  0.85500300  0.50000000  1
  Fe  Fe15  1  0.00000000  0.50000000  0.75000000  1
  Fe  Fe16  1  0.12275300  0.14499700  0.50000000  1
  Fe  Fe17  1  0.50000000  0.00000000  0.25000000  1
  Fe  Fe18  1  0.50000000  0.00000000  0.75000000  1
  Fe  Fe19  1  0.00000000  0.50000000  0.25000000  1
  Si  Si20  1  0.00000000  0.00000000  0.73474700  1
  Si  Si21  1  0.32337000  0.82337000  0.75000000  1
  Si  Si22  1  0.47671700  0.18065600  0.00000000  1
  Si  Si23  1  0.17663000  0.32337000  0.75000000  1
  Si  Si24  1  0.50000000  0.50000000  0.23474700  1
  Si  Si25  1  0.68065600  0.97671700  0.50000000  1
  Si  Si26  1  0.00000000  0.00000000  0.26525300  1
  Si  Si27  1  0.18065600  0.52328300  0.00000000  1
  Si  Si28  1  0.17663000  0.32337000  0.25000000  1
  Si  Si29  1  0.50000000  0.50000000  0.76525300  1
  Si  Si30  1  0.31934400  0.02328300  0.50000000  1
  Si  Si31  1  0.32337000  0.82337000  0.25000000  1
  Si  Si32  1  0.82337000  0.67663000  0.25000000  1
  Si  Si33  1  0.82337000  0.67663000  0.75000000  1
  Si  Si34  1  0.97671700  0.31934400  0.50000000  1
  Si  Si35  1  0.81934400  0.47671700  0.00000000  1
  Si  Si36  1  0.02328300  0.68065600  0.50000000  1
  Si  Si37  1  0.67663000  0.17663000  0.25000000  1
  Si  Si38  1  0.67663000  0.17663000  0.75000000  1
  Si  Si39  1  0.52328300  0.81934400  0.00000000  1
