# generated using pymatgen
data_CsZn2P2HO8
_symmetry_space_group_name_H-M   'P 1'
_cell_length_a   8.76176150
_cell_length_b   8.76176150
_cell_length_c   7.96444600
_cell_angle_alpha   90.00000000
_cell_angle_beta   90.00000000
_cell_angle_gamma   135.94850419
_symmetry_Int_Tables_number   1
_chemical_formula_structural   CsZn2P2HO8
_chemical_formula_sum   'Cs2 Zn4 P4 H2 O16'
_cell_volume   425.12195731
_cell_formula_units_Z   2
loop_
 _symmetry_equiv_pos_site_id
 _symmetry_equiv_pos_as_xyz
  1  'x, y, z'
loop_
 _atom_site_type_symbol
 _atom_site_label
 _atom_site_symmetry_multiplicity
 _atom_site_fract_x
 _atom_site_fract_y
 _atom_site_fract_z
 _atom_site_occupancy
  Cs  Cs0  1  0.50000000  0.50000000  0.50000000  1
  Cs  Cs1  1  0.00000000  0.00000000  0.00000000  1
  Zn  Zn2  1  0.48297100  0.01702900  0.75000000  1
  Zn  Zn3  1  0.01702900  0.48297100  0.25000000  1
  Zn  Zn4  1  0.51702900  0.98297100  0.25000000  1
  Zn  Zn5  1  0.98297100  0.51702900  0.75000000  1
  P  P6  1  0.14273200  0.85726800  0.46106600  1
  P  P7  1  0.85726800  0.14273200  0.53893400  1
  P  P8  1  0.35726800  0.64273200  0.96106600  1
  P  P9  1  0.64273200  0.35726800  0.03893400  1
  H  H10  1  0.00000000  0.00000000  0.50000000  1
  H  H11  1  0.50000000  0.50000000  0.00000000  1
  O  O12  1  0.20103500  0.79896500  0.30058200  1
  O  O13  1  0.79896500  0.20103500  0.69941800  1
  O  O14  1  0.29896500  0.70103500  0.80058200  1
  O  O15  1  0.70103500  0.29896500  0.19941800  1
  O  O16  1  0.96204100  0.64415100  0.56089300  1
  O  O17  1  0.64415100  0.96204100  0.43910700  1
  O  O18  1  0.14415100  0.46204100  0.06089300  1
  O  O19  1  0.46204100  0.14415100  0.93910700  1
  O  O20  1  0.03795900  0.35584900  0.43910700  1
  O  O21  1  0.35584900  0.03795900  0.56089300  1
  O  O22  1  0.85584900  0.53795900  0.93910700  1
  O  O23  1  0.53795900  0.85584900  0.06089300  1
  O  O24  1  0.05289700  0.94710300  0.39254300  1
  O  O25  1  0.94710300  0.05289700  0.60745700  1
  O  O26  1  0.44710300  0.55289700  0.89254300  1
  O  O27  1  0.55289700  0.44710300  0.10745700  1
