# generated using pymatgen
data_ZrCo3B2
_symmetry_space_group_name_H-M   'P 1'
_cell_length_a   5.73761516
_cell_length_b   5.73761516
_cell_length_c   5.73761527
_cell_angle_alpha   94.81232535
_cell_angle_beta   94.81232535
_cell_angle_gamma   94.81233990
_symmetry_Int_Tables_number   1
_chemical_formula_structural   ZrCo3B2
_chemical_formula_sum   'Zr3 Co9 B6'
_cell_volume   186.76619086
_cell_formula_units_Z   3
loop_
 _symmetry_equiv_pos_site_id
 _symmetry_equiv_pos_as_xyz
  1  'x, y, z'
loop_
 _atom_site_type_symbol
 _atom_site_label
 _atom_site_symmetry_multiplicity
 _atom_site_fract_x
 _atom_site_fract_y
 _atom_site_fract_z
 _atom_site_occupancy
  Zr  Zr0  1  0.00000000  0.00000000  0.00000000  1
  Zr  Zr1  1  0.66968800  0.66968800  0.66968800  1
  Zr  Zr2  1  0.33031200  0.33031200  0.33031200  1
  Co  Co3  1  0.00000000  0.00000000  0.50000000  1
  Co  Co4  1  0.50000000  0.00000000  0.00000000  1
  Co  Co5  1  0.00000000  0.50000000  0.00000000  1
  Co  Co6  1  0.69326000  0.19577200  0.69326000  1
  Co  Co7  1  0.69326000  0.69326000  0.19577200  1
  Co  Co8  1  0.19577200  0.69326000  0.69326000  1
  Co  Co9  1  0.30674000  0.80422800  0.30674000  1
  Co  Co10  1  0.30674000  0.30674000  0.80422800  1
  Co  Co11  1  0.80422800  0.30674000  0.30674000  1
  B  B12  1  0.62449400  0.37550600  0.00000000  1
  B  B13  1  0.00000000  0.62449400  0.37550600  1
  B  B14  1  0.37550600  0.00000000  0.62449400  1
  B  B15  1  0.00000000  0.37550600  0.62449400  1
  B  B16  1  0.62449400  0.00000000  0.37550600  1
  B  B17  1  0.37550600  0.62449400  0.00000000  1
