# generated using pymatgen
data_K3NbHOF7
_symmetry_space_group_name_H-M   'P 1'
_cell_length_a   8.44557849
_cell_length_b   8.44557849
_cell_length_c   7.00351154
_cell_angle_alpha   88.08343840
_cell_angle_beta   88.08343840
_cell_angle_gamma   116.54084279
_symmetry_Int_Tables_number   1
_chemical_formula_structural   K3NbHOF7
_chemical_formula_sum   'K6 Nb2 H2 O2 F14'
_cell_volume   445.99646539
_cell_formula_units_Z   2
loop_
 _symmetry_equiv_pos_site_id
 _symmetry_equiv_pos_as_xyz
  1  'x, y, z'
loop_
 _atom_site_type_symbol
 _atom_site_label
 _atom_site_symmetry_multiplicity
 _atom_site_fract_x
 _atom_site_fract_y
 _atom_site_fract_z
 _atom_site_occupancy
  K  K0  1  0.34056100  0.65943900  0.25000000  1
  K  K1  1  0.65943900  0.34056100  0.75000000  1
  K  K2  1  0.67416600  0.86708900  0.71443200  1
  K  K3  1  0.13291100  0.32583400  0.78556800  1
  K  K4  1  0.32583400  0.13291100  0.28556800  1
  K  K5  1  0.86708900  0.67416600  0.21443200  1
  Nb  Nb6  1  0.83425300  0.16574700  0.25000000  1
  Nb  Nb7  1  0.16574700  0.83425300  0.75000000  1
  H  H8  1  0.50000000  0.50000000  0.50000000  1
  H  H9  1  0.50000000  0.50000000  0.00000000  1
  O  O10  1  0.95877200  0.04122800  0.25000000  1
  O  O11  1  0.04122900  0.95877100  0.75000000  1
  F  F12  1  0.68693200  0.31306800  0.25000000  1
  F  F13  1  0.31306800  0.68693200  0.75000000  1
  F  F14  1  0.60139400  0.96554800  0.33546900  1
  F  F15  1  0.03445200  0.39860600  0.16453100  1
  F  F16  1  0.39860600  0.03445200  0.66453200  1
  F  F17  1  0.96554800  0.60139400  0.83546800  1
  F  F18  1  0.77064800  0.13399500  0.97570700  1
  F  F19  1  0.86600500  0.22935200  0.52429300  1
  F  F20  1  0.22935200  0.86600500  0.02429300  1
  F  F21  1  0.13399500  0.77064800  0.47570700  1
  F  F22  1  0.59415800  0.64603500  0.02121700  1
  F  F23  1  0.35396500  0.40584200  0.47878300  1
  F  F24  1  0.40584200  0.35396500  0.97878300  1
  F  F25  1  0.64603500  0.59415800  0.52121700  1
