# generated using pymatgen
data_Re3(SeBr)7
_symmetry_space_group_name_H-M   'P 1'
_cell_length_a   9.87311886
_cell_length_b   9.87311886
_cell_length_c   24.65127900
_cell_angle_alpha   90.00000000
_cell_angle_beta   90.00000000
_cell_angle_gamma   120.00000579
_symmetry_Int_Tables_number   1
_chemical_formula_structural   Re3(SeBr)7
_chemical_formula_sum   'Re12 Se28 Br28'
_cell_volume   2081.03217309
_cell_formula_units_Z   4
loop_
 _symmetry_equiv_pos_site_id
 _symmetry_equiv_pos_as_xyz
  1  'x, y, z'
loop_
 _atom_site_type_symbol
 _atom_site_label
 _atom_site_symmetry_multiplicity
 _atom_site_fract_x
 _atom_site_fract_y
 _atom_site_fract_z
 _atom_site_occupancy
  Re  Re0  1  0.85317100  0.02834600  0.42130700  1
  Re  Re1  1  0.63671900  0.47937600  0.65939300  1
  Re  Re2  1  0.47937600  0.63671900  0.15939300  1
  Re  Re3  1  0.14682900  0.17517500  0.92130700  1
  Re  Re4  1  0.97165400  0.82482500  0.42130700  1
  Re  Re5  1  0.15734300  0.52062400  0.15939300  1
  Re  Re6  1  0.17517500  0.14682900  0.42130700  1
  Re  Re7  1  0.82482500  0.97165400  0.92130700  1
  Re  Re8  1  0.02834600  0.85317100  0.92130700  1
  Re  Re9  1  0.52062400  0.15734300  0.65939300  1
  Re  Re10  1  0.36328100  0.84265700  0.15939300  1
  Re  Re11  1  0.84265700  0.36328100  0.65939300  1
  Se  Se12  1  0.00000000  0.00000000  0.99848000  1
  Se  Se13  1  0.45739200  0.29758500  0.73200900  1
  Se  Se14  1  0.00000000  0.00000000  0.49848000  1
  Se  Se15  1  0.93731600  0.65917900  0.64641300  1
  Se  Se16  1  0.34082100  0.27813700  0.64641300  1
  Se  Se17  1  0.66666700  0.33333300  0.58175700  1
  Se  Se18  1  0.27813700  0.34082100  0.14641300  1
  Se  Se19  1  0.54260800  0.84019300  0.23200900  1
  Se  Se20  1  0.15980700  0.70241500  0.23200900  1
  Se  Se21  1  0.20838100  0.03403800  0.84836400  1
  Se  Se22  1  0.70241500  0.15980700  0.73200900  1
  Se  Se23  1  0.05230900  0.32532100  0.43370200  1
  Se  Se24  1  0.72698800  0.67467900  0.93370200  1
  Se  Se25  1  0.06268400  0.72186300  0.14641300  1
  Se  Se26  1  0.27301200  0.94769100  0.43370200  1
  Se  Se27  1  0.96596200  0.17434300  0.84836400  1
  Se  Se28  1  0.84019300  0.54260800  0.73200900  1
  Se  Se29  1  0.33333300  0.66666700  0.08175700  1
  Se  Se30  1  0.29758500  0.45739200  0.23200900  1
  Se  Se31  1  0.32532100  0.05230900  0.93370200  1
  Se  Se32  1  0.94769100  0.27301200  0.93370200  1
  Se  Se33  1  0.03403800  0.20838100  0.34836400  1
  Se  Se34  1  0.17434300  0.96596200  0.34836400  1
  Se  Se35  1  0.67467900  0.72698800  0.43370200  1
  Se  Se36  1  0.82565700  0.79161900  0.84836400  1
  Se  Se37  1  0.79161900  0.82565700  0.34836400  1
  Se  Se38  1  0.65917900  0.93731600  0.14641300  1
  Se  Se39  1  0.72186300  0.06268400  0.64641300  1
  Br  Br40  1  0.57526000  0.91361000  0.86738700  1
  Br  Br41  1  0.91361000  0.57526000  0.36738700  1
  Br  Br42  1  0.09013000  0.42092500  0.71614500  1
  Br  Br43  1  0.42092500  0.09013000  0.21614500  1
  Br  Br44  1  0.35566900  0.31612900  0.49998700  1
  Br  Br45  1  0.35235400  0.96593300  0.58325900  1
  Br  Br46  1  0.90987000  0.33079500  0.21614500  1
  Br  Br47  1  0.33079500  0.90987000  0.71614500  1
  Br  Br48  1  0.08639000  0.66164900  0.86738700  1
  Br  Br49  1  0.00000000  0.00000000  0.75921200  1
  Br  Br50  1  0.66666700  0.33333300  0.82145300  1
  Br  Br51  1  0.61357800  0.64764600  0.58325900  1
  Br  Br52  1  0.33333300  0.66666700  0.32145300  1
  Br  Br53  1  0.00000000  0.00000000  0.25921200  1
  Br  Br54  1  0.66920500  0.57907500  0.21614500  1
  Br  Br55  1  0.31612900  0.35566900  0.99998700  1
  Br  Br56  1  0.03954000  0.68387100  0.99998700  1
  Br  Br57  1  0.57907500  0.66920500  0.71614500  1
  Br  Br58  1  0.64433100  0.96046000  0.99998700  1
  Br  Br59  1  0.64764600  0.61357800  0.08325900  1
  Br  Br60  1  0.96046000  0.64433100  0.49998700  1
  Br  Br61  1  0.38642200  0.03406700  0.08325900  1
  Br  Br62  1  0.03406700  0.38642200  0.58325900  1
  Br  Br63  1  0.96593300  0.35235400  0.08325900  1
  Br  Br64  1  0.66164900  0.08639000  0.36738700  1
  Br  Br65  1  0.33835100  0.42474000  0.86738700  1
  Br  Br66  1  0.42474000  0.33835100  0.36738700  1
  Br  Br67  1  0.68387100  0.03954000  0.49998700  1
