# generated using pymatgen
data_Li7(Mo3Se4)4
_symmetry_space_group_name_H-M   'P 1'
_cell_length_a   7.01665900
_cell_length_b   7.02241140
_cell_length_c   14.04877012
_cell_angle_alpha   95.24390809
_cell_angle_beta   94.66763924
_cell_angle_gamma   95.18087634
_symmetry_Int_Tables_number   1
_chemical_formula_structural   Li7(Mo3Se4)4
_chemical_formula_sum   'Li7 Mo12 Se16'
_cell_volume   683.71436995
_cell_formula_units_Z   1
loop_
 _symmetry_equiv_pos_site_id
 _symmetry_equiv_pos_as_xyz
  1  'x, y, z'
loop_
 _atom_site_type_symbol
 _atom_site_label
 _atom_site_symmetry_multiplicity
 _atom_site_fract_x
 _atom_site_fract_y
 _atom_site_fract_z
 _atom_site_occupancy
  Li  Li0  1  0.01514500  0.98101100  0.71023500  1
  Li  Li1  1  0.02387500  0.58554600  0.98935800  1
  Li  Li2  1  0.97935300  0.42232700  0.50944000  1
  Li  Li3  1  0.87813200  0.09817200  0.01702900  1
  Li  Li4  1  0.42490400  0.01471000  0.48977500  1
  Li  Li5  1  0.97815300  0.01926600  0.28955500  1
  Li  Li6  1  0.40987300  0.02037300  0.98869000  1
  Mo  Mo7  1  0.58571400  0.75480000  0.22903600  1
  Mo  Mo8  1  0.58450100  0.75912800  0.72823600  1
  Mo  Mo9  1  0.24145400  0.54294100  0.20696900  1
  Mo  Mo10  1  0.45759300  0.58530700  0.37757900  1
  Mo  Mo11  1  0.24368500  0.54292900  0.70765300  1
  Mo  Mo12  1  0.45460400  0.58699400  0.87781300  1
  Mo  Mo13  1  0.54253800  0.41579300  0.12100500  1
  Mo  Mo14  1  0.75712600  0.45731800  0.29120200  1
  Mo  Mo15  1  0.54296700  0.41613400  0.62175100  1
  Mo  Mo16  1  0.75351300  0.45901800  0.79148800  1
  Mo  Mo17  1  0.41312300  0.24411600  0.26967200  1
  Mo  Mo18  1  0.41332700  0.24419700  0.77130000  1
  Se  Se19  1  0.29109100  0.87232400  0.31320500  1
  Se  Se20  1  0.28982600  0.87602900  0.81366200  1
  Se  Se21  1  0.37465700  0.70812400  0.06377300  1
  Se  Se22  1  0.78909200  0.78453800  0.39503800  1
  Se  Se23  1  0.37338300  0.70645700  0.56442600  1
  Se  Se24  1  0.78479500  0.79494600  0.89374100  1
  Se  Se25  1  0.87333800  0.62853700  0.14601500  1
  Se  Se26  1  0.87440000  0.63045200  0.64573300  1
  Se  Se27  1  0.12535000  0.37507400  0.35328600  1
  Se  Se28  1  0.12250700  0.36748500  0.85306400  1
  Se  Se29  1  0.20824800  0.21081800  0.10573800  1
  Se  Se30  1  0.62732600  0.29217700  0.43519800  1
  Se  Se31  1  0.20920400  0.20856700  0.60427100  1
  Se  Se32  1  0.62595700  0.29481600  0.93627100  1
  Se  Se33  1  0.70805400  0.12459800  0.18286800  1
  Se  Se34  1  0.70319400  0.12897700  0.68442500  1
