# generated using pymatgen
data_H3NO4
_symmetry_space_group_name_H-M   'P 1'
_cell_length_a   5.62348900
_cell_length_b   6.58457400
_cell_length_c   8.93316600
_cell_angle_alpha   90.00000000
_cell_angle_beta   90.00000000
_cell_angle_gamma   90.00000000
_symmetry_Int_Tables_number   1
_chemical_formula_structural   H3NO4
_chemical_formula_sum   'H12 N4 O16'
_cell_volume   330.77976710
_cell_formula_units_Z   4
loop_
 _symmetry_equiv_pos_site_id
 _symmetry_equiv_pos_as_xyz
  1  'x, y, z'
loop_
 _atom_site_type_symbol
 _atom_site_label
 _atom_site_symmetry_multiplicity
 _atom_site_fract_x
 _atom_site_fract_y
 _atom_site_fract_z
 _atom_site_occupancy
  H  H0  1  0.09292400  0.85427200  0.34059500  1
  H  H1  1  0.59292400  0.14572800  0.65940500  1
  H  H2  1  0.59292400  0.64572800  0.84059500  1
  H  H3  1  0.09292400  0.35427200  0.15940500  1
  H  H4  1  0.80852100  0.89175600  0.27710700  1
  H  H5  1  0.03956400  0.86998000  0.15536600  1
  H  H6  1  0.53956400  0.13002000  0.84463400  1
  H  H7  1  0.30852100  0.10824400  0.72289300  1
  H  H8  1  0.30852100  0.60824400  0.77710700  1
  H  H9  1  0.53956400  0.63002000  0.65536600  1
  H  H10  1  0.80852100  0.39175600  0.22289300  1
  H  H11  1  0.03956400  0.36998000  0.34463400  1
  N  N12  1  0.47611400  0.78241200  0.41841000  1
  N  N13  1  0.97611400  0.21758800  0.58159000  1
  N  N14  1  0.97611400  0.71758800  0.91841000  1
  N  N15  1  0.47611400  0.28241200  0.08159000  1
  O  O16  1  0.63655300  0.71197800  0.50342500  1
  O  O17  1  0.13655300  0.28802200  0.49657500  1
  O  O18  1  0.13655300  0.78802200  0.00342500  1
  O  O19  1  0.63655300  0.21197800  0.99657500  1
  O  O20  1  0.25942600  0.76768200  0.45637400  1
  O  O21  1  0.75942600  0.23231800  0.54362600  1
  O  O22  1  0.75942600  0.73231800  0.95637400  1
  O  O23  1  0.25942600  0.26768200  0.04362600  1
  O  O24  1  0.53274900  0.86745400  0.29599700  1
  O  O25  1  0.03274900  0.13254600  0.70400300  1
  O  O26  1  0.03274900  0.63254600  0.79599700  1
  O  O27  1  0.53274900  0.36745400  0.20400300  1
  O  O28  1  0.98587800  0.92136000  0.25920800  1
  O  O29  1  0.48587800  0.07864000  0.74079200  1
  O  O30  1  0.48587800  0.57864000  0.75920800  1
  O  O31  1  0.98587800  0.42136000  0.24079200  1
