# generated using pymatgen
data_K3NaSn3Se8
_symmetry_space_group_name_H-M   'P 1'
_cell_length_a   8.32824500
_cell_length_b   8.32824500
_cell_length_c   13.93411000
_cell_angle_alpha   90.00000000
_cell_angle_beta   90.00000000
_cell_angle_gamma   90.00000000
_symmetry_Int_Tables_number   1
_chemical_formula_structural   K3NaSn3Se8
_chemical_formula_sum   'K6 Na2 Sn6 Se16'
_cell_volume   966.46519861
_cell_formula_units_Z   2
loop_
 _symmetry_equiv_pos_site_id
 _symmetry_equiv_pos_as_xyz
  1  'x, y, z'
loop_
 _atom_site_type_symbol
 _atom_site_label
 _atom_site_symmetry_multiplicity
 _atom_site_fract_x
 _atom_site_fract_y
 _atom_site_fract_z
 _atom_site_occupancy
  K  K0  1  0.00000000  0.00000000  0.72285300  1
  K  K1  1  0.50000000  0.50000000  0.72285300  1
  K  K2  1  0.50000000  0.50000000  0.27714700  1
  K  K3  1  0.00000000  0.00000000  0.27714700  1
  K  K4  1  0.50000000  0.50000000  0.00000000  1
  K  K5  1  0.00000000  0.00000000  0.00000000  1
  Na  Na6  1  0.00000000  0.50000000  0.00000000  1
  Na  Na7  1  0.50000000  0.00000000  0.00000000  1
  Sn  Sn8  1  0.50000000  0.00000000  0.75414500  1
  Sn  Sn9  1  0.50000000  0.00000000  0.24585500  1
  Sn  Sn10  1  0.00000000  0.50000000  0.75414500  1
  Sn  Sn11  1  0.00000000  0.50000000  0.24585500  1
  Sn  Sn12  1  0.50000000  0.00000000  0.50000000  1
  Sn  Sn13  1  0.00000000  0.50000000  0.50000000  1
  Se  Se14  1  0.33569900  0.83569900  0.62320400  1
  Se  Se15  1  0.18088100  0.68088100  0.85271300  1
  Se  Se16  1  0.83569900  0.33569900  0.37679600  1
  Se  Se17  1  0.33569900  0.16430100  0.37679600  1
  Se  Se18  1  0.68088100  0.81911900  0.85271300  1
  Se  Se19  1  0.68088100  0.18088100  0.14728700  1
  Se  Se20  1  0.81911900  0.68088100  0.14728700  1
  Se  Se21  1  0.31911900  0.81911900  0.14728700  1
  Se  Se22  1  0.83569900  0.66430100  0.62320400  1
  Se  Se23  1  0.81911900  0.31911900  0.85271300  1
  Se  Se24  1  0.66430100  0.83569900  0.37679600  1
  Se  Se25  1  0.66430100  0.16430100  0.62320400  1
  Se  Se26  1  0.16430100  0.66430100  0.37679600  1
  Se  Se27  1  0.18088100  0.31911900  0.14728700  1
  Se  Se28  1  0.16430100  0.33569900  0.62320400  1
  Se  Se29  1  0.31911900  0.18088100  0.85271300  1
