# generated using pymatgen
data_Ce21Fe8Bi7C12
_symmetry_space_group_name_H-M   'P 1'
_cell_length_a   11.39797017
_cell_length_b   11.39797017
_cell_length_c   11.39797017
_cell_angle_alpha   60.00000000
_cell_angle_beta   60.00000000
_cell_angle_gamma   60.00000000
_symmetry_Int_Tables_number   1
_chemical_formula_structural   Ce21Fe8Bi7C12
_chemical_formula_sum   'Ce21 Fe8 Bi7 C12'
_cell_volume   1047.05031174
_cell_formula_units_Z   1
loop_
 _symmetry_equiv_pos_site_id
 _symmetry_equiv_pos_as_xyz
  1  'x, y, z'
loop_
 _atom_site_type_symbol
 _atom_site_label
 _atom_site_symmetry_multiplicity
 _atom_site_fract_x
 _atom_site_fract_y
 _atom_site_fract_z
 _atom_site_occupancy
  Ce  Ce0  1  0.65714800  0.00000000  0.34285200  1
  Ce  Ce1  1  0.00000000  0.34285200  0.00000000  1
  Ce  Ce2  1  0.65714800  0.00000000  0.00000000  1
  Ce  Ce3  1  0.63871900  0.08384300  0.63871900  1
  Ce  Ce4  1  0.00000000  0.34285200  0.65714800  1
  Ce  Ce5  1  0.00000000  0.00000000  0.34285200  1
  Ce  Ce6  1  0.36128100  0.36128100  0.36128100  1
  Ce  Ce7  1  0.91615700  0.36128100  0.36128100  1
  Ce  Ce8  1  0.00000000  0.00000000  0.65714800  1
  Ce  Ce9  1  0.34285200  0.00000000  0.65714800  1
  Ce  Ce10  1  0.00000000  0.65714800  0.34285200  1
  Ce  Ce11  1  0.34285200  0.65714800  0.00000000  1
  Ce  Ce12  1  0.00000000  0.65714800  0.00000000  1
  Ce  Ce13  1  0.34285200  0.00000000  0.00000000  1
  Ce  Ce14  1  0.36128100  0.36128100  0.91615700  1
  Ce  Ce15  1  0.63871900  0.63871900  0.08384300  1
  Ce  Ce16  1  0.36128100  0.91615700  0.36128100  1
  Ce  Ce17  1  0.65714800  0.34285200  0.00000000  1
  Ce  Ce18  1  0.63871900  0.63871900  0.63871900  1
  Ce  Ce19  1  0.08384300  0.63871900  0.63871900  1
  Ce  Ce20  1  0.50000000  0.50000000  0.50000000  1
  Fe  Fe21  1  0.19374200  0.19374200  0.41877500  1
  Fe  Fe22  1  0.58122500  0.80625800  0.80625800  1
  Fe  Fe23  1  0.80625800  0.58122500  0.80625800  1
  Fe  Fe24  1  0.19374200  0.41877500  0.19374200  1
  Fe  Fe25  1  0.80625800  0.80625800  0.80625800  1
  Fe  Fe26  1  0.19374200  0.19374200  0.19374200  1
  Fe  Fe27  1  0.41877500  0.19374200  0.19374200  1
  Fe  Fe28  1  0.80625800  0.80625800  0.58122500  1
  Bi  Bi29  1  0.29197400  0.70802600  0.70802600  1
  Bi  Bi30  1  0.70802600  0.70802600  0.29197400  1
  Bi  Bi31  1  0.70802600  0.29197400  0.29197400  1
  Bi  Bi32  1  0.29197400  0.29197400  0.70802600  1
  Bi  Bi33  1  0.70802600  0.29197400  0.70802600  1
  Bi  Bi34  1  0.29197400  0.70802600  0.29197400  1
  Bi  Bi35  1  0.00000000  0.00000000  0.00000000  1
  C  C36  1  0.89583000  0.60417000  0.60417000  1
  C  C37  1  0.89583000  0.89583000  0.60417000  1
  C  C38  1  0.39583000  0.39583000  0.10417000  1
  C  C39  1  0.10417000  0.10417000  0.39583000  1
  C  C40  1  0.39583000  0.10417000  0.10417000  1
  C  C41  1  0.60417000  0.60417000  0.89583000  1
  C  C42  1  0.60417000  0.89583000  0.60417000  1
  C  C43  1  0.89583000  0.60417000  0.89583000  1
  C  C44  1  0.60417000  0.89583000  0.89583000  1
  C  C45  1  0.10417000  0.39583000  0.39583000  1
  C  C46  1  0.39583000  0.10417000  0.39583000  1
  C  C47  1  0.10417000  0.39583000  0.10417000  1
