# generated using pymatgen
data_K2TiAl(PO4)3
_symmetry_space_group_name_H-M   'P 1'
_cell_length_a   9.84358700
_cell_length_b   9.84358700
_cell_length_c   9.84358700
_cell_angle_alpha   90.00000000
_cell_angle_beta   90.00000000
_cell_angle_gamma   90.00000000
_symmetry_Int_Tables_number   1
_chemical_formula_structural   K2TiAl(PO4)3
_chemical_formula_sum   'K8 Ti4 Al4 P12 O48'
_cell_volume   953.80622415
_cell_formula_units_Z   4
loop_
 _symmetry_equiv_pos_site_id
 _symmetry_equiv_pos_as_xyz
  1  'x, y, z'
loop_
 _atom_site_type_symbol
 _atom_site_label
 _atom_site_symmetry_multiplicity
 _atom_site_fract_x
 _atom_site_fract_y
 _atom_site_fract_z
 _atom_site_occupancy
  K  K0  1  0.04031900  0.95968100  0.45968100  1
  K  K1  1  0.18108400  0.68108400  0.81891600  1
  K  K2  1  0.31891600  0.31891600  0.31891600  1
  K  K3  1  0.45968100  0.04031900  0.95968100  1
  K  K4  1  0.54031900  0.54031900  0.54031900  1
  K  K5  1  0.68108400  0.81891600  0.18108400  1
  K  K6  1  0.81891600  0.18108400  0.68108400  1
  K  K7  1  0.95968100  0.45968100  0.04031900  1
  Ti  Ti8  1  0.16374500  0.33625500  0.66374500  1
  Ti  Ti9  1  0.33625500  0.66374500  0.16374500  1
  Ti  Ti10  1  0.66374500  0.16374500  0.33625500  1
  Ti  Ti11  1  0.83625500  0.83625500  0.83625500  1
  Al  Al12  1  0.10808200  0.10808200  0.10808200  1
  Al  Al13  1  0.39191800  0.89191800  0.60808200  1
  Al  Al14  1  0.60808200  0.39191800  0.89191800  1
  Al  Al15  1  0.89191800  0.60808200  0.39191800  1
  P  P16  1  0.02137500  0.79607200  0.12799100  1
  P  P17  1  0.12799100  0.02137500  0.79607200  1
  P  P18  1  0.20392800  0.62799100  0.47862500  1
  P  P19  1  0.29607200  0.37200900  0.97862500  1
  P  P20  1  0.37200900  0.97862500  0.29607200  1
  P  P21  1  0.47862500  0.20392800  0.62799100  1
  P  P22  1  0.52137500  0.70392800  0.87200900  1
  P  P23  1  0.62799100  0.47862500  0.20392800  1
  P  P24  1  0.70392800  0.87200900  0.52137500  1
  P  P25  1  0.79607200  0.12799100  0.02137500  1
  P  P26  1  0.87200900  0.52137500  0.70392800  1
  P  P27  1  0.97862500  0.29607200  0.37200900  1
  O  O28  1  0.00979500  0.44621400  0.72825000  1
  O  O29  1  0.01724300  0.94592400  0.17064500  1
  O  O30  1  0.04970900  0.20434300  0.26834300  1
  O  O31  1  0.05378600  0.27175000  0.50979500  1
  O  O32  1  0.05407600  0.67064500  0.48275700  1
  O  O33  1  0.10237700  0.17063100  0.74983300  1
  O  O34  1  0.17064500  0.01724300  0.94592400  1
  O  O35  1  0.17063100  0.74983300  0.10237700  1
  O  O36  1  0.20434300  0.26834300  0.04970900  1
  O  O37  1  0.22825000  0.49020500  0.55378600  1
  O  O38  1  0.23165700  0.95029100  0.70434300  1
  O  O39  1  0.24983300  0.39762300  0.82936900  1
  O  O40  1  0.25016700  0.60237700  0.32936900  1
  O  O41  1  0.26834300  0.04970900  0.20434300  1
  O  O42  1  0.27175000  0.50979500  0.05378600  1
  O  O43  1  0.29565700  0.73165700  0.54970900  1
  O  O44  1  0.32936900  0.25016700  0.60237700  1
  O  O45  1  0.32935500  0.98275700  0.44592400  1
  O  O46  1  0.39762300  0.82936900  0.24983300  1
  O  O47  1  0.44592400  0.32935500  0.98275700  1
  O  O48  1  0.44621400  0.72825000  0.00979500  1
  O  O49  1  0.45029100  0.79565700  0.76834300  1
  O  O50  1  0.48275700  0.05407600  0.67064500  1
  O  O51  1  0.49020500  0.55378600  0.22825000  1
  O  O52  1  0.50979500  0.05378600  0.27175000  1
  O  O53  1  0.51724300  0.55407600  0.82935500  1
  O  O54  1  0.54970900  0.29565700  0.73165700  1
  O  O55  1  0.55378600  0.22825000  0.49020500  1
  O  O56  1  0.55407600  0.82935500  0.51724300  1
  O  O57  1  0.60237700  0.32936900  0.25016700  1
  O  O58  1  0.67064500  0.48275700  0.05407600  1
  O  O59  1  0.67063100  0.75016700  0.89762300  1
  O  O60  1  0.70434300  0.23165700  0.95029100  1
  O  O61  1  0.72825000  0.00979500  0.44621400  1
  O  O62  1  0.73165700  0.54970900  0.29565700  1
  O  O63  1  0.74983300  0.10237700  0.17063100  1
  O  O64  1  0.75016700  0.89762300  0.67063100  1
  O  O65  1  0.76834300  0.45029100  0.79565700  1
  O  O66  1  0.77175000  0.99020500  0.94621400  1
  O  O67  1  0.79565700  0.76834300  0.45029100  1
  O  O68  1  0.82936900  0.24983300  0.39762300  1
  O  O69  1  0.82935500  0.51724300  0.55407600  1
  O  O70  1  0.89762300  0.67063100  0.75016700  1
  O  O71  1  0.94592400  0.17064500  0.01724300  1
  O  O72  1  0.94621400  0.77175000  0.99020500  1
  O  O73  1  0.95029100  0.70434300  0.23165700  1
  O  O74  1  0.98275700  0.44592400  0.32935500  1
  O  O75  1  0.99020500  0.94621400  0.77175000  1
