# generated using pymatgen
data_Ba15(ZrSe3)14
_symmetry_space_group_name_H-M   'P 1'
_cell_length_a   31.54561879
_cell_length_b   31.54561845
_cell_length_c   31.54561915
_cell_angle_alpha   23.09735895
_cell_angle_beta   23.09736039
_cell_angle_gamma   23.09735957
_symmetry_Int_Tables_number   1
_chemical_formula_structural   Ba15(ZrSe3)14
_chemical_formula_sum   'Ba30 Zr28 Se84'
_cell_volume   4240.44849688
_cell_formula_units_Z   2
loop_
 _symmetry_equiv_pos_site_id
 _symmetry_equiv_pos_as_xyz
  1  'x, y, z'
loop_
 _atom_site_type_symbol
 _atom_site_label
 _atom_site_symmetry_multiplicity
 _atom_site_fract_x
 _atom_site_fract_y
 _atom_site_fract_z
 _atom_site_occupancy
  Ba  Ba0  1  0.71588245  0.35755905  0.07683947  1
  Ba  Ba1  1  0.48365649  0.80765429  0.15677702  1
  Ba  Ba2  1  0.15677702  0.48365649  0.80765429  1
  Ba  Ba3  1  0.51634351  0.19234571  0.84322298  1
  Ba  Ba4  1  0.60851230  0.25000000  0.89148770  1
  Ba  Ba5  1  0.35755905  0.07683947  0.71588245  1
  Ba  Ba6  1  0.14244095  0.78411755  0.42316053  1
  Ba  Ba7  1  0.69234571  0.01634351  0.34322298  1
  Ba  Ba8  1  0.28411755  0.64244095  0.92316053  1
  Ba  Ba9  1  0.19234571  0.84322298  0.51634351  1
  Ba  Ba10  1  0.92316053  0.28411755  0.64244095  1
  Ba  Ba11  1  0.78411755  0.42316053  0.14244095  1
  Ba  Ba12  1  0.34322298  0.69234571  0.01634351  1
  Ba  Ba13  1  0.21588245  0.57683947  0.85755905  1
  Ba  Ba14  1  0.65677702  0.30765429  0.98365649  1
  Ba  Ba15  1  0.80765429  0.15677702  0.48365649  1
  Ba  Ba16  1  0.39148770  0.75000000  0.10851230  1
  Ba  Ba17  1  0.42316053  0.14244095  0.78411755  1
  Ba  Ba18  1  0.07683947  0.71588245  0.35755905  1
  Ba  Ba19  1  0.84322298  0.51634351  0.19234571  1
  Ba  Ba20  1  0.25000000  0.89148770  0.60851230  1
  Ba  Ba21  1  0.57683947  0.85755905  0.21588245  1
  Ba  Ba22  1  0.10851230  0.39148770  0.75000000  1
  Ba  Ba23  1  0.89148770  0.60851230  0.25000000  1
  Ba  Ba24  1  0.85755905  0.21588245  0.57683947  1
  Ba  Ba25  1  0.01634351  0.34322298  0.69234571  1
  Ba  Ba26  1  0.30765429  0.98365649  0.65677702  1
  Ba  Ba27  1  0.98365649  0.65677702  0.30765429  1
  Ba  Ba28  1  0.75000000  0.10851230  0.39148770  1
  Ba  Ba29  1  0.64244095  0.92316053  0.28411755  1
  Zr  Zr30  1  0.13939028  0.13939028  0.13939028  1
  Zr  Zr31  1  0.96641493  0.96641493  0.96641493  1
  Zr  Zr32  1  0.36060972  0.36060972  0.36060972  1
  Zr  Zr33  1  0.17536602  0.17536602  0.17536602  1
  Zr  Zr34  1  0.56798074  0.56798074  0.56798074  1
  Zr  Zr35  1  0.21228741  0.21228741  0.21228741  1
  Zr  Zr36  1  0.39672399  0.39672399  0.39672399  1
  Zr  Zr37  1  0.25000000  0.25000000  0.25000000  1
  Zr  Zr38  1  0.89672399  0.89672399  0.89672399  1
  Zr  Zr39  1  0.82463398  0.82463398  0.82463398  1
  Zr  Zr40  1  0.06798074  0.06798074  0.06798074  1
  Zr  Zr41  1  0.63939028  0.63939028  0.63939028  1
  Zr  Zr42  1  0.78771259  0.78771259  0.78771259  1
  Zr  Zr43  1  0.93201926  0.93201926  0.93201926  1
  Zr  Zr44  1  0.46641493  0.46641493  0.46641493  1
  Zr  Zr45  1  0.32463398  0.32463398  0.32463398  1
  Zr  Zr46  1  0.71228741  0.71228741  0.71228741  1
  Zr  Zr47  1  0.43201926  0.43201926  0.43201926  1
  Zr  Zr48  1  0.67536602  0.67536602  0.67536602  1
  Zr  Zr49  1  0.10327601  0.10327601  0.10327601  1
  Zr  Zr50  1  0.28771259  0.28771259  0.28771259  1
  Zr  Zr51  1  0.53358507  0.53358507  0.53358507  1
  Zr  Zr52  1  0.03358507  0.03358507  0.03358507  1
  Zr  Zr53  1  0.00000000  0.00000000  0.00000000  1
  Zr  Zr54  1  0.50000000  0.50000000  0.50000000  1
  Zr  Zr55  1  0.86060972  0.86060972  0.86060972  1
  Zr  Zr56  1  0.60327601  0.60327601  0.60327601  1
  Zr  Zr57  1  0.75000000  0.75000000  0.75000000  1
  Se  Se58  1  0.54575121  0.20321139  0.38833225  1
  Se  Se59  1  0.03477281  0.23508546  0.88341700  1
  Se  Se60  1  0.07919561  0.38250699  0.34577066  1
  Se  Se61  1  0.86250780  0.68966673  0.52722142  1
  Se  Se62  1  0.38833225  0.54575121  0.20321139  1
  Se  Se63  1  0.88341700  0.03477281  0.23508546  1
  Se  Se64  1  0.66078754  0.48025317  0.30809402  1
  Se  Se65  1  0.61166775  0.45424879  0.79678861  1
  Se  Se66  1  0.83921246  0.19190598  0.01974683  1
  Se  Se67  1  0.38250699  0.34577066  0.07919561  1
  Se  Se68  1  0.11166775  0.29678861  0.95424879  1
  Se  Se69  1  0.16078754  0.80809402  0.98025317  1
  Se  Se70  1  0.23708119  0.58321696  0.42303352  1
  Se  Se71  1  0.61658300  0.26491454  0.46522719  1
  Se  Se72  1  0.51974683  0.69190598  0.33921246  1
  Se  Se73  1  0.20321139  0.38833225  0.54575121  1
  Se  Se74  1  0.58321696  0.42303352  0.23708119  1
  Se  Se75  1  0.00429915  0.66460930  0.86106206  1
  Se  Se76  1  0.69190598  0.33921246  0.51974683  1
  Se  Se77  1  0.68966673  0.52722142  0.86250780  1
  Se  Se78  1  0.42080439  0.15422934  0.11749301  1
  Se  Se79  1  0.73508546  0.53477281  0.38341700  1
  Se  Se80  1  0.49570085  0.63893794  0.83539070  1
  Se  Se81  1  0.34577066  0.07919561  0.38250699  1
  Se  Se82  1  0.91678304  0.26291881  0.07696648  1
  Se  Se83  1  0.11749301  0.42080439  0.15422934  1
  Se  Se84  1  0.48025317  0.30809402  0.66078754  1
  Se  Se85  1  0.29678861  0.95424879  0.11166775  1
  Se  Se86  1  0.11658300  0.96522719  0.76491454  1
  Se  Se87  1  0.61749301  0.65422934  0.92080439  1
  Se  Se88  1  0.63749220  0.97277858  0.81033327  1
  Se  Se89  1  0.19190598  0.01974683  0.83921246  1
  Se  Se90  1  0.46522719  0.61658300  0.26491454  1
  Se  Se91  1  0.23508546  0.88341700  0.03477281  1
  Se  Se92  1  0.33921246  0.51974683  0.69190598  1
  Se  Se93  1  0.18966673  0.36250780  0.02722142  1
  Se  Se94  1  0.96522719  0.76491454  0.11658300  1
  Se  Se95  1  0.80809402  0.98025317  0.16078754  1
  Se  Se96  1  0.36106206  0.16460930  0.50429915  1
  Se  Se97  1  0.13893794  0.99570085  0.33539070  1
  Se  Se98  1  0.66460930  0.86106206  0.00429915  1
  Se  Se99  1  0.53477281  0.38341700  0.73508546  1
  Se  Se100  1  0.02722142  0.18966673  0.36250780  1
  Se  Se101  1  0.92303352  0.08321696  0.73708119  1
  Se  Se102  1  0.42303352  0.23708119  0.58321696  1
  Se  Se103  1  0.95424879  0.11166775  0.29678861  1
  Se  Se104  1  0.47277858  0.13749220  0.31033327  1
  Se  Se105  1  0.07696648  0.91678304  0.26291881  1
  Se  Se106  1  0.63893794  0.83539070  0.49570085  1
  Se  Se107  1  0.01974683  0.83921246  0.19190598  1
  Se  Se108  1  0.88833225  0.70321139  0.04575121  1
  Se  Se109  1  0.57696648  0.76291881  0.41678304  1
  Se  Se110  1  0.50429915  0.36106206  0.16460930  1
  Se  Se111  1  0.92080439  0.61749301  0.65422934  1
  Se  Se112  1  0.76291881  0.41678304  0.57696648  1
  Se  Se113  1  0.26291881  0.07696648  0.91678304  1
  Se  Se114  1  0.65422934  0.92080439  0.61749301  1
  Se  Se115  1  0.73708119  0.92303352  0.08321696  1
  Se  Se116  1  0.04575121  0.88833225  0.70321139  1
  Se  Se117  1  0.16460930  0.50429915  0.36106206  1
  Se  Se118  1  0.41678304  0.57696648  0.76291881  1
  Se  Se119  1  0.15422934  0.11749301  0.42080439  1
  Se  Se120  1  0.83539070  0.49570085  0.63893794  1
  Se  Se121  1  0.36250780  0.02722142  0.18966673  1
  Se  Se122  1  0.79678861  0.61166775  0.45424879  1
  Se  Se123  1  0.31033327  0.47277858  0.13749220  1
  Se  Se124  1  0.57919561  0.84577066  0.88250699  1
  Se  Se125  1  0.81033327  0.63749220  0.97277858  1
  Se  Se126  1  0.70321139  0.04575121  0.88833225  1
  Se  Se127  1  0.97277858  0.81033327  0.63749220  1
  Se  Se128  1  0.08321696  0.73708119  0.92303352  1
  Se  Se129  1  0.52722142  0.86250780  0.68966673  1
  Se  Se130  1  0.38341700  0.73508546  0.53477281  1
  Se  Se131  1  0.33539070  0.13893794  0.99570085  1
  Se  Se132  1  0.84577066  0.88250699  0.57919561  1
  Se  Se133  1  0.13749220  0.31033327  0.47277858  1
  Se  Se134  1  0.26491454  0.46522719  0.61658300  1
  Se  Se135  1  0.76491454  0.11658300  0.96522719  1
  Se  Se136  1  0.86106206  0.00429915  0.66460930  1
  Se  Se137  1  0.45424879  0.79678861  0.61166775  1
  Se  Se138  1  0.99570085  0.33539070  0.13893794  1
  Se  Se139  1  0.30809402  0.66078754  0.48025317  1
  Se  Se140  1  0.88250699  0.57919561  0.84577066  1
  Se  Se141  1  0.98025317  0.16078754  0.80809402  1
