# generated using pymatgen
data_ScP3(HO2)6
_symmetry_space_group_name_H-M   'P 1'
_cell_length_a   10.09437034
_cell_length_b   10.09437034
_cell_length_c   10.09436994
_cell_angle_alpha   48.64911032
_cell_angle_beta   48.64911032
_cell_angle_gamma   48.64911281
_symmetry_Int_Tables_number   1
_chemical_formula_structural   ScP3(HO2)6
_chemical_formula_sum   'Sc2 P6 H12 O24'
_cell_volume   531.77850560
_cell_formula_units_Z   2
loop_
 _symmetry_equiv_pos_site_id
 _symmetry_equiv_pos_as_xyz
  1  'x, y, z'
loop_
 _atom_site_type_symbol
 _atom_site_label
 _atom_site_symmetry_multiplicity
 _atom_site_fract_x
 _atom_site_fract_y
 _atom_site_fract_z
 _atom_site_occupancy
  Sc  Sc0  1  0.91854500  0.91854500  0.91854500  1
  Sc  Sc1  1  0.41854500  0.41854500  0.41854500  1
  P  P2  1  0.82173000  0.51860600  0.16605200  1
  P  P3  1  0.16605200  0.82173000  0.51860600  1
  P  P4  1  0.51860600  0.16605200  0.82173000  1
  P  P5  1  0.66605200  0.01860600  0.32173000  1
  P  P6  1  0.32173000  0.66605200  0.01860600  1
  P  P7  1  0.01860600  0.32173000  0.66605200  1
  H  H8  1  0.92131500  0.22663300  0.37848600  1
  H  H9  1  0.37848600  0.92131500  0.22663300  1
  H  H10  1  0.22663300  0.37848600  0.92131500  1
  H  H11  1  0.87848600  0.72663300  0.42131500  1
  H  H12  1  0.42131500  0.87848600  0.72663300  1
  H  H13  1  0.72663300  0.42131500  0.87848600  1
  H  H14  1  0.98538400  0.43321600  0.40753200  1
  H  H15  1  0.40753200  0.98538400  0.43321600  1
  H  H16  1  0.43321600  0.40753200  0.98538400  1
  H  H17  1  0.90753200  0.93321600  0.48538400  1
  H  H18  1  0.48538400  0.90753200  0.93321600  1
  H  H19  1  0.93321600  0.48538400  0.90753200  1
  O  O20  1  0.81383400  0.70367000  0.10785300  1
  O  O21  1  0.10785300  0.81383400  0.70367000  1
  O  O22  1  0.70367000  0.10785300  0.81383400  1
  O  O23  1  0.60785300  0.20367000  0.31383400  1
  O  O24  1  0.31383400  0.60785300  0.20367000  1
  O  O25  1  0.20367000  0.31383400  0.60785300  1
  O  O26  1  0.63372600  0.52419000  0.23407200  1
  O  O27  1  0.23407200  0.63372600  0.52419000  1
  O  O28  1  0.52419000  0.23407200  0.63372600  1
  O  O29  1  0.73407200  0.02419000  0.13372600  1
  O  O30  1  0.13372600  0.73407200  0.02419000  1
  O  O31  1  0.02419000  0.13372600  0.73407200  1
  O  O32  1  0.91687000  0.35698700  0.31932200  1
  O  O33  1  0.31932200  0.91687000  0.35698700  1
  O  O34  1  0.35698700  0.31932200  0.91687000  1
  O  O35  1  0.81932200  0.85698700  0.41687000  1
  O  O36  1  0.41687000  0.81932200  0.85698700  1
  O  O37  1  0.85698700  0.41687000  0.81932200  1
  O  O38  1  0.98186200  0.44868400  0.99013400  1
  O  O39  1  0.99013400  0.98186200  0.44868400  1
  O  O40  1  0.44868400  0.99013400  0.98186200  1
  O  O41  1  0.49013400  0.94868400  0.48186200  1
  O  O42  1  0.48186200  0.49013400  0.94868400  1
  O  O43  1  0.94868400  0.48186200  0.49013400  1
