# generated using pymatgen
data_LiSiNO
_symmetry_space_group_name_H-M   'P 1'
_cell_length_a   4.78148100
_cell_length_b   5.23137000
_cell_length_c   6.42681700
_cell_angle_alpha   90.00000000
_cell_angle_beta   90.00000000
_cell_angle_gamma   90.00000000
_symmetry_Int_Tables_number   1
_chemical_formula_structural   LiSiNO
_chemical_formula_sum   'Li4 Si4 N4 O4'
_cell_volume   160.75844835
_cell_formula_units_Z   4
loop_
 _symmetry_equiv_pos_site_id
 _symmetry_equiv_pos_as_xyz
  1  'x, y, z'
loop_
 _atom_site_type_symbol
 _atom_site_label
 _atom_site_symmetry_multiplicity
 _atom_site_fract_x
 _atom_site_fract_y
 _atom_site_fract_z
 _atom_site_occupancy
  Li  Li0  1  0.99913400  0.59715300  0.38571900  1
  Li  Li1  1  0.49913400  0.40284700  0.61428100  1
  Li  Li2  1  0.49913400  0.90284700  0.38571900  1
  Li  Li3  1  0.99913400  0.09715300  0.61428100  1
  Si  Si4  1  0.51173900  0.41905000  0.12006600  1
  Si  Si5  1  0.51173900  0.91905000  0.87993400  1
  Si  Si6  1  0.01173900  0.08095000  0.12006600  1
  Si  Si7  1  0.01173900  0.58095000  0.87993400  1
  N  N8  1  0.14789000  0.39063400  0.08443600  1
  N  N9  1  0.64789000  0.60936600  0.91556400  1
  N  N10  1  0.64789000  0.10936600  0.08443600  1
  N  N11  1  0.14789000  0.89063400  0.91556400  1
  O  O12  1  0.59123600  0.03844600  0.65559900  1
  O  O13  1  0.09123600  0.46155400  0.65559900  1
  O  O14  1  0.09123600  0.96155400  0.34440100  1
  O  O15  1  0.59123600  0.53844600  0.34440100  1
