# generated using pymatgen
data_Na3In(PO4)2
_symmetry_space_group_name_H-M   'P 1'
_cell_length_a   5.18679998
_cell_length_b   5.18679998
_cell_length_c   7.13096757
_cell_angle_alpha   89.77990945
_cell_angle_beta   89.77990945
_cell_angle_gamma   64.51204928
_symmetry_Int_Tables_number   1
_chemical_formula_structural   Na3In(PO4)2
_chemical_formula_sum   'Na3 In1 P2 O8'
_cell_volume   173.17084751
_cell_formula_units_Z   1
loop_
 _symmetry_equiv_pos_site_id
 _symmetry_equiv_pos_as_xyz
  1  'x, y, z'
loop_
 _atom_site_type_symbol
 _atom_site_label
 _atom_site_symmetry_multiplicity
 _atom_site_fract_x
 _atom_site_fract_y
 _atom_site_fract_z
 _atom_site_occupancy
  Na  Na0  1  0.68784600  0.68784600  0.28445900  1
  Na  Na1  1  0.00000000  0.00000000  0.50000000  1
  Na  Na2  1  0.31215400  0.31215400  0.71554100  1
  In  In3  1  0.00000000  0.00000000  0.00000000  1
  P  P4  1  0.65437000  0.65437000  0.77714200  1
  P  P5  1  0.34563000  0.34563000  0.22285800  1
  O  O6  1  0.25032800  0.25032800  0.40161100  1
  O  O7  1  0.74967200  0.74967200  0.59838900  1
  O  O8  1  0.22392000  0.68214600  0.22074100  1
  O  O9  1  0.31785400  0.77608000  0.77925900  1
  O  O10  1  0.77608000  0.31785400  0.77925900  1
  O  O11  1  0.68214600  0.22392000  0.22074100  1
  O  O12  1  0.24402300  0.24402300  0.04531100  1
  O  O13  1  0.75597700  0.75597700  0.95468900  1
