# generated using pymatgen
data_SrLaNiRuO6
_symmetry_space_group_name_H-M   'P 1'
_cell_length_a   5.67450500
_cell_length_b   5.58916400
_cell_length_c   9.68074018
_cell_angle_alpha   54.75759224
_cell_angle_beta   90.00000000
_cell_angle_gamma   90.00000000
_symmetry_Int_Tables_number   1
_chemical_formula_structural   SrLaNiRuO6
_chemical_formula_sum   'Sr2 La2 Ni2 Ru2 O12'
_cell_volume   250.75842939
_cell_formula_units_Z   2
loop_
 _symmetry_equiv_pos_site_id
 _symmetry_equiv_pos_as_xyz
  1  'x, y, z'
loop_
 _atom_site_type_symbol
 _atom_site_label
 _atom_site_symmetry_multiplicity
 _atom_site_fract_x
 _atom_site_fract_y
 _atom_site_fract_z
 _atom_site_occupancy
  Sr  Sr0  1  0.21068900  0.75730200  0.25000800  1
  Sr  Sr1  1  0.78931100  0.75730200  0.75000800  1
  La  La2  1  0.70265700  0.23763100  0.25188000  1
  La  La3  1  0.29734300  0.23763100  0.75188000  1
  Ni  Ni4  1  0.24789900  0.99932400  0.50027300  1
  Ni  Ni5  1  0.75210100  0.99932400  0.00027300  1
  Ru  Ru6  1  0.24757400  0.49977400  0.00010200  1
  Ru  Ru7  1  0.75242600  0.49977400  0.50010200  1
  O  O8  1  0.23395700  0.65930000  0.75579600  1
  O  O9  1  0.04766200  0.82745800  0.95785000  1
  O  O10  1  0.03642000  0.25782900  0.54348900  1
  O  O11  1  0.96358000  0.25782900  0.04348900  1
  O  O12  1  0.95233800  0.82745800  0.45785000  1
  O  O13  1  0.76604300  0.65930000  0.25579600  1
  O  O14  1  0.72939200  0.32368600  0.74426000  1
  O  O15  1  0.53938100  0.18688200  0.53625300  1
  O  O16  1  0.52344500  0.75081400  0.96008800  1
  O  O17  1  0.47655500  0.75081400  0.46008800  1
  O  O18  1  0.46061900  0.18688200  0.03625300  1
  O  O19  1  0.27060800  0.32368600  0.24426000  1
