# generated using pymatgen
data_KAlSiO4
_symmetry_space_group_name_H-M   'P 1'
_cell_length_a   18.30003594
_cell_length_b   18.30003594
_cell_length_c   8.55255700
_cell_angle_alpha   90.00000000
_cell_angle_beta   90.00000000
_cell_angle_gamma   119.99999979
_symmetry_Int_Tables_number   1
_chemical_formula_structural   KAlSiO4
_chemical_formula_sum   'K24 Al24 Si24 O96'
_cell_volume   2480.45010410
_cell_formula_units_Z   24
loop_
 _symmetry_equiv_pos_site_id
 _symmetry_equiv_pos_as_xyz
  1  'x, y, z'
loop_
 _atom_site_type_symbol
 _atom_site_label
 _atom_site_symmetry_multiplicity
 _atom_site_fract_x
 _atom_site_fract_y
 _atom_site_fract_z
 _atom_site_occupancy
  K  K0  1  0.47283300  0.47749800  0.99175400  1
  K  K1  1  0.00000000  0.00000000  0.48631300  1
  K  K2  1  0.66751200  0.86268000  0.99559000  1
  K  K3  1  0.33248800  0.13732000  0.49559000  1
  K  K4  1  0.14600100  0.33350300  0.49457900  1
  K  K5  1  0.86268000  0.19516900  0.49559000  1
  K  K6  1  0.66666700  0.33333300  0.50516300  1
  K  K7  1  0.52716700  0.52250200  0.49175400  1
  K  K8  1  0.33333300  0.66666700  0.00516300  1
  K  K9  1  0.19516900  0.33248800  0.99559000  1
  K  K10  1  0.85399900  0.66649700  0.99457900  1
  K  K11  1  0.33333300  0.66666700  0.50469500  1
  K  K12  1  0.00000000  0.00000000  0.98631300  1
  K  K13  1  0.99533500  0.47283300  0.49175400  1
  K  K14  1  0.13732000  0.80483100  0.99559000  1
  K  K15  1  0.80483100  0.66751200  0.49559000  1
  K  K16  1  0.52250200  0.99533500  0.99175400  1
  K  K17  1  0.00466500  0.52716700  0.99175400  1
  K  K18  1  0.18750200  0.85399900  0.49457900  1
  K  K19  1  0.47749800  0.00466500  0.49175400  1
  K  K20  1  0.66649700  0.81249800  0.49457900  1
  K  K21  1  0.66666700  0.33333300  0.00469500  1
  K  K22  1  0.81249800  0.14600100  0.99457900  1
  K  K23  1  0.33350300  0.18750200  0.99457900  1
  Al  Al24  1  0.49153700  0.83612400  0.29600900  1
  Al  Al25  1  0.32387700  0.82529400  0.79597400  1
  Al  Al26  1  0.00788800  0.16978100  0.81129300  1
  Al  Al27  1  0.16387600  0.65541300  0.29600900  1
  Al  Al28  1  0.99980200  0.33173700  0.18385200  1
  Al  Al29  1  0.16978100  0.16189200  0.31129300  1
  Al  Al30  1  0.16189200  0.99211200  0.81129300  1
  Al  Al31  1  0.00019800  0.66826300  0.68385200  1
  Al  Al32  1  0.66806500  0.99980200  0.68385200  1
  Al  Al33  1  0.34458700  0.50846300  0.29600900  1
  Al  Al34  1  0.83021900  0.83810800  0.81129300  1
  Al  Al35  1  0.49858300  0.32387700  0.29597400  1
  Al  Al36  1  0.33173700  0.33193500  0.68385200  1
  Al  Al37  1  0.99211200  0.83021900  0.31129300  1
  Al  Al38  1  0.66826300  0.66806500  0.18385200  1
  Al  Al39  1  0.67612300  0.17470600  0.29597400  1
  Al  Al40  1  0.82529400  0.50141700  0.29597400  1
  Al  Al41  1  0.83612400  0.34458700  0.79600900  1
  Al  Al42  1  0.33193500  0.00019800  0.18385200  1
  Al  Al43  1  0.83810800  0.00788800  0.31129300  1
  Al  Al44  1  0.50141700  0.67612300  0.79597400  1
  Al  Al45  1  0.50846300  0.16387600  0.79600900  1
  Al  Al46  1  0.17470600  0.49858300  0.79597400  1
  Al  Al47  1  0.65541300  0.49153700  0.79600900  1
  Si  Si48  1  0.33439800  0.33487200  0.29368600  1
  Si  Si49  1  0.32229100  0.82634200  0.17796100  1
  Si  Si50  1  0.50577800  0.16367000  0.17799600  1
  Si  Si51  1  0.82634200  0.50405100  0.67796100  1
  Si  Si52  1  0.99128800  0.83180700  0.69437800  1
  Si  Si53  1  0.83180700  0.84051900  0.19437800  1
  Si  Si54  1  0.17365800  0.49594900  0.17796100  1
  Si  Si55  1  0.65789100  0.49422200  0.17799600  1
  Si  Si56  1  0.66560200  0.66512800  0.79368600  1
  Si  Si57  1  0.16819300  0.15948100  0.69437800  1
  Si  Si58  1  0.84051900  0.00871200  0.69437800  1
  Si  Si59  1  0.50405100  0.67770900  0.17796100  1
  Si  Si60  1  0.00047400  0.66560200  0.29368600  1
  Si  Si61  1  0.33487200  0.00047400  0.79368600  1
  Si  Si62  1  0.99952600  0.33439800  0.79368600  1
  Si  Si63  1  0.83633000  0.34210900  0.17799600  1
  Si  Si64  1  0.49422200  0.83633000  0.67799600  1
  Si  Si65  1  0.00871200  0.16819300  0.19437800  1
  Si  Si66  1  0.34210900  0.50577800  0.67799600  1
  Si  Si67  1  0.49594900  0.32229100  0.67796100  1
  Si  Si68  1  0.66512800  0.99952600  0.29368600  1
  Si  Si69  1  0.16367000  0.65789100  0.67799600  1
  Si  Si70  1  0.67770900  0.17365800  0.67796100  1
  Si  Si71  1  0.15948100  0.99128800  0.19437800  1
  O  O72  1  0.03752700  0.18412200  0.01016300  1
  O  O73  1  0.09335700  0.68783800  0.22494700  1
  O  O74  1  0.35915200  0.92997200  0.73317000  1
  O  O75  1  0.97619000  0.73508800  0.22504200  1
  O  O76  1  0.93114700  0.86723600  0.21754100  1
  O  O77  1  0.33013200  0.33499900  0.48195100  1
  O  O78  1  0.24119700  0.47479500  0.68495800  1
  O  O79  1  0.39572700  0.59519800  0.77294400  1
  O  O80  1  0.43304900  0.07436100  0.25665900  1
  O  O81  1  0.81587800  0.85340500  0.01016300  1
  O  O82  1  0.40480200  0.80052900  0.77294400  1
  O  O83  1  0.73661800  0.46735400  0.77160400  1
  O  O84  1  0.18412200  0.14659500  0.51016300  1
  O  O85  1  0.73508800  0.75889800  0.72504200  1
  O  O86  1  0.60427300  0.40480200  0.27294400  1
  O  O87  1  0.99513300  0.33013200  0.98195100  1
  O  O88  1  0.66986800  0.66500100  0.98195100  1
  O  O89  1  0.19026300  0.48341500  0.99389300  1
  O  O90  1  0.13276400  0.06391100  0.21754100  1
  O  O91  1  0.89796200  0.59503800  0.75272300  1
  O  O92  1  0.97162400  0.22950400  0.25113700  1
  O  O93  1  0.06391100  0.93114700  0.71754100  1
  O  O94  1  0.85079800  0.37314400  0.99509000  1
  O  O95  1  0.86723600  0.93608900  0.71754100  1
  O  O96  1  0.76640200  0.24119700  0.18495800  1
  O  O97  1  0.22950400  0.25788000  0.75113700  1
  O  O98  1  0.26926400  0.73661800  0.27160400  1
  O  O99  1  0.25788000  0.02837600  0.25113700  1
  O  O100  1  0.07436100  0.64131200  0.75665900  1
  O  O101  1  0.42918000  0.35915200  0.23317000  1
  O  O102  1  0.14659500  0.96247300  0.01016300  1
  O  O103  1  0.96247300  0.81587800  0.51016300  1
  O  O104  1  0.35868800  0.43304900  0.75665900  1
  O  O105  1  0.92997200  0.57082000  0.23317000  1
  O  O106  1  0.46735400  0.73073600  0.27160400  1
  O  O107  1  0.59503800  0.69707600  0.25272300  1
  O  O108  1  0.24110200  0.97619000  0.72504200  1
  O  O109  1  0.52520500  0.76640200  0.68495800  1
  O  O110  1  0.47479500  0.23359800  0.18495800  1
  O  O111  1  0.40496200  0.30292400  0.75272300  1
  O  O112  1  0.26491200  0.24110200  0.22504200  1
  O  O113  1  0.30292400  0.89796200  0.25272300  1
  O  O114  1  0.31216200  0.40551900  0.22494700  1
  O  O115  1  0.90664300  0.31216200  0.72494700  1
  O  O116  1  0.57082000  0.64084800  0.73317000  1
  O  O117  1  0.06885300  0.13276400  0.71754100  1
  O  O118  1  0.19947100  0.60427300  0.77294400  1
  O  O119  1  0.37314400  0.52234600  0.49509000  1
  O  O120  1  0.09953000  0.90759800  0.29999400  1
  O  O121  1  0.14061600  0.56409600  0.18912300  1
  O  O122  1  0.09240200  0.19193200  0.29999400  1
  O  O123  1  0.73073600  0.26338200  0.77160400  1
  O  O124  1  0.52234600  0.14920200  0.99509000  1
  O  O125  1  0.02381000  0.26491200  0.72504200  1
  O  O126  1  0.80052900  0.39572700  0.27294400  1
  O  O127  1  0.92563900  0.35868800  0.25665900  1
  O  O128  1  0.07002800  0.42918000  0.73317000  1
  O  O129  1  0.75889800  0.02381000  0.22504200  1
  O  O130  1  0.29315200  0.80973700  0.99389300  1
  O  O131  1  0.48341500  0.29315200  0.49389300  1
  O  O132  1  0.47765400  0.85079800  0.49509000  1
  O  O133  1  0.93608900  0.06885300  0.21754100  1
  O  O134  1  0.85938400  0.43590400  0.68912300  1
  O  O135  1  0.00486700  0.66986800  0.48195100  1
  O  O136  1  0.51658500  0.70684800  0.99389300  1
  O  O137  1  0.57652000  0.14061600  0.68912300  1
  O  O138  1  0.14920200  0.62685600  0.49509000  1
  O  O139  1  0.10203800  0.40496200  0.25272300  1
  O  O140  1  0.70684800  0.19026300  0.49389300  1
  O  O141  1  0.43590400  0.57652000  0.18912300  1
  O  O142  1  0.66500100  0.99513300  0.48195100  1
  O  O143  1  0.90047000  0.09240200  0.79999400  1
  O  O144  1  0.80973700  0.51658500  0.49389300  1
  O  O145  1  0.68783800  0.59448100  0.72494700  1
  O  O146  1  0.85340500  0.03752700  0.51016300  1
  O  O147  1  0.19193200  0.09953000  0.79999400  1
  O  O148  1  0.69707600  0.10203800  0.75272300  1
  O  O149  1  0.33499900  0.00486700  0.98195100  1
  O  O150  1  0.02837600  0.77049600  0.75113700  1
  O  O151  1  0.75880300  0.52520500  0.18495800  1
  O  O152  1  0.64131200  0.56695100  0.25665900  1
  O  O153  1  0.90759800  0.80806800  0.79999400  1
  O  O154  1  0.42348000  0.85938400  0.18912300  1
  O  O155  1  0.74212000  0.97162400  0.75113700  1
  O  O156  1  0.56409600  0.42348000  0.68912300  1
  O  O157  1  0.23359800  0.75880300  0.68495800  1
  O  O158  1  0.77049600  0.74212000  0.25113700  1
  O  O159  1  0.56695100  0.92563900  0.75665900  1
  O  O160  1  0.80806800  0.90047000  0.29999400  1
  O  O161  1  0.59448100  0.90664300  0.22494700  1
  O  O162  1  0.59519800  0.19947100  0.27294400  1
  O  O163  1  0.62685600  0.47765400  0.99509000  1
  O  O164  1  0.53264600  0.26926400  0.77160400  1
  O  O165  1  0.26338200  0.53264600  0.27160400  1
  O  O166  1  0.40551900  0.09335700  0.72494700  1
  O  O167  1  0.64084800  0.07002800  0.23317000  1
