# generated using pymatgen
data_Eu3Ga2
_symmetry_space_group_name_H-M   'P 1'
_cell_length_a   5.98148284
_cell_length_b   5.98148284
_cell_length_c   8.53683368
_cell_angle_alpha   76.85355195
_cell_angle_beta   76.85355195
_cell_angle_gamma   88.91789889
_symmetry_Int_Tables_number   1
_chemical_formula_structural   Eu3Ga2
_chemical_formula_sum   'Eu6 Ga4'
_cell_volume   289.45843433
_cell_formula_units_Z   2
loop_
 _symmetry_equiv_pos_site_id
 _symmetry_equiv_pos_as_xyz
  1  'x, y, z'
loop_
 _atom_site_type_symbol
 _atom_site_label
 _atom_site_symmetry_multiplicity
 _atom_site_fract_x
 _atom_site_fract_y
 _atom_site_fract_z
 _atom_site_occupancy
  Eu  Eu0  1  0.74414500  0.66404300  0.03041700  1
  Eu  Eu1  1  0.33595700  0.25585500  0.46958300  1
  Eu  Eu2  1  0.25585500  0.33595700  0.96958300  1
  Eu  Eu3  1  0.17525500  0.82474500  0.25000000  1
  Eu  Eu4  1  0.82474500  0.17525500  0.75000000  1
  Eu  Eu5  1  0.66404300  0.74414500  0.53041700  1
  Ga  Ga6  1  0.30616100  0.88365600  0.84113700  1
  Ga  Ga7  1  0.11634400  0.69383900  0.65886300  1
  Ga  Ga8  1  0.88365600  0.30616100  0.34113700  1
  Ga  Ga9  1  0.69383900  0.11634400  0.15886300  1
