# generated using pymatgen
data_TeAs(Se2F3)2
_symmetry_space_group_name_H-M   'P 1'
_cell_length_a   13.38736900
_cell_length_b   16.54070400
_cell_length_c   19.40820500
_cell_angle_alpha   90.00000000
_cell_angle_beta   90.00000000
_cell_angle_gamma   90.00000000
_symmetry_Int_Tables_number   1
_chemical_formula_structural   TeAs(Se2F3)2
_chemical_formula_sum   'Te16 As16 Se64 F96'
_cell_volume   4297.68514112
_cell_formula_units_Z   16
loop_
 _symmetry_equiv_pos_site_id
 _symmetry_equiv_pos_as_xyz
  1  'x, y, z'
loop_
 _atom_site_type_symbol
 _atom_site_label
 _atom_site_symmetry_multiplicity
 _atom_site_fract_x
 _atom_site_fract_y
 _atom_site_fract_z
 _atom_site_occupancy
  Te  Te0  1  0.21763700  0.86065400  0.70208700  1
  Te  Te1  1  0.27970600  0.25530000  0.03363500  1
  Te  Te2  1  0.71763700  0.63934600  0.70208700  1
  Te  Te3  1  0.77970600  0.75530000  0.46636500  1
  Te  Te4  1  0.28236300  0.63934600  0.20208700  1
  Te  Te5  1  0.22029400  0.24470000  0.53363500  1
  Te  Te6  1  0.77970600  0.24470000  0.03363500  1
  Te  Te7  1  0.21763700  0.13934600  0.79791300  1
  Te  Te8  1  0.28236300  0.36065400  0.29791300  1
  Te  Te9  1  0.27970600  0.74470000  0.46636500  1
  Te  Te10  1  0.71763700  0.36065400  0.79791300  1
  Te  Te11  1  0.22029400  0.75530000  0.96636500  1
  Te  Te12  1  0.72029400  0.74470000  0.96636500  1
  Te  Te13  1  0.78236300  0.13934600  0.29791300  1
  Te  Te14  1  0.78236300  0.86065400  0.20208700  1
  Te  Te15  1  0.72029400  0.25530000  0.53363500  1
  As  As16  1  0.47787800  0.40384800  0.64588000  1
  As  As17  1  0.93435400  0.41409400  0.63789300  1
  As  As18  1  0.97787800  0.90384800  0.85412000  1
  As  As19  1  0.06564600  0.41409400  0.13789300  1
  As  As20  1  0.97787800  0.09615200  0.64588000  1
  As  As21  1  0.43435400  0.91409500  0.86210700  1
  As  As22  1  0.56564600  0.08590600  0.13789300  1
  As  As23  1  0.43435400  0.08590600  0.63789300  1
  As  As24  1  0.93435400  0.58590500  0.86210700  1
  As  As25  1  0.06564600  0.58590500  0.36210700  1
  As  As26  1  0.56564600  0.91409500  0.36210700  1
  As  As27  1  0.02212200  0.09615200  0.14588000  1
  As  As28  1  0.02212200  0.90384800  0.35412000  1
  As  As29  1  0.52212200  0.59615200  0.35412000  1
  As  As30  1  0.52212200  0.40384800  0.14588000  1
  As  As31  1  0.47787800  0.59615200  0.85412000  1
  Se  Se32  1  0.11329800  0.23644400  0.96340200  1
  Se  Se33  1  0.61864600  0.20001400  0.35300800  1
  Se  Se34  1  0.36518600  0.22149700  0.26535600  1
  Se  Se35  1  0.36925300  0.39094500  0.41572700  1
  Se  Se36  1  0.34033500  0.38732600  0.97139300  1
  Se  Se37  1  0.75101900  0.87777800  0.70851000  1
  Se  Se38  1  0.11864600  0.29998600  0.35300800  1
  Se  Se39  1  0.74898100  0.37777800  0.29149000  1
  Se  Se40  1  0.84033500  0.88732600  0.52860700  1
  Se  Se41  1  0.74898100  0.62222200  0.20851000  1
  Se  Se42  1  0.15966500  0.11267400  0.47139300  1
  Se  Se43  1  0.11963800  0.35354200  0.46253200  1
  Se  Se44  1  0.25101900  0.62222200  0.70851000  1
  Se  Se45  1  0.13074700  0.89094500  0.58427300  1
  Se  Se46  1  0.11329800  0.76355600  0.53659800  1
  Se  Se47  1  0.63074700  0.60905500  0.58427300  1
  Se  Se48  1  0.88036200  0.64645800  0.53746800  1
  Se  Se49  1  0.70588000  0.07527100  0.90334700  1
  Se  Se50  1  0.38135400  0.79998600  0.64699200  1
  Se  Se51  1  0.13481400  0.72149700  0.73464400  1
  Se  Se52  1  0.11963800  0.64645800  0.03746800  1
  Se  Se53  1  0.63481400  0.22149700  0.76535600  1
  Se  Se54  1  0.13481400  0.27850300  0.76535600  1
  Se  Se55  1  0.63481400  0.77850300  0.73464400  1
  Se  Se56  1  0.88670200  0.23644400  0.46340200  1
  Se  Se57  1  0.20588000  0.57527100  0.59665300  1
  Se  Se58  1  0.61963800  0.14645800  0.46253200  1
  Se  Se59  1  0.34033500  0.61267400  0.52860700  1
  Se  Se60  1  0.86518600  0.27850300  0.26535600  1
  Se  Se61  1  0.11864600  0.70001400  0.14699200  1
  Se  Se62  1  0.86925300  0.10905500  0.41572700  1
  Se  Se63  1  0.20588000  0.42472900  0.90334700  1
  Se  Se64  1  0.88135400  0.70001400  0.64699200  1
  Se  Se65  1  0.61329800  0.73644400  0.53659800  1
  Se  Se66  1  0.88135400  0.29998600  0.85300800  1
  Se  Se67  1  0.38036200  0.14645800  0.96253200  1
  Se  Se68  1  0.75101900  0.12222200  0.79149000  1
  Se  Se69  1  0.38670200  0.26355600  0.46340200  1
  Se  Se70  1  0.24898100  0.87777800  0.20851000  1
  Se  Se71  1  0.61963800  0.85354200  0.03746800  1
  Se  Se72  1  0.79412000  0.57527100  0.09665300  1
  Se  Se73  1  0.38670200  0.73644400  0.03659800  1
  Se  Se74  1  0.84033500  0.11267400  0.97139300  1
  Se  Se75  1  0.38036200  0.85354200  0.53746800  1
  Se  Se76  1  0.79412000  0.42472900  0.40334700  1
  Se  Se77  1  0.61864600  0.79998600  0.14699200  1
  Se  Se78  1  0.15966500  0.88732600  0.02860700  1
  Se  Se79  1  0.65966500  0.61267400  0.02860700  1
  Se  Se80  1  0.24898100  0.12222200  0.29149000  1
  Se  Se81  1  0.88670200  0.76355600  0.03659800  1
  Se  Se82  1  0.65966500  0.38732600  0.47139300  1
  Se  Se83  1  0.36518600  0.77850300  0.23464400  1
  Se  Se84  1  0.88036200  0.35354200  0.96253200  1
  Se  Se85  1  0.36925300  0.60905500  0.08427300  1
  Se  Se86  1  0.38135400  0.20001400  0.85300800  1
  Se  Se87  1  0.29412000  0.07527100  0.40334700  1
  Se  Se88  1  0.63074700  0.39094500  0.91572700  1
  Se  Se89  1  0.29412000  0.92472900  0.09665300  1
  Se  Se90  1  0.25101900  0.37777800  0.79149000  1
  Se  Se91  1  0.86518600  0.72149700  0.23464400  1
  Se  Se92  1  0.13074700  0.10905500  0.91572700  1
  Se  Se93  1  0.70588000  0.92472900  0.59665300  1
  Se  Se94  1  0.61329800  0.26355600  0.96340200  1
  Se  Se95  1  0.86925300  0.89094500  0.08427300  1
  F  F96  1  0.54114600  0.31862800  0.61002100  1
  F  F97  1  0.13201300  0.67557500  0.33770300  1
  F  F98  1  0.32719000  0.02721300  0.65991300  1
  F  F99  1  0.13201300  0.32442500  0.16229700  1
  F  F100  1  0.04200700  0.35763500  0.61368300  1
  F  F101  1  0.90381200  0.04834100  0.15865300  1
  F  F102  1  0.04200700  0.64236500  0.88631700  1
  F  F103  1  0.36118500  0.35484100  0.63433600  1
  F  F104  1  0.54200700  0.14236500  0.61368300  1
  F  F105  1  0.45799300  0.14236500  0.11368300  1
  F  F106  1  0.40381200  0.45165900  0.15865300  1
  F  F107  1  0.67281000  0.97278700  0.34008700  1
  F  F108  1  0.95799300  0.35763500  0.11368300  1
  F  F109  1  0.51899400  0.07770900  0.22220800  1
  F  F110  1  0.63201300  0.17557500  0.16229700  1
  F  F111  1  0.09618800  0.04834100  0.65865300  1
  F  F112  1  0.58346300  0.51091800  0.32037800  1
  F  F113  1  0.82719000  0.52721300  0.84008700  1
  F  F114  1  0.01056100  0.14043400  0.22938900  1
  F  F115  1  0.47005400  0.44644200  0.56179300  1
  F  F116  1  0.91653700  0.01091800  0.67962200  1
  F  F117  1  0.63201300  0.82442500  0.33770300  1
  F  F118  1  0.86118500  0.85484100  0.86566400  1
  F  F119  1  0.45799300  0.85763500  0.38631700  1
  F  F120  1  0.09618800  0.95165900  0.84134700  1
  F  F121  1  0.95885400  0.18137200  0.11002100  1
  F  F122  1  0.63881500  0.64515900  0.36566400  1
  F  F123  1  0.48943900  0.64043400  0.77061100  1
  F  F124  1  0.38670100  0.90004900  0.94752500  1
  F  F125  1  0.11329900  0.59995100  0.44752500  1
  F  F126  1  0.45885400  0.31862800  0.11002100  1
  F  F127  1  0.38670100  0.09995100  0.55247500  1
  F  F128  1  0.08346300  0.01091800  0.17962200  1
  F  F129  1  0.86118500  0.14515900  0.63433600  1
  F  F130  1  0.41653700  0.48908200  0.67962200  1
  F  F131  1  0.95885400  0.81862800  0.38997900  1
  F  F132  1  0.99526100  0.50409500  0.61161200  1
  F  F133  1  0.52994600  0.44644200  0.06179300  1
  F  F134  1  0.97005400  0.94644200  0.93820700  1
  F  F135  1  0.48100600  0.07770900  0.72220800  1
  F  F136  1  0.36798700  0.82442500  0.83770300  1
  F  F137  1  0.00473900  0.50409500  0.11161200  1
  F  F138  1  0.13881500  0.85484100  0.36566400  1
  F  F139  1  0.95799300  0.64236500  0.38631700  1
  F  F140  1  0.97005400  0.05355800  0.56179300  1
  F  F141  1  0.59618800  0.54834100  0.84134700  1
  F  F142  1  0.50473900  0.00409500  0.38838800  1
  F  F143  1  0.01056100  0.85956600  0.27061100  1
  F  F144  1  0.32719000  0.97278700  0.84008700  1
  F  F145  1  0.41653700  0.51091800  0.82037800  1
  F  F146  1  0.61329900  0.09995100  0.05247500  1
  F  F147  1  0.98943900  0.14043400  0.72938900  1
  F  F148  1  0.98100600  0.57770900  0.77779200  1
  F  F149  1  0.36798700  0.17557500  0.66229700  1
  F  F150  1  0.01899400  0.42229100  0.22220800  1
  F  F151  1  0.67281000  0.02721300  0.15991300  1
  F  F152  1  0.90381200  0.95165900  0.34134700  1
  F  F153  1  0.86798700  0.32442500  0.66229700  1
  F  F154  1  0.47005400  0.55355800  0.93820700  1
  F  F155  1  0.51056100  0.35956600  0.22938900  1
  F  F156  1  0.88670100  0.40004900  0.55247500  1
  F  F157  1  0.63881500  0.35484100  0.13433600  1
  F  F158  1  0.08346300  0.98908200  0.32037800  1
  F  F159  1  0.59618800  0.45165900  0.65865300  1
  F  F160  1  0.88670100  0.59995100  0.94752500  1
  F  F161  1  0.50473900  0.99590500  0.11161200  1
  F  F162  1  0.54114600  0.68137200  0.88997900  1
  F  F163  1  0.17281000  0.47278700  0.15991300  1
  F  F164  1  0.01899400  0.57770900  0.27779200  1
  F  F165  1  0.45885400  0.68137200  0.38997900  1
  F  F166  1  0.61329900  0.90004900  0.44752500  1
  F  F167  1  0.98100600  0.42229100  0.72220800  1
  F  F168  1  0.99526100  0.49590500  0.88838800  1
  F  F169  1  0.86798700  0.67557500  0.83770300  1
  F  F170  1  0.02994600  0.94644200  0.43820700  1
  F  F171  1  0.82719000  0.47278700  0.65991300  1
  F  F172  1  0.48100600  0.92229100  0.77779200  1
  F  F173  1  0.04114600  0.18137200  0.61002100  1
  F  F174  1  0.11329900  0.40004900  0.05247500  1
  F  F175  1  0.49526100  0.00409500  0.88838800  1
  F  F176  1  0.40381200  0.54834100  0.34134700  1
  F  F177  1  0.13881500  0.14515900  0.13433600  1
  F  F178  1  0.91653700  0.98908200  0.82037800  1
  F  F179  1  0.02994600  0.05355800  0.06179300  1
  F  F180  1  0.51056100  0.64043400  0.27061100  1
  F  F181  1  0.17281000  0.52721300  0.34008700  1
  F  F182  1  0.51899400  0.92229100  0.27779200  1
  F  F183  1  0.98943900  0.85956600  0.77061100  1
  F  F184  1  0.04114600  0.81862800  0.88997900  1
  F  F185  1  0.48943900  0.35956600  0.72938900  1
  F  F186  1  0.36118500  0.64515900  0.86566400  1
  F  F187  1  0.49526100  0.99590500  0.61161200  1
  F  F188  1  0.58346300  0.48908200  0.17962200  1
  F  F189  1  0.00473900  0.49590500  0.38838800  1
  F  F190  1  0.52994600  0.55355800  0.43820700  1
  F  F191  1  0.54200700  0.85763500  0.88631700  1
