# generated using pymatgen
data_NaBePO4
_symmetry_space_group_name_H-M   'P 1'
_cell_length_a   7.89767300
_cell_length_b   8.23002800
_cell_length_c   16.53631483
_cell_angle_alpha   60.23883032
_cell_angle_beta   90.00000000
_cell_angle_gamma   90.00000000
_symmetry_Int_Tables_number   1
_chemical_formula_structural   NaBePO4
_chemical_formula_sum   'Na12 Be12 P12 O48'
_cell_volume   933.06087837
_cell_formula_units_Z   12
loop_
 _symmetry_equiv_pos_site_id
 _symmetry_equiv_pos_as_xyz
  1  'x, y, z'
loop_
 _atom_site_type_symbol
 _atom_site_label
 _atom_site_symmetry_multiplicity
 _atom_site_fract_x
 _atom_site_fract_y
 _atom_site_fract_z
 _atom_site_occupancy
  Na  Na0  1  0.96791000  0.29711500  0.93123200  1
  Na  Na1  1  0.46791000  0.70288500  0.56876800  1
  Na  Na2  1  0.03209000  0.70288500  0.06876800  1
  Na  Na3  1  0.53209000  0.29711500  0.43123200  1
  Na  Na4  1  0.52812700  0.35729300  0.91232300  1
  Na  Na5  1  0.02812700  0.64270700  0.58767700  1
  Na  Na6  1  0.47187300  0.64270700  0.08767700  1
  Na  Na7  1  0.97187300  0.35729300  0.41232300  1
  Na  Na8  1  0.00042900  0.00191700  0.75059800  1
  Na  Na9  1  0.50042900  0.99808300  0.74940200  1
  Na  Na10  1  0.99957100  0.99808300  0.24940200  1
  Na  Na11  1  0.49957100  0.00191700  0.25059800  1
  Be  Be12  1  0.83150500  0.65895800  0.90939900  1
  Be  Be13  1  0.33150500  0.34104200  0.59060100  1
  Be  Be14  1  0.16849500  0.34104200  0.09060100  1
  Be  Be15  1  0.66849500  0.65895800  0.40939900  1
  Be  Be16  1  0.33137600  0.98293600  0.91905300  1
  Be  Be17  1  0.83137600  0.01706400  0.58094700  1
  Be  Be18  1  0.66862400  0.01706400  0.08094700  1
  Be  Be19  1  0.16862400  0.98293600  0.41905300  1
  Be  Be20  1  0.83148200  0.32040500  0.75912300  1
  Be  Be21  1  0.33148200  0.67959500  0.74087700  1
  Be  Be22  1  0.16851800  0.67959500  0.24087700  1
  Be  Be23  1  0.66851800  0.32040500  0.25912300  1
  P  P24  1  0.21044400  0.65964500  0.90882700  1
  P  P25  1  0.71044400  0.34035500  0.59117300  1
  P  P26  1  0.78955600  0.34035500  0.09117300  1
  P  P27  1  0.28955600  0.65964500  0.40882700  1
  P  P28  1  0.70934400  0.97559000  0.91892900  1
  P  P29  1  0.20934400  0.02441000  0.58107100  1
  P  P30  1  0.29065600  0.02441000  0.08107100  1
  P  P31  1  0.79065600  0.97559000  0.41892900  1
  P  P32  1  0.21348900  0.31834700  0.76211600  1
  P  P33  1  0.71348900  0.68165300  0.73788400  1
  P  P34  1  0.78651100  0.68165300  0.23788400  1
  P  P35  1  0.28651100  0.31834700  0.26211600  1
  O  O36  1  0.02749900  0.61842900  0.89080800  1
  O  O37  1  0.52749900  0.38157100  0.60919200  1
  O  O38  1  0.97250100  0.38157100  0.10919200  1
  O  O39  1  0.47250100  0.61842900  0.39080800  1
  O  O40  1  0.52549000  0.90097400  0.93549600  1
  O  O41  1  0.02549000  0.09902600  0.56450400  1
  O  O42  1  0.47451000  0.09902600  0.06450400  1
  O  O43  1  0.97451000  0.90097400  0.43549600  1
  O  O44  1  0.02838400  0.27862800  0.79792900  1
  O  O45  1  0.52838400  0.72137200  0.70207100  1
  O  O46  1  0.97161600  0.72137200  0.20207100  1
  O  O47  1  0.47161600  0.27862800  0.29792900  1
  O  O48  1  0.33325700  0.60697900  0.85241000  1
  O  O49  1  0.83325700  0.39302100  0.64759000  1
  O  O50  1  0.66674300  0.39302100  0.14759000  1
  O  O51  1  0.16674300  0.60697900  0.35241000  1
  O  O52  1  0.83116100  0.80795100  0.94769300  1
  O  O53  1  0.33116100  0.19204900  0.55230700  1
  O  O54  1  0.16883900  0.19204900  0.05230700  1
  O  O55  1  0.66883900  0.80795100  0.44769300  1
  O  O56  1  0.33311100  0.20830200  0.84642900  1
  O  O57  1  0.83311100  0.79169800  0.65357100  1
  O  O58  1  0.66688900  0.79169800  0.15357100  1
  O  O59  1  0.16688900  0.20830200  0.34642900  1
  O  O60  1  0.74665500  0.45646500  0.98553100  1
  O  O61  1  0.24665500  0.54353500  0.51446900  1
  O  O62  1  0.25334500  0.54353500  0.01446900  1
  O  O63  1  0.75334500  0.45646500  0.48553100  1
  O  O64  1  0.74835000  0.06933200  0.97857100  1
  O  O65  1  0.24835000  0.93066800  0.52142900  1
  O  O66  1  0.25165000  0.93066800  0.02142900  1
  O  O67  1  0.75165000  0.06933200  0.47857100  1
  O  O68  1  0.75122600  0.46921900  0.78671300  1
  O  O69  1  0.25122600  0.53078100  0.71328700  1
  O  O70  1  0.24877400  0.53078100  0.21328700  1
  O  O71  1  0.74877400  0.46921900  0.28671300  1
  O  O72  1  0.22524400  0.87113100  0.87693400  1
  O  O73  1  0.72524400  0.12886900  0.62306600  1
  O  O74  1  0.77475600  0.12886900  0.12306600  1
  O  O75  1  0.27475600  0.87113100  0.37693400  1
  O  O76  1  0.73227600  0.12025800  0.81435500  1
  O  O77  1  0.23227600  0.87974200  0.68564500  1
  O  O78  1  0.26772400  0.87974200  0.18564500  1
  O  O79  1  0.76772400  0.12025800  0.31435500  1
  O  O80  1  0.73331300  0.74896800  0.81001200  1
  O  O81  1  0.23331300  0.25103200  0.68998800  1
  O  O82  1  0.26668700  0.25103200  0.18998800  1
  O  O83  1  0.76668700  0.74896800  0.31001200  1
