# generated using pymatgen
data_NaCrF6
_symmetry_space_group_name_H-M   'P 1'
_cell_length_a   5.93040000
_cell_length_b   7.86573900
_cell_length_c   9.56554200
_cell_angle_alpha   90.00000000
_cell_angle_beta   90.00000000
_cell_angle_gamma   90.00000000
_symmetry_Int_Tables_number   1
_chemical_formula_structural   NaCrF6
_chemical_formula_sum   'Na4 Cr4 F24'
_cell_volume   446.20363264
_cell_formula_units_Z   4
loop_
 _symmetry_equiv_pos_site_id
 _symmetry_equiv_pos_as_xyz
  1  'x, y, z'
loop_
 _atom_site_type_symbol
 _atom_site_label
 _atom_site_symmetry_multiplicity
 _atom_site_fract_x
 _atom_site_fract_y
 _atom_site_fract_z
 _atom_site_occupancy
  Na  Na0  1  0.25000000  0.16591400  0.50385700  1
  Na  Na1  1  0.75000000  0.66591400  0.99614300  1
  Na  Na2  1  0.75000000  0.83408600  0.49614300  1
  Na  Na3  1  0.25000000  0.33408600  0.00385700  1
  Cr  Cr4  1  0.75000000  0.11570700  0.77149300  1
  Cr  Cr5  1  0.75000000  0.38429300  0.27149300  1
  Cr  Cr6  1  0.25000000  0.61570700  0.72850700  1
  Cr  Cr7  1  0.25000000  0.88429300  0.22850700  1
  F  F8  1  0.03595800  0.94917900  0.35717700  1
  F  F9  1  0.75000000  0.18101800  0.19767100  1
  F  F10  1  0.03595800  0.55082100  0.85717700  1
  F  F11  1  0.46671100  0.82741200  0.10519600  1
  F  F12  1  0.25000000  0.81898200  0.80232900  1
  F  F13  1  0.96404200  0.05082100  0.64282300  1
  F  F14  1  0.03328900  0.82741200  0.10519600  1
  F  F15  1  0.75000000  0.90176500  0.83503700  1
  F  F16  1  0.75000000  0.59823500  0.33503700  1
  F  F17  1  0.53328900  0.32741200  0.39480400  1
  F  F18  1  0.46404200  0.55082100  0.85717700  1
  F  F19  1  0.25000000  0.40176500  0.66496300  1
  F  F20  1  0.96404200  0.44917900  0.14282300  1
  F  F21  1  0.53328900  0.17258800  0.89480400  1
  F  F22  1  0.53595800  0.44917900  0.14282300  1
  F  F23  1  0.53595800  0.05082100  0.64282300  1
  F  F24  1  0.25000000  0.68101800  0.30232900  1
  F  F25  1  0.46671100  0.67258800  0.60519600  1
  F  F26  1  0.46404200  0.94917900  0.35717700  1
  F  F27  1  0.03328900  0.67258800  0.60519600  1
  F  F28  1  0.96671100  0.17258800  0.89480400  1
  F  F29  1  0.75000000  0.31898200  0.69767100  1
  F  F30  1  0.25000000  0.09823500  0.16496300  1
  F  F31  1  0.96671100  0.32741200  0.39480400  1
