# generated using pymatgen
data_UCl2O
_symmetry_space_group_name_H-M   'P 1'
_cell_length_a   3.99010000
_cell_length_b   15.28361200
_cell_length_c   17.98446900
_cell_angle_alpha   90.00000000
_cell_angle_beta   90.00000000
_cell_angle_gamma   90.00000000
_symmetry_Int_Tables_number   1
_chemical_formula_structural   UCl2O
_chemical_formula_sum   'U12 Cl24 O12'
_cell_volume   1096.74939519
_cell_formula_units_Z   12
loop_
 _symmetry_equiv_pos_site_id
 _symmetry_equiv_pos_as_xyz
  1  'x, y, z'
loop_
 _atom_site_type_symbol
 _atom_site_label
 _atom_site_symmetry_multiplicity
 _atom_site_fract_x
 _atom_site_fract_y
 _atom_site_fract_z
 _atom_site_occupancy
  U  U0  1  0.00000000  0.84105600  0.83580000  1
  U  U1  1  0.50000000  0.66371300  0.75143200  1
  U  U2  1  0.50000000  0.21822700  0.52668600  1
  U  U3  1  0.00000000  0.65894400  0.33580000  1
  U  U4  1  0.50000000  0.16371300  0.74856800  1
  U  U5  1  0.50000000  0.78177300  0.47331400  1
  U  U6  1  0.50000000  0.71822700  0.97331400  1
  U  U7  1  0.50000000  0.28177300  0.02668600  1
  U  U8  1  0.00000000  0.34105600  0.66420000  1
  U  U9  1  0.50000000  0.83628700  0.25143200  1
  U  U10  1  0.50000000  0.33628700  0.24856800  1
  U  U11  1  0.00000000  0.15894400  0.16420000  1
  Cl  Cl12  1  0.50000000  0.57112700  0.88274700  1
  Cl  Cl13  1  0.50000000  0.36081800  0.78089200  1
  Cl  Cl14  1  0.50000000  0.67471300  0.59653800  1
  Cl  Cl15  1  0.00000000  0.62194000  0.04521100  1
  Cl  Cl16  1  0.50000000  0.56612100  0.41509300  1
  Cl  Cl17  1  0.50000000  0.17471300  0.90346200  1
  Cl  Cl18  1  0.50000000  0.43387900  0.58490700  1
  Cl  Cl19  1  0.00000000  0.87806000  0.54521100  1
  Cl  Cl20  1  0.50000000  0.63918200  0.21910800  1
  Cl  Cl21  1  0.00000000  0.96960500  0.21712700  1
  Cl  Cl22  1  0.50000000  0.07112700  0.61725300  1
  Cl  Cl23  1  0.00000000  0.53039500  0.71712700  1
  Cl  Cl24  1  0.00000000  0.37806000  0.95478900  1
  Cl  Cl25  1  0.00000000  0.46960500  0.28287300  1
  Cl  Cl26  1  0.50000000  0.06612100  0.08490700  1
  Cl  Cl27  1  0.50000000  0.93387900  0.91509300  1
  Cl  Cl28  1  0.50000000  0.13918200  0.28089200  1
  Cl  Cl29  1  0.00000000  0.03039500  0.78287300  1
  Cl  Cl30  1  0.50000000  0.86081800  0.71910800  1
  Cl  Cl31  1  0.50000000  0.82528700  0.09653800  1
  Cl  Cl32  1  0.50000000  0.32528700  0.40346200  1
  Cl  Cl33  1  0.50000000  0.42887300  0.11725300  1
  Cl  Cl34  1  0.50000000  0.92887300  0.38274700  1
  Cl  Cl35  1  0.00000000  0.12194000  0.45478900  1
  O  O36  1  0.00000000  0.27231800  0.55489500  1
  O  O37  1  0.00000000  0.72768200  0.44510500  1
  O  O38  1  0.00000000  0.77231800  0.94510500  1
  O  O39  1  0.00000000  0.71410100  0.76589300  1
  O  O40  1  0.50000000  0.26010800  0.64848700  1
  O  O41  1  0.00000000  0.22768200  0.05489500  1
  O  O42  1  0.00000000  0.78589900  0.26589300  1
  O  O43  1  0.50000000  0.76010800  0.85151300  1
  O  O44  1  0.50000000  0.23989200  0.14848700  1
  O  O45  1  0.50000000  0.73989200  0.35151300  1
  O  O46  1  0.00000000  0.28589900  0.23410700  1
  O  O47  1  0.00000000  0.21410100  0.73410700  1
