# generated using pymatgen
data_Ca2NF
_symmetry_space_group_name_H-M   'P 1'
_cell_length_a   7.13219094
_cell_length_b   7.13219094
_cell_length_c   34.84837779
_cell_angle_alpha   89.73580214
_cell_angle_beta   89.73580214
_cell_angle_gamma   59.96218520
_symmetry_Int_Tables_number   1
_chemical_formula_structural   Ca2NF
_chemical_formula_sum   'Ca48 N24 F24'
_cell_volume   1534.57229770
_cell_formula_units_Z   24
loop_
 _symmetry_equiv_pos_site_id
 _symmetry_equiv_pos_as_xyz
  1  'x, y, z'
loop_
 _atom_site_type_symbol
 _atom_site_label
 _atom_site_symmetry_multiplicity
 _atom_site_fract_x
 _atom_site_fract_y
 _atom_site_fract_z
 _atom_site_occupancy
  Ca  Ca0  1  0.34423600  0.34423600  0.95780800  1
  Ca  Ca1  1  0.49544200  0.49544200  0.87769000  1
  Ca  Ca2  1  0.34989700  0.79210900  0.95431500  1
  Ca  Ca3  1  0.79210900  0.34989700  0.95431500  1
  Ca  Ca4  1  0.53064100  0.98261900  0.87376500  1
  Ca  Ca5  1  0.68123400  0.68123400  0.78846000  1
  Ca  Ca6  1  0.83363800  0.83363800  0.71306300  1
  Ca  Ca7  1  0.68128300  0.13916700  0.78820300  1
  Ca  Ca8  1  0.98261900  0.53064100  0.87376500  1
  Ca  Ca9  1  0.82317600  0.82317600  0.95107700  1
  Ca  Ca10  1  0.98083400  0.98083400  0.87521600  1
  Ca  Ca11  1  0.13916700  0.68128300  0.78820300  1
  Ca  Ca12  1  0.86349900  0.31899200  0.70979100  1
  Ca  Ca13  1  0.01499700  0.01499700  0.62355700  1
  Ca  Ca14  1  0.16700800  0.16700800  0.54770600  1
  Ca  Ca15  1  0.01459100  0.47030800  0.62337200  1
  Ca  Ca16  1  0.31899200  0.86349900  0.70979100  1
  Ca  Ca17  1  0.16606100  0.16606100  0.78580900  1
  Ca  Ca18  1  0.31834600  0.31834600  0.70980700  1
  Ca  Ca19  1  0.47030800  0.01459100  0.62337200  1
  Ca  Ca20  1  0.19649300  0.65221400  0.54404800  1
  Ca  Ca21  1  0.34843100  0.34843100  0.45707500  1
  Ca  Ca22  1  0.50035600  0.50035600  0.38097300  1
  Ca  Ca23  1  0.34797100  0.80319800  0.45691800  1
  Ca  Ca24  1  0.65221400  0.19649300  0.54404800  1
  Ca  Ca25  1  0.49961500  0.49961500  0.61973900  1
  Ca  Ca26  1  0.65170700  0.65170700  0.54387800  1
  Ca  Ca27  1  0.80319800  0.34797100  0.45691800  1
  Ca  Ca28  1  0.52978700  0.98543700  0.37739600  1
  Ca  Ca29  1  0.68174300  0.68174300  0.29032800  1
  Ca  Ca30  1  0.83402300  0.83402300  0.21443100  1
  Ca  Ca31  1  0.68112300  0.13659400  0.29028800  1
  Ca  Ca32  1  0.83301500  0.83301500  0.45315600  1
  Ca  Ca33  1  0.98543700  0.52978700  0.37739600  1
  Ca  Ca34  1  0.98508800  0.98508800  0.37720800  1
  Ca  Ca35  1  0.13659400  0.68112300  0.29028800  1
  Ca  Ca36  1  0.86273300  0.31777500  0.21085000  1
  Ca  Ca37  1  0.01501600  0.01501600  0.12320800  1
  Ca  Ca38  1  0.17312300  0.17312300  0.04750100  1
  Ca  Ca39  1  0.01361600  0.47096400  0.12429400  1
  Ca  Ca40  1  0.31777500  0.86273300  0.21085000  1
  Ca  Ca41  1  0.16647100  0.16647100  0.28642300  1
  Ca  Ca42  1  0.31829700  0.31829700  0.21047800  1
  Ca  Ca43  1  0.47096400  0.01361600  0.12429400  1
  Ca  Ca44  1  0.20022600  0.64525400  0.04622300  1
  Ca  Ca45  1  0.64525400  0.20022600  0.04622300  1
  Ca  Ca46  1  0.50303700  0.50303700  0.12075100  1
  Ca  Ca47  1  0.65413100  0.65413100  0.04268700  1
  N  N48  1  0.16334800  0.66144900  0.91658200  1
  N  N49  1  0.66144900  0.16334800  0.91658200  1
  N  N50  1  0.66304500  0.66304500  0.91505600  1
  N  N51  1  0.49851400  0.00099200  0.74924900  1
  N  N52  1  0.00099200  0.49851400  0.74924900  1
  N  N53  1  0.83413100  0.83413100  0.83149400  1
  N  N54  1  0.00084200  0.00084200  0.74898500  1
  N  N55  1  0.83267200  0.33365800  0.58335400  1
  N  N56  1  0.33365800  0.83267200  0.58335400  1
  N  N57  1  0.16679600  0.16679600  0.66591400  1
  N  N58  1  0.16648700  0.66676800  0.41668000  1
  N  N59  1  0.33365500  0.33365500  0.58333300  1
  N  N60  1  0.66676800  0.16648700  0.41668000  1
  N  N61  1  0.49995100  0.49995100  0.49994900  1
  N  N62  1  0.50029500  0.99963200  0.24992600  1
  N  N63  1  0.66670800  0.66670800  0.41670600  1
  N  N64  1  0.99963200  0.50029500  0.24992600  1
  N  N65  1  0.83324700  0.83324700  0.33327700  1
  N  N66  1  0.83731300  0.33254600  0.08289100  1
  N  N67  1  0.99980300  0.99980300  0.25015900  1
  N  N68  1  0.33254600  0.83731300  0.08289100  1
  N  N69  1  0.16583800  0.16583800  0.16699800  1
  N  N70  1  0.33534100  0.33534100  0.08487500  1
  N  N71  1  0.49864200  0.49864200  0.00024200  1
  F  F72  1  0.14608800  0.14608800  0.97728100  1
  F  F73  1  0.98061600  0.57273100  0.00578600  1
  F  F74  1  0.49997600  0.49997600  0.74290300  1
  F  F75  1  0.35049400  0.80007100  0.82866800  1
  F  F76  1  0.57273100  0.98061600  0.00578600  1
  F  F77  1  0.80007100  0.35049400  0.82866800  1
  F  F78  1  0.83339200  0.83339200  0.58158600  1
  F  F79  1  0.66928200  0.16132000  0.66559400  1
  F  F80  1  0.16132000  0.66928200  0.66559400  1
  F  F81  1  0.34791500  0.34791500  0.82896900  1
  F  F82  1  0.00073600  0.49823800  0.49918900  1
  F  F83  1  0.16675800  0.16675800  0.41505400  1
  F  F84  1  0.16420500  0.16420500  0.88377000  1
  F  F85  1  0.49823800  0.00073600  0.49918900  1
  F  F86  1  0.66955600  0.66955600  0.66559900  1
  F  F87  1  0.49999000  0.49999000  0.24863800  1
  F  F88  1  0.33394100  0.83236200  0.33248300  1
  F  F89  1  0.00071200  0.00071200  0.49919600  1
  F  F90  1  0.83236200  0.33394100  0.33248300  1
  F  F91  1  0.83623800  0.83623800  0.08888300  1
  F  F92  1  0.17135100  0.66411800  0.16623100  1
  F  F93  1  0.33423700  0.33423700  0.33241800  1
  F  F94  1  0.66515400  0.66515400  0.16516300  1
  F  F95  1  0.66411800  0.17135100  0.16623100  1
