# generated using pymatgen
data_RbAlSiO4
_symmetry_space_group_name_H-M   'P 1'
_cell_length_a   5.37988400
_cell_length_b   8.90839600
_cell_length_c   9.34334700
_cell_angle_alpha   90.00000000
_cell_angle_beta   90.00000000
_cell_angle_gamma   90.00000000
_symmetry_Int_Tables_number   1
_chemical_formula_structural   RbAlSiO4
_chemical_formula_sum   'Rb4 Al4 Si4 O16'
_cell_volume   447.79052935
_cell_formula_units_Z   4
loop_
 _symmetry_equiv_pos_site_id
 _symmetry_equiv_pos_as_xyz
  1  'x, y, z'
loop_
 _atom_site_type_symbol
 _atom_site_label
 _atom_site_symmetry_multiplicity
 _atom_site_fract_x
 _atom_site_fract_y
 _atom_site_fract_z
 _atom_site_occupancy
  Rb  Rb0  1  0.48794300  0.00118300  0.30136800  1
  Rb  Rb1  1  0.98794300  0.99881700  0.69863200  1
  Rb  Rb2  1  0.98794300  0.49881700  0.80136800  1
  Rb  Rb3  1  0.48794300  0.50118300  0.19863200  1
  Al  Al4  1  0.01154800  0.81484100  0.08394200  1
  Al  Al5  1  0.51154800  0.18515900  0.91605800  1
  Al  Al6  1  0.51154800  0.68515900  0.58394200  1
  Al  Al7  1  0.01154800  0.31484100  0.41605800  1
  Si  Si8  1  0.01206700  0.69220500  0.41522600  1
  Si  Si9  1  0.51206700  0.30779500  0.58477400  1
  Si  Si10  1  0.51206700  0.80779500  0.91522600  1
  Si  Si11  1  0.01206700  0.19220500  0.08477400  1
  O  O12  1  0.08911900  0.75352500  0.25652400  1
  O  O13  1  0.58911900  0.24647500  0.74347600  1
  O  O14  1  0.58911900  0.74647500  0.75652400  1
  O  O15  1  0.08911900  0.25352500  0.24347600  1
  O  O16  1  0.21838800  0.75509300  0.53114100  1
  O  O17  1  0.71838800  0.24490700  0.46885900  1
  O  O18  1  0.71838800  0.74490700  0.03114100  1
  O  O19  1  0.21838800  0.25509300  0.96885900  1
  O  O20  1  0.73670000  0.75560000  0.46239900  1
  O  O21  1  0.23670000  0.24440000  0.53760100  1
  O  O22  1  0.23670000  0.74440000  0.96239900  1
  O  O23  1  0.73670000  0.25560000  0.03760100  1
  O  O24  1  0.01196600  0.01006000  0.08873700  1
  O  O25  1  0.51196600  0.98994000  0.91126300  1
  O  O26  1  0.51196600  0.48994000  0.58873700  1
  O  O27  1  0.01196600  0.51006000  0.41126300  1
