# generated using pymatgen
data_CuAs2Pb6Cl7O6
_symmetry_space_group_name_H-M   'P 1'
_cell_length_a   8.20846732
_cell_length_b   8.20846732
_cell_length_c   8.20846716
_cell_angle_alpha   75.58999187
_cell_angle_beta   75.58999187
_cell_angle_gamma   75.58999123
_symmetry_Int_Tables_number   1
_chemical_formula_structural   CuAs2Pb6Cl7O6
_chemical_formula_sum   'Cu1 As2 Pb6 Cl7 O6'
_cell_volume   508.42006746
_cell_formula_units_Z   1
loop_
 _symmetry_equiv_pos_site_id
 _symmetry_equiv_pos_as_xyz
  1  'x, y, z'
loop_
 _atom_site_type_symbol
 _atom_site_label
 _atom_site_symmetry_multiplicity
 _atom_site_fract_x
 _atom_site_fract_y
 _atom_site_fract_z
 _atom_site_occupancy
  Cu  Cu0  1  0.62720000  0.62720000  0.62720000  1
  As  As1  1  0.23817400  0.23817400  0.23817400  1
  As  As2  1  0.76451600  0.76451600  0.76451600  1
  Pb  Pb3  1  0.83052500  0.12472400  0.36262300  1
  Pb  Pb4  1  0.62819600  0.16368600  0.87747600  1
  Pb  Pb5  1  0.12472400  0.36262300  0.83052500  1
  Pb  Pb6  1  0.87747600  0.62819600  0.16368600  1
  Pb  Pb7  1  0.36262300  0.83052500  0.12472400  1
  Pb  Pb8  1  0.16368600  0.87747600  0.62819600  1
  Cl  Cl9  1  0.00085700  0.00085700  0.00085700  1
  Cl  Cl10  1  0.45304600  0.15925600  0.63300300  1
  Cl  Cl11  1  0.63300300  0.45304600  0.15925600  1
  Cl  Cl12  1  0.82931800  0.38640400  0.55129700  1
  Cl  Cl13  1  0.15925600  0.63300300  0.45304600  1
  Cl  Cl14  1  0.38640400  0.55129700  0.82931800  1
  Cl  Cl15  1  0.55129700  0.82931800  0.38640400  1
  O  O16  1  0.13152000  0.06147500  0.35759200  1
  O  O17  1  0.35759200  0.13152000  0.06147500  1
  O  O18  1  0.06147500  0.35759200  0.13152000  1
  O  O19  1  0.94386100  0.64268000  0.86023500  1
  O  O20  1  0.64268000  0.86023500  0.94386100  1
  O  O21  1  0.86023500  0.94386100  0.64268000  1
