# generated using pymatgen
data_YbS2
_symmetry_space_group_name_H-M   'P 1'
_cell_length_a   4.87541692
_cell_length_b   4.87541692
_cell_length_c   7.97477506
_cell_angle_alpha   63.65049266
_cell_angle_beta   63.65049266
_cell_angle_gamma   52.65260477
_symmetry_Int_Tables_number   1
_chemical_formula_structural   YbS2
_chemical_formula_sum   'Yb2 S4'
_cell_volume   130.91851198
_cell_formula_units_Z   2
loop_
 _symmetry_equiv_pos_site_id
 _symmetry_equiv_pos_as_xyz
  1  'x, y, z'
loop_
 _atom_site_type_symbol
 _atom_site_label
 _atom_site_symmetry_multiplicity
 _atom_site_fract_x
 _atom_site_fract_y
 _atom_site_fract_z
 _atom_site_occupancy
  Yb  Yb0  1  0.86594000  0.13406000  0.25000000  1
  Yb  Yb1  1  0.13406000  0.86594000  0.75000000  1
  S  S2  1  0.21127200  0.47116300  0.52844100  1
  S  S3  1  0.52883700  0.78872800  0.97155900  1
  S  S4  1  0.78872800  0.52883700  0.47155900  1
  S  S5  1  0.47116300  0.21127200  0.02844100  1
