# generated using pymatgen
data_RbTaPS6
_symmetry_space_group_name_H-M   'P 1'
_cell_length_a   18.03059600
_cell_length_b   14.45882700
_cell_length_c   16.15232728
_cell_angle_alpha   73.30877380
_cell_angle_beta   90.00000000
_cell_angle_gamma   90.00000000
_symmetry_Int_Tables_number   1
_chemical_formula_structural   RbTaPS6
_chemical_formula_sum   'Rb16 Ta16 P16 S96'
_cell_volume   4033.51084350
_cell_formula_units_Z   16
loop_
 _symmetry_equiv_pos_site_id
 _symmetry_equiv_pos_as_xyz
  1  'x, y, z'
loop_
 _atom_site_type_symbol
 _atom_site_label
 _atom_site_symmetry_multiplicity
 _atom_site_fract_x
 _atom_site_fract_y
 _atom_site_fract_z
 _atom_site_occupancy
  Rb  Rb0  1  0.37419000  0.05312100  0.48890300  1
  Rb  Rb1  1  0.62581000  0.94687900  0.51109700  1
  Rb  Rb2  1  0.93240100  0.85187000  0.45542300  1
  Rb  Rb3  1  0.43240100  0.64813000  0.04457700  1
  Rb  Rb4  1  0.48458200  0.48900600  0.37121200  1
  Rb  Rb5  1  0.32757600  0.14430400  0.02278200  1
  Rb  Rb6  1  0.67242400  0.85569600  0.97721800  1
  Rb  Rb7  1  0.98458200  0.01099400  0.12878800  1
  Rb  Rb8  1  0.01541800  0.98900600  0.87121200  1
  Rb  Rb9  1  0.82757600  0.35569600  0.47721800  1
  Rb  Rb10  1  0.87419000  0.44687900  0.01109700  1
  Rb  Rb11  1  0.56759900  0.35187000  0.95542300  1
  Rb  Rb12  1  0.06759900  0.14813000  0.54457700  1
  Rb  Rb13  1  0.51541800  0.51099400  0.62878800  1
  Rb  Rb14  1  0.17242400  0.64430400  0.52278200  1
  Rb  Rb15  1  0.12581000  0.55312100  0.98890300  1
  Ta  Ta16  1  0.38785900  0.75183000  0.75376600  1
  Ta  Ta17  1  0.88785900  0.74817000  0.74623400  1
  Ta  Ta18  1  0.28702700  0.29256300  0.73063200  1
  Ta  Ta19  1  0.87784600  0.67229900  0.16446500  1
  Ta  Ta20  1  0.12215400  0.32770100  0.83553500  1
  Ta  Ta21  1  0.61214100  0.24817000  0.24623400  1
  Ta  Ta22  1  0.72310700  0.63716600  0.69480900  1
  Ta  Ta23  1  0.77689300  0.13716600  0.19480900  1
  Ta  Ta24  1  0.71297300  0.70743700  0.26936800  1
  Ta  Ta25  1  0.27689300  0.36283400  0.30519100  1
  Ta  Ta26  1  0.37784600  0.82770100  0.33553500  1
  Ta  Ta27  1  0.78702700  0.20743700  0.76936800  1
  Ta  Ta28  1  0.11214100  0.25183000  0.25376600  1
  Ta  Ta29  1  0.62215400  0.17229900  0.66446500  1
  Ta  Ta30  1  0.22310700  0.86283400  0.80519100  1
  Ta  Ta31  1  0.21297300  0.79256300  0.23063200  1
  P  P32  1  0.55866200  0.69254900  0.83231300  1
  P  P33  1  0.94133800  0.19254900  0.33231300  1
  P  P34  1  0.21242100  0.84005300  0.01535200  1
  P  P35  1  0.44133800  0.30745100  0.16768700  1
  P  P36  1  0.05866200  0.80745100  0.66768700  1
  P  P37  1  0.61037000  0.25119800  0.45138300  1
  P  P38  1  0.28757900  0.34005300  0.51535200  1
  P  P39  1  0.11037000  0.24880200  0.04861700  1
  P  P40  1  0.38963000  0.74880200  0.54861700  1
  P  P41  1  0.71242100  0.65994700  0.48464800  1
  P  P42  1  0.95517500  0.28605600  0.69782300  1
  P  P43  1  0.45517500  0.21394400  0.80217700  1
  P  P44  1  0.04482500  0.71394400  0.30217700  1
  P  P45  1  0.78757900  0.15994700  0.98464800  1
  P  P46  1  0.88963000  0.75119800  0.95138300  1
  P  P47  1  0.54482500  0.78605600  0.19782300  1
  S  S48  1  0.20003400  0.18858800  0.35589400  1
  S  S49  1  0.28620500  0.86269200  0.66677800  1
  S  S50  1  0.95744400  0.55471500  0.17101700  1
  S  S51  1  0.55062900  0.28024200  0.73866300  1
  S  S52  1  0.21133700  0.41163200  0.42493600  1
  S  S53  1  0.34657800  0.64663100  0.65388100  1
  S  S54  1  0.44098600  0.69641500  0.45818400  1
  S  S55  1  0.13627800  0.74208500  0.76249800  1
  S  S56  1  0.26505300  0.93683700  0.27445300  1
  S  S57  1  0.65342200  0.35336900  0.34611900  1
  S  S58  1  0.25647000  0.72369500  0.10801100  1
  S  S59  1  0.33245700  0.42404600  0.58496300  1
  S  S60  1  0.47839100  0.61353700  0.78854500  1
  S  S61  1  0.71646100  0.31439300  0.67017700  1
  S  S62  1  0.89152200  0.16883000  0.68376800  1
  S  S63  1  0.45744400  0.94528500  0.32898300  1
  S  S64  1  0.23494700  0.43683700  0.77445300  1
  S  S65  1  0.54302700  0.17159400  0.39508200  1
  S  S66  1  0.29996600  0.68858800  0.85589400  1
  S  S67  1  0.36033600  0.29529000  0.43529300  1
  S  S68  1  0.04302700  0.32840600  0.10491800  1
  S  S69  1  0.13966400  0.79529000  0.93529300  1
  S  S70  1  0.71379500  0.13730800  0.33322200  1
  S  S71  1  0.30794000  0.83195900  0.47070000  1
  S  S72  1  0.44937100  0.71975800  0.26133700  1
  S  S73  1  0.05901400  0.19641500  0.95818400  1
  S  S74  1  0.10192600  0.87505600  0.55341200  1
  S  S75  1  0.54255600  0.05471500  0.67101700  1
  S  S76  1  0.98917800  0.69055900  0.66883900  1
  S  S77  1  0.11650400  0.67672000  0.21633200  1
  S  S78  1  0.16138500  0.99506600  0.73844800  1
  S  S79  1  0.45697300  0.82840600  0.60491800  1
  S  S80  1  0.97916200  0.38496400  0.58846200  1
  S  S81  1  0.19206000  0.33195900  0.97070000  1
  S  S82  1  0.21379500  0.36269200  0.16677800  1
  S  S83  1  0.10847800  0.83117000  0.31623200  1
  S  S84  1  0.02160900  0.11353700  0.28854500  1
  S  S85  1  0.76505300  0.56316300  0.22554700  1
  S  S86  1  0.71133700  0.08836800  0.07506400  1
  S  S87  1  0.79996600  0.81141200  0.64410600  1
  S  S88  1  0.80794000  0.66804100  0.02930000  1
  S  S89  1  0.66138500  0.50493400  0.76155200  1
  S  S90  1  0.66754300  0.57595400  0.41503700  1
  S  S91  1  0.60192600  0.62494400  0.94658800  1
  S  S92  1  0.84657800  0.85336900  0.84611900  1
  S  S93  1  0.21646100  0.18560700  0.82982300  1
  S  S94  1  0.28866300  0.91163200  0.92493600  1
  S  S95  1  0.86372200  0.25791500  0.23750200  1
  S  S96  1  0.15342200  0.14663100  0.15388100  1
  S  S97  1  0.86033600  0.20471000  0.06470700  1
  S  S98  1  0.48917800  0.80944100  0.83116100  1
  S  S99  1  0.39807400  0.37505600  0.05341200  1
  S  S100  1  0.51082200  0.19055900  0.16883900  1
  S  S101  1  0.95697300  0.67159400  0.89508200  1
  S  S102  1  0.55901400  0.30358500  0.54181600  1
  S  S103  1  0.69206000  0.16804100  0.52930000  1
  S  S104  1  0.02083800  0.61503600  0.41153800  1
  S  S105  1  0.70003400  0.31141200  0.14410600  1
  S  S106  1  0.94098600  0.80358500  0.04181600  1
  S  S107  1  0.16754300  0.92404600  0.08496300  1
  S  S108  1  0.78620500  0.63730800  0.83322200  1
  S  S109  1  0.85014300  0.57454300  0.75904500  1
  S  S110  1  0.89807400  0.12494400  0.44658800  1
  S  S111  1  0.83861500  0.00493400  0.26155200  1
  S  S112  1  0.75647000  0.77630500  0.39198900  1
  S  S113  1  0.38349600  0.17672000  0.71633200  1
  S  S114  1  0.01082200  0.30944100  0.33116100  1
  S  S115  1  0.83008800  0.60043500  0.31534800  1
  S  S116  1  0.52160900  0.38646300  0.21145500  1
  S  S117  1  0.35014300  0.92545700  0.74095500  1
  S  S118  1  0.73494700  0.06316300  0.72554700  1
  S  S119  1  0.60847800  0.66883000  0.18376800  1
  S  S120  1  0.66991200  0.10043500  0.81534800  1
  S  S121  1  0.61650400  0.82328000  0.28366800  1
  S  S122  1  0.64985700  0.07454300  0.25904500  1
  S  S123  1  0.33008800  0.89956500  0.18465200  1
  S  S124  1  0.94937100  0.78024200  0.23866300  1
  S  S125  1  0.05062900  0.21975800  0.76133700  1
  S  S126  1  0.33861500  0.49506600  0.23844800  1
  S  S127  1  0.28353900  0.68560700  0.32982300  1
  S  S128  1  0.78866300  0.58836800  0.57506400  1
  S  S129  1  0.16991200  0.39956500  0.68465200  1
  S  S130  1  0.36372200  0.24208500  0.26249800  1
  S  S131  1  0.63966400  0.70471000  0.56470700  1
  S  S132  1  0.97839100  0.88646300  0.71145500  1
  S  S133  1  0.14985700  0.42545700  0.24095500  1
  S  S134  1  0.47916200  0.11503600  0.91153800  1
  S  S135  1  0.88349600  0.32328000  0.78366800  1
  S  S136  1  0.83245700  0.07595400  0.91503700  1
  S  S137  1  0.52083800  0.88496400  0.08846200  1
  S  S138  1  0.24353000  0.22369500  0.60801100  1
  S  S139  1  0.74353000  0.27630500  0.89198900  1
  S  S140  1  0.39152200  0.33117000  0.81623200  1
  S  S141  1  0.78353900  0.81439300  0.17017700  1
  S  S142  1  0.63627800  0.75791500  0.73750200  1
  S  S143  1  0.04255600  0.44528500  0.82898300  1
