# generated using pymatgen
data_Ba(H8O5)2
_symmetry_space_group_name_H-M   'P 1'
_cell_length_a   6.51263242
_cell_length_b   6.51263242
_cell_length_c   11.36485871
_cell_angle_alpha   89.98568197
_cell_angle_beta   89.98568197
_cell_angle_gamma   90.01636089
_symmetry_Int_Tables_number   1
_chemical_formula_structural   Ba(H8O5)2
_chemical_formula_sum   'Ba2 H32 O20'
_cell_volume   482.03339787
_cell_formula_units_Z   2
loop_
 _symmetry_equiv_pos_site_id
 _symmetry_equiv_pos_as_xyz
  1  'x, y, z'
loop_
 _atom_site_type_symbol
 _atom_site_label
 _atom_site_symmetry_multiplicity
 _atom_site_fract_x
 _atom_site_fract_y
 _atom_site_fract_z
 _atom_site_occupancy
  Ba  Ba0  1  0.99813700  0.00186300  0.75000000  1
  Ba  Ba1  1  0.00186300  0.99813700  0.25000000  1
  H  H2  1  0.72525000  0.59794100  0.65187300  1
  H  H3  1  0.85300800  0.66546200  0.53761400  1
  H  H4  1  0.28285400  0.40541000  0.64307000  1
  H  H5  1  0.04448300  0.46048900  0.62807000  1
  H  H6  1  0.40629100  0.72812400  0.65174700  1
  H  H7  1  0.33421100  0.85400100  0.53818100  1
  H  H8  1  0.54050900  0.04600200  0.62769400  1
  H  H9  1  0.59774200  0.28417800  0.64353000  1
  H  H10  1  0.28417800  0.59774200  0.14353000  1
  H  H11  1  0.04600200  0.54050900  0.12769400  1
  H  H12  1  0.72812400  0.40629100  0.15174700  1
  H  H13  1  0.85400100  0.33421100  0.03818100  1
  H  H14  1  0.59794100  0.72525000  0.15187300  1
  H  H15  1  0.66546200  0.85300800  0.03761400  1
  H  H16  1  0.40541000  0.28285400  0.14307000  1
  H  H17  1  0.46048900  0.04448300  0.12807000  1
  H  H18  1  0.27475000  0.40205900  0.34812700  1
  H  H19  1  0.14699200  0.33453800  0.46238600  1
  H  H20  1  0.71714600  0.59459000  0.35693000  1
  H  H21  1  0.95551700  0.53951100  0.37193000  1
  H  H22  1  0.59370900  0.27187600  0.34825300  1
  H  H23  1  0.66578900  0.14599900  0.46181900  1
  H  H24  1  0.45949100  0.95399800  0.37230600  1
  H  H25  1  0.40225800  0.71582200  0.35647000  1
  H  H26  1  0.95399800  0.45949100  0.87230600  1
  H  H27  1  0.71582200  0.40225800  0.85647000  1
  H  H28  1  0.27187600  0.59370900  0.84825300  1
  H  H29  1  0.14599900  0.66578900  0.96181900  1
  H  H30  1  0.40205900  0.27475000  0.84812700  1
  H  H31  1  0.33453800  0.14699200  0.96238600  1
  H  H32  1  0.53951100  0.95551700  0.87193000  1
  H  H33  1  0.59459000  0.71714600  0.85693000  1
  O  O34  1  0.50299600  0.50435500  0.68433500  1
  O  O35  1  0.50435500  0.50299600  0.18433500  1
  O  O36  1  0.49700400  0.49564500  0.31566500  1
  O  O37  1  0.49564500  0.49700400  0.81566500  1
  O  O38  1  0.86288500  0.65647600  0.62501200  1
  O  O39  1  0.14515000  0.34517700  0.61888300  1
  O  O40  1  0.34439800  0.86430800  0.62543100  1
  O  O41  1  0.65610200  0.14615100  0.61807500  1
  O  O42  1  0.14615100  0.65610200  0.11807500  1
  O  O43  1  0.86430800  0.34439800  0.12543100  1
  O  O44  1  0.65647600  0.86288500  0.12501200  1
  O  O45  1  0.34517700  0.14515000  0.11888300  1
  O  O46  1  0.13711500  0.34352400  0.37498800  1
  O  O47  1  0.85485000  0.65482300  0.38111700  1
  O  O48  1  0.65560200  0.13569200  0.37456900  1
  O  O49  1  0.34389800  0.85384900  0.38192500  1
  O  O50  1  0.85384900  0.34389800  0.88192500  1
  O  O51  1  0.13569200  0.65560200  0.87456900  1
  O  O52  1  0.34352400  0.13711500  0.87498800  1
  O  O53  1  0.65482300  0.85485000  0.88111700  1
