# generated using pymatgen
data_Cs4Th2P5Se17
_symmetry_space_group_name_H-M   'P 1'
_cell_length_a   33.28272100
_cell_length_b   10.41140900
_cell_length_c   11.05217184
_cell_angle_alpha   84.10259950
_cell_angle_beta   90.00000000
_cell_angle_gamma   90.00000000
_symmetry_Int_Tables_number   1
_chemical_formula_structural   Cs4Th2P5Se17
_chemical_formula_sum   'Cs16 Th8 P20 Se68'
_cell_volume   3809.52953103
_cell_formula_units_Z   4
loop_
 _symmetry_equiv_pos_site_id
 _symmetry_equiv_pos_as_xyz
  1  'x, y, z'
loop_
 _atom_site_type_symbol
 _atom_site_label
 _atom_site_symmetry_multiplicity
 _atom_site_fract_x
 _atom_site_fract_y
 _atom_site_fract_z
 _atom_site_occupancy
  Cs  Cs0  1  0.73387300  0.69128400  0.80325700  1
  Cs  Cs1  1  0.27219100  0.80249000  0.16599400  1
  Cs  Cs2  1  0.26612700  0.30871600  0.19674300  1
  Cs  Cs3  1  0.76612700  0.69128400  0.30325700  1
  Cs  Cs4  1  0.72780900  0.19751000  0.83400600  1
  Cs  Cs5  1  0.05457100  0.82210100  0.64628300  1
  Cs  Cs6  1  0.44542900  0.82210100  0.14628300  1
  Cs  Cs7  1  0.55457100  0.17789900  0.85371700  1
  Cs  Cs8  1  0.23387300  0.30871600  0.69674300  1
  Cs  Cs9  1  0.06509700  0.30286100  0.73247100  1
  Cs  Cs10  1  0.77219100  0.19751000  0.33400600  1
  Cs  Cs11  1  0.43490300  0.30286100  0.23247100  1
  Cs  Cs12  1  0.94542900  0.17789900  0.35371700  1
  Cs  Cs13  1  0.56509700  0.69713900  0.76752900  1
  Cs  Cs14  1  0.22780900  0.80249000  0.66599400  1
  Cs  Cs15  1  0.93490300  0.69713900  0.26752900  1
  Th  Th16  1  0.59958600  0.64815100  0.29095100  1
  Th  Th17  1  0.90041400  0.64815100  0.79095100  1
  Th  Th18  1  0.60873400  0.20947300  0.34010800  1
  Th  Th19  1  0.10873400  0.79052700  0.15989200  1
  Th  Th20  1  0.89126600  0.20947300  0.84010800  1
  Th  Th21  1  0.09958600  0.35184900  0.20904900  1
  Th  Th22  1  0.39126600  0.79052700  0.65989200  1
  Th  Th23  1  0.40041400  0.35184900  0.70904900  1
  P  P24  1  0.52893300  0.97677000  0.44647000  1
  P  P25  1  0.81376100  0.38221400  0.00274400  1
  P  P26  1  0.31376100  0.61778600  0.49725600  1
  P  P27  1  0.47106700  0.02323000  0.55353000  1
  P  P28  1  0.68623900  0.38221400  0.50274400  1
  P  P29  1  0.66541500  0.99637000  0.13748000  1
  P  P30  1  0.13503500  0.14048900  0.48203700  1
  P  P31  1  0.83458500  0.99637000  0.63748000  1
  P  P32  1  0.33458500  0.00363000  0.86252000  1
  P  P33  1  0.13673400  0.51775900  0.90497100  1
  P  P34  1  0.02893300  0.02323000  0.05353000  1
  P  P35  1  0.86326600  0.48224100  0.09502900  1
  P  P36  1  0.36326600  0.51775900  0.40497100  1
  P  P37  1  0.63503500  0.85951100  0.01796300  1
  P  P38  1  0.36496500  0.14048900  0.98203700  1
  P  P39  1  0.63673400  0.48224100  0.59502900  1
  P  P40  1  0.97106700  0.97677000  0.94647000  1
  P  P41  1  0.86496500  0.85951100  0.51796300  1
  P  P42  1  0.16541500  0.00363000  0.36252000  1
  P  P43  1  0.18623900  0.61778600  0.99725600  1
  Se  Se44  1  0.35386400  0.31320400  0.47665500  1
  Se  Se45  1  0.72927000  0.98356800  0.11359800  1
  Se  Se46  1  0.35957500  0.06470800  0.67630300  1
  Se  Se47  1  0.64051400  0.19448500  0.08795100  1
  Se  Se48  1  0.64042500  0.93529200  0.32369700  1
  Se  Se49  1  0.82779400  0.17339900  0.03426400  1
  Se  Se50  1  0.24463700  0.56174800  0.93837600  1
  Se  Se51  1  0.63940700  0.43349600  0.78918100  1
  Se  Se52  1  0.47173100  0.89010800  0.72373900  1
  Se  Se53  1  0.74463700  0.43825200  0.56162400  1
  Se  Se54  1  0.13940700  0.56650400  0.71081900  1
  Se  Se55  1  0.58030900  0.03138600  0.55753900  1
  Se  Se56  1  0.36059300  0.56650400  0.21081900  1
  Se  Se57  1  0.02531300  0.23003600  0.08029500  1
  Se  Se58  1  0.85431600  0.93042200  0.33051300  1
  Se  Se59  1  0.02148900  0.46311400  0.25258400  1
  Se  Se60  1  0.02826900  0.89010800  0.22373900  1
  Se  Se61  1  0.14042500  0.06470800  0.17630300  1
  Se  Se62  1  0.52531300  0.76996400  0.41970500  1
  Se  Se63  1  0.27073000  0.01643200  0.88640200  1
  Se  Se64  1  0.86059300  0.43349600  0.28918100  1
  Se  Se65  1  0.92863100  0.83925900  0.57568600  1
  Se  Se66  1  0.42863100  0.16074100  0.92431400  1
  Se  Se67  1  0.14568400  0.06957800  0.66948700  1
  Se  Se68  1  0.97468700  0.76996400  0.91970500  1
  Se  Se69  1  0.16384500  0.32350300  0.40453700  1
  Se  Se70  1  0.52148900  0.53688600  0.24741600  1
  Se  Se71  1  0.22927000  0.01643200  0.38640200  1
  Se  Se72  1  0.58042300  0.42635600  0.49787700  1
  Se  Se73  1  0.83615500  0.67649700  0.59546300  1
  Se  Se74  1  0.47851100  0.46311400  0.75258400  1
  Se  Se75  1  0.07378100  0.57608500  0.34608900  1
  Se  Se76  1  0.32779400  0.82660100  0.46573600  1
  Se  Se77  1  0.17220600  0.82660100  0.96573600  1
  Se  Se78  1  0.85948600  0.19448500  0.58795100  1
  Se  Se79  1  0.77073000  0.98356800  0.61359800  1
  Se  Se80  1  0.75536300  0.43825200  0.06162400  1
  Se  Se81  1  0.08042300  0.57364400  0.00212300  1
  Se  Se82  1  0.85957500  0.93529200  0.82369700  1
  Se  Se83  1  0.35948600  0.80551500  0.91204900  1
  Se  Se84  1  0.67015500  0.43420500  0.30514600  1
  Se  Se85  1  0.57378100  0.42391500  0.15391100  1
  Se  Se86  1  0.57136900  0.83925900  0.07568600  1
  Se  Se87  1  0.14051400  0.80551500  0.41204900  1
  Se  Se88  1  0.25536300  0.56174800  0.43837600  1
  Se  Se89  1  0.52826900  0.10989200  0.27626100  1
  Se  Se90  1  0.47468700  0.23003600  0.58029500  1
  Se  Se91  1  0.67220600  0.17339900  0.53426400  1
  Se  Se92  1  0.97851100  0.53688600  0.74741600  1
  Se  Se93  1  0.82984500  0.43420500  0.80514600  1
  Se  Se94  1  0.07136900  0.16074100  0.42431400  1
  Se  Se95  1  0.41969100  0.96861400  0.44246100  1
  Se  Se96  1  0.33615500  0.32350300  0.90453700  1
  Se  Se97  1  0.32984500  0.56579500  0.69485400  1
  Se  Se98  1  0.17015500  0.56579500  0.19485400  1
  Se  Se99  1  0.85386400  0.68679600  0.02334500  1
  Se  Se100  1  0.92621900  0.42391500  0.65391100  1
  Se  Se101  1  0.91957700  0.42635600  0.99787700  1
  Se  Se102  1  0.64613600  0.68679600  0.52334500  1
  Se  Se103  1  0.41957700  0.57364400  0.50212300  1
  Se  Se104  1  0.66384500  0.67649700  0.09546300  1
  Se  Se105  1  0.14613600  0.31320400  0.97665500  1
  Se  Se106  1  0.64568400  0.93042200  0.83051300  1
  Se  Se107  1  0.42621900  0.57608500  0.84608900  1
  Se  Se108  1  0.08030900  0.96861400  0.94246100  1
  Se  Se109  1  0.91969100  0.03138600  0.05753900  1
  Se  Se110  1  0.97173100  0.10989200  0.77626100  1
  Se  Se111  1  0.35431600  0.06957800  0.16948700  1
