# generated using pymatgen
data_Cs2PO3F
_symmetry_space_group_name_H-M   'P 1'
_cell_length_a   6.47228600
_cell_length_b   8.50548000
_cell_length_c   11.20680900
_cell_angle_alpha   90.00000000
_cell_angle_beta   90.00000000
_cell_angle_gamma   90.00000000
_symmetry_Int_Tables_number   1
_chemical_formula_structural   Cs2PO3F
_chemical_formula_sum   'Cs8 P4 O12 F4'
_cell_volume   616.93370499
_cell_formula_units_Z   4
loop_
 _symmetry_equiv_pos_site_id
 _symmetry_equiv_pos_as_xyz
  1  'x, y, z'
loop_
 _atom_site_type_symbol
 _atom_site_label
 _atom_site_symmetry_multiplicity
 _atom_site_fract_x
 _atom_site_fract_y
 _atom_site_fract_z
 _atom_site_occupancy
  Cs  Cs0  1  0.25000000  0.00073100  0.28555700  1
  Cs  Cs1  1  0.75000000  0.99926900  0.71444300  1
  Cs  Cs2  1  0.25000000  0.50073100  0.21444300  1
  Cs  Cs3  1  0.75000000  0.49926900  0.78555700  1
  Cs  Cs4  1  0.25000000  0.17531800  0.91779100  1
  Cs  Cs5  1  0.75000000  0.82468200  0.08220900  1
  Cs  Cs6  1  0.25000000  0.67531800  0.58220900  1
  Cs  Cs7  1  0.75000000  0.32468200  0.41779100  1
  P  P8  1  0.25000000  0.24754400  0.58349500  1
  P  P9  1  0.75000000  0.75245600  0.41650500  1
  P  P10  1  0.25000000  0.74754400  0.91650500  1
  P  P11  1  0.75000000  0.25245600  0.08349500  1
  O  O12  1  0.75000000  0.70068300  0.54693000  1
  O  O13  1  0.25000000  0.29931700  0.45307000  1
  O  O14  1  0.25000000  0.79931700  0.04693000  1
  O  O15  1  0.75000000  0.20068300  0.95307000  1
  O  O16  1  0.55081600  0.71863600  0.34866200  1
  O  O17  1  0.05081600  0.28136400  0.65133800  1
  O  O18  1  0.94918400  0.21863600  0.15133800  1
  O  O19  1  0.44918400  0.78136400  0.84866200  1
  O  O20  1  0.44918400  0.28136400  0.65133800  1
  O  O21  1  0.94918400  0.71863600  0.34866200  1
  O  O22  1  0.05081600  0.78136400  0.84866200  1
  O  O23  1  0.55081600  0.21863600  0.15133800  1
  F  F24  1  0.75000000  0.44998800  0.07387800  1
  F  F25  1  0.25000000  0.55001200  0.92612200  1
  F  F26  1  0.25000000  0.05001200  0.57387800  1
  F  F27  1  0.75000000  0.94998800  0.42612200  1
