# generated using pymatgen
data_Ba2InRuO6
_symmetry_space_group_name_H-M   'P 1'
_cell_length_a   5.94078412
_cell_length_b   5.94078412
_cell_length_c   14.75935500
_cell_angle_alpha   90.00000000
_cell_angle_beta   90.00000000
_cell_angle_gamma   120.00000133
_symmetry_Int_Tables_number   1
_chemical_formula_structural   Ba2InRuO6
_chemical_formula_sum   'Ba6 In3 Ru3 O18'
_cell_volume   451.11321180
_cell_formula_units_Z   3
loop_
 _symmetry_equiv_pos_site_id
 _symmetry_equiv_pos_as_xyz
  1  'x, y, z'
loop_
 _atom_site_type_symbol
 _atom_site_label
 _atom_site_symmetry_multiplicity
 _atom_site_fract_x
 _atom_site_fract_y
 _atom_site_fract_z
 _atom_site_occupancy
  Ba  Ba0  1  0.66666700  0.33333300  0.90458900  1
  Ba  Ba1  1  0.00000000  0.00000000  0.24913800  1
  Ba  Ba2  1  0.00000000  0.00000000  0.75086200  1
  Ba  Ba3  1  0.66666700  0.33333300  0.59228700  1
  Ba  Ba4  1  0.33333300  0.66666700  0.40771300  1
  Ba  Ba5  1  0.33333300  0.66666700  0.09541100  1
  In  In6  1  0.66666700  0.33333300  0.34677900  1
  In  In7  1  0.00000000  0.00000000  0.00000000  1
  In  In8  1  0.33333300  0.66666700  0.65322100  1
  Ru  Ru9  1  0.33333300  0.66666700  0.84377800  1
  Ru  Ru10  1  0.66666700  0.33333300  0.15622200  1
  Ru  Ru11  1  0.00000000  0.00000000  0.50000000  1
  O  O12  1  0.84282900  0.15717100  0.42264700  1
  O  O13  1  0.17230100  0.34460200  0.91535000  1
  O  O14  1  0.84282900  0.68565700  0.42264700  1
  O  O15  1  0.31434300  0.15717100  0.42264700  1
  O  O16  1  0.15717100  0.84282900  0.57735300  1
  O  O17  1  0.82769900  0.65539800  0.08465000  1
  O  O18  1  0.34460200  0.17230100  0.08465000  1
  O  O19  1  0.17230100  0.82769900  0.91535000  1
  O  O20  1  0.51287300  0.02574600  0.24265600  1
  O  O21  1  0.48712700  0.97425400  0.75734400  1
  O  O22  1  0.65539800  0.82769900  0.91535000  1
  O  O23  1  0.15717100  0.31434300  0.57735300  1
  O  O24  1  0.48712700  0.51287300  0.75734400  1
  O  O25  1  0.02574600  0.51287300  0.75734400  1
  O  O26  1  0.68565700  0.84282900  0.57735300  1
  O  O27  1  0.97425400  0.48712700  0.24265600  1
  O  O28  1  0.82769900  0.17230100  0.08465000  1
  O  O29  1  0.51287300  0.48712700  0.24265600  1
