# generated using pymatgen
data_Ba2Ti(SiO4)2
_symmetry_space_group_name_H-M   'P 1'
_cell_length_a   8.62982600
_cell_length_b   8.62982600
_cell_length_c   5.32575700
_cell_angle_alpha   90.00000000
_cell_angle_beta   90.00000000
_cell_angle_gamma   90.00000000
_symmetry_Int_Tables_number   1
_chemical_formula_structural   Ba2Ti(SiO4)2
_chemical_formula_sum   'Ba4 Ti2 Si4 O16'
_cell_volume   396.62987715
_cell_formula_units_Z   2
loop_
 _symmetry_equiv_pos_site_id
 _symmetry_equiv_pos_as_xyz
  1  'x, y, z'
loop_
 _atom_site_type_symbol
 _atom_site_label
 _atom_site_symmetry_multiplicity
 _atom_site_fract_x
 _atom_site_fract_y
 _atom_site_fract_z
 _atom_site_occupancy
  Ba  Ba0  1  0.17288600  0.67288600  0.99080600  1
  Ba  Ba1  1  0.67288600  0.82711400  0.99080600  1
  Ba  Ba2  1  0.32711400  0.17288600  0.99080600  1
  Ba  Ba3  1  0.82711400  0.32711400  0.99080600  1
  Ti  Ti4  1  0.50000000  0.50000000  0.53440400  1
  Ti  Ti5  1  0.00000000  0.00000000  0.53440400  1
  Si  Si6  1  0.37158600  0.87158600  0.50957800  1
  Si  Si7  1  0.87158600  0.62841400  0.50957800  1
  Si  Si8  1  0.12841400  0.37158600  0.50957800  1
  Si  Si9  1  0.62841400  0.12841400  0.50957800  1
  O  O10  1  0.50000000  0.50000000  0.21452700  1
  O  O11  1  0.00000000  0.00000000  0.21452700  1
  O  O12  1  0.79263800  0.07721300  0.64165400  1
  O  O13  1  0.20736200  0.92278700  0.64165400  1
  O  O14  1  0.92278700  0.79263800  0.64165400  1
  O  O15  1  0.07721300  0.20736200  0.64165400  1
  O  O16  1  0.42278700  0.70736200  0.64165400  1
  O  O17  1  0.70736200  0.57721300  0.64165400  1
  O  O18  1  0.29263800  0.42278700  0.64165400  1
  O  O19  1  0.57721300  0.29263800  0.64165400  1
  O  O20  1  0.50000000  0.00000000  0.62446800  1
  O  O21  1  0.00000000  0.50000000  0.62446800  1
  O  O22  1  0.62727500  0.12727500  0.20760900  1
  O  O23  1  0.12727500  0.37272500  0.20760900  1
  O  O24  1  0.87272500  0.62727500  0.20760900  1
  O  O25  1  0.37272500  0.87272500  0.20760900  1
