# generated using pymatgen
data_BaYb2CuO5
_symmetry_space_group_name_H-M   'P 1'
_cell_length_a   5.64826300
_cell_length_b   7.07063100
_cell_length_c   12.13152600
_cell_angle_alpha   90.00000000
_cell_angle_beta   90.00000000
_cell_angle_gamma   90.00000000
_symmetry_Int_Tables_number   1
_chemical_formula_structural   BaYb2CuO5
_chemical_formula_sum   'Ba4 Yb8 Cu4 O20'
_cell_volume   484.49412695
_cell_formula_units_Z   4
loop_
 _symmetry_equiv_pos_site_id
 _symmetry_equiv_pos_as_xyz
  1  'x, y, z'
loop_
 _atom_site_type_symbol
 _atom_site_label
 _atom_site_symmetry_multiplicity
 _atom_site_fract_x
 _atom_site_fract_y
 _atom_site_fract_z
 _atom_site_occupancy
  Ba  Ba0  1  0.25000000  0.56737800  0.39790200  1
  Ba  Ba1  1  0.75000000  0.43262200  0.60209800  1
  Ba  Ba2  1  0.75000000  0.06737800  0.10209800  1
  Ba  Ba3  1  0.25000000  0.93262200  0.89790200  1
  Yb  Yb4  1  0.25000000  0.10653000  0.57540300  1
  Yb  Yb5  1  0.75000000  0.89347000  0.42459700  1
  Yb  Yb6  1  0.75000000  0.60653000  0.92459700  1
  Yb  Yb7  1  0.25000000  0.39347000  0.07540300  1
  Yb  Yb8  1  0.25000000  0.38751800  0.79492100  1
  Yb  Yb9  1  0.75000000  0.61248200  0.20507900  1
  Yb  Yb10  1  0.75000000  0.88751800  0.70507900  1
  Yb  Yb11  1  0.25000000  0.11248200  0.29492100  1
  Cu  Cu12  1  0.25000000  0.78654100  0.15833200  1
  Cu  Cu13  1  0.75000000  0.21345900  0.84166800  1
  Cu  Cu14  1  0.75000000  0.28654100  0.34166800  1
  Cu  Cu15  1  0.25000000  0.71345900  0.65833200  1
  O  O16  1  0.25000000  0.43619100  0.60272500  1
  O  O17  1  0.75000000  0.56380900  0.39727500  1
  O  O18  1  0.75000000  0.93619100  0.89727500  1
  O  O19  1  0.25000000  0.06380900  0.10272500  1
  O  O20  1  0.01480200  0.84472200  0.26540700  1
  O  O21  1  0.51480200  0.15527800  0.73459300  1
  O  O22  1  0.98519800  0.34472200  0.23459300  1
  O  O23  1  0.48519800  0.65527800  0.76540700  1
  O  O24  1  0.98519800  0.15527800  0.73459300  1
  O  O25  1  0.48519800  0.84472200  0.26540700  1
  O  O26  1  0.01480200  0.65527800  0.76540700  1
  O  O27  1  0.51480200  0.34472200  0.23459300  1
  O  O28  1  0.47974800  0.67794400  0.06469700  1
  O  O29  1  0.97974800  0.32205600  0.93530300  1
  O  O30  1  0.52025200  0.17794400  0.43530300  1
  O  O31  1  0.02025200  0.82205600  0.56469700  1
  O  O32  1  0.97974800  0.17794400  0.43530300  1
  O  O33  1  0.47974800  0.82205600  0.56469700  1
  O  O34  1  0.02025200  0.67794400  0.06469700  1
  O  O35  1  0.52025200  0.32205600  0.93530300  1
