# generated using pymatgen
data_Na3AlP3NO9
_symmetry_space_group_name_H-M   'P 1'
_cell_length_a   9.40675300
_cell_length_b   9.40675300
_cell_length_c   9.40675300
_cell_angle_alpha   90.00000000
_cell_angle_beta   90.00000000
_cell_angle_gamma   90.00000000
_symmetry_Int_Tables_number   1
_chemical_formula_structural   Na3AlP3NO9
_chemical_formula_sum   'Na12 Al4 P12 N4 O36'
_cell_volume   832.37537155
_cell_formula_units_Z   4
loop_
 _symmetry_equiv_pos_site_id
 _symmetry_equiv_pos_as_xyz
  1  'x, y, z'
loop_
 _atom_site_type_symbol
 _atom_site_label
 _atom_site_symmetry_multiplicity
 _atom_site_fract_x
 _atom_site_fract_y
 _atom_site_fract_z
 _atom_site_occupancy
  Na  Na0  1  0.94933700  0.05066300  0.55066300  1
  Na  Na1  1  0.75984000  0.74016000  0.25984000  1
  Na  Na2  1  0.74016000  0.25984000  0.75984000  1
  Na  Na3  1  0.25984000  0.75984000  0.74016000  1
  Na  Na4  1  0.24016000  0.24016000  0.24016000  1
  Na  Na5  1  0.14142000  0.35858000  0.64142000  1
  Na  Na6  1  0.35858000  0.64142000  0.14142000  1
  Na  Na7  1  0.64142000  0.14142000  0.35858000  1
  Na  Na8  1  0.44933700  0.44933700  0.44933700  1
  Na  Na9  1  0.85858000  0.85858000  0.85858000  1
  Na  Na10  1  0.05066300  0.55066300  0.94933700  1
  Na  Na11  1  0.55066300  0.94933700  0.05066300  1
  Al  Al12  1  0.33254700  0.16745300  0.83254700  1
  Al  Al13  1  0.16745300  0.83254700  0.33254700  1
  Al  Al14  1  0.83254700  0.33254700  0.16745300  1
  Al  Al15  1  0.66745300  0.66745300  0.66745300  1
  P  P16  1  0.17139600  0.92161400  0.01078600  1
  P  P17  1  0.01078600  0.17139600  0.92161400  1
  P  P18  1  0.92161400  0.01078600  0.17139600  1
  P  P19  1  0.98921400  0.67139600  0.57838600  1
  P  P20  1  0.48921400  0.82860400  0.42161400  1
  P  P21  1  0.57838600  0.98921400  0.67139600  1
  P  P22  1  0.82860400  0.42161400  0.48921400  1
  P  P23  1  0.67139600  0.57838600  0.98921400  1
  P  P24  1  0.42161400  0.48921400  0.82860400  1
  P  P25  1  0.07838600  0.51078600  0.32860400  1
  P  P26  1  0.51078600  0.32860400  0.07838600  1
  P  P27  1  0.32860400  0.07838600  0.51078600  1
  N  N28  1  0.94255900  0.55744100  0.44255900  1
  N  N29  1  0.55744100  0.44255900  0.94255900  1
  N  N30  1  0.44255900  0.94255900  0.55744100  1
  N  N31  1  0.05744100  0.05744100  0.05744100  1
  O  O32  1  0.34954500  0.75406300  0.37951600  1
  O  O33  1  0.58904400  0.69752500  0.05963900  1
  O  O34  1  0.91095600  0.30247500  0.55963900  1
  O  O35  1  0.69752500  0.05963900  0.58904400  1
  O  O36  1  0.55963900  0.91095600  0.30247500  1
  O  O37  1  0.05963900  0.58904400  0.69752500  1
  O  O38  1  0.80247500  0.94036100  0.08904400  1
  O  O39  1  0.94036100  0.08904400  0.80247500  1
  O  O40  1  0.25406300  0.12048400  0.65045500  1
  O  O41  1  0.65045500  0.25406300  0.12048400  1
  O  O42  1  0.12048400  0.65045500  0.25406300  1
  O  O43  1  0.37951600  0.34954500  0.75406300  1
  O  O44  1  0.15045500  0.24593700  0.87951600  1
  O  O45  1  0.30247500  0.55963900  0.91095600  1
  O  O46  1  0.84954500  0.74593700  0.62048400  1
  O  O47  1  0.08904400  0.80247500  0.94036100  1
  O  O48  1  0.62048400  0.84954500  0.74593700  1
  O  O49  1  0.75406300  0.37951600  0.34954500  1
  O  O50  1  0.74593700  0.62048400  0.84954500  1
  O  O51  1  0.24593700  0.87951600  0.15045500  1
  O  O52  1  0.21783900  0.01442400  0.40786200  1
  O  O53  1  0.40786200  0.21783900  0.01442400  1
  O  O54  1  0.01442400  0.40786200  0.21783900  1
  O  O55  1  0.48557600  0.59213800  0.71783900  1
  O  O56  1  0.90786200  0.28216100  0.98557600  1
  O  O57  1  0.98557600  0.90786200  0.28216100  1
  O  O58  1  0.09213800  0.78216100  0.51442400  1
  O  O59  1  0.59213800  0.71783900  0.48557600  1
  O  O60  1  0.51442400  0.09213800  0.78216100  1
  O  O61  1  0.71783900  0.48557600  0.59213800  1
  O  O62  1  0.78216100  0.51442400  0.09213800  1
  O  O63  1  0.28216100  0.98557600  0.90786200  1
  O  O64  1  0.41095600  0.19752500  0.44036100  1
  O  O65  1  0.44036100  0.41095600  0.19752500  1
  O  O66  1  0.19752500  0.44036100  0.41095600  1
  O  O67  1  0.87951600  0.15045500  0.24593700  1
