# generated using pymatgen
data_Ba(HO)2
_symmetry_space_group_name_H-M   'P 1'
_cell_length_a   7.91733000
_cell_length_b   6.81569600
_cell_length_c   11.24939478
_cell_angle_alpha   57.24891839
_cell_angle_beta   90.00000000
_cell_angle_gamma   90.00000000
_symmetry_Int_Tables_number   1
_chemical_formula_structural   Ba(HO)2
_chemical_formula_sum   'Ba8 H16 O16'
_cell_volume   510.53907199
_cell_formula_units_Z   8
loop_
 _symmetry_equiv_pos_site_id
 _symmetry_equiv_pos_as_xyz
  1  'x, y, z'
loop_
 _atom_site_type_symbol
 _atom_site_label
 _atom_site_symmetry_multiplicity
 _atom_site_fract_x
 _atom_site_fract_y
 _atom_site_fract_z
 _atom_site_occupancy
  Ba  Ba0  1  0.85389200  0.35435400  0.89424300  1
  Ba  Ba1  1  0.64610800  0.35435400  0.39424300  1
  Ba  Ba2  1  0.14610800  0.64564600  0.10575700  1
  Ba  Ba3  1  0.35389200  0.64564600  0.60575700  1
  Ba  Ba4  1  0.95330000  0.96389200  0.31642400  1
  Ba  Ba5  1  0.54670000  0.96389200  0.81642400  1
  Ba  Ba6  1  0.04670000  0.03610800  0.68357600  1
  Ba  Ba7  1  0.45330000  0.03610800  0.18357600  1
  H  H8  1  0.95136600  0.56905900  0.61820800  1
  H  H9  1  0.54863400  0.56905900  0.11820800  1
  H  H10  1  0.04863400  0.43094100  0.38179200  1
  H  H11  1  0.45136600  0.43094100  0.88179200  1
  H  H12  1  0.15146400  0.20082100  0.02178000  1
  H  H13  1  0.34853600  0.20082100  0.52178000  1
  H  H14  1  0.84853600  0.79917900  0.97822000  1
  H  H15  1  0.65146400  0.79917900  0.47822000  1
  H  H16  1  0.27533300  0.18651400  0.88122400  1
  H  H17  1  0.22466700  0.18651400  0.38122400  1
  H  H18  1  0.72466700  0.81348600  0.11877600  1
  H  H19  1  0.77533300  0.81348600  0.61877600  1
  H  H20  1  0.26218300  0.53611600  0.41369500  1
  H  H21  1  0.23781700  0.53611600  0.91369500  1
  H  H22  1  0.73781700  0.46388400  0.58630500  1
  H  H23  1  0.76218300  0.46388400  0.08630500  1
  O  O24  1  0.00070200  0.70067200  0.61950000  1
  O  O25  1  0.49929800  0.70067200  0.11950000  1
  O  O26  1  0.99929800  0.29932800  0.38050000  1
  O  O27  1  0.50070200  0.29932800  0.88050000  1
  O  O28  1  0.14109500  0.26583200  0.08237500  1
  O  O29  1  0.35890500  0.26583200  0.58237500  1
  O  O30  1  0.85890500  0.73416800  0.91762500  1
  O  O31  1  0.64109500  0.73416800  0.41762500  1
  O  O32  1  0.16186100  0.11624800  0.89534500  1
  O  O33  1  0.33813900  0.11624800  0.39534500  1
  O  O34  1  0.83813900  0.88375200  0.10465500  1
  O  O35  1  0.66186100  0.88375200  0.60465500  1
  O  O36  1  0.20679000  0.68419400  0.34305600  1
  O  O37  1  0.29321000  0.68419400  0.84305600  1
  O  O38  1  0.79321000  0.31580600  0.65694400  1
  O  O39  1  0.70679000  0.31580600  0.15694400  1
