# generated using pymatgen
data_CaSi2(BO4)2
_symmetry_space_group_name_H-M   'P 1'
_cell_length_a   7.80844700
_cell_length_b   8.15174200
_cell_length_c   8.86151700
_cell_angle_alpha   90.00000000
_cell_angle_beta   90.00000000
_cell_angle_gamma   90.00000000
_symmetry_Int_Tables_number   1
_chemical_formula_structural   CaSi2(BO4)2
_chemical_formula_sum   'Ca4 Si8 B8 O32'
_cell_volume   564.05722669
_cell_formula_units_Z   4
loop_
 _symmetry_equiv_pos_site_id
 _symmetry_equiv_pos_as_xyz
  1  'x, y, z'
loop_
 _atom_site_type_symbol
 _atom_site_label
 _atom_site_symmetry_multiplicity
 _atom_site_fract_x
 _atom_site_fract_y
 _atom_site_fract_z
 _atom_site_occupancy
  Ca  Ca0  1  0.25000000  0.11196300  0.57611700  1
  Ca  Ca1  1  0.75000000  0.88803700  0.42388300  1
  Ca  Ca2  1  0.25000000  0.61196300  0.92388300  1
  Ca  Ca3  1  0.75000000  0.38803700  0.07611700  1
  Si  Si4  1  0.05520900  0.55476200  0.30798800  1
  Si  Si5  1  0.55520900  0.44523800  0.69201200  1
  Si  Si6  1  0.44479100  0.05476200  0.19201200  1
  Si  Si7  1  0.94479100  0.94523800  0.80798800  1
  Si  Si8  1  0.94479100  0.44523800  0.69201200  1
  Si  Si9  1  0.44479100  0.55476200  0.30798800  1
  Si  Si10  1  0.55520900  0.94523800  0.80798800  1
  Si  Si11  1  0.05520900  0.05476200  0.19201200  1
  B  B12  1  0.57948600  0.26009800  0.41829700  1
  B  B13  1  0.57948600  0.76009800  0.08170300  1
  B  B14  1  0.07948600  0.23990200  0.91829700  1
  B  B15  1  0.92051400  0.26009800  0.41829700  1
  B  B16  1  0.42051400  0.73990200  0.58170300  1
  B  B17  1  0.07948600  0.73990200  0.58170300  1
  B  B18  1  0.92051400  0.76009800  0.08170300  1
  B  B19  1  0.42051400  0.23990200  0.91829700  1
  O  O20  1  0.25000000  0.31397800  0.92744400  1
  O  O21  1  0.75000000  0.18602200  0.42744400  1
  O  O22  1  0.25000000  0.81397800  0.57255600  1
  O  O23  1  0.75000000  0.68602200  0.07255600  1
  O  O24  1  0.25000000  0.98868800  0.16499300  1
  O  O25  1  0.75000000  0.01131200  0.83500700  1
  O  O26  1  0.25000000  0.48868800  0.33500700  1
  O  O27  1  0.75000000  0.51131200  0.66499300  1
  O  O28  1  0.92218600  0.90024400  0.18684600  1
  O  O29  1  0.42218600  0.09975600  0.81315400  1
  O  O30  1  0.57781400  0.40024400  0.31315400  1
  O  O31  1  0.07781400  0.59975600  0.68684600  1
  O  O32  1  0.00271200  0.19305400  0.06651600  1
  O  O33  1  0.50271200  0.80694600  0.93348400  1
  O  O34  1  0.49728800  0.69305400  0.43348400  1
  O  O35  1  0.99728800  0.30694600  0.56651600  1
  O  O36  1  0.99728800  0.80694600  0.93348400  1
  O  O37  1  0.49728800  0.19305400  0.06651600  1
  O  O38  1  0.50271200  0.30694600  0.56651600  1
  O  O39  1  0.00271200  0.69305400  0.43348400  1
  O  O40  1  0.04116300  0.12803900  0.36432200  1
  O  O41  1  0.54116300  0.87196100  0.63567800  1
  O  O42  1  0.45883700  0.62803900  0.13567800  1
  O  O43  1  0.95883700  0.37196100  0.86432200  1
  O  O44  1  0.95883700  0.87196100  0.63567800  1
  O  O45  1  0.45883700  0.12803900  0.36432200  1
  O  O46  1  0.54116300  0.37196100  0.86432200  1
  O  O47  1  0.04116300  0.62803900  0.13567800  1
  O  O48  1  0.92218600  0.40024400  0.31315400  1
  O  O49  1  0.42218600  0.59975600  0.68684600  1
  O  O50  1  0.57781400  0.90024400  0.18684600  1
  O  O51  1  0.07781400  0.09975600  0.81315400  1
