# generated using pymatgen
data_Te3(PdBr)4
_symmetry_space_group_name_H-M   'P 1'
_cell_length_a   8.62704500
_cell_length_b   8.71934085
_cell_length_c   9.00681233
_cell_angle_alpha   107.22191022
_cell_angle_beta   98.05576326
_cell_angle_gamma   88.78300396
_symmetry_Int_Tables_number   1
_chemical_formula_structural   Te3(PdBr)4
_chemical_formula_sum   'Te6 Pd8 Br8'
_cell_volume   640.60289349
_cell_formula_units_Z   2
loop_
 _symmetry_equiv_pos_site_id
 _symmetry_equiv_pos_as_xyz
  1  'x, y, z'
loop_
 _atom_site_type_symbol
 _atom_site_label
 _atom_site_symmetry_multiplicity
 _atom_site_fract_x
 _atom_site_fract_y
 _atom_site_fract_z
 _atom_site_occupancy
  Te  Te0  1  0.15265100  0.27979500  0.97114600  1
  Te  Te1  1  0.19329800  0.47630300  0.70909700  1
  Te  Te2  1  0.80670200  0.52369700  0.29090300  1
  Te  Te3  1  0.38537400  0.14676100  0.69823100  1
  Te  Te4  1  0.61462600  0.85323900  0.30176900  1
  Te  Te5  1  0.84734900  0.72020500  0.02885400  1
  Pd  Pd6  1  0.21558900  0.57688900  0.00912400  1
  Pd  Pd7  1  0.44402000  0.21265400  0.99606100  1
  Pd  Pd8  1  0.55598000  0.78734600  0.00393900  1
  Pd  Pd9  1  0.78441100  0.42311100  0.99087600  1
  Pd  Pd10  1  0.92173700  0.81507000  0.33647400  1
  Pd  Pd11  1  0.48521000  0.42308200  0.70374600  1
  Pd  Pd12  1  0.07826300  0.18493000  0.66352600  1
  Pd  Pd13  1  0.51479000  0.57691800  0.29625400  1
  Br  Br14  1  0.46054200  0.28830900  0.29647000  1
  Br  Br15  1  0.53945800  0.71169100  0.70353000  1
  Br  Br16  1  0.26874800  0.86465900  0.01072000  1
  Br  Br17  1  0.22109000  0.65709300  0.31226400  1
  Br  Br18  1  0.02352600  0.10438200  0.35795700  1
  Br  Br19  1  0.97647400  0.89561800  0.64204300  1
  Br  Br20  1  0.73125200  0.13534100  0.98928000  1
  Br  Br21  1  0.77891000  0.34290700  0.68773600  1
