# generated using pymatgen
data_Mn7FeCl3O10
_symmetry_space_group_name_H-M   'P 1'
_cell_length_a   9.43892376
_cell_length_b   9.43892376
_cell_length_c   9.43892376
_cell_angle_alpha   60.00000000
_cell_angle_beta   60.00000000
_cell_angle_gamma   60.00000000
_symmetry_Int_Tables_number   1
_chemical_formula_structural   Mn7FeCl3O10
_chemical_formula_sum   'Mn14 Fe2 Cl6 O20'
_cell_volume   594.63769628
_cell_formula_units_Z   2
loop_
 _symmetry_equiv_pos_site_id
 _symmetry_equiv_pos_as_xyz
  1  'x, y, z'
loop_
 _atom_site_type_symbol
 _atom_site_label
 _atom_site_symmetry_multiplicity
 _atom_site_fract_x
 _atom_site_fract_y
 _atom_site_fract_z
 _atom_site_occupancy
  Mn  Mn0  1  0.64863800  0.00000000  0.35136200  1
  Mn  Mn1  1  0.35136200  0.64863800  0.00000000  1
  Mn  Mn2  1  0.00000000  0.00000000  0.35136200  1
  Mn  Mn3  1  0.64863800  0.00000000  0.00000000  1
  Mn  Mn4  1  0.35136200  0.00000000  0.64863800  1
  Mn  Mn5  1  0.00000000  0.35136200  0.64863800  1
  Mn  Mn6  1  0.00000000  0.35136200  0.00000000  1
  Mn  Mn7  1  0.64863800  0.35136200  0.00000000  1
  Mn  Mn8  1  0.50000000  0.50000000  0.50000000  1
  Mn  Mn9  1  0.00000000  0.64863800  0.00000000  1
  Mn  Mn10  1  0.00000000  0.00000000  0.64863800  1
  Mn  Mn11  1  0.00000000  0.64863800  0.35136200  1
  Mn  Mn12  1  0.35136200  0.00000000  0.00000000  1
  Mn  Mn13  1  0.00000000  0.00000000  0.00000000  1
  Fe  Fe14  1  0.25000000  0.25000000  0.25000000  1
  Fe  Fe15  1  0.75000000  0.75000000  0.75000000  1
  Cl  Cl16  1  0.69650900  0.30349100  0.30349100  1
  Cl  Cl17  1  0.30349100  0.69650900  0.69650900  1
  Cl  Cl18  1  0.69650900  0.69650900  0.30349100  1
  Cl  Cl19  1  0.30349100  0.69650900  0.30349100  1
  Cl  Cl20  1  0.69650900  0.30349100  0.69650900  1
  Cl  Cl21  1  0.30349100  0.30349100  0.69650900  1
  O  O22  1  0.59628100  0.90371900  0.90371900  1
  O  O23  1  0.59628100  0.90371900  0.59628100  1
  O  O24  1  0.30004300  0.89998600  0.89998600  1
  O  O25  1  0.59628100  0.59628100  0.90371900  1
  O  O26  1  0.90371900  0.59628100  0.90371900  1
  O  O27  1  0.09628100  0.09628100  0.40371900  1
  O  O28  1  0.40371900  0.09628100  0.09628100  1
  O  O29  1  0.90371900  0.59628100  0.59628100  1
  O  O30  1  0.10001400  0.69995700  0.10001400  1
  O  O31  1  0.89998600  0.30004300  0.89998600  1
  O  O32  1  0.10001400  0.10001400  0.10001400  1
  O  O33  1  0.40371900  0.40371900  0.09628100  1
  O  O34  1  0.90371900  0.90371900  0.59628100  1
  O  O35  1  0.69995700  0.10001400  0.10001400  1
  O  O36  1  0.09628100  0.40371900  0.40371900  1
  O  O37  1  0.89998600  0.89998600  0.30004300  1
  O  O38  1  0.40371900  0.09628100  0.40371900  1
  O  O39  1  0.89998600  0.89998600  0.89998600  1
  O  O40  1  0.10001400  0.10001400  0.69995700  1
  O  O41  1  0.09628100  0.40371900  0.09628100  1
