# generated using pymatgen
data_NaGeSbO5
_symmetry_space_group_name_H-M   'P 1'
_cell_length_a   5.66972902
_cell_length_b   5.66972902
_cell_length_c   7.35317785
_cell_angle_alpha   75.05917751
_cell_angle_beta   75.05917751
_cell_angle_gamma   105.40736852
_symmetry_Int_Tables_number   1
_chemical_formula_structural   NaGeSbO5
_chemical_formula_sum   'Na2 Ge2 Sb2 O10'
_cell_volume   206.22190972
_cell_formula_units_Z   2
loop_
 _symmetry_equiv_pos_site_id
 _symmetry_equiv_pos_as_xyz
  1  'x, y, z'
loop_
 _atom_site_type_symbol
 _atom_site_label
 _atom_site_symmetry_multiplicity
 _atom_site_fract_x
 _atom_site_fract_y
 _atom_site_fract_z
 _atom_site_occupancy
  Na  Na0  1  0.33300600  0.66699400  0.75000000  1
  Na  Na1  1  0.66699400  0.33300600  0.25000000  1
  Ge  Ge2  1  0.31372300  0.68627700  0.25000000  1
  Ge  Ge3  1  0.68627700  0.31372300  0.75000000  1
  Sb  Sb4  1  0.00000000  0.00000000  0.50000000  1
  Sb  Sb5  1  0.00000000  0.00000000  0.00000000  1
  O  O6  1  0.07945800  0.92054200  0.75000000  1
  O  O7  1  0.92054200  0.07945800  0.25000000  1
  O  O8  1  0.31149000  0.90529800  0.38491100  1
  O  O9  1  0.09470200  0.68851000  0.11508900  1
  O  O10  1  0.68851000  0.09470200  0.61508900  1
  O  O11  1  0.90529800  0.31149000  0.88491100  1
  O  O12  1  0.75396100  0.62973400  0.58023500  1
  O  O13  1  0.37026600  0.24603900  0.91976500  1
  O  O14  1  0.24603900  0.37026600  0.41976500  1
  O  O15  1  0.62973400  0.75396100  0.08023500  1
