# generated using pymatgen
data_Zr6Co16Si7
_symmetry_space_group_name_H-M   'P 1'
_cell_length_a   8.08243133
_cell_length_b   8.08243133
_cell_length_c   8.08243133
_cell_angle_alpha   60.00000000
_cell_angle_beta   60.00000000
_cell_angle_gamma   60.00000000
_symmetry_Int_Tables_number   1
_chemical_formula_structural   Zr6Co16Si7
_chemical_formula_sum   'Zr6 Co16 Si7'
_cell_volume   373.34562981
_cell_formula_units_Z   1
loop_
 _symmetry_equiv_pos_site_id
 _symmetry_equiv_pos_as_xyz
  1  'x, y, z'
loop_
 _atom_site_type_symbol
 _atom_site_label
 _atom_site_symmetry_multiplicity
 _atom_site_fract_x
 _atom_site_fract_y
 _atom_site_fract_z
 _atom_site_occupancy
  Zr  Zr0  1  0.70690000  0.29310000  0.29310000  1
  Zr  Zr1  1  0.29310000  0.29310000  0.70690000  1
  Zr  Zr2  1  0.29310000  0.70690000  0.70690000  1
  Zr  Zr3  1  0.70690000  0.70690000  0.29310000  1
  Zr  Zr4  1  0.29310000  0.70690000  0.29310000  1
  Zr  Zr5  1  0.70690000  0.29310000  0.70690000  1
  Co  Co6  1  0.12008000  0.12008000  0.63976100  1
  Co  Co7  1  0.67295500  0.98113400  0.67295500  1
  Co  Co8  1  0.36023900  0.87992000  0.87992000  1
  Co  Co9  1  0.01886600  0.32704500  0.32704500  1
  Co  Co10  1  0.98113400  0.67295500  0.67295500  1
  Co  Co11  1  0.32704500  0.32704500  0.01886600  1
  Co  Co12  1  0.67295500  0.67295500  0.98113400  1
  Co  Co13  1  0.63976100  0.12008000  0.12008000  1
  Co  Co14  1  0.67295500  0.67295500  0.67295500  1
  Co  Co15  1  0.87992000  0.87992000  0.36023900  1
  Co  Co16  1  0.12008000  0.12008000  0.12008000  1
  Co  Co17  1  0.87992000  0.36023900  0.87992000  1
  Co  Co18  1  0.87992000  0.87992000  0.87992000  1
  Co  Co19  1  0.32704500  0.32704500  0.32704500  1
  Co  Co20  1  0.12008000  0.63976100  0.12008000  1
  Co  Co21  1  0.32704500  0.01886600  0.32704500  1
  Si  Si22  1  0.00000000  0.50000000  0.00000000  1
  Si  Si23  1  0.00000000  0.00000000  0.50000000  1
  Si  Si24  1  0.00000000  0.00000000  0.00000000  1
  Si  Si25  1  0.50000000  0.50000000  0.00000000  1
  Si  Si26  1  0.50000000  0.00000000  0.50000000  1
  Si  Si27  1  0.50000000  0.00000000  0.00000000  1
  Si  Si28  1  0.00000000  0.50000000  0.50000000  1
