# generated using pymatgen
data_Zr(InBr3)2
_symmetry_space_group_name_H-M   'P 1'
_cell_length_a   7.54407800
_cell_length_b   7.54407800
_cell_length_c   10.91841600
_cell_angle_alpha   90.00000000
_cell_angle_beta   90.00000000
_cell_angle_gamma   90.00000000
_symmetry_Int_Tables_number   1
_chemical_formula_structural   Zr(InBr3)2
_chemical_formula_sum   'Zr2 In4 Br12'
_cell_volume   621.40104217
_cell_formula_units_Z   2
loop_
 _symmetry_equiv_pos_site_id
 _symmetry_equiv_pos_as_xyz
  1  'x, y, z'
loop_
 _atom_site_type_symbol
 _atom_site_label
 _atom_site_symmetry_multiplicity
 _atom_site_fract_x
 _atom_site_fract_y
 _atom_site_fract_z
 _atom_site_occupancy
  Zr  Zr0  1  0.00000000  0.00000000  0.50000000  1
  Zr  Zr1  1  0.50000000  0.50000000  0.00000000  1
  In  In2  1  0.00000000  0.50000000  0.25000000  1
  In  In3  1  0.00000000  0.50000000  0.75000000  1
  In  In4  1  0.50000000  0.00000000  0.75000000  1
  In  In5  1  0.50000000  0.00000000  0.25000000  1
  Br  Br6  1  0.79649700  0.71304800  0.50000000  1
  Br  Br7  1  0.21304800  0.29649700  0.00000000  1
  Br  Br8  1  0.50000000  0.50000000  0.75727100  1
  Br  Br9  1  0.28695200  0.79649700  0.50000000  1
  Br  Br10  1  0.00000000  0.00000000  0.25727100  1
  Br  Br11  1  0.78695200  0.70350300  0.00000000  1
  Br  Br12  1  0.70350300  0.21304800  0.00000000  1
  Br  Br13  1  0.29649700  0.78695200  0.00000000  1
  Br  Br14  1  0.00000000  0.00000000  0.74272900  1
  Br  Br15  1  0.20350300  0.28695200  0.50000000  1
  Br  Br16  1  0.50000000  0.50000000  0.24272900  1
  Br  Br17  1  0.71304800  0.20350300  0.50000000  1
