# generated using pymatgen
data_YNiBC
_symmetry_space_group_name_H-M   'P 1'
_cell_length_a   3.59005100
_cell_length_b   3.59005100
_cell_length_c   7.54355400
_cell_angle_alpha   90.00000000
_cell_angle_beta   90.00000000
_cell_angle_gamma   90.00000000
_symmetry_Int_Tables_number   1
_chemical_formula_structural   YNiBC
_chemical_formula_sum   'Y2 Ni2 B2 C2'
_cell_volume   97.22484063
_cell_formula_units_Z   2
loop_
 _symmetry_equiv_pos_site_id
 _symmetry_equiv_pos_as_xyz
  1  'x, y, z'
loop_
 _atom_site_type_symbol
 _atom_site_label
 _atom_site_symmetry_multiplicity
 _atom_site_fract_x
 _atom_site_fract_y
 _atom_site_fract_z
 _atom_site_occupancy
  Y  Y0  1  0.50000000  0.00000000  0.83484400  1
  Y  Y1  1  0.00000000  0.50000000  0.16515600  1
  Ni  Ni2  1  0.50000000  0.50000000  0.50000000  1
  Ni  Ni3  1  0.00000000  0.00000000  0.50000000  1
  B  B4  1  0.00000000  0.50000000  0.64371700  1
  B  B5  1  0.50000000  0.00000000  0.35628300  1
  C  C6  1  0.50000000  0.00000000  0.15810000  1
  C  C7  1  0.00000000  0.50000000  0.84190000  1
