# generated using pymatgen
data_Ho5(Ge5Ir2)2
_symmetry_space_group_name_H-M   'P 1'
_cell_length_a   13.03110300
_cell_length_b   13.03110300
_cell_length_c   4.31447800
_cell_angle_alpha   90.00000000
_cell_angle_beta   90.00000000
_cell_angle_gamma   90.00000000
_symmetry_Int_Tables_number   1
_chemical_formula_structural   Ho5(Ge5Ir2)2
_chemical_formula_sum   'Ho10 Ge20 Ir8'
_cell_volume   732.63997925
_cell_formula_units_Z   2
loop_
 _symmetry_equiv_pos_site_id
 _symmetry_equiv_pos_as_xyz
  1  'x, y, z'
loop_
 _atom_site_type_symbol
 _atom_site_label
 _atom_site_symmetry_multiplicity
 _atom_site_fract_x
 _atom_site_fract_y
 _atom_site_fract_z
 _atom_site_occupancy
  Ho  Ho0  1  0.50000000  0.50000000  0.00000000  1
  Ho  Ho1  1  0.00000000  0.00000000  0.00000000  1
  Ho  Ho2  1  0.67315200  0.17315200  0.50000000  1
  Ho  Ho3  1  0.32684800  0.82684800  0.50000000  1
  Ho  Ho4  1  0.17315200  0.32684800  0.50000000  1
  Ho  Ho5  1  0.82684800  0.67315200  0.50000000  1
  Ho  Ho6  1  0.88474500  0.38474500  0.50000000  1
  Ho  Ho7  1  0.11525500  0.61525500  0.50000000  1
  Ho  Ho8  1  0.38474500  0.11525500  0.50000000  1
  Ho  Ho9  1  0.61525500  0.88474500  0.50000000  1
  Ge  Ge10  1  0.56691400  0.06691400  0.00000000  1
  Ge  Ge11  1  0.43308600  0.93308600  0.00000000  1
  Ge  Ge12  1  0.06691400  0.43308600  0.00000000  1
  Ge  Ge13  1  0.93308600  0.56691400  0.00000000  1
  Ge  Ge14  1  0.66398600  0.69945800  0.00000000  1
  Ge  Ge15  1  0.33601400  0.30054200  0.00000000  1
  Ge  Ge16  1  0.16398600  0.80054200  0.00000000  1
  Ge  Ge17  1  0.83601400  0.19945800  0.00000000  1
  Ge  Ge18  1  0.30054200  0.66398600  0.00000000  1
  Ge  Ge19  1  0.69945800  0.33601400  0.00000000  1
  Ge  Ge20  1  0.19945800  0.16398600  0.00000000  1
  Ge  Ge21  1  0.80054200  0.83601400  0.00000000  1
  Ge  Ge22  1  0.84383400  0.00787000  0.50000000  1
  Ge  Ge23  1  0.15616600  0.99213000  0.50000000  1
  Ge  Ge24  1  0.34383400  0.49213000  0.50000000  1
  Ge  Ge25  1  0.65616600  0.50787000  0.50000000  1
  Ge  Ge26  1  0.99213000  0.84383400  0.50000000  1
  Ge  Ge27  1  0.00787000  0.15616600  0.50000000  1
  Ge  Ge28  1  0.50787000  0.34383400  0.50000000  1
  Ge  Ge29  1  0.49213000  0.65616600  0.50000000  1
  Ir  Ir30  1  0.75299600  0.01900500  0.00000000  1
  Ir  Ir31  1  0.24700400  0.98099500  0.00000000  1
  Ir  Ir32  1  0.25299600  0.48099500  0.00000000  1
  Ir  Ir33  1  0.74700400  0.51900500  0.00000000  1
  Ir  Ir34  1  0.98099500  0.75299600  0.00000000  1
  Ir  Ir35  1  0.01900500  0.24700400  0.00000000  1
  Ir  Ir36  1  0.51900500  0.25299600  0.00000000  1
  Ir  Ir37  1  0.48099500  0.74700400  0.00000000  1
