# generated using pymatgen
data_NdGe
_symmetry_space_group_name_H-M   'P 1'
_cell_length_a   5.99522744
_cell_length_b   5.99522744
_cell_length_c   4.07256400
_cell_angle_alpha   90.00000000
_cell_angle_beta   90.00000000
_cell_angle_gamma   135.96577157
_symmetry_Int_Tables_number   1
_chemical_formula_structural   NdGe
_chemical_formula_sum   'Nd2 Ge2'
_cell_volume   101.74639304
_cell_formula_units_Z   2
loop_
 _symmetry_equiv_pos_site_id
 _symmetry_equiv_pos_as_xyz
  1  'x, y, z'
loop_
 _atom_site_type_symbol
 _atom_site_label
 _atom_site_symmetry_multiplicity
 _atom_site_fract_x
 _atom_site_fract_y
 _atom_site_fract_z
 _atom_site_occupancy
  Nd  Nd0  1  0.13810100  0.86189800  0.25000000  1
  Nd  Nd1  1  0.86189900  0.13810100  0.75000000  1
  Ge  Ge2  1  0.41884300  0.58115700  0.25000000  1
  Ge  Ge3  1  0.58115700  0.41884300  0.75000000  1
