# generated using pymatgen
data_Y2Be2SiO7
_symmetry_space_group_name_H-M   'P 1'
_cell_length_a   7.34937800
_cell_length_b   7.34937800
_cell_length_c   4.80136400
_cell_angle_alpha   90.00000000
_cell_angle_beta   90.00000000
_cell_angle_gamma   90.00000000
_symmetry_Int_Tables_number   1
_chemical_formula_structural   Y2Be2SiO7
_chemical_formula_sum   'Y4 Be4 Si2 O14'
_cell_volume   259.33778776
_cell_formula_units_Z   2
loop_
 _symmetry_equiv_pos_site_id
 _symmetry_equiv_pos_as_xyz
  1  'x, y, z'
loop_
 _atom_site_type_symbol
 _atom_site_label
 _atom_site_symmetry_multiplicity
 _atom_site_fract_x
 _atom_site_fract_y
 _atom_site_fract_z
 _atom_site_occupancy
  Y  Y0  1  0.15900700  0.34099300  0.50750900  1
  Y  Y1  1  0.65900700  0.15900700  0.49249100  1
  Y  Y2  1  0.34099300  0.84099300  0.49249100  1
  Y  Y3  1  0.84099300  0.65900700  0.50750900  1
  Be  Be4  1  0.13666700  0.63666700  0.04015500  1
  Be  Be5  1  0.63666700  0.86333300  0.95984500  1
  Be  Be6  1  0.36333300  0.13666700  0.95984500  1
  Be  Be7  1  0.86333300  0.36333300  0.04015500  1
  Si  Si8  1  0.50000000  0.50000000  0.00000000  1
  Si  Si9  1  0.00000000  0.00000000  0.00000000  1
  O  O10  1  0.91831400  0.16291200  0.19880400  1
  O  O11  1  0.83708800  0.91831400  0.80119600  1
  O  O12  1  0.16291200  0.08168600  0.80119600  1
  O  O13  1  0.08168600  0.83708800  0.19880400  1
  O  O14  1  0.41831400  0.33708800  0.80119600  1
  O  O15  1  0.58168600  0.66291200  0.80119600  1
  O  O16  1  0.66291200  0.41831400  0.19880400  1
  O  O17  1  0.33708800  0.58168600  0.19880400  1
  O  O18  1  0.64131400  0.85868600  0.29110100  1
  O  O19  1  0.14131400  0.64131400  0.70889900  1
  O  O20  1  0.85868600  0.35868600  0.70889900  1
  O  O21  1  0.35868600  0.14131400  0.29110100  1
  O  O22  1  0.50000000  0.00000000  0.81855900  1
  O  O23  1  0.00000000  0.50000000  0.18144100  1
