# generated using pymatgen
data_CsTbZnTe3
_symmetry_space_group_name_H-M   'P 1'
_cell_length_a   8.93509715
_cell_length_b   8.93509715
_cell_length_c   11.78424400
_cell_angle_alpha   90.00000000
_cell_angle_beta   90.00000000
_cell_angle_gamma   151.22447247
_symmetry_Int_Tables_number   1
_chemical_formula_structural   CsTbZnTe3
_chemical_formula_sum   'Cs2 Tb2 Zn2 Te6'
_cell_volume   452.88478390
_cell_formula_units_Z   2
loop_
 _symmetry_equiv_pos_site_id
 _symmetry_equiv_pos_as_xyz
  1  'x, y, z'
loop_
 _atom_site_type_symbol
 _atom_site_label
 _atom_site_symmetry_multiplicity
 _atom_site_fract_x
 _atom_site_fract_y
 _atom_site_fract_z
 _atom_site_occupancy
  Cs  Cs0  1  0.24543000  0.75457000  0.75000000  1
  Cs  Cs1  1  0.75457000  0.24543000  0.25000000  1
  Tb  Tb2  1  0.50000000  0.50000000  0.50000000  1
  Tb  Tb3  1  0.50000000  0.50000000  0.00000000  1
  Zn  Zn4  1  0.96132900  0.03867100  0.75000000  1
  Zn  Zn5  1  0.03867100  0.96132900  0.25000000  1
  Te  Te6  1  0.44223800  0.55776200  0.25000000  1
  Te  Te7  1  0.88021600  0.11978400  0.94372700  1
  Te  Te8  1  0.88021600  0.11978400  0.55627300  1
  Te  Te9  1  0.55776200  0.44223800  0.75000000  1
  Te  Te10  1  0.11978400  0.88021600  0.44372700  1
  Te  Te11  1  0.11978400  0.88021600  0.05627300  1
