# generated using pymatgen
data_Y14(InRh)3
_symmetry_space_group_name_H-M   'P 1'
_cell_length_a   9.71012300
_cell_length_b   9.71012300
_cell_length_c   23.62347100
_cell_angle_alpha   90.00000000
_cell_angle_beta   90.00000000
_cell_angle_gamma   90.00000000
_symmetry_Int_Tables_number   1
_chemical_formula_structural   Y14(InRh)3
_chemical_formula_sum   'Y56 In12 Rh12'
_cell_volume   2227.37413091
_cell_formula_units_Z   4
loop_
 _symmetry_equiv_pos_site_id
 _symmetry_equiv_pos_as_xyz
  1  'x, y, z'
loop_
 _atom_site_type_symbol
 _atom_site_label
 _atom_site_symmetry_multiplicity
 _atom_site_fract_x
 _atom_site_fract_y
 _atom_site_fract_z
 _atom_site_occupancy
  Y  Y0  1  0.79853200  0.00000000  0.55647300  1
  Y  Y1  1  0.20146800  0.00000000  0.55647300  1
  Y  Y2  1  0.68795300  0.81511000  0.85456400  1
  Y  Y3  1  0.50000000  0.19162700  0.21628800  1
  Y  Y4  1  0.29853200  0.50000000  0.94352700  1
  Y  Y5  1  0.00000000  0.79853200  0.44352700  1
  Y  Y6  1  0.00000000  0.50000000  0.53451300  1
  Y  Y7  1  0.50000000  0.50000000  0.39606700  1
  Y  Y8  1  0.31060200  0.50000000  0.26646700  1
  Y  Y9  1  0.31204700  0.18489000  0.85456400  1
  Y  Y10  1  0.50000000  0.50000000  0.60393300  1
  Y  Y11  1  0.31150200  0.31150200  0.50000000  1
  Y  Y12  1  0.50000000  0.00000000  0.96548700  1
  Y  Y13  1  0.00000000  0.00000000  0.89606700  1
  Y  Y14  1  0.81511000  0.31204700  0.14543600  1
  Y  Y15  1  0.00000000  0.69162700  0.28371200  1
  Y  Y16  1  0.18849800  0.18849800  0.00000000  1
  Y  Y17  1  0.69162700  0.00000000  0.71628800  1
  Y  Y18  1  0.50000000  0.70146800  0.05647300  1
  Y  Y19  1  0.00000000  0.81060200  0.76646700  1
  Y  Y20  1  0.18849800  0.81150200  0.00000000  1
  Y  Y21  1  0.18795300  0.31511000  0.64543600  1
  Y  Y22  1  0.31511000  0.18795300  0.35456400  1
  Y  Y23  1  0.00000000  0.50000000  0.03451300  1
  Y  Y24  1  0.70146800  0.50000000  0.94352700  1
  Y  Y25  1  0.31150200  0.68849800  0.50000000  1
  Y  Y26  1  0.00000000  0.20146800  0.44352700  1
  Y  Y27  1  0.68795300  0.18489000  0.85456400  1
  Y  Y28  1  0.81204700  0.31511000  0.64543600  1
  Y  Y29  1  0.18489000  0.31204700  0.14543600  1
  Y  Y30  1  0.81204700  0.68489000  0.64543600  1
  Y  Y31  1  0.50000000  0.68939800  0.73353300  1
  Y  Y32  1  0.50000000  0.29853200  0.05647300  1
  Y  Y33  1  0.18795300  0.68489000  0.64543600  1
  Y  Y34  1  0.68939800  0.50000000  0.26646700  1
  Y  Y35  1  0.68489000  0.18795300  0.35456400  1
  Y  Y36  1  0.81511000  0.68795300  0.14543600  1
  Y  Y37  1  0.80837300  0.50000000  0.78371200  1
  Y  Y38  1  0.68849800  0.68849800  0.50000000  1
  Y  Y39  1  0.81060200  0.00000000  0.23353300  1
  Y  Y40  1  0.19162700  0.50000000  0.78371200  1
  Y  Y41  1  0.81150200  0.18849800  0.00000000  1
  Y  Y42  1  0.00000000  0.18939800  0.76646700  1
  Y  Y43  1  0.31511000  0.81204700  0.35456400  1
  Y  Y44  1  0.18489000  0.68795300  0.14543600  1
  Y  Y45  1  0.50000000  0.80837300  0.21628800  1
  Y  Y46  1  0.81150200  0.81150200  0.00000000  1
  Y  Y47  1  0.00000000  0.30837300  0.28371200  1
  Y  Y48  1  0.18939800  0.00000000  0.23353300  1
  Y  Y49  1  0.50000000  0.00000000  0.46548700  1
  Y  Y50  1  0.68489000  0.81204700  0.35456400  1
  Y  Y51  1  0.50000000  0.31060200  0.73353300  1
  Y  Y52  1  0.31204700  0.81511000  0.85456400  1
  Y  Y53  1  0.00000000  0.00000000  0.10393300  1
  Y  Y54  1  0.68849800  0.31150200  0.50000000  1
  Y  Y55  1  0.30837300  0.00000000  0.71628800  1
  In  In56  1  0.66066900  0.00000000  0.10478100  1
  In  In57  1  0.00000000  0.00000000  0.65907100  1
  In  In58  1  0.83933100  0.50000000  0.39521900  1
  In  In59  1  0.16066900  0.50000000  0.39521900  1
  In  In60  1  0.00000000  0.66066900  0.89521900  1
  In  In61  1  0.33933100  0.00000000  0.10478100  1
  In  In62  1  0.50000000  0.50000000  0.84092900  1
  In  In63  1  0.50000000  0.50000000  0.15907100  1
  In  In64  1  0.50000000  0.16066900  0.60478100  1
  In  In65  1  0.00000000  0.00000000  0.34092900  1
  In  In66  1  0.50000000  0.83933100  0.60478100  1
  In  In67  1  0.00000000  0.33933100  0.89521900  1
  Rh  Rh68  1  0.00000000  0.50000000  0.19895700  1
  Rh  Rh69  1  0.50000000  0.00000000  0.80104300  1
  Rh  Rh70  1  0.00000000  0.78124500  0.56093900  1
  Rh  Rh71  1  0.21875500  0.00000000  0.43906100  1
  Rh  Rh72  1  0.71875500  0.50000000  0.06093900  1
  Rh  Rh73  1  0.28124500  0.50000000  0.06093900  1
  Rh  Rh74  1  0.00000000  0.21875500  0.56093900  1
  Rh  Rh75  1  0.50000000  0.71875500  0.93906100  1
  Rh  Rh76  1  0.00000000  0.50000000  0.69895700  1
  Rh  Rh77  1  0.50000000  0.28124500  0.93906100  1
  Rh  Rh78  1  0.50000000  0.00000000  0.30104300  1
  Rh  Rh79  1  0.78124500  0.00000000  0.43906100  1
