# generated using pymatgen
data_Ti2Se
_symmetry_space_group_name_H-M   'P 1'
_cell_length_a   3.44907100
_cell_length_b   11.74082700
_cell_length_c   14.53339800
_cell_angle_alpha   90.00000000
_cell_angle_beta   90.00000000
_cell_angle_gamma   90.00000000
_symmetry_Int_Tables_number   1
_chemical_formula_structural   Ti2Se
_chemical_formula_sum   'Ti24 Se12'
_cell_volume   588.52916607
_cell_formula_units_Z   12
loop_
 _symmetry_equiv_pos_site_id
 _symmetry_equiv_pos_as_xyz
  1  'x, y, z'
loop_
 _atom_site_type_symbol
 _atom_site_label
 _atom_site_symmetry_multiplicity
 _atom_site_fract_x
 _atom_site_fract_y
 _atom_site_fract_z
 _atom_site_occupancy
  Ti  Ti0  1  0.50000000  0.35419400  0.52035700  1
  Ti  Ti1  1  0.00000000  0.88585500  0.42580600  1
  Ti  Ti2  1  0.50000000  0.91527600  0.57621200  1
  Ti  Ti3  1  0.50000000  0.97064200  0.10789500  1
  Ti  Ti4  1  0.50000000  0.61414500  0.92580600  1
  Ti  Ti5  1  0.50000000  0.64580600  0.47964300  1
  Ti  Ti6  1  0.00000000  0.47064200  0.39210500  1
  Ti  Ti7  1  0.50000000  0.38585500  0.07419400  1
  Ti  Ti8  1  0.00000000  0.18855100  0.79501100  1
  Ti  Ti9  1  0.00000000  0.09055100  0.25991600  1
  Ti  Ti10  1  0.00000000  0.81144900  0.20498900  1
  Ti  Ti11  1  0.50000000  0.08472400  0.42378800  1
  Ti  Ti12  1  0.00000000  0.85419400  0.97964300  1
  Ti  Ti13  1  0.00000000  0.52935800  0.60789500  1
  Ti  Ti14  1  0.50000000  0.02935800  0.89210500  1
  Ti  Ti15  1  0.00000000  0.41527600  0.92378800  1
  Ti  Ti16  1  0.50000000  0.59055100  0.24008400  1
  Ti  Ti17  1  0.00000000  0.58472400  0.07621200  1
  Ti  Ti18  1  0.00000000  0.11414500  0.57419400  1
  Ti  Ti19  1  0.00000000  0.14580600  0.02035700  1
  Ti  Ti20  1  0.50000000  0.31144900  0.29501100  1
  Ti  Ti21  1  0.50000000  0.40944900  0.75991600  1
  Ti  Ti22  1  0.00000000  0.90944900  0.74008400  1
  Ti  Ti23  1  0.50000000  0.68855100  0.70498900  1
  Se  Se24  1  0.00000000  0.31279400  0.65006600  1
  Se  Se25  1  0.50000000  0.18720600  0.15006600  1
  Se  Se26  1  0.00000000  0.56801000  0.79347700  1
  Se  Se27  1  0.50000000  0.93199000  0.29347700  1
  Se  Se28  1  0.50000000  0.74428200  0.08609400  1
  Se  Se29  1  0.00000000  0.68720600  0.34993400  1
  Se  Se30  1  0.00000000  0.43199000  0.20652300  1
  Se  Se31  1  0.00000000  0.24428200  0.41390600  1
  Se  Se32  1  0.50000000  0.06801000  0.70652300  1
  Se  Se33  1  0.50000000  0.81279400  0.84993400  1
  Se  Se34  1  0.00000000  0.75571800  0.58609400  1
  Se  Se35  1  0.50000000  0.25571800  0.91390600  1
