# generated using pymatgen
data_La3Ga4Cl
_symmetry_space_group_name_H-M   'P 1'
_cell_length_a   8.18415020
_cell_length_b   8.18415020
_cell_length_c   8.18415020
_cell_angle_alpha   119.35174628
_cell_angle_beta   119.35174628
_cell_angle_gamma   91.12652419
_symmetry_Int_Tables_number   1
_chemical_formula_structural   La3Ga4Cl
_chemical_formula_sum   'La6 Ga8 Cl2'
_cell_volume   391.33580016
_cell_formula_units_Z   2
loop_
 _symmetry_equiv_pos_site_id
 _symmetry_equiv_pos_as_xyz
  1  'x, y, z'
loop_
 _atom_site_type_symbol
 _atom_site_label
 _atom_site_symmetry_multiplicity
 _atom_site_fract_x
 _atom_site_fract_y
 _atom_site_fract_z
 _atom_site_occupancy
  La  La0  1  0.66097400  0.16097400  0.82194700  1
  La  La1  1  0.16097400  0.33902600  0.50000000  1
  La  La2  1  0.83902600  0.66097400  0.50000000  1
  La  La3  1  0.75000000  0.75000000  0.00000000  1
  La  La4  1  0.33902600  0.83902600  0.17805300  1
  La  La5  1  0.25000000  0.25000000  0.00000000  1
  Ga  Ga6  1  0.94390000  0.44390000  0.78629900  1
  Ga  Ga7  1  0.84239900  0.05610000  0.50000000  1
  Ga  Ga8  1  0.34239900  0.84239900  0.78629900  1
  Ga  Ga9  1  0.44390000  0.65760100  0.50000000  1
  Ga  Ga10  1  0.55610000  0.34239900  0.50000000  1
  Ga  Ga11  1  0.05610000  0.55610000  0.21370100  1
  Ga  Ga12  1  0.15760100  0.94390000  0.50000000  1
  Ga  Ga13  1  0.65760100  0.15760100  0.21370100  1
  Cl  Cl14  1  0.50000000  0.50000000  0.00000000  1
  Cl  Cl15  1  0.00000000  0.00000000  0.00000000  1
