# generated using pymatgen
data_Sm2Si5Ru3
_symmetry_space_group_name_H-M   'P 1'
_cell_length_a   10.80319200
_cell_length_b   10.80319200
_cell_length_c   5.72671600
_cell_angle_alpha   90.00000000
_cell_angle_beta   90.00000000
_cell_angle_gamma   90.00000000
_symmetry_Int_Tables_number   1
_chemical_formula_structural   Sm2Si5Ru3
_chemical_formula_sum   'Sm8 Si20 Ru12'
_cell_volume   668.35905362
_cell_formula_units_Z   4
loop_
 _symmetry_equiv_pos_site_id
 _symmetry_equiv_pos_as_xyz
  1  'x, y, z'
loop_
 _atom_site_type_symbol
 _atom_site_label
 _atom_site_symmetry_multiplicity
 _atom_site_fract_x
 _atom_site_fract_y
 _atom_site_fract_z
 _atom_site_occupancy
  Sm  Sm0  1  0.76505300  0.92851000  0.50000000  1
  Sm  Sm1  1  0.23494700  0.07149000  0.50000000  1
  Sm  Sm2  1  0.26505300  0.57149000  0.00000000  1
  Sm  Sm3  1  0.73494700  0.42851000  0.00000000  1
  Sm  Sm4  1  0.07149000  0.76505300  0.50000000  1
  Sm  Sm5  1  0.92851000  0.23494700  0.50000000  1
  Sm  Sm6  1  0.42851000  0.26505300  0.00000000  1
  Sm  Sm7  1  0.57149000  0.73494700  0.00000000  1
  Si  Si8  1  0.82082000  0.47783200  0.50000000  1
  Si  Si9  1  0.17918000  0.52216800  0.50000000  1
  Si  Si10  1  0.32082000  0.02216800  0.00000000  1
  Si  Si11  1  0.67918000  0.97783200  0.00000000  1
  Si  Si12  1  0.52216800  0.82082000  0.50000000  1
  Si  Si13  1  0.47783200  0.17918000  0.50000000  1
  Si  Si14  1  0.97783200  0.32082000  0.00000000  1
  Si  Si15  1  0.02216800  0.67918000  0.00000000  1
  Si  Si16  1  0.67368800  0.17368800  0.25000000  1
  Si  Si17  1  0.32631200  0.82631200  0.25000000  1
  Si  Si18  1  0.17368800  0.32631200  0.75000000  1
  Si  Si19  1  0.82631200  0.67368800  0.75000000  1
  Si  Si20  1  0.82631200  0.67368800  0.25000000  1
  Si  Si21  1  0.17368800  0.32631200  0.25000000  1
  Si  Si22  1  0.67368800  0.17368800  0.75000000  1
  Si  Si23  1  0.32631200  0.82631200  0.75000000  1
  Si  Si24  1  0.50000000  0.50000000  0.26625000  1
  Si  Si25  1  0.00000000  0.00000000  0.76625000  1
  Si  Si26  1  0.50000000  0.50000000  0.73375000  1
  Si  Si27  1  0.00000000  0.00000000  0.23375000  1
  Ru  Ru28  1  0.50000000  0.00000000  0.25000000  1
  Ru  Ru29  1  0.00000000  0.50000000  0.75000000  1
  Ru  Ru30  1  0.00000000  0.50000000  0.25000000  1
  Ru  Ru31  1  0.50000000  0.00000000  0.75000000  1
  Ru  Ru32  1  0.64606500  0.62466800  0.50000000  1
  Ru  Ru33  1  0.35393500  0.37533200  0.50000000  1
  Ru  Ru34  1  0.14606500  0.87533200  0.00000000  1
  Ru  Ru35  1  0.85393500  0.12466800  0.00000000  1
  Ru  Ru36  1  0.37533200  0.64606500  0.50000000  1
  Ru  Ru37  1  0.62466800  0.35393500  0.50000000  1
  Ru  Ru38  1  0.12466800  0.14606500  0.00000000  1
  Ru  Ru39  1  0.87533200  0.85393500  0.00000000  1
