# generated using pymatgen
data_AlSbO4
_symmetry_space_group_name_H-M   'P 1'
_cell_length_a   4.53104833
_cell_length_b   4.53104833
_cell_length_c   3.05552600
_cell_angle_alpha   90.00000000
_cell_angle_beta   90.00000000
_cell_angle_gamma   91.16121286
_symmetry_Int_Tables_number   1
_chemical_formula_structural   AlSbO4
_chemical_formula_sum   'Al1 Sb1 O4'
_cell_volume   62.71828488
_cell_formula_units_Z   1
loop_
 _symmetry_equiv_pos_site_id
 _symmetry_equiv_pos_as_xyz
  1  'x, y, z'
loop_
 _atom_site_type_symbol
 _atom_site_label
 _atom_site_symmetry_multiplicity
 _atom_site_fract_x
 _atom_site_fract_y
 _atom_site_fract_z
 _atom_site_occupancy
  Al  Al0  1  0.50000000  0.50000000  0.50000000  1
  Sb  Sb1  1  0.00000000  0.00000000  0.00000000  1
  O  O2  1  0.68853800  0.68853800  0.00000000  1
  O  O3  1  0.79785800  0.20214200  0.50000000  1
  O  O4  1  0.20214200  0.79785800  0.50000000  1
  O  O5  1  0.31146200  0.31146200  0.00000000  1
