# generated using pymatgen
data_BeP2(HO)4
_symmetry_space_group_name_H-M   'P 1'
_cell_length_a   5.11962300
_cell_length_b   5.11962300
_cell_length_c   20.23939000
_cell_angle_alpha   90.00000000
_cell_angle_beta   90.00000000
_cell_angle_gamma   90.00000000
_symmetry_Int_Tables_number   1
_chemical_formula_structural   BeP2(HO)4
_chemical_formula_sum   'Be4 P8 H16 O16'
_cell_volume   530.48533433
_cell_formula_units_Z   4
loop_
 _symmetry_equiv_pos_site_id
 _symmetry_equiv_pos_as_xyz
  1  'x, y, z'
loop_
 _atom_site_type_symbol
 _atom_site_label
 _atom_site_symmetry_multiplicity
 _atom_site_fract_x
 _atom_site_fract_y
 _atom_site_fract_z
 _atom_site_occupancy
  Be  Be0  1  0.50440000  0.49560000  0.75000000  1
  Be  Be1  1  0.49560000  0.50440000  0.25000000  1
  Be  Be2  1  0.99560000  0.99560000  0.50000000  1
  Be  Be3  1  0.00440000  0.00440000  0.00000000  1
  P  P4  1  0.99365600  0.56487300  0.67866700  1
  P  P5  1  0.00634400  0.43512700  0.17866700  1
  P  P6  1  0.06487300  0.50634400  0.42866700  1
  P  P7  1  0.93512700  0.49365600  0.92866700  1
  P  P8  1  0.43512700  0.00634400  0.82133300  1
  P  P9  1  0.56487300  0.99365600  0.32133300  1
  P  P10  1  0.50634400  0.06487300  0.57133300  1
  P  P11  1  0.49365600  0.93512700  0.07133300  1
  H  H12  1  0.04973700  0.52533300  0.61114900  1
  H  H13  1  0.95026300  0.47466700  0.11114900  1
  H  H14  1  0.02533300  0.45026300  0.36114900  1
  H  H15  1  0.97466700  0.54973700  0.86114900  1
  H  H16  1  0.47466700  0.95026300  0.88885100  1
  H  H17  1  0.52533300  0.04973700  0.38885100  1
  H  H18  1  0.45026300  0.02533300  0.63885100  1
  H  H19  1  0.54973700  0.97466700  0.13885100  1
  H  H20  1  0.99230100  0.83864500  0.68784300  1
  H  H21  1  0.00769900  0.16135500  0.18784300  1
  H  H22  1  0.33864500  0.50769900  0.43784300  1
  H  H23  1  0.66135500  0.49230100  0.93784300  1
  H  H24  1  0.16135500  0.00769900  0.81215700  1
  H  H25  1  0.83864500  0.99230100  0.31215700  1
  H  H26  1  0.50769900  0.33864500  0.56215700  1
  H  H27  1  0.49230100  0.66135500  0.06215700  1
  O  O28  1  0.72120000  0.45475700  0.69103300  1
  O  O29  1  0.27880000  0.54524300  0.19103300  1
  O  O30  1  0.95475700  0.77880000  0.44103300  1
  O  O31  1  0.04524300  0.22120000  0.94103300  1
  O  O32  1  0.54524300  0.27880000  0.80896700  1
  O  O33  1  0.45475700  0.72120000  0.30896700  1
  O  O34  1  0.77880000  0.95475700  0.55896700  1
  O  O35  1  0.22120000  0.04524300  0.05896700  1
  O  O36  1  0.21359700  0.44783000  0.71978900  1
  O  O37  1  0.78640300  0.55217000  0.21978900  1
  O  O38  1  0.94783000  0.28640300  0.46978900  1
  O  O39  1  0.05217000  0.71359700  0.96978900  1
  O  O40  1  0.55217000  0.78640300  0.78021100  1
  O  O41  1  0.44783000  0.21359700  0.28021100  1
  O  O42  1  0.28640300  0.94783000  0.53021100  1
  O  O43  1  0.71359700  0.05217000  0.03021100  1
