# generated using pymatgen
data_DyCuPbSe3
_symmetry_space_group_name_H-M   'P 1'
_cell_length_a   4.06241100
_cell_length_b   10.60762900
_cell_length_c   13.62857700
_cell_angle_alpha   90.00000000
_cell_angle_beta   90.00000000
_cell_angle_gamma   90.00000000
_symmetry_Int_Tables_number   1
_chemical_formula_structural   DyCuPbSe3
_chemical_formula_sum   'Dy4 Cu4 Pb4 Se12'
_cell_volume   587.29011854
_cell_formula_units_Z   4
loop_
 _symmetry_equiv_pos_site_id
 _symmetry_equiv_pos_as_xyz
  1  'x, y, z'
loop_
 _atom_site_type_symbol
 _atom_site_label
 _atom_site_symmetry_multiplicity
 _atom_site_fract_x
 _atom_site_fract_y
 _atom_site_fract_z
 _atom_site_occupancy
  Dy  Dy0  1  0.25000000  0.51427400  0.74235500  1
  Dy  Dy1  1  0.75000000  0.98572600  0.24235500  1
  Dy  Dy2  1  0.75000000  0.48572600  0.25764500  1
  Dy  Dy3  1  0.25000000  0.01427400  0.75764500  1
  Cu  Cu4  1  0.25000000  0.74105100  0.22262500  1
  Cu  Cu5  1  0.75000000  0.25894900  0.77737500  1
  Cu  Cu6  1  0.75000000  0.75894900  0.72262500  1
  Cu  Cu7  1  0.25000000  0.24105100  0.27737500  1
  Pb  Pb8  1  0.75000000  0.22529100  0.49507000  1
  Pb  Pb9  1  0.25000000  0.27470900  0.99507000  1
  Pb  Pb10  1  0.25000000  0.77470900  0.50493000  1
  Pb  Pb11  1  0.75000000  0.72529100  0.00493000  1
  Se  Se12  1  0.75000000  0.23961400  0.16950500  1
  Se  Se13  1  0.25000000  0.55084900  0.11566400  1
  Se  Se14  1  0.75000000  0.94915100  0.61566400  1
  Se  Se15  1  0.75000000  0.73961400  0.33049500  1
  Se  Se16  1  0.75000000  0.08379600  0.89425400  1
  Se  Se17  1  0.25000000  0.91620400  0.10574600  1
  Se  Se18  1  0.75000000  0.44915100  0.88433600  1
  Se  Se19  1  0.25000000  0.41620400  0.39425400  1
  Se  Se20  1  0.25000000  0.05084900  0.38433600  1
  Se  Se21  1  0.25000000  0.26038600  0.66950500  1
  Se  Se22  1  0.25000000  0.76038600  0.83049500  1
  Se  Se23  1  0.75000000  0.58379600  0.60574600  1
