# generated using pymatgen
data_K3La2(NO3)9
_symmetry_space_group_name_H-M   'P 1'
_cell_length_a   13.73332700
_cell_length_b   13.73332700
_cell_length_c   13.73332700
_cell_angle_alpha   90.00000000
_cell_angle_beta   90.00000000
_cell_angle_gamma   90.00000000
_symmetry_Int_Tables_number   1
_chemical_formula_structural   K3La2(NO3)9
_chemical_formula_sum   'K12 La8 N36 O108'
_cell_volume   2590.16412022
_cell_formula_units_Z   4
loop_
 _symmetry_equiv_pos_site_id
 _symmetry_equiv_pos_as_xyz
  1  'x, y, z'
loop_
 _atom_site_type_symbol
 _atom_site_label
 _atom_site_symmetry_multiplicity
 _atom_site_fract_x
 _atom_site_fract_y
 _atom_site_fract_z
 _atom_site_occupancy
  K  K0  1  0.31322400  0.43677600  0.87500000  1
  K  K1  1  0.43677600  0.87500000  0.31322400  1
  K  K2  1  0.93677600  0.62500000  0.68677600  1
  K  K3  1  0.37500000  0.18677600  0.56322400  1
  K  K4  1  0.68677600  0.93677600  0.62500000  1
  K  K5  1  0.56322400  0.37500000  0.18677600  1
  K  K6  1  0.12500000  0.81322400  0.06322400  1
  K  K7  1  0.06322400  0.12500000  0.81322400  1
  K  K8  1  0.87500000  0.31322400  0.43677600  1
  K  K9  1  0.62500000  0.68677600  0.93677600  1
  K  K10  1  0.81322400  0.06322400  0.12500000  1
  K  K11  1  0.18677600  0.56322400  0.37500000  1
  La  La12  1  0.79820200  0.70179800  0.29820200  1
  La  La13  1  0.45179800  0.04820200  0.95179800  1
  La  La14  1  0.29820200  0.79820200  0.70179800  1
  La  La15  1  0.20179800  0.20179800  0.20179800  1
  La  La16  1  0.95179800  0.45179800  0.04820200  1
  La  La17  1  0.54820200  0.54820200  0.54820200  1
  La  La18  1  0.70179800  0.29820200  0.79820200  1
  La  La19  1  0.04820200  0.95179800  0.45179800  1
  N  N20  1  0.76225400  0.62500000  0.51225400  1
  N  N21  1  0.89887800  0.08891600  0.36032200  1
  N  N22  1  0.66108400  0.85112200  0.38967800  1
  N  N23  1  0.60112200  0.91108400  0.86032200  1
  N  N24  1  0.14887800  0.88967800  0.83891600  1
  N  N25  1  0.10112200  0.58891600  0.13967800  1
  N  N26  1  0.86032200  0.60112200  0.91108400  1
  N  N27  1  0.62500000  0.51225400  0.76225400  1
  N  N28  1  0.12500000  0.98774600  0.23774600  1
  N  N29  1  0.58891600  0.13967800  0.10112200  1
  N  N30  1  0.38967800  0.66108400  0.85112200  1
  N  N31  1  0.87500000  0.48774600  0.26225400  1
  N  N32  1  0.41108400  0.63967800  0.39887800  1
  N  N33  1  0.88967800  0.83891600  0.14887800  1
  N  N34  1  0.61032200  0.16108400  0.64887800  1
  N  N35  1  0.48774600  0.26225400  0.87500000  1
  N  N36  1  0.85112200  0.38967800  0.66108400  1
  N  N37  1  0.37500000  0.01225400  0.73774600  1
  N  N38  1  0.33891600  0.35112200  0.11032200  1
  N  N39  1  0.23774600  0.12500000  0.98774600  1
  N  N40  1  0.36032200  0.89887800  0.08891600  1
  N  N41  1  0.51225400  0.76225400  0.62500000  1
  N  N42  1  0.91108400  0.86032200  0.60112200  1
  N  N43  1  0.13967800  0.10112200  0.58891600  1
  N  N44  1  0.73774600  0.37500000  0.01225400  1
  N  N45  1  0.64887800  0.61032200  0.16108400  1
  N  N46  1  0.16108400  0.64887800  0.61032200  1
  N  N47  1  0.63967800  0.39887800  0.41108400  1
  N  N48  1  0.39887800  0.41108400  0.63967800  1
  N  N49  1  0.83891600  0.14887800  0.88967800  1
  N  N50  1  0.11032200  0.33891600  0.35112200  1
  N  N51  1  0.98774600  0.23774600  0.12500000  1
  N  N52  1  0.01225400  0.73774600  0.37500000  1
  N  N53  1  0.35112200  0.11032200  0.33891600  1
  N  N54  1  0.08891600  0.36032200  0.89887800  1
  N  N55  1  0.26225400  0.87500000  0.48774600  1
  O  O56  1  0.00879100  0.15508200  0.15730000  1
  O  O57  1  0.40508200  0.24120900  0.90730000  1
  O  O58  1  0.15730000  0.00879100  0.15508200  1
  O  O59  1  0.84491800  0.65730000  0.49120900  1
  O  O60  1  0.24482300  0.66645700  0.57382000  1
  O  O61  1  0.41645700  0.49482300  0.67618000  1
  O  O62  1  0.90730000  0.40508200  0.24120900  1
  O  O63  1  0.49120900  0.84491800  0.65730000  1
  O  O64  1  0.36119000  0.30721600  0.18963800  1
  O  O65  1  0.87500000  0.55433100  0.19566900  1
  O  O66  1  0.25517700  0.33354300  0.07382000  1
  O  O67  1  0.31036200  0.63881000  0.80721600  1
  O  O68  1  0.74120900  0.59270000  0.59491800  1
  O  O69  1  0.40730000  0.09491800  0.75879100  1
  O  O70  1  0.42980300  0.60319100  0.90839400  1
  O  O71  1  0.06036200  0.05721600  0.61119000  1
  O  O72  1  0.07382000  0.25517700  0.33354300  1
  O  O73  1  0.75517700  0.16645700  0.92618000  1
  O  O74  1  0.34160600  0.35319100  0.67980300  1
  O  O75  1  0.90839400  0.42980300  0.60319100  1
  O  O76  1  0.38881000  0.56036200  0.44278400  1
  O  O77  1  0.34491800  0.84270000  0.50879100  1
  O  O78  1  0.37500000  0.94566900  0.80433100  1
  O  O79  1  0.74482300  0.83354300  0.42618000  1
  O  O80  1  0.09491800  0.75879100  0.40730000  1
  O  O81  1  0.43963800  0.94278400  0.11119000  1
  O  O82  1  0.18963800  0.36119000  0.30721600  1
  O  O83  1  0.12500000  0.05433100  0.30433100  1
  O  O84  1  0.57382000  0.24482300  0.66645700  1
  O  O85  1  0.00517700  0.32382000  0.91645700  1
  O  O86  1  0.35319100  0.67980300  0.34160600  1
  O  O87  1  0.92618000  0.75517700  0.16645700  1
  O  O88  1  0.89680900  0.09160600  0.92980300  1
  O  O89  1  0.61119000  0.06036200  0.05721600  1
  O  O90  1  0.09160600  0.92980300  0.89680900  1
  O  O91  1  0.50879100  0.34491800  0.84270000  1
  O  O92  1  0.59160600  0.57019700  0.10319100  1
  O  O93  1  0.99120900  0.65508200  0.34270000  1
  O  O94  1  0.82019700  0.65839400  0.85319100  1
  O  O95  1  0.64680900  0.17980300  0.15839400  1
  O  O96  1  0.55433100  0.19566900  0.87500000  1
  O  O97  1  0.82382000  0.58354300  0.99482300  1
  O  O98  1  0.88881000  0.93963800  0.55721600  1
  O  O99  1  0.84160600  0.14680900  0.32019700  1
  O  O100  1  0.59270000  0.59491800  0.74120900  1
  O  O101  1  0.69566900  0.62500000  0.44566900  1
  O  O102  1  0.42618000  0.74482300  0.83354300  1
  O  O103  1  0.40839400  0.07019700  0.39680900  1
  O  O104  1  0.10319100  0.59160600  0.57019700  1
  O  O105  1  0.67618000  0.41645700  0.49482300  1
  O  O106  1  0.19566900  0.87500000  0.55433100  1
  O  O107  1  0.30433100  0.12500000  0.05433100  1
  O  O108  1  0.32019700  0.84160600  0.14680900  1
  O  O109  1  0.56036200  0.44278400  0.38881000  1
  O  O110  1  0.50517700  0.17618000  0.08354300  1
  O  O111  1  0.59491800  0.74120900  0.59270000  1
  O  O112  1  0.30721600  0.18963800  0.36119000  1
  O  O113  1  0.92980300  0.89680900  0.09160600  1
  O  O114  1  0.05721600  0.61119000  0.06036200  1
  O  O115  1  0.25879100  0.09270000  0.90508200  1
  O  O116  1  0.66645700  0.57382000  0.24482300  1
  O  O117  1  0.80721600  0.31036200  0.63881000  1
  O  O118  1  0.94566900  0.80433100  0.37500000  1
  O  O119  1  0.05433100  0.30433100  0.12500000  1
  O  O120  1  0.19278400  0.81036200  0.86119000  1
  O  O121  1  0.91645700  0.00517700  0.32382000  1
  O  O122  1  0.34270000  0.99120900  0.65508200  1
  O  O123  1  0.90508200  0.25879100  0.09270000  1
  O  O124  1  0.11119000  0.43963800  0.94278400  1
  O  O125  1  0.13881000  0.69278400  0.68963800  1
  O  O126  1  0.14680900  0.32019700  0.84160600  1
  O  O127  1  0.99482300  0.82382000  0.58354300  1
  O  O128  1  0.75879100  0.40730000  0.09491800  1
  O  O129  1  0.16645700  0.92618000  0.75517700  1
  O  O130  1  0.17980300  0.15839400  0.64680900  1
  O  O131  1  0.63881000  0.80721600  0.31036200  1
  O  O132  1  0.84270000  0.50879100  0.34491800  1
  O  O133  1  0.33354300  0.07382000  0.25517700  1
  O  O134  1  0.08354300  0.50517700  0.17618000  1
  O  O135  1  0.15839400  0.64680900  0.17980300  1
  O  O136  1  0.69278400  0.68963800  0.13881000  1
  O  O137  1  0.07019700  0.39680900  0.40839400  1
  O  O138  1  0.44566900  0.69566900  0.62500000  1
  O  O139  1  0.58354300  0.99482300  0.82382000  1
  O  O140  1  0.94278400  0.11119000  0.43963800  1
  O  O141  1  0.39680900  0.40839400  0.07019700  1
  O  O142  1  0.55721600  0.88881000  0.93963800  1
  O  O143  1  0.93963800  0.55721600  0.88881000  1
  O  O144  1  0.60319100  0.90839400  0.42980300  1
  O  O145  1  0.83354300  0.42618000  0.74482300  1
  O  O146  1  0.15508200  0.15730000  0.00879100  1
  O  O147  1  0.81036200  0.86119000  0.19278400  1
  O  O148  1  0.32382000  0.91645700  0.00517700  1
  O  O149  1  0.68963800  0.13881000  0.69278400  1
  O  O150  1  0.44278400  0.38881000  0.56036200  1
  O  O151  1  0.17618000  0.08354300  0.50517700  1
  O  O152  1  0.62500000  0.44566900  0.69566900  1
  O  O153  1  0.49482300  0.67618000  0.41645700  1
  O  O154  1  0.80433100  0.37500000  0.94566900  1
  O  O155  1  0.86119000  0.19278400  0.81036200  1
  O  O156  1  0.24120900  0.90730000  0.40508200  1
  O  O157  1  0.65508200  0.34270000  0.99120900  1
  O  O158  1  0.65730000  0.49120900  0.84491800  1
  O  O159  1  0.65839400  0.85319100  0.82019700  1
  O  O160  1  0.67980300  0.34160600  0.35319100  1
  O  O161  1  0.85319100  0.82019700  0.65839400  1
  O  O162  1  0.09270000  0.90508200  0.25879100  1
  O  O163  1  0.57019700  0.10319100  0.59160600  1
