# generated using pymatgen
data_La2Ni5C3
_symmetry_space_group_name_H-M   'P 1'
_cell_length_a   8.31046300
_cell_length_b   8.31046300
_cell_length_c   4.01866900
_cell_angle_alpha   90.00000000
_cell_angle_beta   90.00000000
_cell_angle_gamma   90.00000000
_symmetry_Int_Tables_number   1
_chemical_formula_structural   La2Ni5C3
_chemical_formula_sum   'La4 Ni10 C6'
_cell_volume   277.54453309
_cell_formula_units_Z   2
loop_
 _symmetry_equiv_pos_site_id
 _symmetry_equiv_pos_as_xyz
  1  'x, y, z'
loop_
 _atom_site_type_symbol
 _atom_site_label
 _atom_site_symmetry_multiplicity
 _atom_site_fract_x
 _atom_site_fract_y
 _atom_site_fract_z
 _atom_site_occupancy
  La  La0  1  0.33895500  0.16104500  0.00000000  1
  La  La1  1  0.66104500  0.83895500  0.00000000  1
  La  La2  1  0.16104500  0.66104500  0.00000000  1
  La  La3  1  0.83895500  0.33895500  0.00000000  1
  Ni  Ni4  1  0.92476400  0.78735100  0.50000000  1
  Ni  Ni5  1  0.71264900  0.57523600  0.50000000  1
  Ni  Ni6  1  0.42476400  0.71264900  0.50000000  1
  Ni  Ni7  1  0.28735100  0.42476400  0.50000000  1
  Ni  Ni8  1  0.57523600  0.28735100  0.50000000  1
  Ni  Ni9  1  0.78735100  0.07523600  0.50000000  1
  Ni  Ni10  1  0.07523600  0.21264900  0.50000000  1
  Ni  Ni11  1  0.21264900  0.92476400  0.50000000  1
  Ni  Ni12  1  0.50000000  0.50000000  0.00000000  1
  Ni  Ni13  1  0.00000000  0.00000000  0.00000000  1
  C  C14  1  0.44201800  0.94201800  0.50000000  1
  C  C15  1  0.05798200  0.44201800  0.50000000  1
  C  C16  1  0.94201800  0.55798200  0.50000000  1
  C  C17  1  0.50000000  0.50000000  0.50000000  1
  C  C18  1  0.55798200  0.05798200  0.50000000  1
  C  C19  1  0.00000000  0.00000000  0.50000000  1
