# generated using pymatgen
data_Nd(HO)3
_symmetry_space_group_name_H-M   'P 1'
_cell_length_a   3.70944200
_cell_length_b   6.52242100
_cell_length_c   6.54571285
_cell_angle_alpha   61.00502949
_cell_angle_beta   90.00000000
_cell_angle_gamma   90.00000000
_symmetry_Int_Tables_number   1
_chemical_formula_structural   Nd(HO)3
_chemical_formula_sum   'Nd2 H6 O6'
_cell_volume   138.52072326
_cell_formula_units_Z   2
loop_
 _symmetry_equiv_pos_site_id
 _symmetry_equiv_pos_as_xyz
  1  'x, y, z'
loop_
 _atom_site_type_symbol
 _atom_site_label
 _atom_site_symmetry_multiplicity
 _atom_site_fract_x
 _atom_site_fract_y
 _atom_site_fract_z
 _atom_site_occupancy
  Nd  Nd0  1  0.25000000  0.67082500  0.66734200  1
  Nd  Nd1  1  0.75000000  0.32917500  0.33265800  1
  H  H2  1  0.25000000  0.71490500  0.15113900  1
  H  H3  1  0.25000000  0.14763500  0.71101300  1
  H  H4  1  0.25000000  0.14673200  0.11499700  1
  H  H5  1  0.75000000  0.28509500  0.84886100  1
  H  H6  1  0.75000000  0.85236500  0.28898700  1
  H  H7  1  0.75000000  0.85326800  0.88500300  1
  O  O8  1  0.25000000  0.59989200  0.31597700  1
  O  O9  1  0.25000000  0.08651500  0.60159000  1
  O  O10  1  0.25000000  0.31044400  0.07678800  1
  O  O11  1  0.75000000  0.40010800  0.68402300  1
  O  O12  1  0.75000000  0.91348500  0.39841000  1
  O  O13  1  0.75000000  0.68955600  0.92321200  1
