# generated using pymatgen
data_Yb4Cu2Sn5
_symmetry_space_group_name_H-M   'P 1'
_cell_length_a   4.42307700
_cell_length_b   8.96169900
_cell_length_c   13.98307400
_cell_angle_alpha   90.00000000
_cell_angle_beta   90.00000000
_cell_angle_gamma   90.00000000
_symmetry_Int_Tables_number   1
_chemical_formula_structural   Yb4Cu2Sn5
_chemical_formula_sum   'Yb8 Cu4 Sn10'
_cell_volume   554.26506858
_cell_formula_units_Z   2
loop_
 _symmetry_equiv_pos_site_id
 _symmetry_equiv_pos_as_xyz
  1  'x, y, z'
loop_
 _atom_site_type_symbol
 _atom_site_label
 _atom_site_symmetry_multiplicity
 _atom_site_fract_x
 _atom_site_fract_y
 _atom_site_fract_z
 _atom_site_occupancy
  Yb  Yb0  1  0.50000000  0.79426500  0.74128000  1
  Yb  Yb1  1  0.50000000  0.69988700  0.00000000  1
  Yb  Yb2  1  0.00000000  0.20573500  0.75872000  1
  Yb  Yb3  1  0.00000000  0.30011300  0.50000000  1
  Yb  Yb4  1  0.00000000  0.20573500  0.24128000  1
  Yb  Yb5  1  0.50000000  0.13433800  0.00000000  1
  Yb  Yb6  1  0.00000000  0.86566200  0.50000000  1
  Yb  Yb7  1  0.50000000  0.79426500  0.25872000  1
  Cu  Cu8  1  0.50000000  0.37803900  0.64362300  1
  Cu  Cu9  1  0.00000000  0.62196100  0.85637700  1
  Cu  Cu10  1  0.00000000  0.62196100  0.14362300  1
  Cu  Cu11  1  0.50000000  0.37803900  0.35637700  1
  Sn  Sn12  1  0.50000000  0.08524000  0.39523200  1
  Sn  Sn13  1  0.00000000  0.55653400  0.66368500  1
  Sn  Sn14  1  0.00000000  0.40444400  0.00000000  1
  Sn  Sn15  1  0.50000000  0.44346600  0.16368500  1
  Sn  Sn16  1  0.50000000  0.59555600  0.50000000  1
  Sn  Sn17  1  0.50000000  0.44346600  0.83631500  1
  Sn  Sn18  1  0.00000000  0.91476000  0.89523200  1
  Sn  Sn19  1  0.00000000  0.55653400  0.33631500  1
  Sn  Sn20  1  0.50000000  0.08524000  0.60476800  1
  Sn  Sn21  1  0.00000000  0.91476000  0.10476800  1
