# generated using pymatgen
data_Sr5U5O18
_symmetry_space_group_name_H-M   'P 1'
_cell_length_a   6.98613600
_cell_length_b   7.80034424
_cell_length_c   8.77837155
_cell_angle_alpha   100.71747627
_cell_angle_beta   98.04689691
_cell_angle_gamma   107.37468366
_symmetry_Int_Tables_number   1
_chemical_formula_structural   Sr5U5O18
_chemical_formula_sum   'Sr5 U5 O18'
_cell_volume   438.72123465
_cell_formula_units_Z   1
loop_
 _symmetry_equiv_pos_site_id
 _symmetry_equiv_pos_as_xyz
  1  'x, y, z'
loop_
 _atom_site_type_symbol
 _atom_site_label
 _atom_site_symmetry_multiplicity
 _atom_site_fract_x
 _atom_site_fract_y
 _atom_site_fract_z
 _atom_site_occupancy
  Sr  Sr0  1  0.80126100  0.10288200  0.58490800  1
  Sr  Sr1  1  0.59671200  0.69441400  0.19344000  1
  Sr  Sr2  1  0.40328800  0.30558600  0.80656000  1
  Sr  Sr3  1  0.19873900  0.89711800  0.41509200  1
  Sr  Sr4  1  0.00000000  0.50000000  0.00000000  1
  U  U5  1  0.00000000  0.00000000  0.00000000  1
  U  U6  1  0.79339800  0.58051900  0.58795500  1
  U  U7  1  0.62177400  0.19724700  0.19616100  1
  U  U8  1  0.37822600  0.80275300  0.80383900  1
  U  U9  1  0.20660200  0.41948100  0.41204500  1
  O  O10  1  0.82667500  0.78172500  0.46835600  1
  O  O11  1  0.00987500  0.22833400  0.18258700  1
  O  O12  1  0.66541200  0.39609200  0.07236100  1
  O  O13  1  0.45024000  0.99992400  0.68370500  1
  O  O14  1  0.85822800  0.35256300  0.41559300  1
  O  O15  1  0.48996700  0.38436100  0.34709400  1
  O  O16  1  0.24355300  0.60581100  0.28018900  1
  O  O17  1  0.97389900  0.82377800  0.14494900  1
  O  O18  1  0.66530000  0.94587300  0.98845700  1
  O  O19  1  0.33470000  0.05412700  0.01154300  1
  O  O20  1  0.02610100  0.17622200  0.85505100  1
  O  O21  1  0.75644700  0.39418900  0.71981100  1
  O  O22  1  0.51003300  0.61563900  0.65290600  1
  O  O23  1  0.14177200  0.64743700  0.58440700  1
  O  O24  1  0.54976000  0.00007600  0.31629500  1
  O  O25  1  0.33458800  0.60390800  0.92763900  1
  O  O26  1  0.99012500  0.77166600  0.81741300  1
  O  O27  1  0.17332500  0.21827500  0.53164400  1
