# generated using pymatgen
data_Ba6Mg7H26
_symmetry_space_group_name_H-M   'P 1'
_cell_length_a   10.02518382
_cell_length_b   10.02518382
_cell_length_c   10.02518382
_cell_angle_alpha   146.29099498
_cell_angle_beta   106.62878015
_cell_angle_gamma   83.22119654
_symmetry_Int_Tables_number   1
_chemical_formula_structural   Ba6Mg7H26
_chemical_formula_sum   'Ba6 Mg7 H26'
_cell_volume   521.96830349
_cell_formula_units_Z   1
loop_
 _symmetry_equiv_pos_site_id
 _symmetry_equiv_pos_as_xyz
  1  'x, y, z'
loop_
 _atom_site_type_symbol
 _atom_site_label
 _atom_site_symmetry_multiplicity
 _atom_site_fract_x
 _atom_site_fract_y
 _atom_site_fract_z
 _atom_site_occupancy
  Ba  Ba0  1  0.90610600  0.64731300  0.25879300  1
  Ba  Ba1  1  0.09389400  0.35268700  0.74120700  1
  Ba  Ba2  1  0.61148000  0.35268700  0.25879300  1
  Ba  Ba3  1  0.38852000  0.64731300  0.74120700  1
  Ba  Ba4  1  0.64417200  0.14417200  0.50000000  1
  Ba  Ba5  1  0.35582800  0.85582800  0.50000000  1
  Mg  Mg6  1  0.78165200  0.78165200  0.00000000  1
  Mg  Mg7  1  0.21834800  0.21834800  0.00000000  1
  Mg  Mg8  1  0.25799800  0.00000000  0.25799800  1
  Mg  Mg9  1  0.74200200  0.00000000  0.74200200  1
  Mg  Mg10  1  0.00000000  0.25492200  0.25492200  1
  Mg  Mg11  1  0.00000000  0.74507800  0.74507800  1
  Mg  Mg12  1  0.50000000  0.50000000  0.00000000  1
  H  H13  1  0.86703200  0.98631300  0.34393100  1
  H  H14  1  0.13296800  0.47689900  0.11928100  1
  H  H15  1  0.35761800  0.01368700  0.88071900  1
  H  H16  1  0.64238200  0.52310100  0.65606900  1
  H  H17  1  0.13296800  0.01368700  0.65606900  1
  H  H18  1  0.86703200  0.52310100  0.88071900  1
  H  H19  1  0.64238200  0.98631300  0.11928100  1
  H  H20  1  0.35761800  0.47689900  0.34393100  1
  H  H21  1  0.38553600  0.24919200  0.63472800  1
  H  H22  1  0.61446400  0.24919200  0.86365600  1
  H  H23  1  0.38553600  0.75080800  0.13634400  1
  H  H24  1  0.61446400  0.75080800  0.36527200  1
  H  H25  1  0.16241500  0.26546800  0.42788300  1
  H  H26  1  0.83758500  0.26546800  0.10305300  1
  H  H27  1  0.16241500  0.73453200  0.89694700  1
  H  H28  1  0.83758500  0.73453200  0.57211700  1
  H  H29  1  0.14752200  0.87231600  0.27520600  1
  H  H30  1  0.85247800  0.12768400  0.72479400  1
  H  H31  1  0.40289000  0.12768400  0.27520600  1
  H  H32  1  0.59711000  0.87231600  0.72479400  1
  H  H33  1  0.91008600  0.41008600  0.50000000  1
  H  H34  1  0.08991400  0.58991400  0.50000000  1
  H  H35  1  0.91338500  0.91338500  0.00000000  1
  H  H36  1  0.08661500  0.08661500  0.00000000  1
  H  H37  1  0.62955100  0.62955100  0.00000000  1
  H  H38  1  0.37044900  0.37044900  0.00000000  1
