# generated using pymatgen
data_Cs3Tb2Br9
_symmetry_space_group_name_H-M   'P 1'
_cell_length_a   10.48880351
_cell_length_b   10.48880351
_cell_length_c   10.48880379
_cell_angle_alpha   84.05047945
_cell_angle_beta   84.05047945
_cell_angle_gamma   84.05047266
_symmetry_Int_Tables_number   1
_chemical_formula_structural   Cs3Tb2Br9
_chemical_formula_sum   'Cs6 Tb4 Br18'
_cell_volume   1136.48262933
_cell_formula_units_Z   2
loop_
 _symmetry_equiv_pos_site_id
 _symmetry_equiv_pos_as_xyz
  1  'x, y, z'
loop_
 _atom_site_type_symbol
 _atom_site_label
 _atom_site_symmetry_multiplicity
 _atom_site_fract_x
 _atom_site_fract_y
 _atom_site_fract_z
 _atom_site_occupancy
  Cs  Cs0  1  0.75000000  0.41181300  0.08818700  1
  Cs  Cs1  1  0.08818700  0.75000000  0.41181300  1
  Cs  Cs2  1  0.25000000  0.58818700  0.91181300  1
  Cs  Cs3  1  0.41181300  0.08818700  0.75000000  1
  Cs  Cs4  1  0.91181300  0.25000000  0.58818700  1
  Cs  Cs5  1  0.58818700  0.91181300  0.25000000  1
  Tb  Tb6  1  0.34891000  0.34891000  0.34891000  1
  Tb  Tb7  1  0.65109000  0.65109000  0.65109000  1
  Tb  Tb8  1  0.84891000  0.84891000  0.84891000  1
  Tb  Tb9  1  0.15109000  0.15109000  0.15109000  1
  Br  Br10  1  0.41850300  0.76434500  0.58099800  1
  Br  Br11  1  0.23565500  0.41900200  0.58149700  1
  Br  Br12  1  0.40469400  0.25000000  0.09530600  1
  Br  Br13  1  0.09530600  0.40469400  0.25000000  1
  Br  Br14  1  0.91900200  0.73565500  0.08149700  1
  Br  Br15  1  0.91850300  0.08099800  0.26434500  1
  Br  Br16  1  0.59530600  0.75000000  0.90469400  1
  Br  Br17  1  0.75000000  0.90469400  0.59530600  1
  Br  Br18  1  0.58099800  0.41850300  0.76434500  1
  Br  Br19  1  0.25000000  0.09530600  0.40469400  1
  Br  Br20  1  0.76434500  0.58099800  0.41850300  1
  Br  Br21  1  0.73565500  0.08149700  0.91900200  1
  Br  Br22  1  0.08099800  0.26434500  0.91850300  1
  Br  Br23  1  0.41900200  0.58149700  0.23565500  1
  Br  Br24  1  0.58149700  0.23565500  0.41900200  1
  Br  Br25  1  0.90469400  0.59530600  0.75000000  1
  Br  Br26  1  0.26434500  0.91850300  0.08099800  1
  Br  Br27  1  0.08149700  0.91900200  0.73565500  1
