# generated using pymatgen
data_Nd2Ti4O11
_symmetry_space_group_name_H-M   'P 1'
_cell_length_a   7.31740355
_cell_length_b   7.31740355
_cell_length_c   12.84317148
_cell_angle_alpha   72.35048437
_cell_angle_beta   72.35048437
_cell_angle_gamma   41.02438159
_symmetry_Int_Tables_number   1
_chemical_formula_structural   Nd2Ti4O11
_chemical_formula_sum   'Nd4 Ti8 O22'
_cell_volume   427.07423068
_cell_formula_units_Z   2
loop_
 _symmetry_equiv_pos_site_id
 _symmetry_equiv_pos_as_xyz
  1  'x, y, z'
loop_
 _atom_site_type_symbol
 _atom_site_label
 _atom_site_symmetry_multiplicity
 _atom_site_fract_x
 _atom_site_fract_y
 _atom_site_fract_z
 _atom_site_occupancy
  Nd  Nd0  1  0.20091300  0.19789300  0.90569200  1
  Nd  Nd1  1  0.19789300  0.20091300  0.40569200  1
  Nd  Nd2  1  0.79908700  0.80210700  0.09430800  1
  Nd  Nd3  1  0.80210700  0.79908700  0.59430800  1
  Ti  Ti4  1  0.94328000  0.83938200  0.81079900  1
  Ti  Ti5  1  0.58378400  0.48099200  0.59688800  1
  Ti  Ti6  1  0.16061800  0.05672000  0.68920100  1
  Ti  Ti7  1  0.05672000  0.16061800  0.18920100  1
  Ti  Ti8  1  0.48099200  0.58378400  0.09688800  1
  Ti  Ti9  1  0.41621600  0.51900800  0.40311200  1
  Ti  Ti10  1  0.83938200  0.94328000  0.31079900  1
  Ti  Ti11  1  0.51900800  0.41621600  0.90311200  1
  O  O12  1  0.94726100  0.61970800  0.77652800  1
  O  O13  1  0.39050300  0.92926900  0.09763000  1
  O  O14  1  0.57700200  0.28747200  0.05703000  1
  O  O15  1  0.61970800  0.94726100  0.27652800  1
  O  O16  1  0.81295000  0.10130100  0.66791400  1
  O  O17  1  0.41594800  0.86493200  0.56104400  1
  O  O18  1  0.42299800  0.71252800  0.94297000  1
  O  O19  1  0.92926900  0.39050300  0.59763000  1
  O  O20  1  0.18705000  0.89869900  0.33208600  1
  O  O21  1  0.34299100  0.65700900  0.75000000  1
  O  O22  1  0.58405200  0.13506800  0.43895600  1
  O  O23  1  0.13506800  0.58405200  0.93895600  1
  O  O24  1  0.60949700  0.07073100  0.90237000  1
  O  O25  1  0.38029200  0.05273900  0.72347200  1
  O  O26  1  0.10130100  0.81295000  0.16791400  1
  O  O27  1  0.07073100  0.60949700  0.40237000  1
  O  O28  1  0.71252800  0.42299800  0.44297000  1
  O  O29  1  0.86493200  0.41594800  0.06104400  1
  O  O30  1  0.28747200  0.57700200  0.55703000  1
  O  O31  1  0.65700900  0.34299100  0.25000000  1
  O  O32  1  0.89869900  0.18705000  0.83208600  1
  O  O33  1  0.05273900  0.38029200  0.22347200  1
