# generated using pymatgen
data_Rb3As7
_symmetry_space_group_name_H-M   'P 1'
_cell_length_a   13.53775500
_cell_length_b   16.28425000
_cell_length_c   26.59433600
_cell_angle_alpha   90.00000000
_cell_angle_beta   90.00000000
_cell_angle_gamma   90.00000000
_symmetry_Int_Tables_number   1
_chemical_formula_structural   Rb3As7
_chemical_formula_sum   'Rb48 As112'
_cell_volume   5862.77952926
_cell_formula_units_Z   16
loop_
 _symmetry_equiv_pos_site_id
 _symmetry_equiv_pos_as_xyz
  1  'x, y, z'
loop_
 _atom_site_type_symbol
 _atom_site_label
 _atom_site_symmetry_multiplicity
 _atom_site_fract_x
 _atom_site_fract_y
 _atom_site_fract_z
 _atom_site_occupancy
  Rb  Rb0  1  0.87204200  0.75285700  0.08289700  1
  Rb  Rb1  1  0.62323200  0.39397100  0.62946200  1
  Rb  Rb2  1  0.77039300  0.16429200  0.71854900  1
  Rb  Rb3  1  0.38325800  0.58745700  0.57562800  1
  Rb  Rb4  1  0.62323200  0.89397100  0.87053800  1
  Rb  Rb5  1  0.12323200  0.10602900  0.62946200  1
  Rb  Rb6  1  0.87676800  0.39397100  0.12946200  1
  Rb  Rb7  1  0.62795800  0.25285700  0.91710300  1
  Rb  Rb8  1  0.04989300  0.64469900  0.44132000  1
  Rb  Rb9  1  0.37204200  0.74714300  0.08289700  1
  Rb  Rb10  1  0.95010700  0.85530100  0.94132000  1
  Rb  Rb11  1  0.12323200  0.60602900  0.87053800  1
  Rb  Rb12  1  0.61674200  0.41254300  0.42437200  1
  Rb  Rb13  1  0.96507300  0.45664200  0.32415800  1
  Rb  Rb14  1  0.22960700  0.83570800  0.28145100  1
  Rb  Rb15  1  0.96507300  0.95664200  0.17584200  1
  Rb  Rb16  1  0.22960700  0.33570800  0.21854900  1
  Rb  Rb17  1  0.37676800  0.10602900  0.12946200  1
  Rb  Rb18  1  0.37676800  0.60602900  0.37053800  1
  Rb  Rb19  1  0.38325800  0.08745700  0.92437200  1
  Rb  Rb20  1  0.37204200  0.24714300  0.41710300  1
  Rb  Rb21  1  0.54989300  0.85530100  0.44132000  1
  Rb  Rb22  1  0.88325800  0.41254300  0.92437200  1
  Rb  Rb23  1  0.77039300  0.66429200  0.78145100  1
  Rb  Rb24  1  0.88325800  0.91254300  0.57562800  1
  Rb  Rb25  1  0.61674200  0.91254300  0.07562800  1
  Rb  Rb26  1  0.27039300  0.83570800  0.78145100  1
  Rb  Rb27  1  0.45010700  0.14469900  0.55868000  1
  Rb  Rb28  1  0.03492700  0.04335800  0.82415800  1
  Rb  Rb29  1  0.62795800  0.75285700  0.58289700  1
  Rb  Rb30  1  0.87204200  0.25285700  0.41710300  1
  Rb  Rb31  1  0.72960700  0.16429200  0.21854900  1
  Rb  Rb32  1  0.53492700  0.45664200  0.82415800  1
  Rb  Rb33  1  0.53492700  0.95664200  0.67584200  1
  Rb  Rb34  1  0.27039300  0.33570800  0.71854900  1
  Rb  Rb35  1  0.12795800  0.24714300  0.91710300  1
  Rb  Rb36  1  0.95010700  0.35530100  0.55868000  1
  Rb  Rb37  1  0.03492700  0.54335800  0.67584200  1
  Rb  Rb38  1  0.45010700  0.64469900  0.94132000  1
  Rb  Rb39  1  0.12795800  0.74714300  0.58289700  1
  Rb  Rb40  1  0.46507300  0.04335800  0.32415800  1
  Rb  Rb41  1  0.04989300  0.14469900  0.05868000  1
  Rb  Rb42  1  0.87676800  0.89397100  0.37053800  1
  Rb  Rb43  1  0.54989300  0.35530100  0.05868000  1
  Rb  Rb44  1  0.11674200  0.08745700  0.42437200  1
  Rb  Rb45  1  0.72960700  0.66429200  0.28145100  1
  Rb  Rb46  1  0.11674200  0.58745700  0.07562800  1
  Rb  Rb47  1  0.46507300  0.54335800  0.17584200  1
  As  As48  1  0.78552000  0.22535800  0.04265600  1
  As  As49  1  0.05080400  0.88258800  0.70008700  1
  As  As50  1  0.12785800  0.36440000  0.04493100  1
  As  As51  1  0.28286500  0.90750100  0.40609100  1
  As  As52  1  0.62785800  0.13560000  0.04493100  1
  As  As53  1  0.87214200  0.13560000  0.54493100  1
  As  As54  1  0.63058600  0.36973900  0.18559600  1
  As  As55  1  0.78286500  0.09249900  0.09390900  1
  As  As56  1  0.21448000  0.27464200  0.54265600  1
  As  As57  1  0.70489200  0.93501100  0.24031200  1
  As  As58  1  0.36319700  0.50640900  0.04238300  1
  As  As59  1  0.21713500  0.40750100  0.59390900  1
  As  As60  1  0.86553000  0.69214100  0.53478100  1
  As  As61  1  0.13787600  0.44538600  0.97013400  1
  As  As62  1  0.22818800  0.68435100  0.18624900  1
  As  As63  1  0.29510800  0.06498900  0.75968800  1
  As  As64  1  0.93473700  0.25962800  0.81278100  1
  As  As65  1  0.99961800  0.29360000  0.72434300  1
  As  As66  1  0.56526300  0.75962800  0.18721900  1
  As  As67  1  0.81682300  0.54725200  0.54144700  1
  As  As68  1  0.72818800  0.31564900  0.31375100  1
  As  As69  1  0.63447000  0.19214100  0.46521900  1
  As  As70  1  0.49961800  0.20640000  0.72434300  1
  As  As71  1  0.13058600  0.13026100  0.18559600  1
  As  As72  1  0.44919600  0.38258800  0.29991300  1
  As  As73  1  0.71448000  0.22535800  0.54265600  1
  As  As74  1  0.18317700  0.95274800  0.04144700  1
  As  As75  1  0.20489200  0.56498900  0.24031200  1
  As  As76  1  0.99961800  0.79360000  0.77565700  1
  As  As77  1  0.79510800  0.93501100  0.74031200  1
  As  As78  1  0.12785800  0.86440000  0.45506900  1
  As  As79  1  0.78286500  0.59249900  0.40609100  1
  As  As80  1  0.71448000  0.72535800  0.95734400  1
  As  As81  1  0.63680300  0.49359100  0.95761700  1
  As  As82  1  0.94919600  0.11741200  0.29991300  1
  As  As83  1  0.86319700  0.49359100  0.45761700  1
  As  As84  1  0.49961800  0.70640000  0.77565700  1
  As  As85  1  0.93473700  0.75962800  0.68721900  1
  As  As86  1  0.43473700  0.24037200  0.81278100  1
  As  As87  1  0.86941400  0.36973900  0.68559600  1
  As  As88  1  0.27181200  0.18435100  0.81375100  1
  As  As89  1  0.86212400  0.55461400  0.02986600  1
  As  As90  1  0.06526300  0.74037200  0.18721900  1
  As  As91  1  0.00038200  0.20640000  0.22434300  1
  As  As92  1  0.86319700  0.99359100  0.04238300  1
  As  As93  1  0.68317700  0.54725200  0.04144700  1
  As  As94  1  0.50038200  0.29360000  0.22434300  1
  As  As95  1  0.21713500  0.90750100  0.90609100  1
  As  As96  1  0.22818800  0.18435100  0.31375100  1
  As  As97  1  0.78552000  0.72535800  0.45734400  1
  As  As98  1  0.56526300  0.25962800  0.31278100  1
  As  As99  1  0.63447000  0.69214100  0.03478100  1
  As  As100  1  0.36941400  0.13026100  0.68559600  1
  As  As101  1  0.05754800  0.00245100  0.29802400  1
  As  As102  1  0.36319700  0.00640900  0.45761700  1
  As  As103  1  0.05080400  0.38258800  0.79991300  1
  As  As104  1  0.68317700  0.04725200  0.45855300  1
  As  As105  1  0.05754800  0.50245100  0.20197600  1
  As  As106  1  0.77181200  0.81564900  0.68624900  1
  As  As107  1  0.44245200  0.50245100  0.70197600  1
  As  As108  1  0.18317700  0.45274800  0.45855300  1
  As  As109  1  0.21448000  0.77464200  0.95734400  1
  As  As110  1  0.37214200  0.36440000  0.54493100  1
  As  As111  1  0.00038200  0.70640000  0.27565700  1
  As  As112  1  0.36212400  0.44538600  0.47013400  1
  As  As113  1  0.55080400  0.11741200  0.79991300  1
  As  As114  1  0.71713500  0.09249900  0.59390900  1
  As  As115  1  0.27181200  0.68435100  0.68624900  1
  As  As116  1  0.63787600  0.05461400  0.97013400  1
  As  As117  1  0.63058600  0.86973900  0.31440400  1
  As  As118  1  0.94245200  0.99754900  0.70197600  1
  As  As119  1  0.28552000  0.77464200  0.45734400  1
  As  As120  1  0.36553000  0.30785900  0.96521900  1
  As  As121  1  0.13680300  0.00640900  0.95761700  1
  As  As122  1  0.06526300  0.24037200  0.31278100  1
  As  As123  1  0.36553000  0.80785900  0.53478100  1
  As  As124  1  0.29510800  0.56498900  0.74031200  1
  As  As125  1  0.70489200  0.43501100  0.25968800  1
  As  As126  1  0.86212400  0.05461400  0.47013400  1
  As  As127  1  0.20489200  0.06498900  0.25968800  1
  As  As128  1  0.13447000  0.30785900  0.46521900  1
  As  As129  1  0.63787600  0.55461400  0.52986600  1
  As  As130  1  0.13680300  0.50640900  0.54238300  1
  As  As131  1  0.50038200  0.79360000  0.27565700  1
  As  As132  1  0.55754800  0.99754900  0.20197600  1
  As  As133  1  0.86553000  0.19214100  0.96521900  1
  As  As134  1  0.86941400  0.86973900  0.81440400  1
  As  As135  1  0.71713500  0.59249900  0.90609100  1
  As  As136  1  0.44245200  0.00245100  0.79802400  1
  As  As137  1  0.63680300  0.99359100  0.54238300  1
  As  As138  1  0.94919600  0.61741200  0.20008700  1
  As  As139  1  0.62785800  0.63560000  0.45506900  1
  As  As140  1  0.55080400  0.61741200  0.70008700  1
  As  As141  1  0.77181200  0.31564900  0.81375100  1
  As  As142  1  0.31682300  0.45274800  0.95855300  1
  As  As143  1  0.13787600  0.94538600  0.52986600  1
  As  As144  1  0.44919600  0.88258800  0.20008700  1
  As  As145  1  0.79510800  0.43501100  0.75968800  1
  As  As146  1  0.94245200  0.49754900  0.79802400  1
  As  As147  1  0.13447000  0.80785900  0.03478100  1
  As  As148  1  0.13058600  0.63026100  0.31440400  1
  As  As149  1  0.31682300  0.95274800  0.54144700  1
  As  As150  1  0.37214200  0.86440000  0.95506900  1
  As  As151  1  0.72818800  0.81564900  0.18624900  1
  As  As152  1  0.43473700  0.74037200  0.68721900  1
  As  As153  1  0.28286500  0.40750100  0.09390900  1
  As  As154  1  0.81682300  0.04725200  0.95855300  1
  As  As155  1  0.55754800  0.49754900  0.29802400  1
  As  As156  1  0.87214200  0.63560000  0.95506900  1
  As  As157  1  0.36212400  0.94538600  0.02986600  1
  As  As158  1  0.28552000  0.27464200  0.04265600  1
  As  As159  1  0.36941400  0.63026100  0.81440400  1
