# generated using pymatgen
data_NaNpCO5
_symmetry_space_group_name_H-M   'P 1'
_cell_length_a   4.39335000
_cell_length_b   4.92678500
_cell_length_c   11.03618900
_cell_angle_alpha   90.00000000
_cell_angle_beta   90.00000000
_cell_angle_gamma   90.00000000
_symmetry_Int_Tables_number   1
_chemical_formula_structural   NaNpCO5
_chemical_formula_sum   'Na2 Np2 C2 O10'
_cell_volume   238.87931387
_cell_formula_units_Z   2
loop_
 _symmetry_equiv_pos_site_id
 _symmetry_equiv_pos_as_xyz
  1  'x, y, z'
loop_
 _atom_site_type_symbol
 _atom_site_label
 _atom_site_symmetry_multiplicity
 _atom_site_fract_x
 _atom_site_fract_y
 _atom_site_fract_z
 _atom_site_occupancy
  Na  Na0  1  0.23956700  0.50000000  0.75192300  1
  Na  Na1  1  0.76043300  0.00000000  0.25192300  1
  Np  Np2  1  0.72006000  0.50000000  0.49735300  1
  Np  Np3  1  0.27994000  0.00000000  0.99735300  1
  C  C4  1  0.90012900  0.50000000  0.00186600  1
  C  C5  1  0.09987100  0.00000000  0.50186600  1
  O  O6  1  0.77243100  0.26640700  0.01171100  1
  O  O7  1  0.22756900  0.23359300  0.51171100  1
  O  O8  1  0.28021800  0.00000000  0.82957500  1
  O  O9  1  0.71978200  0.50000000  0.32957500  1
  O  O10  1  0.72833900  0.50000000  0.66591800  1
  O  O11  1  0.80524400  0.00000000  0.48014900  1
  O  O12  1  0.22756900  0.76640700  0.51171100  1
  O  O13  1  0.19475600  0.50000000  0.98014900  1
  O  O14  1  0.27166100  0.00000000  0.16591800  1
  O  O15  1  0.77243100  0.73359300  0.01171100  1
