# generated using pymatgen
data_Tl3AgTe2
_symmetry_space_group_name_H-M   'P 1'
_cell_length_a   7.68710100
_cell_length_b   10.04823300
_cell_length_c   11.28154334
_cell_angle_alpha   63.67138662
_cell_angle_beta   90.00000000
_cell_angle_gamma   90.00000000
_symmetry_Int_Tables_number   1
_chemical_formula_structural   Tl3AgTe2
_chemical_formula_sum   'Tl12 Ag4 Te8'
_cell_volume   781.01119939
_cell_formula_units_Z   4
loop_
 _symmetry_equiv_pos_site_id
 _symmetry_equiv_pos_as_xyz
  1  'x, y, z'
loop_
 _atom_site_type_symbol
 _atom_site_label
 _atom_site_symmetry_multiplicity
 _atom_site_fract_x
 _atom_site_fract_y
 _atom_site_fract_z
 _atom_site_occupancy
  Tl  Tl0  1  0.71217600  0.66702300  0.41446300  1
  Tl  Tl1  1  0.78782400  0.16702300  0.41446300  1
  Tl  Tl2  1  0.98846400  0.98982500  0.21259700  1
  Tl  Tl3  1  0.00493800  0.46550500  0.76639700  1
  Tl  Tl4  1  0.28782400  0.33297700  0.58553700  1
  Tl  Tl5  1  0.49506200  0.96550500  0.76639700  1
  Tl  Tl6  1  0.01153600  0.01017500  0.78740300  1
  Tl  Tl7  1  0.99506200  0.53449500  0.23360300  1
  Tl  Tl8  1  0.48846400  0.51017500  0.78740300  1
  Tl  Tl9  1  0.51153600  0.48982500  0.21259700  1
  Tl  Tl10  1  0.50493800  0.03449500  0.23360300  1
  Tl  Tl11  1  0.21217600  0.83297700  0.58553700  1
  Ag  Ag12  1  0.16653400  0.32475000  0.09375600  1
  Ag  Ag13  1  0.83346600  0.67525000  0.90624400  1
  Ag  Ag14  1  0.33346600  0.82475000  0.09375600  1
  Ag  Ag15  1  0.66653400  0.17525000  0.90624400  1
  Te  Te16  1  0.76827500  0.80942900  0.62751000  1
  Te  Te17  1  0.23172500  0.19057100  0.37249000  1
  Te  Te18  1  0.73172500  0.30942900  0.62751000  1
  Te  Te19  1  0.26827500  0.69057100  0.37249000  1
  Te  Te20  1  0.77158500  0.35452500  0.03762500  1
  Te  Te21  1  0.27158500  0.14547500  0.96237500  1
  Te  Te22  1  0.72841500  0.85452500  0.03762500  1
  Te  Te23  1  0.22841500  0.64547500  0.96237500  1
