# generated using pymatgen
data_BaAlH5
_symmetry_space_group_name_H-M   'P 1'
_cell_length_a   5.12237600
_cell_length_b   7.05653400
_cell_length_c   9.17280600
_cell_angle_alpha   90.00000000
_cell_angle_beta   90.00000000
_cell_angle_gamma   90.00000000
_symmetry_Int_Tables_number   1
_chemical_formula_structural   BaAlH5
_chemical_formula_sum   'Ba4 Al4 H20'
_cell_volume   331.56226741
_cell_formula_units_Z   4
loop_
 _symmetry_equiv_pos_site_id
 _symmetry_equiv_pos_as_xyz
  1  'x, y, z'
loop_
 _atom_site_type_symbol
 _atom_site_label
 _atom_site_symmetry_multiplicity
 _atom_site_fract_x
 _atom_site_fract_y
 _atom_site_fract_z
 _atom_site_occupancy
  Ba  Ba0  1  0.25593100  0.34282400  0.18668500  1
  Ba  Ba1  1  0.75593100  0.65717600  0.81331500  1
  Ba  Ba2  1  0.75593100  0.84282400  0.31331500  1
  Ba  Ba3  1  0.25593100  0.15717600  0.68668500  1
  Al  Al4  1  0.22939400  0.65453800  0.54045700  1
  Al  Al5  1  0.72939400  0.34546200  0.45954300  1
  Al  Al6  1  0.72939400  0.15453800  0.95954300  1
  Al  Al7  1  0.22939400  0.84546200  0.04045700  1
  H  H8  1  0.91083400  0.55086300  0.50513700  1
  H  H9  1  0.41083400  0.44913700  0.49486300  1
  H  H10  1  0.41083400  0.05086300  0.99486300  1
  H  H11  1  0.91083400  0.94913700  0.00513700  1
  H  H12  1  0.02273300  0.65553600  0.08129100  1
  H  H13  1  0.52273300  0.34446400  0.91870900  1
  H  H14  1  0.52273300  0.15553600  0.41870900  1
  H  H15  1  0.02273300  0.84446400  0.58129100  1
  H  H16  1  0.49912500  0.70837300  0.07771800  1
  H  H17  1  0.99912500  0.29162700  0.92228200  1
  H  H18  1  0.99912500  0.20837300  0.42228200  1
  H  H19  1  0.49912500  0.79162700  0.57771800  1
  H  H20  1  0.23625900  0.80569500  0.85765200  1
  H  H21  1  0.73625900  0.19430500  0.14234800  1
  H  H22  1  0.73625900  0.30569500  0.64234800  1
  H  H23  1  0.23625900  0.69430500  0.35765200  1
  H  H24  1  0.21272400  0.95258000  0.20583500  1
  H  H25  1  0.71272400  0.04742000  0.79416500  1
  H  H26  1  0.71272400  0.45258000  0.29416500  1
  H  H27  1  0.21272400  0.54742000  0.70583500  1
