# generated using pymatgen
data_Zr2N2O
_symmetry_space_group_name_H-M   'P 1'
_cell_length_a   8.86285300
_cell_length_b   8.87104305
_cell_length_c   8.87551191
_cell_angle_alpha   109.41623917
_cell_angle_beta   109.41800720
_cell_angle_gamma   109.42314149
_symmetry_Int_Tables_number   1
_chemical_formula_structural   Zr2N2O
_chemical_formula_sum   'Zr16 N16 O8'
_cell_volume   538.21342704
_cell_formula_units_Z   8
loop_
 _symmetry_equiv_pos_site_id
 _symmetry_equiv_pos_as_xyz
  1  'x, y, z'
loop_
 _atom_site_type_symbol
 _atom_site_label
 _atom_site_symmetry_multiplicity
 _atom_site_fract_x
 _atom_site_fract_y
 _atom_site_fract_z
 _atom_site_occupancy
  Zr  Zr0  1  0.03005600  0.24359400  0.78332000  1
  Zr  Zr1  1  0.51826300  0.51161600  0.01368900  1
  Zr  Zr2  1  0.74850200  0.21738200  0.96781500  1
  Zr  Zr3  1  0.25094600  0.29508300  0.53690000  1
  Zr  Zr4  1  0.71668500  0.47504000  0.75514500  1
  Zr  Zr5  1  0.21995400  0.96673700  0.75521100  1
  Zr  Zr6  1  0.00717600  0.00290100  0.99096800  1
  Zr  Zr7  1  0.46456800  0.74601000  0.70824900  1
  Zr  Zr8  1  0.53886800  0.25322000  0.28478000  1
  Zr  Zr9  1  0.49116500  0.98416500  0.49332500  1
  Zr  Zr10  1  0.98749900  0.48451400  0.49181800  1
  Zr  Zr11  1  0.78117200  0.03613900  0.25639200  1
  Zr  Zr12  1  0.28199900  0.53033600  0.25085000  1
  Zr  Zr13  1  0.74430800  0.71105800  0.46310300  1
  Zr  Zr14  1  0.25140800  0.79068000  0.04165700  1
  Zr  Zr15  1  0.96383200  0.74491200  0.20582800  1
  N  N16  1  0.46728200  0.01401800  0.74138600  1
  N  N17  1  0.51073000  0.54378900  0.77176000  1
  N  N18  1  0.96584800  0.73094900  0.95805200  1
  N  N19  1  0.22840800  0.48964400  0.45797900  1
  N  N20  1  0.77212100  0.50993600  0.54398400  1
  N  N21  1  0.98887600  0.25993800  0.53414600  1
  N  N22  1  0.95741500  0.96925900  0.72690800  1
  N  N23  1  0.54869500  0.77589400  0.51627900  1
  N  N24  1  0.22798500  0.76059200  0.27353200  1
  N  N25  1  0.02868700  0.27131400  0.04051200  1
  N  N26  1  0.27121900  0.04224600  0.02965500  1
  N  N27  1  0.48295100  0.45277600  0.22193100  1
  N  N28  1  0.76277000  0.27288300  0.22751200  1
  N  N29  1  0.53332500  0.98953200  0.26341300  1
  N  N30  1  0.73291300  0.77222200  0.23938500  1
  N  N31  1  0.73983800  0.46567100  0.01141800  1
  O  O32  1  0.25843000  0.53329800  0.97976600  1
  O  O33  1  0.26978000  0.22829900  0.76242200  1
  O  O34  1  0.23670100  0.72691800  0.77220200  1
  O  O35  1  0.72802500  0.95179500  0.97109900  1
  O  O36  1  0.77207800  0.24123100  0.72326600  1
  O  O37  1  0.45075900  0.22482300  0.48826100  1
  O  O38  1  0.05107000  0.03851400  0.27467100  1
  O  O39  1  0.01769400  0.74107000  0.47141000  1
