# generated using pymatgen
data_NbTl2PO6
_symmetry_space_group_name_H-M   'P 1'
_cell_length_a   15.98630136
_cell_length_b   15.98630136
_cell_length_c   15.98630165
_cell_angle_alpha   32.22689666
_cell_angle_beta   32.22689666
_cell_angle_gamma   32.22689967
_symmetry_Int_Tables_number   1
_chemical_formula_structural   NbTl2PO6
_chemical_formula_sum   'Nb6 Tl12 P6 O36'
_cell_volume   1032.65201125
_cell_formula_units_Z   6
loop_
 _symmetry_equiv_pos_site_id
 _symmetry_equiv_pos_as_xyz
  1  'x, y, z'
loop_
 _atom_site_type_symbol
 _atom_site_label
 _atom_site_symmetry_multiplicity
 _atom_site_fract_x
 _atom_site_fract_y
 _atom_site_fract_z
 _atom_site_occupancy
  Nb  Nb0  1  0.00414800  0.24424800  0.49195300  1
  Nb  Nb1  1  0.75575200  0.50804700  0.99585200  1
  Nb  Nb2  1  0.99585200  0.75575200  0.50804700  1
  Nb  Nb3  1  0.49195300  0.00414800  0.24424800  1
  Nb  Nb4  1  0.50804700  0.99585200  0.75575200  1
  Nb  Nb5  1  0.24424800  0.49195300  0.00414800  1
  Tl  Tl6  1  0.66872800  0.10687700  0.31048300  1
  Tl  Tl7  1  0.41267800  0.81517800  0.19073000  1
  Tl  Tl8  1  0.80927000  0.58732200  0.18482200  1
  Tl  Tl9  1  0.18482200  0.80927000  0.58732200  1
  Tl  Tl10  1  0.10687700  0.31048300  0.66872800  1
  Tl  Tl11  1  0.19073000  0.41267800  0.81517800  1
  Tl  Tl12  1  0.31048300  0.66872800  0.10687700  1
  Tl  Tl13  1  0.81517800  0.19073000  0.41267800  1
  Tl  Tl14  1  0.33127200  0.89312300  0.68951700  1
  Tl  Tl15  1  0.68951700  0.33127200  0.89312300  1
  Tl  Tl16  1  0.89312300  0.68951700  0.33127200  1
  Tl  Tl17  1  0.58732200  0.18482200  0.80927000  1
  P  P18  1  0.41752500  0.41752500  0.41752500  1
  P  P19  1  0.30595200  0.30595200  0.30595200  1
  P  P20  1  0.08307600  0.08307600  0.08307600  1
  P  P21  1  0.58247500  0.58247500  0.58247500  1
  P  P22  1  0.91692400  0.91692400  0.91692400  1
  P  P23  1  0.69404800  0.69404800  0.69404800  1
  O  O24  1  0.94640000  0.56945700  0.75782900  1
  O  O25  1  0.65986300  0.65986300  0.65986300  1
  O  O26  1  0.43054300  0.24217100  0.05360000  1
  O  O27  1  0.30247100  0.45733000  0.12437100  1
  O  O28  1  0.54906300  0.54906300  0.54906300  1
  O  O29  1  0.12437100  0.30247100  0.45733000  1
  O  O30  1  0.52474000  0.89719500  0.20633500  1
  O  O31  1  0.22890200  0.55018000  0.43218000  1
  O  O32  1  0.10280500  0.79366500  0.47526000  1
  O  O33  1  0.88324800  0.88324800  0.88324800  1
  O  O34  1  0.75782900  0.94640000  0.56945700  1
  O  O35  1  0.24324700  0.04713200  0.91929000  1
  O  O36  1  0.20633500  0.52474000  0.89719500  1
  O  O37  1  0.55018000  0.43218000  0.22890200  1
  O  O38  1  0.11675200  0.11675200  0.11675200  1
  O  O39  1  0.44982000  0.56782000  0.77109800  1
  O  O40  1  0.75675300  0.95286800  0.08071000  1
  O  O41  1  0.45733000  0.12437100  0.30247100  1
  O  O42  1  0.43218000  0.22890200  0.55018000  1
  O  O43  1  0.56782000  0.77109800  0.44982000  1
  O  O44  1  0.95286800  0.08071000  0.75675300  1
  O  O45  1  0.34013700  0.34013700  0.34013700  1
  O  O46  1  0.24217100  0.05360000  0.43054300  1
  O  O47  1  0.91929000  0.24324700  0.04713200  1
  O  O48  1  0.87562900  0.69752900  0.54267000  1
  O  O49  1  0.05360000  0.43054300  0.24217100  1
  O  O50  1  0.77109800  0.44982000  0.56782000  1
  O  O51  1  0.54267000  0.87562900  0.69752900  1
  O  O52  1  0.56945700  0.75782900  0.94640000  1
  O  O53  1  0.79366500  0.47526000  0.10280500  1
  O  O54  1  0.69752900  0.54267000  0.87562900  1
  O  O55  1  0.47526000  0.10280500  0.79366500  1
  O  O56  1  0.04713200  0.91929000  0.24324700  1
  O  O57  1  0.45093700  0.45093700  0.45093700  1
  O  O58  1  0.89719500  0.20633500  0.52474000  1
  O  O59  1  0.08071000  0.75675300  0.95286800  1
