# generated using pymatgen
data_NaHCO3
_symmetry_space_group_name_H-M   'P 1'
_cell_length_a   9.78177300
_cell_length_b   3.53871400
_cell_length_c   8.11133194
_cell_angle_alpha   67.80544747
_cell_angle_beta   90.00000000
_cell_angle_gamma   90.00000000
_symmetry_Int_Tables_number   1
_chemical_formula_structural   NaHCO3
_chemical_formula_sum   'Na4 H4 C4 O12'
_cell_volume   259.96947291
_cell_formula_units_Z   4
loop_
 _symmetry_equiv_pos_site_id
 _symmetry_equiv_pos_as_xyz
  1  'x, y, z'
loop_
 _atom_site_type_symbol
 _atom_site_label
 _atom_site_symmetry_multiplicity
 _atom_site_fract_x
 _atom_site_fract_y
 _atom_site_fract_z
 _atom_site_occupancy
  Na  Na0  1  0.50303400  0.57347000  0.21404200  1
  Na  Na1  1  0.00303400  0.42653000  0.28595800  1
  Na  Na2  1  0.49696600  0.42653000  0.78595800  1
  Na  Na3  1  0.99696600  0.57347000  0.71404200  1
  H  H4  1  0.74436600  0.31672600  0.64772500  1
  H  H5  1  0.24436600  0.68327400  0.85227500  1
  H  H6  1  0.25563400  0.68327400  0.35227500  1
  H  H7  1  0.75563400  0.31672600  0.14772500  1
  C  C8  1  0.73918800  0.79105900  0.42213700  1
  C  C9  1  0.23918800  0.20894100  0.07786300  1
  C  C10  1  0.26081200  0.20894100  0.57786300  1
  C  C11  1  0.76081200  0.79105900  0.92213700  1
  O  O12  1  0.86844400  0.81727600  0.42545300  1
  O  O13  1  0.36844400  0.18272400  0.07454700  1
  O  O14  1  0.13155600  0.18272400  0.57454700  1
  O  O15  1  0.63155600  0.81727600  0.92545300  1
  O  O16  1  0.66160300  0.01286600  0.29505700  1
  O  O17  1  0.16160300  0.98713400  0.20494300  1
  O  O18  1  0.33839700  0.98713400  0.70494300  1
  O  O19  1  0.83839700  0.01286600  0.79505700  1
  O  O20  1  0.67392600  0.50500600  0.55984800  1
  O  O21  1  0.17392600  0.49499400  0.94015200  1
  O  O22  1  0.32607400  0.49499400  0.44015200  1
  O  O23  1  0.82607400  0.50500600  0.05984800  1
