# generated using pymatgen
data_Ca3InP3
_symmetry_space_group_name_H-M   'P 1'
_cell_length_a   4.15886800
_cell_length_b   12.12151700
_cell_length_c   13.59512400
_cell_angle_alpha   90.00000000
_cell_angle_beta   90.00000000
_cell_angle_gamma   90.00000000
_symmetry_Int_Tables_number   1
_chemical_formula_structural   Ca3InP3
_chemical_formula_sum   'Ca12 In4 P12'
_cell_volume   685.35452473
_cell_formula_units_Z   4
loop_
 _symmetry_equiv_pos_site_id
 _symmetry_equiv_pos_as_xyz
  1  'x, y, z'
loop_
 _atom_site_type_symbol
 _atom_site_label
 _atom_site_symmetry_multiplicity
 _atom_site_fract_x
 _atom_site_fract_y
 _atom_site_fract_z
 _atom_site_occupancy
  Ca  Ca0  1  0.75000000  0.84698500  0.00440700  1
  Ca  Ca1  1  0.75000000  0.76798800  0.28880300  1
  Ca  Ca2  1  0.75000000  0.34698500  0.49559300  1
  Ca  Ca3  1  0.25000000  0.65301500  0.50440700  1
  Ca  Ca4  1  0.25000000  0.15301500  0.99559300  1
  Ca  Ca5  1  0.25000000  0.43440600  0.89729100  1
  Ca  Ca6  1  0.25000000  0.93440600  0.60270900  1
  Ca  Ca7  1  0.75000000  0.56559400  0.10270900  1
  Ca  Ca8  1  0.25000000  0.23201200  0.71119700  1
  Ca  Ca9  1  0.25000000  0.73201200  0.78880300  1
  Ca  Ca10  1  0.75000000  0.06559400  0.39729100  1
  Ca  Ca11  1  0.75000000  0.26798800  0.21119700  1
  In  In12  1  0.25000000  0.44809000  0.30029400  1
  In  In13  1  0.75000000  0.05191000  0.80029400  1
  In  In14  1  0.75000000  0.55191000  0.69970600  1
  In  In15  1  0.25000000  0.94809000  0.19970600  1
  P  P16  1  0.25000000  0.94888900  0.86734900  1
  P  P17  1  0.75000000  0.55111100  0.36734900  1
  P  P18  1  0.25000000  0.24603600  0.37191000  1
  P  P19  1  0.75000000  0.25396400  0.87191000  1
  P  P20  1  0.25000000  0.39528200  0.11346700  1
  P  P21  1  0.25000000  0.89528200  0.38653300  1
  P  P22  1  0.25000000  0.74603600  0.12809000  1
  P  P23  1  0.75000000  0.60471800  0.88653300  1
  P  P24  1  0.75000000  0.75396400  0.62809000  1
  P  P25  1  0.25000000  0.44888900  0.63265100  1
  P  P26  1  0.75000000  0.10471800  0.61346700  1
  P  P27  1  0.75000000  0.05111100  0.13265100  1
