# generated using pymatgen
data_K2LuZr(PO4)3
_symmetry_space_group_name_H-M   'P 1'
_cell_length_a   10.43577400
_cell_length_b   10.43577400
_cell_length_c   10.43577400
_cell_angle_alpha   90.00000000
_cell_angle_beta   90.00000000
_cell_angle_gamma   90.00000000
_symmetry_Int_Tables_number   1
_chemical_formula_structural   K2LuZr(PO4)3
_chemical_formula_sum   'K8 Lu4 Zr4 P12 O48'
_cell_volume   1136.51192241
_cell_formula_units_Z   4
loop_
 _symmetry_equiv_pos_site_id
 _symmetry_equiv_pos_as_xyz
  1  'x, y, z'
loop_
 _atom_site_type_symbol
 _atom_site_label
 _atom_site_symmetry_multiplicity
 _atom_site_fract_x
 _atom_site_fract_y
 _atom_site_fract_z
 _atom_site_occupancy
  K  K0  1  0.06694500  0.43305500  0.56694500  1
  K  K1  1  0.20102700  0.79897300  0.29897300  1
  K  K2  1  0.29897300  0.20102700  0.79897300  1
  K  K3  1  0.43305500  0.56694500  0.06694500  1
  K  K4  1  0.56694500  0.06694500  0.43305500  1
  K  K5  1  0.70102700  0.70102700  0.70102700  1
  K  K6  1  0.79897300  0.29897300  0.20102700  1
  K  K7  1  0.93305500  0.93305500  0.93305500  1
  Lu  Lu8  1  0.14647300  0.14647300  0.14647300  1
  Lu  Lu9  1  0.35352700  0.85352700  0.64647300  1
  Lu  Lu10  1  0.64647300  0.35352700  0.85352700  1
  Lu  Lu11  1  0.85352700  0.64647300  0.35352700  1
  Zr  Zr12  1  0.08351000  0.58351000  0.91649000  1
  Zr  Zr13  1  0.41649000  0.41649000  0.41649000  1
  Zr  Zr14  1  0.58351000  0.91649000  0.08351000  1
  Zr  Zr15  1  0.91649000  0.08351000  0.58351000  1
  P  P16  1  0.03832500  0.76536000  0.62626400  1
  P  P17  1  0.12626400  0.46167500  0.23464000  1
  P  P18  1  0.23464000  0.12626400  0.46167500  1
  P  P19  1  0.26536000  0.87373600  0.96167500  1
  P  P20  1  0.37373600  0.53832500  0.73464000  1
  P  P21  1  0.46167500  0.23464000  0.12626400  1
  P  P22  1  0.53832500  0.73464000  0.37373600  1
  P  P23  1  0.62626400  0.03832500  0.76536000  1
  P  P24  1  0.73464000  0.37373600  0.53832500  1
  P  P25  1  0.76536000  0.62626400  0.03832500  1
  P  P26  1  0.87373600  0.96167500  0.26536000  1
  P  P27  1  0.96167500  0.26536000  0.87373600  1
  O  O28  1  0.00775900  0.40660200  0.85209400  1
  O  O29  1  0.02740800  0.54931000  0.30024700  1
  O  O30  1  0.02231800  0.69042500  0.75497800  1
  O  O31  1  0.04931000  0.19975300  0.97259200  1
  O  O32  1  0.08065000  0.32228300  0.23827100  1
  O  O33  1  0.09339800  0.14790600  0.50775900  1
  O  O34  1  0.14790600  0.50775900  0.09339800  1
  O  O35  1  0.17771700  0.76172900  0.58065000  1
  O  O36  1  0.19042500  0.74502200  0.97768200  1
  O  O37  1  0.19975300  0.97259200  0.04931000  1
  O  O38  1  0.24502200  0.52231800  0.80957500  1
  O  O39  1  0.23827100  0.08065000  0.32228300  1
  O  O40  1  0.26172900  0.91935000  0.82228300  1
  O  O41  1  0.25497800  0.47768200  0.30957500  1
  O  O42  1  0.30024700  0.02740800  0.54931000  1
  O  O43  1  0.30957500  0.25497800  0.47768200  1
  O  O44  1  0.32228300  0.23827100  0.08065000  1
  O  O45  1  0.35209400  0.49224100  0.59339800  1
  O  O46  1  0.40660200  0.85209400  0.00775900  1
  O  O47  1  0.41935000  0.67771700  0.73827100  1
  O  O48  1  0.45069000  0.80024700  0.47259200  1
  O  O49  1  0.47768200  0.30957500  0.25497800  1
  O  O50  1  0.47259200  0.45069000  0.80024700  1
  O  O51  1  0.49224100  0.59339800  0.35209400  1
  O  O52  1  0.50775900  0.09339800  0.14790600  1
  O  O53  1  0.52740800  0.95069000  0.69975300  1
  O  O54  1  0.52231800  0.80957500  0.24502200  1
  O  O55  1  0.54931000  0.30024700  0.02740800  1
  O  O56  1  0.58065000  0.17771700  0.76172900  1
  O  O57  1  0.59339800  0.35209400  0.49224100  1
  O  O58  1  0.64790600  0.99224100  0.90660200  1
  O  O59  1  0.67771700  0.73827100  0.41935000  1
  O  O60  1  0.69042500  0.75497800  0.02231800  1
  O  O61  1  0.69975300  0.52740800  0.95069000  1
  O  O62  1  0.74502200  0.97768200  0.19042500  1
  O  O63  1  0.73827100  0.41935000  0.67771700  1
  O  O64  1  0.76172900  0.58065000  0.17771700  1
  O  O65  1  0.75497800  0.02231800  0.69042500  1
  O  O66  1  0.80024700  0.47259200  0.45069000  1
  O  O67  1  0.80957500  0.24502200  0.52231800  1
  O  O68  1  0.82228300  0.26172900  0.91935000  1
  O  O69  1  0.85209400  0.00775900  0.40660200  1
  O  O70  1  0.90660200  0.64790600  0.99224100  1
  O  O71  1  0.91935000  0.82228300  0.26172900  1
  O  O72  1  0.95069000  0.69975300  0.52740800  1
  O  O73  1  0.97768200  0.19042500  0.74502200  1
  O  O74  1  0.97259200  0.04931000  0.19975300  1
  O  O75  1  0.99224100  0.90660200  0.64790600  1
