# generated using pymatgen
data_Na2H4Pd
_symmetry_space_group_name_H-M   'P 1'
_cell_length_a   5.02961623
_cell_length_b   5.02961623
_cell_length_c   5.02961623
_cell_angle_alpha   115.45940409
_cell_angle_beta   115.45940409
_cell_angle_gamma   98.06272055
_symmetry_Int_Tables_number   1
_chemical_formula_structural   Na2H4Pd
_chemical_formula_sum   'Na2 H4 Pd1'
_cell_volume   95.12104792
_cell_formula_units_Z   1
loop_
 _symmetry_equiv_pos_site_id
 _symmetry_equiv_pos_as_xyz
  1  'x, y, z'
loop_
 _atom_site_type_symbol
 _atom_site_label
 _atom_site_symmetry_multiplicity
 _atom_site_fract_x
 _atom_site_fract_y
 _atom_site_fract_z
 _atom_site_occupancy
  Na  Na0  1  0.75000000  0.25000000  0.50000000  1
  Na  Na1  1  0.25000000  0.75000000  0.50000000  1
  H  H2  1  0.21771300  0.21771300  0.43542500  1
  H  H3  1  0.78228700  0.78228700  0.56457500  1
  H  H4  1  0.21771300  0.78228700  0.00000000  1
  H  H5  1  0.78228700  0.21771300  0.00000000  1
  Pd  Pd6  1  0.00000000  0.00000000  0.00000000  1
