# generated using pymatgen
data_Na3H7Ru
_symmetry_space_group_name_H-M   'P 1'
_cell_length_a   9.55158700
_cell_length_b   9.55158700
_cell_length_c   5.31828200
_cell_angle_alpha   90.00000000
_cell_angle_beta   90.00000000
_cell_angle_gamma   90.00000000
_symmetry_Int_Tables_number   1
_chemical_formula_structural   Na3H7Ru
_chemical_formula_sum   'Na12 H28 Ru4'
_cell_volume   485.20183367
_cell_formula_units_Z   4
loop_
 _symmetry_equiv_pos_site_id
 _symmetry_equiv_pos_as_xyz
  1  'x, y, z'
loop_
 _atom_site_type_symbol
 _atom_site_label
 _atom_site_symmetry_multiplicity
 _atom_site_fract_x
 _atom_site_fract_y
 _atom_site_fract_z
 _atom_site_occupancy
  Na  Na0  1  0.69940700  0.96471000  0.50000000  1
  Na  Na1  1  0.30059300  0.03529000  0.50000000  1
  Na  Na2  1  0.19940700  0.53529000  0.00000000  1
  Na  Na3  1  0.80059300  0.46471000  0.00000000  1
  Na  Na4  1  0.96471000  0.69940700  0.50000000  1
  Na  Na5  1  0.03529000  0.30059300  0.50000000  1
  Na  Na6  1  0.53529000  0.19940700  0.00000000  1
  Na  Na7  1  0.46471000  0.80059300  0.00000000  1
  Na  Na8  1  0.38666000  0.38666000  0.50000000  1
  Na  Na9  1  0.61334000  0.61334000  0.50000000  1
  Na  Na10  1  0.88666000  0.11334000  0.00000000  1
  Na  Na11  1  0.11334000  0.88666000  0.00000000  1
  H  H12  1  0.60540300  0.39459700  0.69877600  1
  H  H13  1  0.39459700  0.60540300  0.69877600  1
  H  H14  1  0.10540300  0.10540300  0.19877600  1
  H  H15  1  0.89459700  0.89459700  0.19877600  1
  H  H16  1  0.39459700  0.60540300  0.30122400  1
  H  H17  1  0.60540300  0.39459700  0.30122400  1
  H  H18  1  0.89459700  0.89459700  0.80122400  1
  H  H19  1  0.10540300  0.10540300  0.80122400  1
  H  H20  1  0.74580200  0.25419800  0.21131100  1
  H  H21  1  0.25419800  0.74580200  0.21131100  1
  H  H22  1  0.24580200  0.24580200  0.71131100  1
  H  H23  1  0.75419800  0.75419800  0.71131100  1
  H  H24  1  0.25419800  0.74580200  0.78868900  1
  H  H25  1  0.74580200  0.25419800  0.78868900  1
  H  H26  1  0.75419800  0.75419800  0.28868900  1
  H  H27  1  0.24580200  0.24580200  0.28868900  1
  H  H28  1  0.56762300  0.17647600  0.50000000  1
  H  H29  1  0.43237700  0.82352400  0.50000000  1
  H  H30  1  0.06762300  0.32352400  0.00000000  1
  H  H31  1  0.93237700  0.67647600  0.00000000  1
  H  H32  1  0.17647600  0.56762300  0.50000000  1
  H  H33  1  0.82352400  0.43237700  0.50000000  1
  H  H34  1  0.32352400  0.06762300  0.00000000  1
  H  H35  1  0.67647600  0.93237700  0.00000000  1
  H  H36  1  0.82471700  0.17528300  0.50000000  1
  H  H37  1  0.17528300  0.82471700  0.50000000  1
  H  H38  1  0.32471700  0.32471700  0.00000000  1
  H  H39  1  0.67528300  0.67528300  0.00000000  1
  Ru  Ru40  1  0.70250400  0.29749600  0.50000000  1
  Ru  Ru41  1  0.29749600  0.70250400  0.50000000  1
  Ru  Ru42  1  0.20250400  0.20250400  0.00000000  1
  Ru  Ru43  1  0.79749600  0.79749600  0.00000000  1
