# generated using pymatgen
data_Mg3ReH7
_symmetry_space_group_name_H-M   'P 1'
_cell_length_a   4.84685650
_cell_length_b   4.84685650
_cell_length_c   10.62130400
_cell_angle_alpha   90.00000000
_cell_angle_beta   90.00000000
_cell_angle_gamma   120.00000680
_symmetry_Int_Tables_number   1
_chemical_formula_structural   Mg3ReH7
_chemical_formula_sum   'Mg6 Re2 H14'
_cell_volume   216.08706194
_cell_formula_units_Z   2
loop_
 _symmetry_equiv_pos_site_id
 _symmetry_equiv_pos_as_xyz
  1  'x, y, z'
loop_
 _atom_site_type_symbol
 _atom_site_label
 _atom_site_symmetry_multiplicity
 _atom_site_fract_x
 _atom_site_fract_y
 _atom_site_fract_z
 _atom_site_occupancy
  Mg  Mg0  1  0.33333300  0.66666700  0.43127600  1
  Mg  Mg1  1  0.66666700  0.33333300  0.56872400  1
  Mg  Mg2  1  0.66666700  0.33333300  0.93127600  1
  Mg  Mg3  1  0.33333300  0.66666700  0.06872400  1
  Mg  Mg4  1  0.00000000  0.00000000  0.25000000  1
  Mg  Mg5  1  0.00000000  0.00000000  0.75000000  1
  Re  Re6  1  0.00000000  0.00000000  0.50000000  1
  Re  Re7  1  0.00000000  0.00000000  0.00000000  1
  H  H8  1  0.16875300  0.83124700  0.90224200  1
  H  H9  1  0.16875300  0.33750600  0.90224200  1
  H  H10  1  0.66249400  0.83124700  0.90224200  1
  H  H11  1  0.83124700  0.16875300  0.09775800  1
  H  H12  1  0.83124700  0.66249400  0.09775800  1
  H  H13  1  0.33750600  0.16875300  0.09775800  1
  H  H14  1  0.83124700  0.16875300  0.40224200  1
  H  H15  1  0.83124700  0.66249400  0.40224200  1
  H  H16  1  0.33750600  0.16875300  0.40224200  1
  H  H17  1  0.16875300  0.83124700  0.59775800  1
  H  H18  1  0.16875300  0.33750600  0.59775800  1
  H  H19  1  0.66249400  0.83124700  0.59775800  1
  H  H20  1  0.33333300  0.66666700  0.25000000  1
  H  H21  1  0.66666700  0.33333300  0.75000000  1
