# generated using pymatgen
data_Bi14MoO24
_symmetry_space_group_name_H-M   'P 1'
_cell_length_a   8.93279900
_cell_length_b   8.93915808
_cell_length_c   10.62085240
_cell_angle_alpha   114.54749635
_cell_angle_beta   114.36454444
_cell_angle_gamma   90.51355745
_symmetry_Int_Tables_number   1
_chemical_formula_structural   Bi14MoO24
_chemical_formula_sum   'Bi14 Mo1 O24'
_cell_volume   685.88707188
_cell_formula_units_Z   1
loop_
 _symmetry_equiv_pos_site_id
 _symmetry_equiv_pos_as_xyz
  1  'x, y, z'
loop_
 _atom_site_type_symbol
 _atom_site_label
 _atom_site_symmetry_multiplicity
 _atom_site_fract_x
 _atom_site_fract_y
 _atom_site_fract_z
 _atom_site_occupancy
  Bi  Bi0  1  0.13155200  0.94115200  0.66016300  1
  Bi  Bi1  1  0.05265200  0.47010900  0.33292500  1
  Bi  Bi2  1  0.34202800  0.34144700  0.68213400  1
  Bi  Bi3  1  0.27056500  0.86648600  0.32993800  1
  Bi  Bi4  1  0.21691400  0.43759500  0.99736800  1
  Bi  Bi5  1  0.52071400  0.71956500  0.65341400  1
  Bi  Bi6  1  0.46773300  0.27644400  0.33169500  1
  Bi  Bi7  1  0.44113100  0.78246700  0.99795400  1
  Bi  Bi8  1  0.71426000  0.13340400  0.65919300  1
  Bi  Bi9  1  0.65409600  0.65842200  0.31861000  1
  Bi  Bi10  1  0.56162800  0.21947700  0.99943700  1
  Bi  Bi11  1  0.93648500  0.52564900  0.65646200  1
  Bi  Bi12  1  0.86441900  0.05877400  0.33478500  1
  Bi  Bi13  1  0.78504900  0.56576900  0.00256900  1
  Mo  Mo14  1  0.96775700  0.99137000  0.96147900  1
  O  O15  1  0.17969700  0.09369500  0.02947700  1
  O  O16  1  0.99612900  0.32937400  0.49349000  1
  O  O17  1  0.23718600  0.54039600  0.84136000  1
  O  O18  1  0.29786100  0.24063900  0.83675000  1
  O  O19  1  0.16936000  0.00134000  0.49748700  1
  O  O20  1  0.10719400  0.61865200  0.22754800  1
  O  O21  1  0.38111300  0.88428500  0.76462100  1
  O  O22  1  0.32402400  0.49872700  0.49325800  1
  O  O23  1  0.53892000  0.60686400  0.84059500  1
  O  O24  1  0.59455200  0.30677000  0.83913200  1
  O  O25  1  0.48721700  0.82400800  0.48791200  1
  O  O26  1  0.49643300  0.17647700  0.50258200  1
  O  O27  1  0.39529400  0.69717400  0.15611800  1
  O  O28  1  0.46044300  0.40340300  0.16118300  1
  O  O29  1  0.84269200  0.14639900  0.99957100  1
  O  O30  1  0.66826300  0.49648400  0.49183400  1
  O  O31  1  0.61575000  0.11571800  0.22961500  1
  O  O32  1  0.88083400  0.38097800  0.76543800  1
  O  O33  1  0.88121400  0.86568600  0.75454200  1
  O  O34  1  0.82574400  0.00597100  0.49791900  1
  O  O35  1  0.69476100  0.76246700  0.15781700  1
  O  O36  1  0.75813200  0.46738200  0.16221400  1
  O  O37  1  0.00150300  0.66929100  0.49742100  1
  O  O38  1  0.96209800  0.85808900  0.04879000  1
