# generated using pymatgen
data_InTeI7
_symmetry_space_group_name_H-M   'P 1'
_cell_length_a   7.49368900
_cell_length_b   15.43256800
_cell_length_c   30.52014400
_cell_angle_alpha   90.00000000
_cell_angle_beta   90.00000000
_cell_angle_gamma   90.00000000
_symmetry_Int_Tables_number   1
_chemical_formula_structural   InTeI7
_chemical_formula_sum   'In8 Te8 I56'
_cell_volume   3529.55897488
_cell_formula_units_Z   8
loop_
 _symmetry_equiv_pos_site_id
 _symmetry_equiv_pos_as_xyz
  1  'x, y, z'
loop_
 _atom_site_type_symbol
 _atom_site_label
 _atom_site_symmetry_multiplicity
 _atom_site_fract_x
 _atom_site_fract_y
 _atom_site_fract_z
 _atom_site_occupancy
  In  In0  1  0.62589300  0.76147100  0.61713300  1
  In  In1  1  0.29545300  0.66451200  0.35729900  1
  In  In2  1  0.79545300  0.83548800  0.85729900  1
  In  In3  1  0.70454700  0.33548800  0.85729900  1
  In  In4  1  0.12589300  0.73852900  0.11713300  1
  In  In5  1  0.37410700  0.23852900  0.11713300  1
  In  In6  1  0.87410700  0.26147100  0.61713300  1
  In  In7  1  0.20454700  0.16451200  0.35729900  1
  Te  Te8  1  0.61318900  0.40356000  0.26614800  1
  Te  Te9  1  0.55863200  0.62343100  0.03392300  1
  Te  Te10  1  0.11318900  0.09644000  0.76614800  1
  Te  Te11  1  0.88681100  0.90356000  0.26614800  1
  Te  Te12  1  0.38681100  0.59644000  0.76614800  1
  Te  Te13  1  0.94136800  0.12343100  0.03392300  1
  Te  Te14  1  0.44136800  0.37656900  0.53392300  1
  Te  Te15  1  0.05863200  0.87656900  0.53392300  1
  I  I16  1  0.82383900  0.91334000  0.77524900  1
  I  I17  1  0.78538600  0.24662200  0.25944500  1
  I  I18  1  0.82466600  0.47528800  0.33228900  1
  I  I19  1  0.89593400  0.20403600  0.40226300  1
  I  I20  1  0.27260200  0.01068900  0.69626600  1
  I  I21  1  0.28696100  0.80845900  0.04295100  1
  I  I22  1  0.59913400  0.94347800  0.91211700  1
  I  I23  1  0.36316000  0.32823800  0.34792100  1
  I  I24  1  0.10406600  0.79596400  0.90226300  1
  I  I25  1  0.32466600  0.02471200  0.83228900  1
  I  I26  1  0.86316000  0.17176200  0.84792100  1
  I  I27  1  0.28538600  0.25337800  0.75944500  1
  I  I28  1  0.25249700  0.76401300  0.61750900  1
  I  I29  1  0.84139100  0.94514500  0.46912600  1
  I  I30  1  0.40086600  0.05652200  0.41211700  1
  I  I31  1  0.76477600  0.97145700  0.05456500  1
  I  I32  1  0.78696100  0.69154100  0.54295100  1
  I  I33  1  0.72739800  0.98931100  0.19626600  1
  I  I34  1  0.17533400  0.52471200  0.83228900  1
  I  I35  1  0.68998700  0.20092500  0.97917800  1
  I  I36  1  0.76636500  0.17125700  0.69069200  1
  I  I37  1  0.23363500  0.82874300  0.19069200  1
  I  I38  1  0.22739800  0.51068900  0.69626600  1
  I  I39  1  0.32383900  0.58666000  0.27524900  1
  I  I40  1  0.25078900  0.06920200  0.11990600  1
  I  I41  1  0.73363500  0.67125700  0.69069200  1
  I  I42  1  0.34139100  0.55485500  0.96912600  1
  I  I43  1  0.26636500  0.32874300  0.19069200  1
  I  I44  1  0.71461400  0.74662200  0.25944500  1
  I  I45  1  0.63684000  0.67176200  0.84792100  1
  I  I46  1  0.24750300  0.26401300  0.61750900  1
  I  I47  1  0.26477600  0.52854300  0.55456500  1
  I  I48  1  0.15860900  0.05485500  0.96912600  1
  I  I49  1  0.65860900  0.44514500  0.46912600  1
  I  I50  1  0.81001300  0.70092500  0.97917800  1
  I  I51  1  0.77260200  0.48931100  0.19626600  1
  I  I52  1  0.75249700  0.73598700  0.11750900  1
  I  I53  1  0.13684000  0.82823800  0.34792100  1
  I  I54  1  0.17616100  0.08666000  0.27524900  1
  I  I55  1  0.23522400  0.02854300  0.55456500  1
  I  I56  1  0.60406600  0.70403600  0.40226300  1
  I  I57  1  0.39593400  0.29596400  0.90226300  1
  I  I58  1  0.67616100  0.41334000  0.77524900  1
  I  I59  1  0.18998700  0.29907500  0.47917800  1
  I  I60  1  0.90086600  0.44347800  0.91211700  1
  I  I61  1  0.09913400  0.55652200  0.41211700  1
  I  I62  1  0.73522400  0.47145700  0.05456500  1
  I  I63  1  0.21461400  0.75337800  0.75944500  1
  I  I64  1  0.31001300  0.79907500  0.47917800  1
  I  I65  1  0.67533400  0.97528800  0.33228900  1
  I  I66  1  0.75078900  0.43079800  0.61990600  1
  I  I67  1  0.21303900  0.30845900  0.04295100  1
  I  I68  1  0.24921100  0.56920200  0.11990600  1
  I  I69  1  0.74921100  0.93079800  0.61990600  1
  I  I70  1  0.71303900  0.19154100  0.54295100  1
  I  I71  1  0.74750300  0.23598700  0.11750900  1
