# generated using pymatgen
data_Cs3Sc2Cl9
_symmetry_space_group_name_H-M   'P 1'
_cell_length_a   9.73731243
_cell_length_b   9.73731243
_cell_length_c   9.73731202
_cell_angle_alpha   84.19408111
_cell_angle_beta   84.19408111
_cell_angle_gamma   84.19407694
_symmetry_Int_Tables_number   1
_chemical_formula_structural   Cs3Sc2Cl9
_chemical_formula_sum   'Cs6 Sc4 Cl18'
_cell_volume   909.93387544
_cell_formula_units_Z   2
loop_
 _symmetry_equiv_pos_site_id
 _symmetry_equiv_pos_as_xyz
  1  'x, y, z'
loop_
 _atom_site_type_symbol
 _atom_site_label
 _atom_site_symmetry_multiplicity
 _atom_site_fract_x
 _atom_site_fract_y
 _atom_site_fract_z
 _atom_site_occupancy
  Cs  Cs0  1  0.25000000  0.91408200  0.58591800  1
  Cs  Cs1  1  0.08591800  0.41408200  0.75000000  1
  Cs  Cs2  1  0.91408200  0.58591800  0.25000000  1
  Cs  Cs3  1  0.41408200  0.75000000  0.08591800  1
  Cs  Cs4  1  0.58591800  0.25000000  0.91408200  1
  Cs  Cs5  1  0.75000000  0.08591800  0.41408200  1
  Sc  Sc6  1  0.15295700  0.15295700  0.15295700  1
  Sc  Sc7  1  0.65295700  0.65295700  0.65295700  1
  Sc  Sc8  1  0.34704300  0.34704300  0.34704300  1
  Sc  Sc9  1  0.84704300  0.84704300  0.84704300  1
  Cl  Cl10  1  0.39755800  0.10244200  0.25000000  1
  Cl  Cl11  1  0.25000000  0.39755800  0.10244200  1
  Cl  Cl12  1  0.24556600  0.57174800  0.40981600  1
  Cl  Cl13  1  0.92825200  0.25443400  0.09018400  1
  Cl  Cl14  1  0.90981600  0.07174800  0.74556600  1
  Cl  Cl15  1  0.57174800  0.40981600  0.24556600  1
  Cl  Cl16  1  0.10244200  0.25000000  0.39755800  1
  Cl  Cl17  1  0.42825200  0.59018400  0.75443400  1
  Cl  Cl18  1  0.40981600  0.24556600  0.57174800  1
  Cl  Cl19  1  0.89755800  0.75000000  0.60244200  1
  Cl  Cl20  1  0.60244200  0.89755800  0.75000000  1
  Cl  Cl21  1  0.75443400  0.42825200  0.59018400  1
  Cl  Cl22  1  0.75000000  0.60244200  0.89755800  1
  Cl  Cl23  1  0.07174800  0.74556600  0.90981600  1
  Cl  Cl24  1  0.59018400  0.75443400  0.42825200  1
  Cl  Cl25  1  0.25443400  0.09018400  0.92825200  1
  Cl  Cl26  1  0.09018400  0.92825200  0.25443400  1
  Cl  Cl27  1  0.74556600  0.90981600  0.07174800  1
