# generated using pymatgen
data_Ce5Sn3
_symmetry_space_group_name_H-M   'P 1'
_cell_length_a   9.30291930
_cell_length_b   9.30291930
_cell_length_c   9.30291930
_cell_angle_alpha   96.17873859
_cell_angle_beta   96.17873859
_cell_angle_gamma   141.69655700
_symmetry_Int_Tables_number   1
_chemical_formula_structural   Ce5Sn3
_chemical_formula_sum   'Ce10 Sn6'
_cell_volume   471.41137550
_cell_formula_units_Z   2
loop_
 _symmetry_equiv_pos_site_id
 _symmetry_equiv_pos_as_xyz
  1  'x, y, z'
loop_
 _atom_site_type_symbol
 _atom_site_label
 _atom_site_symmetry_multiplicity
 _atom_site_fract_x
 _atom_site_fract_y
 _atom_site_fract_z
 _atom_site_occupancy
  Ce  Ce0  1  0.41683500  0.27850900  0.69534400  1
  Ce  Ce1  1  0.08316500  0.77850900  0.86167400  1
  Ce  Ce2  1  0.77850900  0.91683500  0.69534400  1
  Ce  Ce3  1  0.22149100  0.08316500  0.30465600  1
  Ce  Ce4  1  0.91683500  0.22149100  0.13832600  1
  Ce  Ce5  1  0.25000000  0.75000000  0.50000000  1
  Ce  Ce6  1  0.27850900  0.58316500  0.86167400  1
  Ce  Ce7  1  0.72149100  0.41683500  0.13832600  1
  Ce  Ce8  1  0.58316500  0.72149100  0.30465600  1
  Ce  Ce9  1  0.75000000  0.25000000  0.50000000  1
  Sn  Sn10  1  0.66045700  0.16045700  0.82091400  1
  Sn  Sn11  1  0.83954300  0.66045700  0.50000000  1
  Sn  Sn12  1  0.75000000  0.75000000  0.00000000  1
  Sn  Sn13  1  0.16045700  0.33954300  0.50000000  1
  Sn  Sn14  1  0.33954300  0.83954300  0.17908600  1
  Sn  Sn15  1  0.25000000  0.25000000  0.00000000  1
