# generated using pymatgen
data_Ba8Mn8O21
_symmetry_space_group_name_H-M   'P 1'
_cell_length_a   9.57537000
_cell_length_b   5.79187800
_cell_length_c   10.07611915
_cell_angle_alpha   89.64249467
_cell_angle_beta   90.00000000
_cell_angle_gamma   90.00000000
_symmetry_Int_Tables_number   1
_chemical_formula_structural   Ba8Mn8O21
_chemical_formula_sum   'Ba8 Mn8 O21'
_cell_volume   558.80439056
_cell_formula_units_Z   1
loop_
 _symmetry_equiv_pos_site_id
 _symmetry_equiv_pos_as_xyz
  1  'x, y, z'
loop_
 _atom_site_type_symbol
 _atom_site_label
 _atom_site_symmetry_multiplicity
 _atom_site_fract_x
 _atom_site_fract_y
 _atom_site_fract_z
 _atom_site_occupancy
  Ba  Ba0  1  0.75861500  0.99220600  0.99741600  1
  Ba  Ba1  1  0.50000000  0.51002500  0.16938600  1
  Ba  Ba2  1  0.27885300  0.49242700  0.50580100  1
  Ba  Ba3  1  0.00000000  0.00723700  0.33068400  1
  Ba  Ba4  1  0.50000000  0.99333100  0.66298100  1
  Ba  Ba5  1  0.24138500  0.99220600  0.99741600  1
  Ba  Ba6  1  0.72114700  0.49242700  0.50580100  1
  Ba  Ba7  1  0.00000000  0.49305300  0.83718600  1
  Mn  Mn8  1  0.14785800  0.49690300  0.16310100  1
  Mn  Mn9  1  0.85214200  0.49690300  0.16310100  1
  Mn  Mn10  1  0.63915100  0.99756800  0.33329000  1
  Mn  Mn11  1  0.14363000  0.02024600  0.66616300  1
  Mn  Mn12  1  0.36084900  0.99756800  0.33329000  1
  Mn  Mn13  1  0.85637000  0.02024600  0.66616300  1
  Mn  Mn14  1  0.64090700  0.51854800  0.82833900  1
  Mn  Mn15  1  0.35909300  0.51854800  0.82833900  1
  O  O16  1  0.24610000  0.24944400  0.25955900  1
  O  O17  1  0.00000000  0.27880600  0.11331000  1
  O  O18  1  0.73373000  0.48576400  0.99712200  1
  O  O19  1  0.00000000  0.71411300  0.11000200  1
  O  O20  1  0.75495500  0.74683400  0.25812600  1
  O  O21  1  0.22862600  0.74818700  0.73581100  1
  O  O22  1  0.77137400  0.74818700  0.73581100  1
  O  O23  1  0.24504500  0.74683400  0.25812600  1
  O  O24  1  0.50000000  0.77724700  0.40467300  1
  O  O25  1  0.50000000  0.00376400  0.18670800  1
  O  O26  1  0.75385900  0.98905600  0.49452100  1
  O  O27  1  0.24614100  0.98905600  0.49452100  1
  O  O28  1  0.00000000  0.99410000  0.80669400  1
  O  O29  1  0.50000000  0.21380000  0.40732600  1
  O  O30  1  0.00000000  0.23462300  0.58351400  1
  O  O31  1  0.75390000  0.24944400  0.25955900  1
  O  O32  1  0.73008900  0.24675000  0.76233100  1
  O  O33  1  0.26991100  0.24675000  0.76233100  1
  O  O34  1  0.50000000  0.49722500  0.68385100  1
  O  O35  1  0.26627000  0.48576400  0.99712200  1
  O  O36  1  0.50000000  0.73497100  0.90555100  1
