# generated using pymatgen
data_Ba(IrO3)2
_symmetry_space_group_name_H-M   'P 1'
_cell_length_a   8.25758234
_cell_length_b   8.25758234
_cell_length_c   8.25758204
_cell_angle_alpha   109.57533723
_cell_angle_beta   109.57533723
_cell_angle_gamma   109.57534496
_symmetry_Int_Tables_number   1
_chemical_formula_structural   Ba(IrO3)2
_chemical_formula_sum   'Ba3 Ir6 O18'
_cell_volume   431.76884480
_cell_formula_units_Z   3
loop_
 _symmetry_equiv_pos_site_id
 _symmetry_equiv_pos_as_xyz
  1  'x, y, z'
loop_
 _atom_site_type_symbol
 _atom_site_label
 _atom_site_symmetry_multiplicity
 _atom_site_fract_x
 _atom_site_fract_y
 _atom_site_fract_z
 _atom_site_occupancy
  Ba  Ba0  1  0.36041300  0.99680400  0.99369600  1
  Ba  Ba1  1  0.99680400  0.99369600  0.36041300  1
  Ba  Ba2  1  0.99369600  0.36041300  0.99680400  1
  Ir  Ir3  1  0.50141500  0.34630500  0.83872300  1
  Ir  Ir4  1  0.83872300  0.50141500  0.34630500  1
  Ir  Ir5  1  0.34630500  0.83872300  0.50141500  1
  Ir  Ir6  1  0.65595100  0.16184500  0.50046100  1
  Ir  Ir7  1  0.16184500  0.50046100  0.65595100  1
  Ir  Ir8  1  0.50046100  0.65595100  0.16184500  1
  O  O9  1  0.63857700  0.63968200  0.00682600  1
  O  O10  1  0.71869700  0.66982000  0.36397900  1
  O  O11  1  0.66982000  0.36397900  0.71869700  1
  O  O12  1  0.68728100  0.33106800  0.05013500  1
  O  O13  1  0.33106800  0.05013500  0.68728100  1
  O  O14  1  0.64153700  0.30053100  0.35272000  1
  O  O15  1  0.05013500  0.68728100  0.33106800  1
  O  O16  1  0.99813100  0.36122100  0.35821000  1
  O  O17  1  0.35821000  0.99813100  0.36122100  1
  O  O18  1  0.00682600  0.63857700  0.63968200  1
  O  O19  1  0.94964200  0.28116900  0.63985200  1
  O  O20  1  0.36397900  0.71869700  0.66982000  1
  O  O21  1  0.63985200  0.94964200  0.28116900  1
  O  O22  1  0.28116900  0.63985200  0.94964200  1
  O  O23  1  0.63968200  0.00682600  0.63857700  1
  O  O24  1  0.35272000  0.64153700  0.30053100  1
  O  O25  1  0.30053100  0.35272000  0.64153700  1
  O  O26  1  0.36122100  0.35821000  0.99813100  1
