# generated using pymatgen
data_Sr3InRhO6
_symmetry_space_group_name_H-M   'P 1'
_cell_length_a   6.82147555
_cell_length_b   6.82147555
_cell_length_c   6.82147529
_cell_angle_alpha   91.09970372
_cell_angle_beta   91.09970372
_cell_angle_gamma   91.09971071
_symmetry_Int_Tables_number   1
_chemical_formula_structural   Sr3InRhO6
_chemical_formula_sum   'Sr6 In2 Rh2 O12'
_cell_volume   317.24282042
_cell_formula_units_Z   2
loop_
 _symmetry_equiv_pos_site_id
 _symmetry_equiv_pos_as_xyz
  1  'x, y, z'
loop_
 _atom_site_type_symbol
 _atom_site_label
 _atom_site_symmetry_multiplicity
 _atom_site_fract_x
 _atom_site_fract_y
 _atom_site_fract_z
 _atom_site_occupancy
  Sr  Sr0  1  0.88127000  0.25000000  0.61873000  1
  Sr  Sr1  1  0.25000000  0.61873000  0.88127000  1
  Sr  Sr2  1  0.38127000  0.11873000  0.75000000  1
  Sr  Sr3  1  0.75000000  0.38127000  0.11873000  1
  Sr  Sr4  1  0.11873000  0.75000000  0.38127000  1
  Sr  Sr5  1  0.61873000  0.88127000  0.25000000  1
  In  In6  1  0.25000000  0.25000000  0.25000000  1
  In  In7  1  0.75000000  0.75000000  0.75000000  1
  Rh  Rh8  1  0.50000000  0.50000000  0.50000000  1
  Rh  Rh9  1  0.00000000  0.00000000  0.00000000  1
  O  O10  1  0.71018100  0.04022500  0.90555600  1
  O  O11  1  0.95977500  0.09444400  0.28981900  1
  O  O12  1  0.78981900  0.59444400  0.45977500  1
  O  O13  1  0.59444400  0.45977500  0.78981900  1
  O  O14  1  0.45977500  0.78981900  0.59444400  1
  O  O15  1  0.04022500  0.90555600  0.71018100  1
  O  O16  1  0.40555600  0.54022500  0.21018100  1
  O  O17  1  0.28981900  0.95977500  0.09444400  1
  O  O18  1  0.21018100  0.40555600  0.54022500  1
  O  O19  1  0.54022500  0.21018100  0.40555600  1
  O  O20  1  0.90555600  0.71018100  0.04022500  1
  O  O21  1  0.09444400  0.28981900  0.95977500  1
