# generated using pymatgen
data_Mg3(TiAl9)2
_symmetry_space_group_name_H-M   'P 1'
_cell_length_a   10.44024778
_cell_length_b   10.44024778
_cell_length_c   10.44024778
_cell_angle_alpha   60.00000000
_cell_angle_beta   60.00000000
_cell_angle_gamma   60.00000000
_symmetry_Int_Tables_number   1
_chemical_formula_structural   Mg3(TiAl9)2
_chemical_formula_sum   'Mg6 Ti4 Al36'
_cell_volume   804.66927651
_cell_formula_units_Z   2
loop_
 _symmetry_equiv_pos_site_id
 _symmetry_equiv_pos_as_xyz
  1  'x, y, z'
loop_
 _atom_site_type_symbol
 _atom_site_label
 _atom_site_symmetry_multiplicity
 _atom_site_fract_x
 _atom_site_fract_y
 _atom_site_fract_z
 _atom_site_occupancy
  Mg  Mg0  1  0.25000000  0.25000000  0.25000000  1
  Mg  Mg1  1  0.62500000  0.12500000  0.12500000  1
  Mg  Mg2  1  0.12500000  0.62500000  0.12500000  1
  Mg  Mg3  1  0.00000000  0.00000000  0.00000000  1
  Mg  Mg4  1  0.12500000  0.12500000  0.12500000  1
  Mg  Mg5  1  0.12500000  0.12500000  0.62500000  1
  Ti  Ti6  1  0.62500000  0.12500000  0.62500000  1
  Ti  Ti7  1  0.62500000  0.62500000  0.12500000  1
  Ti  Ti8  1  0.62500000  0.62500000  0.62500000  1
  Ti  Ti9  1  0.12500000  0.62500000  0.62500000  1
  Al  Al10  1  0.44977300  0.18207200  0.44977300  1
  Al  Al11  1  0.88879000  0.88879000  0.61121000  1
  Al  Al12  1  0.88879000  0.61121000  0.61121000  1
  Al  Al13  1  0.18207200  0.44977300  0.44977300  1
  Al  Al14  1  0.36121000  0.63879000  0.36121000  1
  Al  Al15  1  0.33161800  0.80022700  0.06792800  1
  Al  Al16  1  0.91838200  0.18207200  0.44977300  1
  Al  Al17  1  0.44977300  0.91838200  0.44977300  1
  Al  Al18  1  0.80022700  0.06792800  0.33161800  1
  Al  Al19  1  0.63879000  0.36121000  0.36121000  1
  Al  Al20  1  0.63879000  0.36121000  0.63879000  1
  Al  Al21  1  0.33161800  0.80022700  0.80022700  1
  Al  Al22  1  0.80022700  0.33161800  0.06792800  1
  Al  Al23  1  0.80022700  0.33161800  0.80022700  1
  Al  Al24  1  0.44977300  0.91838200  0.18207200  1
  Al  Al25  1  0.63879000  0.63879000  0.36121000  1
  Al  Al26  1  0.91838200  0.44977300  0.44977300  1
  Al  Al27  1  0.06792800  0.33161800  0.80022700  1
  Al  Al28  1  0.36121000  0.63879000  0.63879000  1
  Al  Al29  1  0.44977300  0.18207200  0.91838200  1
  Al  Al30  1  0.33161800  0.06792800  0.80022700  1
  Al  Al31  1  0.18207200  0.91838200  0.44977300  1
  Al  Al32  1  0.18207200  0.44977300  0.91838200  1
  Al  Al33  1  0.61121000  0.88879000  0.61121000  1
  Al  Al34  1  0.06792800  0.80022700  0.33161800  1
  Al  Al35  1  0.80022700  0.80022700  0.06792800  1
  Al  Al36  1  0.91838200  0.44977300  0.18207200  1
  Al  Al37  1  0.61121000  0.88879000  0.88879000  1
  Al  Al38  1  0.88879000  0.61121000  0.88879000  1
  Al  Al39  1  0.44977300  0.44977300  0.18207200  1
  Al  Al40  1  0.61121000  0.61121000  0.88879000  1
  Al  Al41  1  0.44977300  0.44977300  0.91838200  1
  Al  Al42  1  0.06792800  0.80022700  0.80022700  1
  Al  Al43  1  0.36121000  0.36121000  0.63879000  1
  Al  Al44  1  0.80022700  0.80022700  0.33161800  1
  Al  Al45  1  0.80022700  0.06792800  0.80022700  1
