# generated using pymatgen
data_TaP2NCl12
_symmetry_space_group_name_H-M   'P 1'
_cell_length_a   8.27879781
_cell_length_b   8.27879781
_cell_length_c   15.84779780
_cell_angle_alpha   78.39908739
_cell_angle_beta   78.39908739
_cell_angle_gamma   65.46514157
_symmetry_Int_Tables_number   1
_chemical_formula_structural   TaP2NCl12
_chemical_formula_sum   'Ta2 P4 N2 Cl24'
_cell_volume   959.46215506
_cell_formula_units_Z   2
loop_
 _symmetry_equiv_pos_site_id
 _symmetry_equiv_pos_as_xyz
  1  'x, y, z'
loop_
 _atom_site_type_symbol
 _atom_site_label
 _atom_site_symmetry_multiplicity
 _atom_site_fract_x
 _atom_site_fract_y
 _atom_site_fract_z
 _atom_site_occupancy
  Ta  Ta0  1  0.00000000  0.00000000  0.50000000  1
  Ta  Ta1  1  0.00000000  0.00000000  0.00000000  1
  P  P2  1  0.45999300  0.31855100  0.27048800  1
  P  P3  1  0.68144900  0.54000700  0.22951200  1
  P  P4  1  0.31855100  0.45999300  0.77048800  1
  P  P5  1  0.54000700  0.68144900  0.72951200  1
  N  N6  1  0.37710200  0.62289800  0.75000000  1
  N  N7  1  0.62289800  0.37710200  0.25000000  1
  Cl  Cl8  1  0.76280000  0.50097900  0.67629900  1
  Cl  Cl9  1  0.26947600  0.40143800  0.66554800  1
  Cl  Cl10  1  0.40143800  0.26947600  0.16554800  1
  Cl  Cl11  1  0.50097900  0.76280000  0.17629900  1
  Cl  Cl12  1  0.10145300  0.21365800  0.52590600  1
  Cl  Cl13  1  0.04698500  0.08672500  0.34798400  1
  Cl  Cl14  1  0.49902100  0.23720000  0.82370100  1
  Cl  Cl15  1  0.08672500  0.04698500  0.84798400  1
  Cl  Cl16  1  0.09460300  0.51357100  0.85175200  1
  Cl  Cl17  1  0.90539700  0.48642900  0.14824800  1
  Cl  Cl18  1  0.91327500  0.95301500  0.15201600  1
  Cl  Cl19  1  0.70234100  0.22144700  0.50791800  1
  Cl  Cl20  1  0.21365800  0.10145300  0.02590600  1
  Cl  Cl21  1  0.95301500  0.91327500  0.65201600  1
  Cl  Cl22  1  0.29765900  0.77855300  0.49208200  1
  Cl  Cl23  1  0.22144700  0.70234100  0.00791800  1
  Cl  Cl24  1  0.51357100  0.09460300  0.35175200  1
  Cl  Cl25  1  0.78634200  0.89854700  0.97409400  1
  Cl  Cl26  1  0.23720000  0.49902100  0.32370100  1
  Cl  Cl27  1  0.48642900  0.90539700  0.64824800  1
  Cl  Cl28  1  0.89854700  0.78634200  0.47409400  1
  Cl  Cl29  1  0.73052400  0.59856300  0.33445200  1
  Cl  Cl30  1  0.59856200  0.73052400  0.83445200  1
  Cl  Cl31  1  0.77855300  0.29765900  0.99208200  1
