# generated using pymatgen
data_Ca2As2O7
_symmetry_space_group_name_H-M   'P 1'
_cell_length_a   5.92819756
_cell_length_b   5.92819756
_cell_length_c   4.98852426
_cell_angle_alpha   82.96200515
_cell_angle_beta   82.96200515
_cell_angle_gamma   105.67933439
_symmetry_Int_Tables_number   1
_chemical_formula_structural   Ca2As2O7
_chemical_formula_sum   'Ca2 As2 O7'
_cell_volume   165.28177665
_cell_formula_units_Z   1
loop_
 _symmetry_equiv_pos_site_id
 _symmetry_equiv_pos_as_xyz
  1  'x, y, z'
loop_
 _atom_site_type_symbol
 _atom_site_label
 _atom_site_symmetry_multiplicity
 _atom_site_fract_x
 _atom_site_fract_y
 _atom_site_fract_z
 _atom_site_occupancy
  Ca  Ca0  1  0.69291300  0.30708700  0.50000000  1
  Ca  Ca1  1  0.30708700  0.69291300  0.50000000  1
  As  As2  1  0.77369900  0.77369900  0.90803400  1
  As  As3  1  0.22630100  0.22630100  0.09196600  1
  O  O4  1  0.91646000  0.61583400  0.72186200  1
  O  O5  1  0.38416600  0.08354000  0.27813800  1
  O  O6  1  0.08354000  0.38416600  0.27813800  1
  O  O7  1  0.61583400  0.91646000  0.72186200  1
  O  O8  1  0.00000000  0.00000000  0.00000000  1
  O  O9  1  0.61733500  0.61733500  0.21404800  1
  O  O10  1  0.38266500  0.38266500  0.78595200  1
