# generated using pymatgen
data_Ba20As13
_symmetry_space_group_name_H-M   'P 1'
_cell_length_a   8.74974424
_cell_length_b   8.74974458
_cell_length_c   43.82365530
_cell_angle_alpha   109.35673497
_cell_angle_beta   109.35673577
_cell_angle_gamma   109.63134859
_symmetry_Int_Tables_number   1
_chemical_formula_structural   Ba20As13
_chemical_formula_sum   'Ba40 As26'
_cell_volume   2584.89780769
_cell_formula_units_Z   2
loop_
 _symmetry_equiv_pos_site_id
 _symmetry_equiv_pos_as_xyz
  1  'x, y, z'
loop_
 _atom_site_type_symbol
 _atom_site_label
 _atom_site_symmetry_multiplicity
 _atom_site_fract_x
 _atom_site_fract_y
 _atom_site_fract_z
 _atom_site_occupancy
  Ba  Ba0  1  0.00090369  0.87944509  0.89893753  1
  Ba  Ba1  1  0.00621604  0.38475744  0.90106247  1
  Ba  Ba2  1  0.48269062  0.00987090  0.96998015  1
  Ba  Ba3  1  0.98846404  0.86900509  0.69696088  1
  Ba  Ba4  1  0.13278987  0.15997014  0.83001985  1
  Ba  Ba5  1  0.98884417  0.33309005  0.69416137  1
  Ba  Ba6  1  0.37360128  0.48399943  0.79950324  1
  Ba  Ba7  1  0.98866152  0.84375652  0.49857202  1
  Ba  Ba8  1  0.63238393  0.62122127  0.92171737  1
  Ba  Ba9  1  0.52379706  0.01263440  0.87828263  1
  Ba  Ba10  1  0.13335475  0.12111540  0.62407549  1
  Ba  Ba11  1  0.98648322  0.37608506  0.50049676  1
  Ba  Ba12  1  0.36228320  0.51803732  0.60583863  1
  Ba  Ba13  1  0.51535256  0.99825010  0.77032226  1
  Ba  Ba14  1  0.98399943  0.87360128  0.29950324  1
  Ba  Ba15  1  0.61008773  0.61885294  0.72358040  1
  Ba  Ba16  1  0.85089641  0.49580142  0.80142798  1
  Ba  Ba17  1  0.50073796  0.01297731  0.67592451  1
  Ba  Ba18  1  0.99580142  0.35089641  0.30142798  1
  Ba  Ba19  1  0.12122127  0.13238393  0.42171737  1
  Ba  Ba20  1  0.37944509  0.50090369  0.39893753  1
  Ba  Ba21  1  0.50095092  0.99218571  0.57641960  1
  Ba  Ba22  1  0.64663881  0.66374127  0.52967774  1
  Ba  Ba23  1  0.88420070  0.50365966  0.60303912  1
  Ba  Ba24  1  0.50987090  0.98269062  0.46998015  1
  Ba  Ba25  1  0.11885294  0.11008773  0.22358040  1
  Ba  Ba26  1  0.00365966  0.38420070  0.10303912  1
  Ba  Ba27  1  0.36900509  0.48846404  0.19696088  1
  Ba  Ba28  1  0.51263440  0.02379706  0.37828263  1
  Ba  Ba29  1  0.65997014  0.63278987  0.33001985  1
  Ba  Ba30  1  0.88475744  0.50621604  0.40106247  1
  Ba  Ba31  1  0.49825010  0.01535256  0.27032226  1
  Ba  Ba32  1  0.16374127  0.14663881  0.02967774  1
  Ba  Ba33  1  0.34375652  0.48866152  0.99857202  1
  Ba  Ba34  1  0.51297731  0.00073796  0.17592451  1
  Ba  Ba35  1  0.62111540  0.63335475  0.12407549  1
  Ba  Ba36  1  0.83309005  0.48884417  0.19416137  1
  Ba  Ba37  1  0.49218571  0.00095092  0.07641960  1
  Ba  Ba38  1  0.01803732  0.86228320  0.10583863  1
  Ba  Ba39  1  0.87608506  0.48648322  0.00049676  1
  As  As40  1  0.13104703  0.75198512  0.97686356  1
  As  As41  1  0.24690587  0.62796578  0.87284336  1
  As  As42  1  0.38268907  0.26374897  0.92715664  1
  As  As43  1  0.24966028  0.63175227  0.67749410  1
  As  As44  1  0.12538187  0.74846714  0.57557219  1
  As  As45  1  0.61160734  0.34945979  0.84662011  1
  As  As46  1  0.37060618  0.24752090  0.72442781  1
  As  As47  1  0.74672924  0.86766733  0.82313644  1
  As  As48  1  0.87850681  0.11635926  0.95337989  1
  As  As49  1  0.25198512  0.63104703  0.47686356  1
  As  As50  1  0.12796578  0.74690587  0.37284336  1
  As  As51  1  0.74428176  0.86218976  0.62250590  1
  As  As52  1  0.63088539  0.38088539  0.65000000  1
  As  As53  1  0.88266747  0.13558541  0.75106033  1
  As  As54  1  0.13175227  0.74966028  0.17749410  1
  As  As55  1  0.76374897  0.88268907  0.42715664  1
  As  As56  1  0.36766733  0.24672924  0.32313644  1
  As  As57  1  0.61635926  0.37850681  0.45337989  1
  As  As58  1  0.88028376  0.12736582  0.54893967  1
  As  As59  1  0.24846714  0.62538187  0.07557219  1
  As  As60  1  0.74752090  0.87060618  0.22442781  1
  As  As61  1  0.36218976  0.24428176  0.12250590  1
  As  As62  1  0.63558541  0.38266747  0.25106033  1
  As  As63  1  0.84945979  0.11160734  0.34662011  1
  As  As64  1  0.62736582  0.38028376  0.04893967  1
  As  As65  1  0.88088539  0.13088539  0.15000000  1
