# generated using pymatgen
data_Ge4Se9
_symmetry_space_group_name_H-M   'P 1'
_cell_length_a   7.16675000
_cell_length_b   12.37122400
_cell_length_c   18.12635200
_cell_angle_alpha   90.00000000
_cell_angle_beta   90.00000000
_cell_angle_gamma   90.00000000
_symmetry_Int_Tables_number   1
_chemical_formula_structural   Ge4Se9
_chemical_formula_sum   'Ge16 Se36'
_cell_volume   1607.10900684
_cell_formula_units_Z   4
loop_
 _symmetry_equiv_pos_site_id
 _symmetry_equiv_pos_as_xyz
  1  'x, y, z'
loop_
 _atom_site_type_symbol
 _atom_site_label
 _atom_site_symmetry_multiplicity
 _atom_site_fract_x
 _atom_site_fract_y
 _atom_site_fract_z
 _atom_site_occupancy
  Ge  Ge0  1  0.68484800  0.21126600  0.83001700  1
  Ge  Ge1  1  0.18912800  0.19995600  0.77487800  1
  Ge  Ge2  1  0.31515200  0.21126600  0.33001700  1
  Ge  Ge3  1  0.32522800  0.63133800  0.54102200  1
  Ge  Ge4  1  0.17875200  0.13673000  0.14557600  1
  Ge  Ge5  1  0.81087200  0.69995600  0.22512200  1
  Ge  Ge6  1  0.18912800  0.69995600  0.72512200  1
  Ge  Ge7  1  0.67477200  0.13133800  0.45897800  1
  Ge  Ge8  1  0.31515200  0.71126600  0.16998300  1
  Ge  Ge9  1  0.32522800  0.13133800  0.95897800  1
  Ge  Ge10  1  0.17875200  0.63673000  0.35442400  1
  Ge  Ge11  1  0.82124800  0.63673000  0.85442400  1
  Ge  Ge12  1  0.81087200  0.19995600  0.27487800  1
  Ge  Ge13  1  0.82124800  0.13673000  0.64557600  1
  Ge  Ge14  1  0.68484800  0.71126600  0.66998300  1
  Ge  Ge15  1  0.67477200  0.63133800  0.04102200  1
  Se  Se16  1  0.74324200  0.00270200  0.55435300  1
  Se  Se17  1  0.70274500  0.05328500  0.75533700  1
  Se  Se18  1  0.34051900  0.65665000  0.04414700  1
  Se  Se19  1  0.20294400  0.54244100  0.64868000  1
  Se  Se20  1  0.95692200  0.32415800  0.82092400  1
  Se  Se21  1  0.32742400  0.30287900  0.10811100  1
  Se  Se22  1  0.25675800  0.00270200  0.05435300  1
  Se  Se23  1  0.15799500  0.65063800  0.85195100  1
  Se  Se24  1  0.79705600  0.04244100  0.35132000  1
  Se  Se25  1  0.44070000  0.32804500  0.78630800  1
  Se  Se26  1  0.55930000  0.82804500  0.21369200  1
  Se  Se27  1  0.32742400  0.80287900  0.39188900  1
  Se  Se28  1  0.17059100  0.29851200  0.99256100  1
  Se  Se29  1  0.79705600  0.54244100  0.14868000  1
  Se  Se30  1  0.67257600  0.80287900  0.89188900  1
  Se  Se31  1  0.74324200  0.50270200  0.94564700  1
  Se  Se32  1  0.25675800  0.50270200  0.44564700  1
  Se  Se33  1  0.84200500  0.65063800  0.35195100  1
  Se  Se34  1  0.55930000  0.32804500  0.28630800  1
  Se  Se35  1  0.29725500  0.55328500  0.24466300  1
  Se  Se36  1  0.20294400  0.04244100  0.85132000  1
  Se  Se37  1  0.15799500  0.15063800  0.64804900  1
  Se  Se38  1  0.44070000  0.82804500  0.71369200  1
  Se  Se39  1  0.65948100  0.65665000  0.54414700  1
  Se  Se40  1  0.29725500  0.05328500  0.25533700  1
  Se  Se41  1  0.82940900  0.79851200  0.00743900  1
  Se  Se42  1  0.84200500  0.15063800  0.14804900  1
  Se  Se43  1  0.70274500  0.55328500  0.74466300  1
  Se  Se44  1  0.95692200  0.82415800  0.67907600  1
  Se  Se45  1  0.65948100  0.15665000  0.95585300  1
  Se  Se46  1  0.67257600  0.30287900  0.60811100  1
  Se  Se47  1  0.34051900  0.15665000  0.45585300  1
  Se  Se48  1  0.17059100  0.79851200  0.50743900  1
  Se  Se49  1  0.82940900  0.29851200  0.49256100  1
  Se  Se50  1  0.04307800  0.82415800  0.17907600  1
  Se  Se51  1  0.04307800  0.32415800  0.32092400  1
