# generated using pymatgen
data_Ca2Zr5Ti2O16
_symmetry_space_group_name_H-M   'P 1'
_cell_length_a   10.25199400
_cell_length_b   15.40931000
_cell_length_c   15.42120800
_cell_angle_alpha   90.00000000
_cell_angle_beta   90.00000000
_cell_angle_gamma   90.00000000
_symmetry_Int_Tables_number   1
_chemical_formula_structural   Ca2Zr5Ti2O16
_chemical_formula_sum   'Ca16 Zr40 Ti16 O128'
_cell_volume   2436.18312469
_cell_formula_units_Z   8
loop_
 _symmetry_equiv_pos_site_id
 _symmetry_equiv_pos_as_xyz
  1  'x, y, z'
loop_
 _atom_site_type_symbol
 _atom_site_label
 _atom_site_symmetry_multiplicity
 _atom_site_fract_x
 _atom_site_fract_y
 _atom_site_fract_z
 _atom_site_occupancy
  Ca  Ca0  1  0.12634000  0.58151100  0.33210800  1
  Ca  Ca1  1  0.62634000  0.41848900  0.16789200  1
  Ca  Ca2  1  0.87616400  0.58313400  0.16744200  1
  Ca  Ca3  1  0.87616400  0.08313400  0.33255800  1
  Ca  Ca4  1  0.62383600  0.58313400  0.66744200  1
  Ca  Ca5  1  0.62383600  0.08313400  0.83255800  1
  Ca  Ca6  1  0.37366000  0.58151100  0.83210800  1
  Ca  Ca7  1  0.12634000  0.08151100  0.16789200  1
  Ca  Ca8  1  0.12383600  0.91686600  0.66744200  1
  Ca  Ca9  1  0.37366000  0.08151100  0.66789200  1
  Ca  Ca10  1  0.62634000  0.91848900  0.33210800  1
  Ca  Ca11  1  0.37616400  0.41686600  0.33255800  1
  Ca  Ca12  1  0.37616400  0.91686600  0.16744200  1
  Ca  Ca13  1  0.87366000  0.41848900  0.66789200  1
  Ca  Ca14  1  0.87366000  0.91848900  0.83210800  1
  Ca  Ca15  1  0.12383600  0.41686600  0.83255800  1
  Zr  Zr16  1  0.39298600  0.41023800  0.98001200  1
  Zr  Zr17  1  0.38799800  0.58678900  0.48233500  1
  Zr  Zr18  1  0.35601600  0.23066300  0.83984000  1
  Zr  Zr19  1  0.60701400  0.58976200  0.01998800  1
  Zr  Zr20  1  0.63759000  0.23105900  0.66341100  1
  Zr  Zr21  1  0.12521700  0.76527700  0.48332400  1
  Zr  Zr22  1  0.62521700  0.73472300  0.48332400  1
  Zr  Zr23  1  0.10701400  0.91023800  0.01998800  1
  Zr  Zr24  1  0.87478300  0.23472300  0.51667600  1
  Zr  Zr25  1  0.35601600  0.73066300  0.66016000  1
  Zr  Zr26  1  0.61200200  0.41321100  0.51766500  1
  Zr  Zr27  1  0.88799800  0.91321100  0.48233500  1
  Zr  Zr28  1  0.14398400  0.73066300  0.16016000  1
  Zr  Zr29  1  0.38799800  0.08678900  0.01766500  1
  Zr  Zr30  1  0.37478300  0.26527700  0.51667600  1
  Zr  Zr31  1  0.85601600  0.76933700  0.66016000  1
  Zr  Zr32  1  0.88799800  0.41321100  0.01766500  1
  Zr  Zr33  1  0.87478300  0.73472300  0.98332400  1
  Zr  Zr34  1  0.61200200  0.91321100  0.98233500  1
  Zr  Zr35  1  0.13759000  0.76894100  0.83658900  1
  Zr  Zr36  1  0.11200200  0.58678900  0.98233500  1
  Zr  Zr37  1  0.10701400  0.41023800  0.48001200  1
  Zr  Zr38  1  0.89298600  0.08976200  0.98001200  1
  Zr  Zr39  1  0.39298600  0.91023800  0.51998800  1
  Zr  Zr40  1  0.13759000  0.26894100  0.66341100  1
  Zr  Zr41  1  0.86241000  0.73105900  0.33658900  1
  Zr  Zr42  1  0.37478300  0.76527700  0.98332400  1
  Zr  Zr43  1  0.36241000  0.26894100  0.16341100  1
  Zr  Zr44  1  0.36241000  0.76894100  0.33658900  1
  Zr  Zr45  1  0.63759000  0.73105900  0.83658900  1
  Zr  Zr46  1  0.64398400  0.26933700  0.33984000  1
  Zr  Zr47  1  0.12521700  0.26527700  0.01667600  1
  Zr  Zr48  1  0.60701400  0.08976200  0.48001200  1
  Zr  Zr49  1  0.86241000  0.23105900  0.16341100  1
  Zr  Zr50  1  0.14398400  0.23066300  0.33984000  1
  Zr  Zr51  1  0.64398400  0.76933700  0.16016000  1
  Zr  Zr52  1  0.62521700  0.23472300  0.01667600  1
  Zr  Zr53  1  0.89298600  0.58976200  0.51998800  1
  Zr  Zr54  1  0.85601600  0.26933700  0.83984000  1
  Zr  Zr55  1  0.11200200  0.08678900  0.51766500  1
  Ti  Ti56  1  0.87679800  0.91445300  0.16370800  1
  Ti  Ti57  1  0.12320200  0.58554700  0.66370800  1
  Ti  Ti58  1  0.37679800  0.58554700  0.16370800  1
  Ti  Ti59  1  0.62650300  0.07744100  0.17298100  1
  Ti  Ti60  1  0.62650300  0.57744100  0.32701900  1
  Ti  Ti61  1  0.12650300  0.42255900  0.17298100  1
  Ti  Ti62  1  0.37679800  0.08554700  0.33629200  1
  Ti  Ti63  1  0.37349700  0.92255900  0.82701900  1
  Ti  Ti64  1  0.87679800  0.41445300  0.33629200  1
  Ti  Ti65  1  0.12650300  0.92255900  0.32701900  1
  Ti  Ti66  1  0.87349700  0.57744100  0.82701900  1
  Ti  Ti67  1  0.62320200  0.41445300  0.83629200  1
  Ti  Ti68  1  0.62320200  0.91445300  0.66370800  1
  Ti  Ti69  1  0.12320200  0.08554700  0.83629200  1
  Ti  Ti70  1  0.87349700  0.07744100  0.67298100  1
  Ti  Ti71  1  0.37349700  0.42255900  0.67298100  1
  O  O72  1  0.04358400  0.00584600  0.92190500  1
  O  O73  1  0.24966400  0.99860100  0.07058500  1
  O  O74  1  0.49309800  0.83511300  0.61707800  1
  O  O75  1  0.29711200  0.17197300  0.25708900  1
  O  O76  1  0.75210500  0.00044800  0.21279500  1
  O  O77  1  0.50726300  0.32948200  0.43368200  1
  O  O78  1  0.74666300  0.68455600  0.07845500  1
  O  O79  1  0.25033600  0.49860100  0.92941500  1
  O  O80  1  0.75014700  0.64020800  0.91796300  1
  O  O81  1  0.24666300  0.81544400  0.07845500  1
  O  O82  1  0.45641600  0.50584600  0.07809500  1
  O  O83  1  0.74720200  0.36760900  0.41580300  1
  O  O84  1  0.50422800  0.66993000  0.93301600  1
  O  O85  1  0.74180500  0.81747100  0.91862500  1
  O  O86  1  0.49929400  0.96276900  0.75052400  1
  O  O87  1  0.29711200  0.67197300  0.24291100  1
  O  O88  1  0.24985300  0.85979200  0.41796300  1
  O  O89  1  0.25014700  0.85979200  0.91796300  1
  O  O90  1  0.20288800  0.67197300  0.74291100  1
  O  O91  1  0.00422800  0.83007000  0.93301600  1
  O  O92  1  0.50690200  0.66488700  0.11707800  1
  O  O93  1  0.75210500  0.50044800  0.28720500  1
  O  O94  1  0.74966400  0.50139900  0.07058500  1
  O  O95  1  0.99273700  0.82948200  0.56631800  1
  O  O96  1  0.24966400  0.49860100  0.42941500  1
  O  O97  1  0.25279800  0.13239100  0.91580300  1
  O  O98  1  0.50726300  0.82948200  0.06631800  1
  O  O99  1  0.00422800  0.33007000  0.56698400  1
  O  O100  1  0.99929400  0.03723100  0.74947600  1
  O  O101  1  0.49577200  0.33007000  0.06698400  1
  O  O102  1  0.50286400  0.82062700  0.24968600  1
  O  O103  1  0.25819500  0.68252900  0.41862500  1
  O  O104  1  0.00690200  0.33511300  0.38292200  1
  O  O105  1  0.00070600  0.46276900  0.24947600  1
  O  O106  1  0.00286400  0.17937300  0.25031400  1
  O  O107  1  0.25333700  0.31544400  0.92154500  1
  O  O108  1  0.04499500  0.49252500  0.07802200  1
  O  O109  1  0.75819500  0.31747100  0.08137500  1
  O  O110  1  0.00690200  0.83511300  0.11707800  1
  O  O111  1  0.00286400  0.67937300  0.24968600  1
  O  O112  1  0.74180500  0.31747100  0.58137500  1
  O  O113  1  0.49713600  0.17937300  0.75031400  1
  O  O114  1  0.70877300  0.17166200  0.24346900  1
  O  O115  1  0.25210500  0.99955200  0.28720500  1
  O  O116  1  0.49644700  0.83149700  0.88932400  1
  O  O117  1  0.25210500  0.49955200  0.21279500  1
  O  O118  1  0.74966400  0.00139900  0.42941500  1
  O  O119  1  0.00355300  0.83149700  0.38932400  1
  O  O120  1  0.99273700  0.32948200  0.93368200  1
  O  O121  1  0.45641600  0.00584600  0.42190500  1
  O  O122  1  0.49713600  0.67937300  0.74968600  1
  O  O123  1  0.49309800  0.33511300  0.88292200  1
  O  O124  1  0.04358400  0.50584600  0.57809500  1
  O  O125  1  0.00070600  0.96276900  0.25052400  1
  O  O126  1  0.24180500  0.68252900  0.91862500  1
  O  O127  1  0.50070600  0.03723100  0.24947600  1
  O  O128  1  0.00726300  0.67051800  0.06631800  1
  O  O129  1  0.54358400  0.99415400  0.57809500  1
  O  O130  1  0.50690200  0.16488700  0.38292200  1
  O  O131  1  0.99713600  0.32062700  0.75031400  1
  O  O132  1  0.75279800  0.36760900  0.91580300  1
  O  O133  1  0.79122700  0.67166200  0.75653100  1
  O  O134  1  0.20288800  0.17197300  0.75708900  1
  O  O135  1  0.49273700  0.67051800  0.56631800  1
  O  O136  1  0.75333700  0.18455600  0.92154500  1
  O  O137  1  0.99577200  0.66993000  0.43301600  1
  O  O138  1  0.75819500  0.81747100  0.41862500  1
  O  O139  1  0.25033600  0.99860100  0.57058500  1
  O  O140  1  0.24720200  0.63239100  0.08419700  1
  O  O141  1  0.50422800  0.16993000  0.56698400  1
  O  O142  1  0.74789500  0.00044800  0.71279500  1
  O  O143  1  0.50355300  0.66850300  0.38932400  1
  O  O144  1  0.74720200  0.86760900  0.08419700  1
  O  O145  1  0.75333700  0.68455600  0.57845500  1
  O  O146  1  0.74666300  0.18455600  0.42154500  1
  O  O147  1  0.29122700  0.82833800  0.75653100  1
  O  O148  1  0.79711200  0.82802700  0.24291100  1
  O  O149  1  0.70877300  0.67166200  0.25653100  1
  O  O150  1  0.20877300  0.82833800  0.25653100  1
  O  O151  1  0.95641600  0.99415400  0.07809500  1
  O  O152  1  0.25014700  0.35979200  0.58203700  1
  O  O153  1  0.49577200  0.83007000  0.43301600  1
  O  O154  1  0.95500500  0.00747500  0.57802200  1
  O  O155  1  0.49644700  0.33149700  0.61067600  1
  O  O156  1  0.45500500  0.99252500  0.92197800  1
  O  O157  1  0.24180500  0.18252900  0.58137500  1
  O  O158  1  0.50070600  0.53723100  0.25052400  1
  O  O159  1  0.24666300  0.31544400  0.42154500  1
  O  O160  1  0.24720200  0.13239100  0.41580300  1
  O  O161  1  0.04499500  0.99252500  0.42197800  1
  O  O162  1  0.54499500  0.00747500  0.07802200  1
  O  O163  1  0.25333700  0.81544400  0.57845500  1
  O  O164  1  0.25819500  0.18252900  0.08137500  1
  O  O165  1  0.29122700  0.32833800  0.74346900  1
  O  O166  1  0.70288800  0.32802700  0.75708900  1
  O  O167  1  0.50286400  0.32062700  0.25031400  1
  O  O168  1  0.99644700  0.16850300  0.61067600  1
  O  O169  1  0.24789500  0.99955200  0.78720500  1
  O  O170  1  0.45500500  0.49252500  0.57802200  1
  O  O171  1  0.79711200  0.32802700  0.25708900  1
  O  O172  1  0.99713600  0.82062700  0.74968600  1
  O  O173  1  0.24789500  0.49955200  0.71279500  1
  O  O174  1  0.95641600  0.49415400  0.42190500  1
  O  O175  1  0.49929400  0.46276900  0.74947600  1
  O  O176  1  0.49273700  0.17051800  0.93368200  1
  O  O177  1  0.95500500  0.50747500  0.92197800  1
  O  O178  1  0.20877300  0.32833800  0.24346900  1
  O  O179  1  0.24985300  0.35979200  0.08203700  1
  O  O180  1  0.75279800  0.86760900  0.58419700  1
  O  O181  1  0.74985300  0.64020800  0.41796300  1
  O  O182  1  0.74789500  0.50044800  0.78720500  1
  O  O183  1  0.75033600  0.00139900  0.92941500  1
  O  O184  1  0.54499500  0.50747500  0.42197800  1
  O  O185  1  0.75033600  0.50139900  0.57058500  1
  O  O186  1  0.74985300  0.14020800  0.08203700  1
  O  O187  1  0.70288800  0.82802700  0.74291100  1
  O  O188  1  0.79122700  0.17166200  0.74346900  1
  O  O189  1  0.25279800  0.63239100  0.58419700  1
  O  O190  1  0.50355300  0.16850300  0.11067600  1
  O  O191  1  0.99309800  0.66488700  0.61707800  1
  O  O192  1  0.99577200  0.16993000  0.06698400  1
  O  O193  1  0.99929400  0.53723100  0.75052400  1
  O  O194  1  0.00726300  0.17051800  0.43368200  1
  O  O195  1  0.54358400  0.49415400  0.92190500  1
  O  O196  1  0.99309800  0.16488700  0.88292200  1
  O  O197  1  0.00355300  0.33149700  0.11067600  1
  O  O198  1  0.75014700  0.14020800  0.58203700  1
  O  O199  1  0.99644700  0.66850300  0.88932400  1
