# generated using pymatgen
data_Te3Pd13
_symmetry_space_group_name_H-M   'P 1'
_cell_length_a   9.11964242
_cell_length_b   9.11964242
_cell_length_c   9.11964242
_cell_angle_alpha   60.00000000
_cell_angle_beta   60.00000000
_cell_angle_gamma   60.00000000
_symmetry_Int_Tables_number   1
_chemical_formula_structural   Te3Pd13
_chemical_formula_sum   'Te6 Pd26'
_cell_volume   536.31313415
_cell_formula_units_Z   2
loop_
 _symmetry_equiv_pos_site_id
 _symmetry_equiv_pos_as_xyz
  1  'x, y, z'
loop_
 _atom_site_type_symbol
 _atom_site_label
 _atom_site_symmetry_multiplicity
 _atom_site_fract_x
 _atom_site_fract_y
 _atom_site_fract_z
 _atom_site_occupancy
  Te  Te0  1  0.50000000  0.50000000  0.50000000  1
  Te  Te1  1  0.62500000  0.12500000  0.12500000  1
  Te  Te2  1  0.12500000  0.12500000  0.12500000  1
  Te  Te3  1  0.12500000  0.12500000  0.62500000  1
  Te  Te4  1  0.12500000  0.62500000  0.12500000  1
  Te  Te5  1  0.75000000  0.75000000  0.75000000  1
  Pd  Pd6  1  0.38471100  0.38471100  0.38471100  1
  Pd  Pd7  1  0.00000000  0.00000000  0.00000000  1
  Pd  Pd8  1  0.76195600  0.76195600  0.23804400  1
  Pd  Pd9  1  0.38471100  0.38471100  0.84586600  1
  Pd  Pd10  1  0.62500000  0.62500000  0.62500000  1
  Pd  Pd11  1  0.86528900  0.40413400  0.86528900  1
  Pd  Pd12  1  0.76195600  0.23804400  0.76195600  1
  Pd  Pd13  1  0.84586600  0.38471100  0.38471100  1
  Pd  Pd14  1  0.23804400  0.23804400  0.76195600  1
  Pd  Pd15  1  0.48804400  0.48804400  0.01195600  1
  Pd  Pd16  1  0.23804400  0.76195600  0.23804400  1
  Pd  Pd17  1  0.86528900  0.86528900  0.86528900  1
  Pd  Pd18  1  0.86528900  0.86528900  0.40413400  1
  Pd  Pd19  1  0.76195600  0.23804400  0.23804400  1
  Pd  Pd20  1  0.12500000  0.62500000  0.62500000  1
  Pd  Pd21  1  0.01195600  0.48804400  0.48804400  1
  Pd  Pd22  1  0.25000000  0.25000000  0.25000000  1
  Pd  Pd23  1  0.01195600  0.01195600  0.48804400  1
  Pd  Pd24  1  0.01195600  0.48804400  0.01195600  1
  Pd  Pd25  1  0.62500000  0.62500000  0.12500000  1
  Pd  Pd26  1  0.48804400  0.01195600  0.01195600  1
  Pd  Pd27  1  0.48804400  0.01195600  0.48804400  1
  Pd  Pd28  1  0.40413400  0.86528900  0.86528900  1
  Pd  Pd29  1  0.38471100  0.84586600  0.38471100  1
  Pd  Pd30  1  0.23804400  0.76195600  0.76195600  1
  Pd  Pd31  1  0.62500000  0.12500000  0.62500000  1
