# generated using pymatgen
data_Tb(BO2)3
_symmetry_space_group_name_H-M   'P 1'
_cell_length_a   7.44562500
_cell_length_b   12.35736800
_cell_length_c   16.07657400
_cell_angle_alpha   90.00000000
_cell_angle_beta   90.00000000
_cell_angle_gamma   90.00000000
_symmetry_Int_Tables_number   1
_chemical_formula_structural   Tb(BO2)3
_chemical_formula_sum   'Tb16 B48 O96'
_cell_volume   1479.17869556
_cell_formula_units_Z   16
loop_
 _symmetry_equiv_pos_site_id
 _symmetry_equiv_pos_as_xyz
  1  'x, y, z'
loop_
 _atom_site_type_symbol
 _atom_site_label
 _atom_site_symmetry_multiplicity
 _atom_site_fract_x
 _atom_site_fract_y
 _atom_site_fract_z
 _atom_site_occupancy
  Tb  Tb0  1  0.25000000  0.41252200  0.54853000  1
  Tb  Tb1  1  0.75000000  0.23031200  0.12758600  1
  Tb  Tb2  1  0.25000000  0.76968800  0.87241400  1
  Tb  Tb3  1  0.75000000  0.58747800  0.45147000  1
  Tb  Tb4  1  0.25000000  0.49218100  0.87975100  1
  Tb  Tb5  1  0.75000000  0.56651600  0.82789200  1
  Tb  Tb6  1  0.75000000  0.50781900  0.12024900  1
  Tb  Tb7  1  0.25000000  0.73031200  0.37241400  1
  Tb  Tb8  1  0.75000000  0.99218100  0.62024900  1
  Tb  Tb9  1  0.25000000  0.43348400  0.17210800  1
  Tb  Tb10  1  0.75000000  0.93348400  0.32789200  1
  Tb  Tb11  1  0.25000000  0.06651600  0.67210800  1
  Tb  Tb12  1  0.25000000  0.00781900  0.37975100  1
  Tb  Tb13  1  0.75000000  0.91252200  0.95147000  1
  Tb  Tb14  1  0.75000000  0.26968800  0.62758600  1
  Tb  Tb15  1  0.25000000  0.08747800  0.04853000  1
  B  B16  1  0.57280200  0.34496700  0.44273100  1
  B  B17  1  0.06857400  0.12814500  0.24254500  1
  B  B18  1  0.43896900  0.17816200  0.53120100  1
  B  B19  1  0.06857400  0.37185500  0.74254500  1
  B  B20  1  0.42301500  0.48186500  0.34698400  1
  B  B21  1  0.07280200  0.84496700  0.05726900  1
  B  B22  1  0.92322000  0.14357300  0.39030800  1
  B  B23  1  0.42965300  0.68670700  0.71727800  1
  B  B24  1  0.06103100  0.32183800  0.03120100  1
  B  B25  1  0.07034700  0.68670700  0.71727800  1
  B  B26  1  0.43896900  0.32183800  0.03120100  1
  B  B27  1  0.57678000  0.14357300  0.39030800  1
  B  B28  1  0.56103100  0.67816200  0.96879900  1
  B  B29  1  0.92301500  0.98186500  0.15301600  1
  B  B30  1  0.57034700  0.18670700  0.78272200  1
  B  B31  1  0.42322000  0.64357300  0.10969200  1
  B  B32  1  0.93896900  0.67816200  0.96879900  1
  B  B33  1  0.07034700  0.81329300  0.21727800  1
  B  B34  1  0.92965300  0.18670700  0.78272200  1
  B  B35  1  0.92965300  0.31329300  0.28272200  1
  B  B36  1  0.92719800  0.34496700  0.44273100  1
  B  B37  1  0.42301500  0.01813500  0.84698400  1
  B  B38  1  0.56857400  0.87185500  0.75745500  1
  B  B39  1  0.57678000  0.35642700  0.89030800  1
  B  B40  1  0.56857400  0.62814500  0.25745500  1
  B  B41  1  0.43142600  0.37185500  0.74254500  1
  B  B42  1  0.07698500  0.01813500  0.84698400  1
  B  B43  1  0.93896900  0.82183800  0.46879900  1
  B  B44  1  0.42965300  0.81329300  0.21727800  1
  B  B45  1  0.42719800  0.65503300  0.55726900  1
  B  B46  1  0.92719800  0.15503300  0.94273100  1
  B  B47  1  0.07678000  0.85642700  0.60969200  1
  B  B48  1  0.56103100  0.82183800  0.46879900  1
  B  B49  1  0.92301500  0.51813500  0.65301600  1
  B  B50  1  0.07678000  0.64357300  0.10969200  1
  B  B51  1  0.57698500  0.98186500  0.15301600  1
  B  B52  1  0.57280200  0.15503300  0.94273100  1
  B  B53  1  0.57034700  0.31329300  0.28272200  1
  B  B54  1  0.42719800  0.84496700  0.05726900  1
  B  B55  1  0.92322000  0.35642700  0.89030800  1
  B  B56  1  0.06103100  0.17816200  0.53120100  1
  B  B57  1  0.93142600  0.87185500  0.75745500  1
  B  B58  1  0.93142600  0.62814500  0.25745500  1
  B  B59  1  0.43142600  0.12814500  0.24254500  1
  B  B60  1  0.07698500  0.48186500  0.34698400  1
  B  B61  1  0.07280200  0.65503300  0.55726900  1
  B  B62  1  0.57698500  0.51813500  0.65301600  1
  B  B63  1  0.42322000  0.85642700  0.60969200  1
  O  O64  1  0.75000000  0.80293300  0.43553400  1
  O  O65  1  0.75000000  0.35417500  0.25549900  1
  O  O66  1  0.07263400  0.76522100  0.12894900  1
  O  O67  1  0.56354300  0.93535700  0.83527600  1
  O  O68  1  0.25000000  0.19706700  0.56446600  1
  O  O69  1  0.47954700  0.79076800  0.97921100  1
  O  O70  1  0.05717900  0.06817400  0.92986000  1
  O  O71  1  0.43537400  0.37740800  0.95161800  1
  O  O72  1  0.25000000  0.89295000  0.57790600  1
  O  O73  1  0.54062700  0.37614500  0.09585600  1
  O  O74  1  0.75000000  0.39295000  0.92209400  1
  O  O75  1  0.56462600  0.62259200  0.04838200  1
  O  O76  1  0.43660600  0.39851700  0.28196900  1
  O  O77  1  0.56462600  0.87740800  0.54838200  1
  O  O78  1  0.75000000  0.03856200  0.15906700  1
  O  O79  1  0.25000000  0.96143800  0.84093300  1
  O  O80  1  0.52045300  0.29076800  0.52078900  1
  O  O81  1  0.48068900  0.73028100  0.27615800  1
  O  O82  1  0.55717900  0.93182600  0.07014000  1
  O  O83  1  0.56339400  0.89851700  0.21803100  1
  O  O84  1  0.25000000  0.36294900  0.77551400  1
  O  O85  1  0.93645700  0.56464300  0.33527600  1
  O  O86  1  0.01931100  0.73028100  0.27615800  1
  O  O87  1  0.07263400  0.73477900  0.62894900  1
  O  O88  1  0.06339400  0.10148300  0.78196900  1
  O  O89  1  0.47954700  0.70923200  0.47921100  1
  O  O90  1  0.93660600  0.89851700  0.21803100  1
  O  O91  1  0.93537400  0.62259200  0.04838200  1
  O  O92  1  0.03495000  0.57787900  0.18488300  1
  O  O93  1  0.93660600  0.60148300  0.71803100  1
  O  O94  1  0.04062700  0.87614500  0.40414400  1
  O  O95  1  0.43645700  0.06464300  0.16472400  1
  O  O96  1  0.25000000  0.60362500  0.54801800  1
  O  O97  1  0.53495000  0.07787900  0.31511700  1
  O  O98  1  0.01931100  0.76971900  0.77615800  1
  O  O99  1  0.25000000  0.53856200  0.34093300  1
  O  O100  1  0.45937300  0.62385500  0.90414400  1
  O  O101  1  0.57263400  0.23477900  0.87105100  1
  O  O102  1  0.25000000  0.30293300  0.06446600  1
  O  O103  1  0.93645700  0.93535700  0.83527600  1
  O  O104  1  0.54062700  0.12385500  0.59585600  1
  O  O105  1  0.75000000  0.86294900  0.72448600  1
  O  O106  1  0.25000000  0.89637500  0.04801800  1
  O  O107  1  0.42736600  0.76522100  0.12894900  1
  O  O108  1  0.51931100  0.23028100  0.22384200  1
  O  O109  1  0.95937300  0.12385500  0.59585600  1
  O  O110  1  0.95937300  0.37614500  0.09585600  1
  O  O111  1  0.98068900  0.26971900  0.72384200  1
  O  O112  1  0.75000000  0.69706700  0.93553400  1
  O  O113  1  0.94282100  0.93182600  0.07014000  1
  O  O114  1  0.94282100  0.56817400  0.57014000  1
  O  O115  1  0.52045300  0.20923200  0.02078900  1
  O  O116  1  0.75000000  0.10362500  0.95198200  1
  O  O117  1  0.43645700  0.43535700  0.66472400  1
  O  O118  1  0.98068900  0.23028100  0.22384200  1
  O  O119  1  0.44282100  0.43182600  0.42986000  1
  O  O120  1  0.06462600  0.12259200  0.45161800  1
  O  O121  1  0.96505000  0.42212100  0.81511700  1
  O  O122  1  0.92736600  0.26522100  0.37105100  1
  O  O123  1  0.25000000  0.13705100  0.27551400  1
  O  O124  1  0.75000000  0.63705100  0.22448600  1
  O  O125  1  0.42736600  0.73477900  0.62894900  1
  O  O126  1  0.46505000  0.57787900  0.18488300  1
  O  O127  1  0.25000000  0.64582500  0.74450100  1
  O  O128  1  0.75000000  0.46143800  0.65906700  1
  O  O129  1  0.97954700  0.29076800  0.52078900  1
  O  O130  1  0.96505000  0.07787900  0.31511700  1
  O  O131  1  0.57263400  0.26522100  0.37105100  1
  O  O132  1  0.75000000  0.39637500  0.45198200  1
  O  O133  1  0.56354300  0.56464300  0.33527600  1
  O  O134  1  0.93537400  0.87740800  0.54838200  1
  O  O135  1  0.43537400  0.12259200  0.45161800  1
  O  O136  1  0.92736600  0.23477900  0.87105100  1
  O  O137  1  0.03495000  0.92212100  0.68488300  1
  O  O138  1  0.53495000  0.42212100  0.81511700  1
  O  O139  1  0.04062700  0.62385500  0.90414400  1
  O  O140  1  0.97954700  0.20923200  0.02078900  1
  O  O141  1  0.44282100  0.06817400  0.92986000  1
  O  O142  1  0.25000000  0.60705000  0.07790600  1
  O  O143  1  0.43660600  0.10148300  0.78196900  1
  O  O144  1  0.02045300  0.70923200  0.47921100  1
  O  O145  1  0.56339400  0.60148300  0.71803100  1
  O  O146  1  0.05717900  0.43182600  0.42986000  1
  O  O147  1  0.45937300  0.87614500  0.40414400  1
  O  O148  1  0.06339400  0.39851700  0.28196900  1
  O  O149  1  0.02045300  0.79076800  0.97921100  1
  O  O150  1  0.06462600  0.37740800  0.95161800  1
  O  O151  1  0.75000000  0.10705000  0.42209400  1
  O  O152  1  0.46505000  0.92212100  0.68488300  1
  O  O153  1  0.06354300  0.06464300  0.16472400  1
  O  O154  1  0.48068900  0.76971900  0.77615800  1
  O  O155  1  0.06354300  0.43535700  0.66472400  1
  O  O156  1  0.75000000  0.14582500  0.75549900  1
  O  O157  1  0.55717900  0.56817400  0.57014000  1
  O  O158  1  0.51931100  0.26971900  0.72384200  1
  O  O159  1  0.25000000  0.85417500  0.24450100  1
