# generated using pymatgen
data_Na3GdI6
_symmetry_space_group_name_H-M   'P 1'
_cell_length_a   7.89485725
_cell_length_b   7.89485725
_cell_length_c   7.86606465
_cell_angle_alpha   80.26539007
_cell_angle_beta   80.26539007
_cell_angle_gamma   119.75564782
_symmetry_Int_Tables_number   1
_chemical_formula_structural   Na3GdI6
_chemical_formula_sum   'Na3 Gd1 I6'
_cell_volume   400.75180933
_cell_formula_units_Z   1
loop_
 _symmetry_equiv_pos_site_id
 _symmetry_equiv_pos_as_xyz
  1  'x, y, z'
loop_
 _atom_site_type_symbol
 _atom_site_label
 _atom_site_symmetry_multiplicity
 _atom_site_fract_x
 _atom_site_fract_y
 _atom_site_fract_z
 _atom_site_occupancy
  Na  Na0  1  0.33284100  0.66715900  0.00000000  1
  Na  Na1  1  0.82852000  0.17148000  0.50000000  1
  Na  Na2  1  0.66708500  0.33291500  0.00000000  1
  Gd  Gd3  1  0.00016200  0.99983800  0.00000000  1
  I  I4  1  0.76314100  0.76468600  0.75992800  1
  I  I5  1  0.40109800  0.08238900  0.75635900  1
  I  I6  1  0.08135600  0.39952800  0.75525100  1
  I  I7  1  0.91761100  0.59890200  0.24364100  1
  I  I8  1  0.60047200  0.91864400  0.24474900  1
  I  I9  1  0.23531400  0.23685900  0.24007200  1
