# generated using pymatgen
data_Cs2NaGaF6
_symmetry_space_group_name_H-M   'P 1'
_cell_length_a   10.91302003
_cell_length_b   10.91302003
_cell_length_c   10.91302006
_cell_angle_alpha   33.80219797
_cell_angle_beta   33.80219797
_cell_angle_gamma   33.80219640
_symmetry_Int_Tables_number   1
_chemical_formula_structural   Cs2NaGaF6
_chemical_formula_sum   'Cs4 Na2 Ga2 F12'
_cell_volume   358.43821287
_cell_formula_units_Z   2
loop_
 _symmetry_equiv_pos_site_id
 _symmetry_equiv_pos_as_xyz
  1  'x, y, z'
loop_
 _atom_site_type_symbol
 _atom_site_label
 _atom_site_symmetry_multiplicity
 _atom_site_fract_x
 _atom_site_fract_y
 _atom_site_fract_z
 _atom_site_occupancy
  Cs  Cs0  1  0.71847500  0.71847500  0.71847500  1
  Cs  Cs1  1  0.28152500  0.28152500  0.28152500  1
  Cs  Cs2  1  0.87198100  0.87198100  0.87198100  1
  Cs  Cs3  1  0.12801900  0.12801900  0.12801900  1
  Na  Na4  1  0.40301500  0.40301500  0.40301500  1
  Na  Na5  1  0.59698500  0.59698500  0.59698500  1
  Ga  Ga6  1  0.00000000  0.00000000  0.00000000  1
  Ga  Ga7  1  0.50000000  0.50000000  0.50000000  1
  F  F8  1  0.18146000  0.18146000  0.74487900  1
  F  F9  1  0.74487900  0.18146000  0.18146000  1
  F  F10  1  0.18146000  0.74487900  0.18146000  1
  F  F11  1  0.81854000  0.25512100  0.81854000  1
  F  F12  1  0.81854000  0.81854000  0.25512100  1
  F  F13  1  0.25512100  0.81854000  0.81854000  1
  F  F14  1  0.39661100  0.39661100  0.81986400  1
  F  F15  1  0.81986400  0.39661100  0.39661100  1
  F  F16  1  0.18013600  0.60338900  0.60338900  1
  F  F17  1  0.60338900  0.60338900  0.18013600  1
  F  F18  1  0.60338900  0.18013600  0.60338900  1
  F  F19  1  0.39661100  0.81986400  0.39661100  1
