# generated using pymatgen
data_BaZn2(PO4)2
_symmetry_space_group_name_H-M   'P 1'
_cell_length_a   9.90729200
_cell_length_b   8.70714100
_cell_length_c   9.28517965
_cell_angle_alpha   88.50807194
_cell_angle_beta   90.00000000
_cell_angle_gamma   90.00000000
_symmetry_Int_Tables_number   1
_chemical_formula_structural   BaZn2(PO4)2
_chemical_formula_sum   'Ba4 Zn8 P8 O32'
_cell_volume   800.70695692
_cell_formula_units_Z   4
loop_
 _symmetry_equiv_pos_site_id
 _symmetry_equiv_pos_as_xyz
  1  'x, y, z'
loop_
 _atom_site_type_symbol
 _atom_site_label
 _atom_site_symmetry_multiplicity
 _atom_site_fract_x
 _atom_site_fract_y
 _atom_site_fract_z
 _atom_site_occupancy
  Ba  Ba0  1  0.91685700  0.25327900  0.60468200  1
  Ba  Ba1  1  0.41685700  0.74672100  0.89531800  1
  Ba  Ba2  1  0.08314300  0.74672100  0.39531800  1
  Ba  Ba3  1  0.58314300  0.25327900  0.10468200  1
  Zn  Zn4  1  0.68145800  0.58405500  0.44067800  1
  Zn  Zn5  1  0.31854200  0.41594500  0.55932200  1
  Zn  Zn6  1  0.57511200  0.07391700  0.70828200  1
  Zn  Zn7  1  0.18145800  0.41594500  0.05932200  1
  Zn  Zn8  1  0.42488800  0.92608300  0.29171800  1
  Zn  Zn9  1  0.92488800  0.07391700  0.20828200  1
  Zn  Zn10  1  0.07511200  0.92608300  0.79171800  1
  Zn  Zn11  1  0.81854200  0.58405500  0.94067800  1
  P  P12  1  0.58883600  0.44161700  0.74156700  1
  P  P13  1  0.08883600  0.55838300  0.75843300  1
  P  P14  1  0.91116400  0.44161700  0.24156700  1
  P  P15  1  0.41116400  0.55838300  0.25843300  1
  P  P16  1  0.70368400  0.95215400  0.42626600  1
  P  P17  1  0.20368400  0.04784600  0.07373400  1
  P  P18  1  0.29631600  0.04784600  0.57373400  1
  P  P19  1  0.79631600  0.95215400  0.92626600  1
  O  O20  1  0.41983300  0.72556300  0.19536200  1
  O  O21  1  0.91983300  0.27443700  0.30463800  1
  O  O22  1  0.58016700  0.27443700  0.80463800  1
  O  O23  1  0.08016700  0.72556300  0.69536200  1
  O  O24  1  0.65478600  0.79646800  0.48907400  1
  O  O25  1  0.15478600  0.20353200  0.01092600  1
  O  O26  1  0.34521400  0.20353200  0.51092600  1
  O  O27  1  0.84521400  0.79646800  0.98907400  1
  O  O28  1  0.69099600  0.44611800  0.61552500  1
  O  O29  1  0.19099600  0.55388200  0.88447500  1
  O  O30  1  0.30900400  0.55388200  0.38447500  1
  O  O31  1  0.80900400  0.44611800  0.11552500  1
  O  O32  1  0.69713600  0.07571200  0.54481900  1
  O  O33  1  0.19713600  0.92428800  0.95518100  1
  O  O34  1  0.30286400  0.92428800  0.45518100  1
  O  O35  1  0.80286400  0.07571200  0.04481900  1
  O  O36  1  0.86719700  0.54461500  0.36869900  1
  O  O37  1  0.36719700  0.45538500  0.13130100  1
  O  O38  1  0.13280300  0.45538500  0.63130100  1
  O  O39  1  0.63280300  0.54461500  0.86869900  1
  O  O40  1  0.89014600  0.00691200  0.79927200  1
  O  O41  1  0.39014600  0.99308800  0.70072800  1
  O  O42  1  0.10985400  0.99308800  0.20072800  1
  O  O43  1  0.60985400  0.00691200  0.29927200  1
  O  O44  1  0.94915200  0.49441800  0.80646500  1
  O  O45  1  0.44915200  0.50558200  0.69353500  1
  O  O46  1  0.05084800  0.50558200  0.19353500  1
  O  O47  1  0.55084800  0.49441800  0.30646500  1
  O  O48  1  0.64693400  0.94413200  0.87360400  1
  O  O49  1  0.14693400  0.05586800  0.62639600  1
  O  O50  1  0.35306600  0.05586800  0.12639600  1
  O  O51  1  0.85306600  0.94413200  0.37360400  1
