# generated using pymatgen
data_Yb(Ga3Te5)2
_symmetry_space_group_name_H-M   'P 1'
_cell_length_a   10.43786119
_cell_length_b   10.43786119
_cell_length_c   10.40484630
_cell_angle_alpha   89.95171091
_cell_angle_beta   89.95171091
_cell_angle_gamma   89.25752413
_symmetry_Int_Tables_number   1
_chemical_formula_structural   Yb(Ga3Te5)2
_chemical_formula_sum   'Yb2 Ga12 Te20'
_cell_volume   1133.50106476
_cell_formula_units_Z   2
loop_
 _symmetry_equiv_pos_site_id
 _symmetry_equiv_pos_as_xyz
  1  'x, y, z'
loop_
 _atom_site_type_symbol
 _atom_site_label
 _atom_site_symmetry_multiplicity
 _atom_site_fract_x
 _atom_site_fract_y
 _atom_site_fract_z
 _atom_site_occupancy
  Yb  Yb0  1  0.99715600  0.74196800  0.25510500  1
  Yb  Yb1  1  0.25803200  0.00284400  0.74489500  1
  Ga  Ga2  1  0.15907800  0.42920700  0.12448800  1
  Ga  Ga3  1  0.43094600  0.12866900  0.16047500  1
  Ga  Ga4  1  0.34476000  0.74732600  0.16959200  1
  Ga  Ga5  1  0.65972600  0.83110200  0.25266300  1
  Ga  Ga6  1  0.74595400  0.17040200  0.33733600  1
  Ga  Ga7  1  0.12681200  0.16293700  0.42689700  1
  Ga  Ga8  1  0.83706300  0.87318800  0.57310300  1
  Ga  Ga9  1  0.82959800  0.25404600  0.66266400  1
  Ga  Ga10  1  0.16889800  0.34027400  0.74733700  1
  Ga  Ga11  1  0.25267400  0.65524000  0.83040800  1
  Ga  Ga12  1  0.87133100  0.56905400  0.83952500  1
  Ga  Ga13  1  0.57079300  0.84092200  0.87551200  1
  Te  Te14  1  0.17031500  0.82968500  0.00000000  1
  Te  Te15  1  0.57039400  0.67019500  0.06873300  1
  Te  Te16  1  0.91742900  0.49997000  0.08314800  1
  Te  Te17  1  0.82906100  0.99651400  0.16881500  1
  Te  Te18  1  0.17267000  0.17201200  0.17100600  1
  Te  Te19  1  0.56287800  0.31879200  0.25242300  1
  Te  Te20  1  0.24789900  0.56830200  0.31848800  1
  Te  Te21  1  0.43119500  0.93118300  0.32758900  1
  Te  Te22  1  0.92945200  0.32665600  0.43127100  1
  Te  Te23  1  0.75264700  0.67927000  0.43413200  1
  Te  Te24  1  0.08185300  0.91814700  0.50000000  1
  Te  Te25  1  0.32073000  0.24735300  0.56586800  1
  Te  Te26  1  0.67334400  0.07054800  0.56872900  1
  Te  Te27  1  0.06881700  0.56880500  0.67241100  1
  Te  Te28  1  0.43169800  0.75210100  0.68151200  1
  Te  Te29  1  0.68120800  0.43712200  0.74757700  1
  Te  Te30  1  0.00348600  0.17093900  0.83118500  1
  Te  Te31  1  0.82798800  0.82733000  0.82899400  1
  Te  Te32  1  0.50003000  0.08257100  0.91685200  1
  Te  Te33  1  0.32980500  0.42960600  0.93126700  1
