# generated using pymatgen
data_TiAs2
_symmetry_space_group_name_H-M   'P 1'
_cell_length_a   3.51597700
_cell_length_b   8.97778300
_cell_length_c   13.31409700
_cell_angle_alpha   90.00000000
_cell_angle_beta   90.00000000
_cell_angle_gamma   90.00000000
_symmetry_Int_Tables_number   1
_chemical_formula_structural   TiAs2
_chemical_formula_sum   'Ti8 As16'
_cell_volume   420.26850594
_cell_formula_units_Z   8
loop_
 _symmetry_equiv_pos_site_id
 _symmetry_equiv_pos_as_xyz
  1  'x, y, z'
loop_
 _atom_site_type_symbol
 _atom_site_label
 _atom_site_symmetry_multiplicity
 _atom_site_fract_x
 _atom_site_fract_y
 _atom_site_fract_z
 _atom_site_occupancy
  Ti  Ti0  1  0.00000000  0.67247500  0.99278900  1
  Ti  Ti1  1  0.00000000  0.51810700  0.24650500  1
  Ti  Ti2  1  0.00000000  0.48189300  0.75349500  1
  Ti  Ti3  1  0.50000000  0.82752500  0.49278900  1
  Ti  Ti4  1  0.50000000  0.98189300  0.74650500  1
  Ti  Ti5  1  0.50000000  0.17247500  0.50721100  1
  Ti  Ti6  1  0.50000000  0.01810700  0.25349500  1
  Ti  Ti7  1  0.00000000  0.32752500  0.00721100  1
  As  As8  1  0.50000000  0.48853400  0.90022000  1
  As  As9  1  0.50000000  0.72500500  0.30137300  1
  As  As10  1  0.00000000  0.01146600  0.40022000  1
  As  As11  1  0.00000000  0.77499500  0.80137300  1
  As  As12  1  0.50000000  0.11423700  0.05897600  1
  As  As13  1  0.50000000  0.33509500  0.33849600  1
  As  As14  1  0.50000000  0.66490500  0.66150400  1
  As  As15  1  0.00000000  0.16490500  0.83849600  1
  As  As16  1  0.00000000  0.61423700  0.44102400  1
  As  As17  1  0.00000000  0.38576300  0.55897600  1
  As  As18  1  0.00000000  0.22500500  0.19862700  1
  As  As19  1  0.00000000  0.98853400  0.59978000  1
  As  As20  1  0.50000000  0.27499500  0.69862700  1
  As  As21  1  0.50000000  0.51146600  0.09978000  1
  As  As22  1  0.00000000  0.83509500  0.16150400  1
  As  As23  1  0.50000000  0.88576300  0.94102400  1
