# generated using pymatgen
data_DyGe2Pt
_symmetry_space_group_name_H-M   'P 1'
_cell_length_a   9.54992139
_cell_length_b   9.54992139
_cell_length_c   9.54992139
_cell_angle_alpha   153.66545118
_cell_angle_beta   125.08847990
_cell_angle_gamma   61.89688496
_symmetry_Int_Tables_number   1
_chemical_formula_structural   DyGe2Pt
_chemical_formula_sum   'Dy4 Ge8 Pt4'
_cell_volume   313.80806185
_cell_formula_units_Z   4
loop_
 _symmetry_equiv_pos_site_id
 _symmetry_equiv_pos_as_xyz
  1  'x, y, z'
loop_
 _atom_site_type_symbol
 _atom_site_label
 _atom_site_symmetry_multiplicity
 _atom_site_fract_x
 _atom_site_fract_y
 _atom_site_fract_z
 _atom_site_occupancy
  Dy  Dy0  1  0.29726000  0.79726000  0.50000000  1
  Dy  Dy1  1  0.71998900  0.00000000  0.71998900  1
  Dy  Dy2  1  0.28001100  0.00000000  0.28001100  1
  Dy  Dy3  1  0.70274000  0.20274000  0.50000000  1
  Ge  Ge4  1  0.92542900  0.42542900  0.50000000  1
  Ge  Ge5  1  0.07457100  0.57457100  0.50000000  1
  Ge  Ge6  1  0.57498100  0.57498100  0.00000000  1
  Ge  Ge7  1  0.64933200  0.80085300  0.84847900  1
  Ge  Ge8  1  0.42501900  0.42501900  0.00000000  1
  Ge  Ge9  1  0.95237400  0.80085300  0.15152100  1
  Ge  Ge10  1  0.35066800  0.19914700  0.15152100  1
  Ge  Ge11  1  0.04762600  0.19914700  0.84847900  1
  Pt  Pt12  1  0.60333800  0.35206200  0.25127600  1
  Pt  Pt13  1  0.39666200  0.64793800  0.74872400  1
  Pt  Pt14  1  0.10078600  0.35206200  0.74872400  1
  Pt  Pt15  1  0.89921400  0.64793800  0.25127600  1
