# generated using pymatgen
data_KGaH4
_symmetry_space_group_name_H-M   'P 1'
_cell_length_a   5.64386900
_cell_length_b   7.34279700
_cell_length_c   9.16844600
_cell_angle_alpha   90.00000000
_cell_angle_beta   90.00000000
_cell_angle_gamma   90.00000000
_symmetry_Int_Tables_number   1
_chemical_formula_structural   KGaH4
_chemical_formula_sum   'K4 Ga4 H16'
_cell_volume   379.95676206
_cell_formula_units_Z   4
loop_
 _symmetry_equiv_pos_site_id
 _symmetry_equiv_pos_as_xyz
  1  'x, y, z'
loop_
 _atom_site_type_symbol
 _atom_site_label
 _atom_site_symmetry_multiplicity
 _atom_site_fract_x
 _atom_site_fract_y
 _atom_site_fract_z
 _atom_site_occupancy
  K  K0  1  0.25000000  0.34471000  0.68664500  1
  K  K1  1  0.25000000  0.15529000  0.18664500  1
  K  K2  1  0.75000000  0.65529000  0.31335500  1
  K  K3  1  0.75000000  0.84471000  0.81335500  1
  Ga  Ga4  1  0.25000000  0.68860600  0.06192900  1
  Ga  Ga5  1  0.25000000  0.81139400  0.56192900  1
  Ga  Ga6  1  0.75000000  0.31139400  0.93807100  1
  Ga  Ga7  1  0.75000000  0.18860600  0.43807100  1
  H  H8  1  0.25000000  0.60675900  0.90245600  1
  H  H9  1  0.25000000  0.89324100  0.40245600  1
  H  H10  1  0.75000000  0.39324100  0.09754400  1
  H  H11  1  0.75000000  0.10675900  0.59754400  1
  H  H12  1  0.25000000  0.53631700  0.18620800  1
  H  H13  1  0.25000000  0.96368300  0.68620800  1
  H  H14  1  0.75000000  0.46368300  0.81379200  1
  H  H15  1  0.75000000  0.03631700  0.31379200  1
  H  H16  1  0.97952200  0.18442500  0.91715500  1
  H  H17  1  0.52047800  0.31557500  0.41715500  1
  H  H18  1  0.47952200  0.81557500  0.08284500  1
  H  H19  1  0.02047800  0.68442500  0.58284500  1
  H  H20  1  0.02047800  0.81557500  0.08284500  1
  H  H21  1  0.47952200  0.68442500  0.58284500  1
  H  H22  1  0.52047800  0.18442500  0.91715500  1
  H  H23  1  0.97952200  0.31557500  0.41715500  1
