# generated using pymatgen
data_BaYAgSe3
_symmetry_space_group_name_H-M   'P 1'
_cell_length_a   7.48604271
_cell_length_b   7.48604271
_cell_length_c   10.81311900
_cell_angle_alpha   90.00000000
_cell_angle_beta   90.00000000
_cell_angle_gamma   146.64423600
_symmetry_Int_Tables_number   1
_chemical_formula_structural   BaYAgSe3
_chemical_formula_sum   'Ba2 Y2 Ag2 Se6'
_cell_volume   333.18755465
_cell_formula_units_Z   2
loop_
 _symmetry_equiv_pos_site_id
 _symmetry_equiv_pos_as_xyz
  1  'x, y, z'
loop_
 _atom_site_type_symbol
 _atom_site_label
 _atom_site_symmetry_multiplicity
 _atom_site_fract_x
 _atom_site_fract_y
 _atom_site_fract_z
 _atom_site_occupancy
  Ba  Ba0  1  0.24875400  0.75124600  0.25000000  1
  Ba  Ba1  1  0.75124600  0.24875400  0.75000000  1
  Y  Y2  1  0.00000000  0.00000000  0.00000000  1
  Y  Y3  1  0.00000000  0.00000000  0.50000000  1
  Ag  Ag4  1  0.53037500  0.46962500  0.25000000  1
  Ag  Ag5  1  0.46962500  0.53037500  0.75000000  1
  Se  Se6  1  0.36454400  0.63545600  0.55008800  1
  Se  Se7  1  0.63545600  0.36454400  0.44991200  1
  Se  Se8  1  0.63545600  0.36454400  0.05008800  1
  Se  Se9  1  0.07958900  0.92041100  0.75000000  1
  Se  Se10  1  0.92041100  0.07958900  0.25000000  1
  Se  Se11  1  0.36454400  0.63545600  0.94991200  1
