# generated using pymatgen
data_Na26Cd141
_symmetry_space_group_name_H-M   'P 1'
_cell_length_a   21.70274208
_cell_length_b   21.70274208
_cell_length_c   9.80643300
_cell_angle_alpha   90.00000000
_cell_angle_beta   90.00000000
_cell_angle_gamma   120.00000025
_symmetry_Int_Tables_number   1
_chemical_formula_structural   Na26Cd141
_chemical_formula_sum   'Na26 Cd141'
_cell_volume   4000.10060809
_cell_formula_units_Z   1
loop_
 _symmetry_equiv_pos_site_id
 _symmetry_equiv_pos_as_xyz
  1  'x, y, z'
loop_
 _atom_site_type_symbol
 _atom_site_label
 _atom_site_symmetry_multiplicity
 _atom_site_fract_x
 _atom_site_fract_y
 _atom_site_fract_z
 _atom_site_occupancy
  Na  Na0  1  0.24163800  0.75836200  0.00000000  1
  Na  Na1  1  0.75836200  0.24163800  0.00000000  1
  Na  Na2  1  0.51672400  0.75836200  0.00000000  1
  Na  Na3  1  0.72358200  0.72358200  0.69145000  1
  Na  Na4  1  0.57560000  0.15119900  0.50000000  1
  Na  Na5  1  0.24163800  0.48327600  0.00000000  1
  Na  Na6  1  0.00000000  0.00000000  0.82370800  1
  Na  Na7  1  0.00000000  0.72358200  0.69145000  1
  Na  Na8  1  0.42440000  0.84880100  0.50000000  1
  Na  Na9  1  0.00000000  0.00000000  0.17629200  1
  Na  Na10  1  0.84880100  0.42440000  0.50000000  1
  Na  Na11  1  0.72358200  0.00000000  0.69145000  1
  Na  Na12  1  0.57560000  0.42440000  0.50000000  1
  Na  Na13  1  0.42440000  0.57560000  0.50000000  1
  Na  Na14  1  0.72358200  0.72358200  0.30855000  1
  Na  Na15  1  0.00000000  0.72358200  0.30855000  1
  Na  Na16  1  0.75836200  0.51672400  0.00000000  1
  Na  Na17  1  0.00000000  0.27641800  0.69145000  1
  Na  Na18  1  0.00000000  0.27641800  0.30855000  1
  Na  Na19  1  0.48327600  0.24163800  0.00000000  1
  Na  Na20  1  0.27641800  0.00000000  0.69145000  1
  Na  Na21  1  0.27641800  0.00000000  0.30855000  1
  Na  Na22  1  0.72358200  0.00000000  0.30855000  1
  Na  Na23  1  0.15119900  0.57560000  0.50000000  1
  Na  Na24  1  0.27641800  0.27641800  0.30855000  1
  Na  Na25  1  0.27641800  0.27641800  0.69145000  1
  Cd  Cd26  1  0.35771800  0.17885900  0.24308500  1
  Cd  Cd27  1  0.81123000  0.90561500  0.23836900  1
  Cd  Cd28  1  0.18877000  0.09438500  0.23836900  1
  Cd  Cd29  1  0.17885900  0.35771800  0.75691500  1
  Cd  Cd30  1  0.59185200  0.72099400  0.50000000  1
  Cd  Cd31  1  0.42042800  0.00000000  0.50000000  1
  Cd  Cd32  1  0.82114100  0.64228200  0.75691500  1
  Cd  Cd33  1  0.15032900  0.15032900  0.00000000  1
  Cd  Cd34  1  0.45444900  0.11088800  0.22402900  1
  Cd  Cd35  1  0.17885900  0.82114100  0.75691500  1
  Cd  Cd36  1  0.11088800  0.65643900  0.22402900  1
  Cd  Cd37  1  0.59185200  0.87085700  0.50000000  1
  Cd  Cd38  1  0.54555100  0.88911200  0.22402900  1
  Cd  Cd39  1  0.08344000  0.76677900  0.00000000  1
  Cd  Cd40  1  0.23322100  0.91656000  0.00000000  1
  Cd  Cd41  1  0.44624700  0.55375300  0.00000000  1
  Cd  Cd42  1  0.09438500  0.90561500  0.23836900  1
  Cd  Cd43  1  0.65643900  0.54555100  0.22402900  1
  Cd  Cd44  1  0.82114100  0.64228200  0.24308500  1
  Cd  Cd45  1  0.88911200  0.54555100  0.22402900  1
  Cd  Cd46  1  0.13826500  0.13826500  0.50000000  1
  Cd  Cd47  1  0.57957200  0.57957200  0.50000000  1
  Cd  Cd48  1  0.11088800  0.45444900  0.77597100  1
  Cd  Cd49  1  0.76160600  0.38080300  0.16125800  1
  Cd  Cd50  1  0.47629200  0.73814600  0.65467000  1
  Cd  Cd51  1  0.10750600  0.55375300  0.00000000  1
  Cd  Cd52  1  0.12914300  0.40814800  0.50000000  1
  Cd  Cd53  1  0.15032900  0.00000000  0.00000000  1
  Cd  Cd54  1  0.64228200  0.82114100  0.75691500  1
  Cd  Cd55  1  0.09438500  0.18877000  0.23836900  1
  Cd  Cd56  1  0.60664000  0.00000000  0.00000000  1
  Cd  Cd57  1  0.34356100  0.45444900  0.22402900  1
  Cd  Cd58  1  0.00000000  0.57957200  0.50000000  1
  Cd  Cd59  1  0.45444900  0.34356100  0.22402900  1
  Cd  Cd60  1  0.00000000  0.50000000  0.24619800  1
  Cd  Cd61  1  0.13649800  0.27299600  0.50000000  1
  Cd  Cd62  1  0.00000000  0.86173500  0.50000000  1
  Cd  Cd63  1  0.13826500  0.00000000  0.50000000  1
  Cd  Cd64  1  0.33333300  0.66666700  0.50000000  1
  Cd  Cd65  1  0.86350200  0.72700400  0.50000000  1
  Cd  Cd66  1  0.27900600  0.87085700  0.50000000  1
  Cd  Cd67  1  0.86173500  0.86173500  0.50000000  1
  Cd  Cd68  1  0.87085700  0.27900600  0.50000000  1
  Cd  Cd69  1  0.87085700  0.59185200  0.50000000  1
  Cd  Cd70  1  0.08344000  0.31666000  0.00000000  1
  Cd  Cd71  1  0.84967100  0.00000000  0.00000000  1
  Cd  Cd72  1  0.38080300  0.76160600  0.83874200  1
  Cd  Cd73  1  0.90561500  0.81123000  0.76163100  1
  Cd  Cd74  1  0.23322100  0.31666000  0.00000000  1
  Cd  Cd75  1  0.13649800  0.86350200  0.50000000  1
  Cd  Cd76  1  0.00000000  0.42042800  0.50000000  1
  Cd  Cd77  1  0.55375300  0.10750600  0.00000000  1
  Cd  Cd78  1  0.73814600  0.47629200  0.65467000  1
  Cd  Cd79  1  0.34356100  0.88911200  0.22402900  1
  Cd  Cd80  1  0.68334000  0.91656000  0.00000000  1
  Cd  Cd81  1  0.26185400  0.52370800  0.65467000  1
  Cd  Cd82  1  0.81123000  0.90561500  0.76163100  1
  Cd  Cd83  1  0.82114100  0.17885900  0.75691500  1
  Cd  Cd84  1  0.40814800  0.27900600  0.50000000  1
  Cd  Cd85  1  0.89249400  0.44624700  0.00000000  1
  Cd  Cd86  1  0.09438500  0.18877000  0.76163100  1
  Cd  Cd87  1  0.73814600  0.47629200  0.34533000  1
  Cd  Cd88  1  0.73814600  0.26185400  0.65467000  1
  Cd  Cd89  1  0.00000000  0.60664000  0.00000000  1
  Cd  Cd90  1  0.86350200  0.13649800  0.50000000  1
  Cd  Cd91  1  0.00000000  0.13826500  0.50000000  1
  Cd  Cd92  1  0.90561500  0.09438500  0.23836900  1
  Cd  Cd93  1  0.44624700  0.89249400  0.00000000  1
  Cd  Cd94  1  0.54555100  0.65643900  0.22402900  1
  Cd  Cd95  1  0.65643900  0.54555100  0.77597100  1
  Cd  Cd96  1  0.26185400  0.52370800  0.34533000  1
  Cd  Cd97  1  0.17885900  0.35771800  0.24308500  1
  Cd  Cd98  1  0.23839400  0.61919700  0.83874200  1
  Cd  Cd99  1  0.45444900  0.34356100  0.77597100  1
  Cd  Cd100  1  0.54555100  0.88911200  0.77597100  1
  Cd  Cd101  1  0.00000000  0.84967100  0.00000000  1
  Cd  Cd102  1  0.18877000  0.09438500  0.76163100  1
  Cd  Cd103  1  0.42042800  0.42042800  0.50000000  1
  Cd  Cd104  1  0.00000000  0.39336000  0.00000000  1
  Cd  Cd105  1  0.00000000  0.50000000  0.75380200  1
  Cd  Cd106  1  0.61919700  0.38080300  0.16125800  1
  Cd  Cd107  1  0.00000000  0.15032900  0.00000000  1
  Cd  Cd108  1  0.11088800  0.45444900  0.22402900  1
  Cd  Cd109  1  0.52370800  0.26185400  0.34533000  1
  Cd  Cd110  1  0.40814800  0.12914300  0.50000000  1
  Cd  Cd111  1  0.88911200  0.54555100  0.77597100  1
  Cd  Cd112  1  0.31666000  0.23322100  0.00000000  1
  Cd  Cd113  1  0.50000000  0.00000000  0.75380200  1
  Cd  Cd114  1  0.12914300  0.72099400  0.50000000  1
  Cd  Cd115  1  0.72700400  0.86350200  0.50000000  1
  Cd  Cd116  1  0.38080300  0.61919700  0.16125800  1
  Cd  Cd117  1  0.72099400  0.59185200  0.50000000  1
  Cd  Cd118  1  0.39336000  0.00000000  0.00000000  1
  Cd  Cd119  1  0.91656000  0.23322100  0.00000000  1
  Cd  Cd120  1  0.76677900  0.08344000  0.00000000  1
  Cd  Cd121  1  0.35771800  0.17885900  0.75691500  1
  Cd  Cd122  1  0.84967100  0.84967100  0.00000000  1
  Cd  Cd123  1  0.27299600  0.13649800  0.50000000  1
  Cd  Cd124  1  0.50000000  0.50000000  0.24619800  1
  Cd  Cd125  1  0.50000000  0.50000000  0.75380200  1
  Cd  Cd126  1  0.82114100  0.17885900  0.24308500  1
  Cd  Cd127  1  0.52370800  0.26185400  0.65467000  1
  Cd  Cd128  1  0.66666700  0.33333300  0.50000000  1
  Cd  Cd129  1  0.17885900  0.82114100  0.24308500  1
  Cd  Cd130  1  0.61919700  0.23839400  0.16125800  1
  Cd  Cd131  1  0.34356100  0.45444900  0.77597100  1
  Cd  Cd132  1  0.61919700  0.38080300  0.83874200  1
  Cd  Cd133  1  0.86173500  0.00000000  0.50000000  1
  Cd  Cd134  1  0.38080300  0.61919700  0.83874200  1
  Cd  Cd135  1  0.54555100  0.65643900  0.77597100  1
  Cd  Cd136  1  0.65643900  0.11088800  0.77597100  1
  Cd  Cd137  1  0.76160600  0.38080300  0.83874200  1
  Cd  Cd138  1  0.73814600  0.26185400  0.34533000  1
  Cd  Cd139  1  0.26185400  0.73814600  0.34533000  1
  Cd  Cd140  1  0.39336000  0.39336000  0.00000000  1
  Cd  Cd141  1  0.65643900  0.11088800  0.22402900  1
  Cd  Cd142  1  0.23839400  0.61919700  0.16125800  1
  Cd  Cd143  1  0.88911200  0.34356100  0.77597100  1
  Cd  Cd144  1  0.55375300  0.44624700  0.00000000  1
  Cd  Cd145  1  0.31666000  0.08344000  0.00000000  1
  Cd  Cd146  1  0.90561500  0.09438500  0.76163100  1
  Cd  Cd147  1  0.47629200  0.73814600  0.34533000  1
  Cd  Cd148  1  0.34356100  0.88911200  0.77597100  1
  Cd  Cd149  1  0.61919700  0.23839400  0.83874200  1
  Cd  Cd150  1  0.72099400  0.12914300  0.50000000  1
  Cd  Cd151  1  0.45444900  0.11088800  0.77597100  1
  Cd  Cd152  1  0.91656000  0.68334000  0.00000000  1
  Cd  Cd153  1  0.88911200  0.34356100  0.22402900  1
  Cd  Cd154  1  0.09438500  0.90561500  0.76163100  1
  Cd  Cd155  1  0.00000000  0.00000000  0.50000000  1
  Cd  Cd156  1  0.27900600  0.40814800  0.50000000  1
  Cd  Cd157  1  0.90561500  0.81123000  0.23836900  1
  Cd  Cd158  1  0.57957200  0.00000000  0.50000000  1
  Cd  Cd159  1  0.26185400  0.73814600  0.65467000  1
  Cd  Cd160  1  0.76677900  0.68334000  0.00000000  1
  Cd  Cd161  1  0.50000000  0.00000000  0.24619800  1
  Cd  Cd162  1  0.68334000  0.76677900  0.00000000  1
  Cd  Cd163  1  0.60664000  0.60664000  0.00000000  1
  Cd  Cd164  1  0.38080300  0.76160600  0.16125800  1
  Cd  Cd165  1  0.11088800  0.65643900  0.77597100  1
  Cd  Cd166  1  0.64228200  0.82114100  0.24308500  1
