# generated using pymatgen
data_In3Te3I
_symmetry_space_group_name_H-M   'P 1'
_cell_length_a   4.40787400
_cell_length_b   11.90034400
_cell_length_c   20.44382000
_cell_angle_alpha   90.00000000
_cell_angle_beta   90.00000000
_cell_angle_gamma   90.00000000
_symmetry_Int_Tables_number   1
_chemical_formula_structural   In3Te3I
_chemical_formula_sum   'In12 Te12 I4'
_cell_volume   1072.38501254
_cell_formula_units_Z   4
loop_
 _symmetry_equiv_pos_site_id
 _symmetry_equiv_pos_as_xyz
  1  'x, y, z'
loop_
 _atom_site_type_symbol
 _atom_site_label
 _atom_site_symmetry_multiplicity
 _atom_site_fract_x
 _atom_site_fract_y
 _atom_site_fract_z
 _atom_site_occupancy
  In  In0  1  0.25000000  0.31913300  0.01278200  1
  In  In1  1  0.25000000  0.84788000  0.13292000  1
  In  In2  1  0.25000000  0.44419200  0.89422200  1
  In  In3  1  0.75000000  0.55580800  0.10577800  1
  In  In4  1  0.75000000  0.68086700  0.98721800  1
  In  In5  1  0.75000000  0.05580800  0.39422200  1
  In  In6  1  0.75000000  0.15212000  0.86708000  1
  In  In7  1  0.25000000  0.94419200  0.60577800  1
  In  In8  1  0.75000000  0.18086700  0.51278200  1
  In  In9  1  0.25000000  0.81913300  0.48721800  1
  In  In10  1  0.25000000  0.34788000  0.36708000  1
  In  In11  1  0.75000000  0.65212000  0.63292000  1
  Te  Te12  1  0.75000000  0.74053700  0.19777400  1
  Te  Te13  1  0.75000000  0.66066400  0.49377300  1
  Te  Te14  1  0.25000000  0.33933600  0.50622700  1
  Te  Te15  1  0.25000000  0.83933600  0.99377300  1
  Te  Te16  1  0.75000000  0.16066400  0.00622700  1
  Te  Te17  1  0.25000000  0.41155100  0.14229200  1
  Te  Te18  1  0.25000000  0.91155100  0.35770800  1
  Te  Te19  1  0.25000000  0.75946300  0.69777400  1
  Te  Te20  1  0.75000000  0.08844900  0.64229200  1
  Te  Te21  1  0.75000000  0.58844900  0.85770800  1
  Te  Te22  1  0.75000000  0.24053700  0.30222600  1
  Te  Te23  1  0.25000000  0.25946300  0.80222600  1
  I  I24  1  0.25000000  0.57004400  0.32734300  1
  I  I25  1  0.75000000  0.42995600  0.67265700  1
  I  I26  1  0.25000000  0.07004400  0.17265700  1
  I  I27  1  0.75000000  0.92995600  0.82734300  1
