# generated using pymatgen
data_Nd4CuTe5(ClO5)3
_symmetry_space_group_name_H-M   'P 1'
_cell_length_a   11.97953883
_cell_length_b   11.97953883
_cell_length_c   17.92257199
_cell_angle_alpha   56.13713244
_cell_angle_beta   56.13713244
_cell_angle_gamma   27.67984233
_symmetry_Int_Tables_number   1
_chemical_formula_structural   Nd4CuTe5(ClO5)3
_chemical_formula_sum   'Nd8 Cu2 Te10 Cl6 O30'
_cell_volume   978.47813923
_cell_formula_units_Z   2
loop_
 _symmetry_equiv_pos_site_id
 _symmetry_equiv_pos_as_xyz
  1  'x, y, z'
loop_
 _atom_site_type_symbol
 _atom_site_label
 _atom_site_symmetry_multiplicity
 _atom_site_fract_x
 _atom_site_fract_y
 _atom_site_fract_z
 _atom_site_occupancy
  Nd  Nd0  1  0.77011600  0.22988400  0.50000000  1
  Nd  Nd1  1  0.40416100  0.77719100  0.57343600  1
  Nd  Nd2  1  0.61744000  0.96381600  0.62890800  1
  Nd  Nd3  1  0.41043700  0.75041200  0.80119000  1
  Nd  Nd4  1  0.82261400  0.17738600  0.00000000  1
  Nd  Nd5  1  0.03618400  0.38256000  0.37109200  1
  Nd  Nd6  1  0.22280900  0.59583900  0.42656400  1
  Nd  Nd7  1  0.24958800  0.58956300  0.19881000  1
  Cu  Cu8  1  0.74725200  0.66709100  0.08661700  1
  Cu  Cu9  1  0.33290900  0.25274800  0.91338300  1
  Te  Te10  1  0.41997000  0.79821800  0.35221600  1
  Te  Te11  1  0.92706100  0.48052000  0.58826400  1
  Te  Te12  1  0.86283800  0.14654600  0.26665700  1
  Te  Te13  1  0.51948000  0.07293900  0.41173700  1
  Te  Te14  1  0.16689000  0.64307700  0.97750500  1
  Te  Te15  1  0.20178200  0.58003000  0.64778400  1
  Te  Te16  1  0.67334800  0.94220800  0.18721100  1
  Te  Te17  1  0.35692300  0.83311000  0.02249500  1
  Te  Te18  1  0.85345400  0.13716200  0.73334300  1
  Te  Te19  1  0.05779200  0.32665200  0.81278900  1
  Cl  Cl20  1  0.56591400  0.05385100  0.77845200  1
  Cl  Cl21  1  0.01282500  0.37388500  0.00143600  1
  Cl  Cl22  1  0.62611500  0.98717500  0.99856400  1
  Cl  Cl23  1  0.43952400  0.75950900  0.17834200  1
  Cl  Cl24  1  0.24049100  0.56047600  0.82165800  1
  Cl  Cl25  1  0.94614900  0.43408600  0.22154800  1
  O  O26  1  0.15647600  0.03265900  0.43467600  1
  O  O27  1  0.80152700  0.56602200  0.50451000  1
  O  O28  1  0.42034300  0.34595400  0.57404500  1
  O  O29  1  0.54101000  0.51670500  0.06444800  1
  O  O30  1  0.43893500  0.59178200  0.40646900  1
  O  O31  1  0.43397800  0.19847300  0.49549000  1
  O  O32  1  0.54077500  0.34495100  0.30142800  1
  O  O33  1  0.91179500  0.06676800  0.38165500  1
  O  O34  1  0.02697200  0.92972700  0.89658600  1
  O  O35  1  0.91484900  0.68482300  0.51793600  1
  O  O36  1  0.15210900  0.98107500  0.70221800  1
  O  O37  1  0.93323200  0.08820500  0.61834500  1
  O  O38  1  0.24809400  0.39195200  0.35133500  1
  O  O39  1  0.65504900  0.45922500  0.69857200  1
  O  O40  1  0.79821100  0.42187500  0.84824900  1
  O  O41  1  0.96734100  0.84352400  0.56532400  1
  O  O42  1  0.95707200  0.56311900  0.70473400  1
  O  O43  1  0.91429400  0.70959500  0.25925900  1
  O  O44  1  0.07027300  0.97302800  0.10341400  1
  O  O45  1  0.57812500  0.20178900  0.15175100  1
  O  O46  1  0.60804800  0.75190600  0.64866500  1
  O  O47  1  0.65404600  0.57965700  0.42595500  1
  O  O48  1  0.01892500  0.84789100  0.29778200  1
  O  O49  1  0.48329500  0.45899000  0.93555200  1
  O  O50  1  0.31517700  0.08515100  0.48206400  1
  O  O51  1  0.29040500  0.08570600  0.74074100  1
  O  O52  1  0.23554300  0.94104700  0.92496400  1
  O  O53  1  0.05895300  0.76445700  0.07503600  1
  O  O54  1  0.43688100  0.04292800  0.29526600  1
  O  O55  1  0.40821800  0.56106500  0.59353100  1
