# generated using pymatgen
data_Ba2H6Pt
_symmetry_space_group_name_H-M   'P 1'
_cell_length_a   7.86709652
_cell_length_b   7.86709652
_cell_length_c   6.02918300
_cell_angle_alpha   90.00000000
_cell_angle_beta   90.00000000
_cell_angle_gamma   134.92813688
_symmetry_Int_Tables_number   1
_chemical_formula_structural   Ba2H6Pt
_chemical_formula_sum   'Ba4 H12 Pt2'
_cell_volume   264.19004890
_cell_formula_units_Z   2
loop_
 _symmetry_equiv_pos_site_id
 _symmetry_equiv_pos_as_xyz
  1  'x, y, z'
loop_
 _atom_site_type_symbol
 _atom_site_label
 _atom_site_symmetry_multiplicity
 _atom_site_fract_x
 _atom_site_fract_y
 _atom_site_fract_z
 _atom_site_occupancy
  Ba  Ba0  1  0.35784700  0.64215300  0.00000000  1
  Ba  Ba1  1  0.85784700  0.14215300  0.50000000  1
  Ba  Ba2  1  0.64215300  0.35784700  0.00000000  1
  Ba  Ba3  1  0.14215300  0.85784700  0.50000000  1
  H  H4  1  0.00293400  0.50293400  0.25000000  1
  H  H5  1  0.49706600  0.99706600  0.75000000  1
  H  H6  1  0.99706600  0.49706600  0.75000000  1
  H  H7  1  0.50293400  0.00293400  0.25000000  1
  H  H8  1  0.11485800  0.88514200  0.00000000  1
  H  H9  1  0.61485800  0.38514200  0.50000000  1
  H  H10  1  0.88514200  0.11485800  0.00000000  1
  H  H11  1  0.38514200  0.61485800  0.50000000  1
  H  H12  1  0.80110300  0.80110300  0.19523000  1
  H  H13  1  0.19889700  0.19889700  0.80477000  1
  H  H14  1  0.69889700  0.69889700  0.69523000  1
  H  H15  1  0.30110300  0.30110300  0.30477000  1
  Pt  Pt16  1  0.00000000  0.00000000  0.00000000  1
  Pt  Pt17  1  0.50000000  0.50000000  0.50000000  1
