# generated using pymatgen
data_Na3Ca10Mn7V12O48
_symmetry_space_group_name_H-M   'P 1'
_cell_length_a   11.04160142
_cell_length_b   11.04037416
_cell_length_c   11.08457471
_cell_angle_alpha   109.41680301
_cell_angle_beta   109.55827294
_cell_angle_gamma   109.28444467
_symmetry_Int_Tables_number   1
_chemical_formula_structural   Na3Ca10Mn7V12O48
_chemical_formula_sum   'Na3 Ca10 Mn7 V12 O48'
_cell_volume   1042.16038668
_cell_formula_units_Z   1
loop_
 _symmetry_equiv_pos_site_id
 _symmetry_equiv_pos_as_xyz
  1  'x, y, z'
loop_
 _atom_site_type_symbol
 _atom_site_label
 _atom_site_symmetry_multiplicity
 _atom_site_fract_x
 _atom_site_fract_y
 _atom_site_fract_z
 _atom_site_occupancy
  Na  Na0  1  0.12448800  0.37506700  0.75021700  1
  Na  Na1  1  0.62275500  0.87241400  0.74456300  1
  Na  Na2  1  0.37493700  0.12685800  0.25299000  1
  Ca  Ca3  1  0.24957900  0.87055200  0.61834200  1
  Ca  Ca4  1  0.13121300  0.25462900  0.37797900  1
  Ca  Ca5  1  0.36690200  0.74380400  0.12490900  1
  Ca  Ca6  1  0.25016700  0.37634400  0.12656600  1
  Ca  Ca7  1  0.74695500  0.62526900  0.87229500  1
  Ca  Ca8  1  0.62911800  0.25017200  0.87169200  1
  Ca  Ca9  1  0.87319100  0.75245200  0.62575600  1
  Ca  Ca10  1  0.49989200  0.99884800  0.99969800  1
  Ca  Ca11  1  0.75275300  0.12686000  0.38270900  1
  Ca  Ca12  1  0.87999800  0.62521000  0.25320700  1
  Mn  Mn13  1  0.00456400  0.50266900  0.50157800  1
  Mn  Mn14  1  0.00343300  0.49927700  0.00084100  1
  Mn  Mn15  1  0.49861200  0.99652000  0.50036600  1
  Mn  Mn16  1  0.99994600  0.00049200  0.99958700  1
  Mn  Mn17  1  0.49622900  0.50044000  0.49833400  1
  Mn  Mn18  1  0.49708600  0.49926200  0.99708600  1
  Mn  Mn19  1  0.00102500  0.00287900  0.50286200  1
  V  V20  1  0.11918200  0.74688900  0.87433900  1
  V  V21  1  0.12583000  0.87616400  0.24978300  1
  V  V22  1  0.37313600  0.62029700  0.74584000  1
  V  V23  1  0.24710700  0.12596900  0.87091600  1
  V  V24  1  0.24913700  0.62437900  0.37339300  1
  V  V25  1  0.37652500  0.25083200  0.62674200  1
  V  V26  1  0.62509600  0.74937000  0.37299800  1
  V  V27  1  0.75407700  0.87362900  0.13055800  1
  V  V28  1  0.62646500  0.37853600  0.25399800  1
  V  V29  1  0.74988100  0.37545000  0.62592500  1
  V  V30  1  0.87440200  0.12409900  0.74944800  1
  V  V31  1  0.88087100  0.25540700  0.12727300  1
  O  O32  1  0.10120200  0.98185200  0.69179600  1
  O  O33  1  0.11451000  0.60280800  0.90690900  1
  O  O34  1  0.01200000  0.29946400  0.89774000  1
  O  O35  1  0.08786200  0.71198400  0.69634300  1
  O  O36  1  0.09026900  0.88037600  0.39502300  1
  O  O37  1  0.09888200  0.62510900  0.41280500  1
  O  O38  1  0.19577700  0.47868700  0.59836900  1
  O  O39  1  0.39602400  0.79342900  0.77526300  1
  O  O40  1  0.28956100  0.30597700  0.91061300  1
  O  O41  1  0.38546500  0.59872600  0.89884500  1
  O  O42  1  0.30253400  0.90430700  0.28842500  1
  O  O43  1  0.02049200  0.21326900  0.12294300  1
  O  O44  1  0.19599800  0.20635200  0.58817100  1
  O  O45  1  0.21204000  0.58389700  0.18498000  1
  O  O46  1  0.39209400  0.81099300  0.51638200  1
  O  O47  1  0.29498400  0.88876600  0.01578700  1
  O  O48  1  0.28729700  0.47416000  0.37254700  1
  O  O49  1  0.11508700  0.01481100  0.21106000  1
  O  O50  1  0.51646800  0.61294300  0.71252300  1
  O  O51  1  0.39396100  0.09589200  0.87191600  1
  O  O52  1  0.51811200  0.39511000  0.80777000  1
  O  O53  1  0.38184500  0.29181100  0.48900500  1
  O  O54  1  0.41099700  0.10543700  0.62027700  1
  O  O55  1  0.79162600  0.88102000  0.99176100  1
  O  O56  1  0.20808100  0.11802300  0.00911500  1
  O  O57  1  0.58946800  0.89469500  0.37861500  1
  O  O58  1  0.62128300  0.70825800  0.51110100  1
  O  O59  1  0.48520900  0.60531200  0.19373600  1
  O  O60  1  0.60878900  0.90538200  0.13063600  1
  O  O61  1  0.48584300  0.38720000  0.28831800  1
  O  O62  1  0.88409900  0.98393800  0.78812900  1
  O  O63  1  0.70980800  0.51633100  0.61979800  1
  O  O64  1  0.70620400  0.11286900  0.98550700  1
  O  O65  1  0.60851900  0.19578400  0.49095100  1
  O  O66  1  0.78919200  0.41267800  0.80706800  1
  O  O67  1  0.80553100  0.78918800  0.40788400  1
  O  O68  1  0.97588700  0.78564500  0.87654000  1
  O  O69  1  0.69776900  0.09807200  0.71181600  1
  O  O70  1  0.62147700  0.40884100  0.10587900  1
  O  O71  1  0.71518200  0.69313600  0.09303800  1
  O  O72  1  0.60364800  0.20563300  0.22575400  1
  O  O73  1  0.80547500  0.52216100  0.39893900  1
  O  O74  1  0.89179200  0.38097400  0.58718100  1
  O  O75  1  0.90225400  0.11474900  0.59951200  1
  O  O76  1  0.90971700  0.28735800  0.30371900  1
  O  O77  1  0.98430700  0.69669500  0.10468800  1
  O  O78  1  0.88179200  0.40091500  0.09385000  1
  O  O79  1  0.89903400  0.01794500  0.30818100  1
