# generated using pymatgen
data_Cu3P4Se4Br3
_symmetry_space_group_name_H-M   'P 1'
_cell_length_a   6.50725900
_cell_length_b   19.28822100
_cell_length_c   34.06127616
_cell_angle_alpha   89.87262838
_cell_angle_beta   90.00000000
_cell_angle_gamma   90.00000000
_symmetry_Int_Tables_number   1
_chemical_formula_structural   Cu3P4Se4Br3
_chemical_formula_sum   'Cu36 P48 Se48 Br36'
_cell_volume   4275.13770869
_cell_formula_units_Z   12
loop_
 _symmetry_equiv_pos_site_id
 _symmetry_equiv_pos_as_xyz
  1  'x, y, z'
loop_
 _atom_site_type_symbol
 _atom_site_label
 _atom_site_symmetry_multiplicity
 _atom_site_fract_x
 _atom_site_fract_y
 _atom_site_fract_z
 _atom_site_occupancy
  Cu  Cu0  1  0.73901100  0.12410100  0.07020500  1
  Cu  Cu1  1  0.96506800  0.12321900  0.73539200  1
  Cu  Cu2  1  0.27282700  0.67592400  0.64619600  1
  Cu  Cu3  1  0.23901100  0.87589900  0.92979500  1
  Cu  Cu4  1  0.23487700  0.69612500  0.85840300  1
  Cu  Cu5  1  0.74898100  0.82827900  0.53220200  1
  Cu  Cu6  1  0.75233400  0.80178600  0.98575300  1
  Cu  Cu7  1  0.77016900  0.62570600  0.58195700  1
  Cu  Cu8  1  0.24975300  0.69712800  0.52531100  1
  Cu  Cu9  1  0.46506800  0.87678100  0.26460800  1
  Cu  Cu10  1  0.27016900  0.37429400  0.41804300  1
  Cu  Cu11  1  0.73113500  0.82472700  0.86436300  1
  Cu  Cu12  1  0.47024400  0.67744900  0.31259400  1
  Cu  Cu13  1  0.95166100  0.30464500  0.80912700  1
  Cu  Cu14  1  0.77717100  0.79898900  0.65234500  1
  Cu  Cu15  1  0.74975300  0.30287200  0.47468900  1
  Cu  Cu16  1  0.46952900  0.20090500  0.68043600  1
  Cu  Cu17  1  0.46732900  0.37262800  0.75121900  1
  Cu  Cu18  1  0.74611400  0.62549800  0.91653300  1
  Cu  Cu19  1  0.23113500  0.17527300  0.13563700  1
  Cu  Cu20  1  0.77282700  0.32407600  0.35380400  1
  Cu  Cu21  1  0.24898100  0.17172100  0.46779800  1
  Cu  Cu22  1  0.45166100  0.69535500  0.19087300  1
  Cu  Cu23  1  0.24894000  0.67878100  0.97970600  1
  Cu  Cu24  1  0.74894000  0.32121900  0.02029400  1
  Cu  Cu25  1  0.73487700  0.30387500  0.14159700  1
  Cu  Cu26  1  0.96732900  0.62737200  0.24878100  1
  Cu  Cu27  1  0.27717100  0.20101100  0.34765500  1
  Cu  Cu28  1  0.95222100  0.83071800  0.19811900  1
  Cu  Cu29  1  0.96952900  0.79909500  0.31956400  1
  Cu  Cu30  1  0.45222100  0.16928200  0.80188100  1
  Cu  Cu31  1  0.25233400  0.19821400  0.01424700  1
  Cu  Cu32  1  0.24611400  0.37450200  0.08346700  1
  Cu  Cu33  1  0.97024400  0.32255100  0.68740600  1
  Cu  Cu34  1  0.26362300  0.87609200  0.59792800  1
  Cu  Cu35  1  0.76362300  0.12390800  0.40207200  1
  P  P36  1  0.36268600  0.98515500  0.59381300  1
  P  P37  1  0.10685200  0.55924900  0.06421800  1
  P  P38  1  0.83974200  0.01519900  0.07267700  1
  P  P39  1  0.37036000  0.48330700  0.41970700  1
  P  P40  1  0.80538400  0.87801300  0.47503200  1
  P  P41  1  0.35001400  0.48314700  0.08350600  1
  P  P42  1  0.40520600  0.62127700  0.36769200  1
  P  P43  1  0.86876300  0.87667100  0.14143000  1
  P  P44  1  0.91328500  0.86032300  0.37313300  1
  P  P45  1  0.14473200  0.54472300  0.72595300  1
  P  P46  1  0.89869300  0.01144000  0.73939500  1
  P  P47  1  0.36839200  0.64206300  0.13642300  1
  P  P48  1  0.36751900  0.62238700  0.70048000  1
  P  P49  1  0.64023400  0.93949000  0.71992800  1
  P  P50  1  0.30586200  0.64227400  0.46990400  1
  P  P51  1  0.10540300  0.06871300  0.93901600  1
  P  P52  1  0.34859700  0.62247300  0.03278400  1
  P  P53  1  0.41059700  0.48507200  0.75281700  1
  P  P54  1  0.60685200  0.44075100  0.93578200  1
  P  P55  1  0.29999000  0.64196900  0.80310300  1
  P  P56  1  0.14210800  0.55405900  0.39000500  1
  P  P57  1  0.36876300  0.12332900  0.85857000  1
  P  P58  1  0.85001400  0.51685300  0.91649400  1
  P  P59  1  0.79541800  0.87446200  0.80748400  1
  P  P60  1  0.86751900  0.37761300  0.29952000  1
  P  P61  1  0.29541800  0.12553800  0.19251600  1
  P  P62  1  0.64210800  0.44594100  0.60999500  1
  P  P63  1  0.41328500  0.13967700  0.62686700  1
  P  P64  1  0.33974200  0.98480100  0.92732300  1
  P  P65  1  0.87350900  0.85731100  0.70498500  1
  P  P66  1  0.91059700  0.51492800  0.24718300  1
  P  P67  1  0.35535100  0.13781000  0.96286000  1
  P  P68  1  0.64473200  0.45527700  0.27404700  1
  P  P69  1  0.79999000  0.35803100  0.19689700  1
  P  P70  1  0.60540300  0.93128700  0.06098400  1
  P  P71  1  0.86839200  0.35793700  0.86357700  1
  P  P72  1  0.14023400  0.06051000  0.28007200  1
  P  P73  1  0.37350900  0.14268900  0.29501500  1
  P  P74  1  0.64382000  0.93190800  0.38529400  1
  P  P75  1  0.30538400  0.12198700  0.52496800  1
  P  P76  1  0.84859700  0.37752700  0.96721600  1
  P  P77  1  0.86268600  0.01484500  0.40618700  1
  P  P78  1  0.14382000  0.06809200  0.61470600  1
  P  P79  1  0.90520600  0.37872300  0.63230800  1
  P  P80  1  0.39869300  0.98856000  0.26060500  1
  P  P81  1  0.80586200  0.35772600  0.53009600  1
  P  P82  1  0.85535100  0.86219000  0.03714000  1
  P  P83  1  0.87036000  0.51669300  0.58029300  1
  Se  Se84  1  0.53935300  0.03776300  0.97498600  1
  Se  Se85  1  0.04228200  0.47815300  0.96916300  1
  Se  Se86  1  0.60823000  0.53426700  0.70394800  1
  Se  Se87  1  0.94837400  0.80208200  0.76329900  1
  Se  Se88  1  0.54228200  0.52184700  0.03083700  1
  Se  Se89  1  0.43991900  0.69858600  0.75025200  1
  Se  Se90  1  0.03935300  0.96223700  0.02501400  1
  Se  Se91  1  0.47711400  0.54048200  0.81107100  1
  Se  Se92  1  0.50157300  0.89271700  0.44037800  1
  Se  Se93  1  0.49251700  0.53153900  0.13901400  1
  Se  Se94  1  0.99366200  0.09872200  0.22527800  1
  Se  Se95  1  0.00157300  0.10728300  0.55962200  1
  Se  Se96  1  0.99251700  0.46846100  0.86098600  1
  Se  Se97  1  0.49853600  0.39878600  0.22464500  1
  Se  Se98  1  0.97210500  0.30481400  0.58139200  1
  Se  Se99  1  0.48969100  0.69257200  0.08028000  1
  Se  Se100  1  0.60450500  0.52271800  0.37396300  1
  Se  Se101  1  0.44837400  0.19791800  0.23670100  1
  Se  Se102  1  0.60398100  0.05245200  0.30245800  1
  Se  Se103  1  0.10450500  0.47728200  0.62603700  1
  Se  Se104  1  0.48153500  0.19160800  0.56756100  1
  Se  Se105  1  0.60632000  0.03988400  0.63236000  1
  Se  Se106  1  0.50084500  0.38760300  0.56080700  1
  Se  Se107  1  0.53072100  0.88699200  0.11959600  1
  Se  Se108  1  0.53058500  0.38039200  0.88228900  1
  Se  Se109  1  0.45157600  0.53572600  0.47840100  1
  Se  Se110  1  0.43905500  0.01244700  0.52994500  1
  Se  Se111  1  0.95157600  0.46427400  0.52159900  1
  Se  Se112  1  0.00084500  0.61239700  0.43919300  1
  Se  Se113  1  0.98101800  0.98762300  0.13249400  1
  Se  Se114  1  0.93991900  0.30141400  0.24974800  1
  Se  Se115  1  0.99853600  0.60121400  0.77535500  1
  Se  Se116  1  0.03072100  0.11300800  0.88040400  1
  Se  Se117  1  0.48101800  0.01237700  0.86750600  1
  Se  Se118  1  0.10632000  0.96011600  0.36764000  1
  Se  Se119  1  0.97711400  0.45951800  0.18892900  1
  Se  Se120  1  0.98969100  0.30742800  0.91972000  1
  Se  Se121  1  0.98153500  0.80839200  0.43243900  1
  Se  Se122  1  0.49366200  0.90127800  0.77472200  1
  Se  Se123  1  0.47210500  0.69518600  0.41860800  1
  Se  Se124  1  0.10398100  0.94754800  0.69754200  1
  Se  Se125  1  0.10823000  0.46573300  0.29605200  1
  Se  Se126  1  0.96117300  0.97918100  0.80300000  1
  Se  Se127  1  0.03058500  0.61960800  0.11771100  1
  Se  Se128  1  0.93905500  0.98755300  0.47005500  1
  Se  Se129  1  0.50018200  0.18937200  0.90830300  1
  Se  Se130  1  0.46117300  0.02081900  0.19700000  1
  Se  Se131  1  0.00018200  0.81062800  0.09169700  1
  Br  Br132  1  0.35790900  0.80327900  0.98566200  1
  Br  Br133  1  0.84018400  0.18176500  0.13361600  1
  Br  Br134  1  0.86870500  0.19810400  0.67979500  1
  Br  Br135  1  0.86042700  0.87747100  0.26362400  1
  Br  Br136  1  0.84799000  0.87503100  0.92725800  1
  Br  Br137  1  0.36845200  0.32331500  0.68608900  1
  Br  Br138  1  0.34021000  0.81622700  0.20382100  1
  Br  Br139  1  0.34799000  0.12496900  0.07274200  1
  Br  Br140  1  0.38027700  0.32386100  0.35355700  1
  Br  Br141  1  0.37120000  0.12413300  0.40458600  1
  Br  Br142  1  0.85654200  0.67886800  0.98038800  1
  Br  Br143  1  0.34018400  0.81823500  0.86638400  1
  Br  Br144  1  0.84021000  0.18377300  0.79617900  1
  Br  Br145  1  0.35838600  0.81856300  0.53405800  1
  Br  Br146  1  0.37549700  0.62538400  0.58231700  1
  Br  Br147  1  0.85838600  0.18143700  0.46594200  1
  Br  Br148  1  0.84042900  0.70582400  0.19713000  1
  Br  Br149  1  0.35286300  0.62561500  0.91625900  1
  Br  Br150  1  0.85859000  0.70354900  0.52710000  1
  Br  Br151  1  0.85790900  0.19672100  0.01433800  1
  Br  Br152  1  0.87549700  0.37461600  0.41768300  1
  Br  Br153  1  0.36870500  0.80189600  0.32020500  1
  Br  Br154  1  0.38230200  0.80090500  0.65249400  1
  Br  Br155  1  0.36411400  0.62402200  0.25012600  1
  Br  Br156  1  0.88027700  0.67613900  0.64644300  1
  Br  Br157  1  0.87120000  0.87586700  0.59541400  1
  Br  Br158  1  0.88230200  0.19909500  0.34750600  1
  Br  Br159  1  0.86845200  0.67668500  0.31391100  1
  Br  Br160  1  0.86411400  0.37597800  0.74987400  1
  Br  Br161  1  0.35859000  0.29645100  0.47290000  1
  Br  Br162  1  0.34247100  0.29981200  0.13954700  1
  Br  Br163  1  0.35654200  0.32113200  0.01961200  1
  Br  Br164  1  0.84247100  0.70018800  0.86045300  1
  Br  Br165  1  0.34042900  0.29417600  0.80287000  1
  Br  Br166  1  0.85286300  0.37438500  0.08374100  1
  Br  Br167  1  0.36042700  0.12252900  0.73637600  1
