# generated using pymatgen
data_PNCl2
_symmetry_space_group_name_H-M   'P 1'
_cell_length_a   6.40334400
_cell_length_b   15.81695400
_cell_length_c   19.91841800
_cell_angle_alpha   90.00000000
_cell_angle_beta   90.00000000
_cell_angle_gamma   90.00000000
_symmetry_Int_Tables_number   1
_chemical_formula_structural   PNCl2
_chemical_formula_sum   'P20 N20 Cl40'
_cell_volume   2017.36521091
_cell_formula_units_Z   20
loop_
 _symmetry_equiv_pos_site_id
 _symmetry_equiv_pos_as_xyz
  1  'x, y, z'
loop_
 _atom_site_type_symbol
 _atom_site_label
 _atom_site_symmetry_multiplicity
 _atom_site_fract_x
 _atom_site_fract_y
 _atom_site_fract_z
 _atom_site_occupancy
  P  P0  1  0.66430100  0.14070700  0.16399800  1
  P  P1  1  0.49114600  0.12090500  0.63657100  1
  P  P2  1  0.15117700  0.41191300  0.50340800  1
  P  P3  1  0.64947500  0.99494200  0.74148000  1
  P  P4  1  0.99114600  0.37909500  0.36342900  1
  P  P5  1  0.33569900  0.64070700  0.33600200  1
  P  P6  1  0.14947500  0.50505800  0.25852000  1
  P  P7  1  0.16615400  0.41717300  0.98249400  1
  P  P8  1  0.83384600  0.91717300  0.51750600  1
  P  P9  1  0.65117700  0.08808700  0.49659200  1
  P  P10  1  0.85052500  0.00505800  0.24148000  1
  P  P11  1  0.35052500  0.49494200  0.75852000  1
  P  P12  1  0.34882300  0.58808700  0.00340800  1
  P  P13  1  0.83569900  0.85929300  0.66399800  1
  P  P14  1  0.00885400  0.87909500  0.13657100  1
  P  P15  1  0.50885400  0.62090500  0.86342900  1
  P  P16  1  0.16430100  0.35929300  0.83600200  1
  P  P17  1  0.66615400  0.08282700  0.01750600  1
  P  P18  1  0.84882300  0.91191300  0.99659200  1
  P  P19  1  0.33384600  0.58282700  0.48249400  1
  N  N20  1  0.18873200  0.40532500  0.90510200  1
  N  N21  1  0.51854200  0.11600500  0.55876500  1
  N  N22  1  0.24524800  0.59559000  0.27149000  1
  N  N23  1  0.75475200  0.09559000  0.22851000  1
  N  N24  1  0.98145800  0.88399500  0.05876500  1
  N  N25  1  0.74524800  0.90441000  0.72851000  1
  N  N26  1  0.78792900  0.00690300  0.98514300  1
  N  N27  1  0.25475200  0.40441000  0.77149000  1
  N  N28  1  0.21207100  0.50690300  0.51485700  1
  N  N29  1  0.28792900  0.49309700  0.01485700  1
  N  N30  1  0.92975700  0.95675300  0.17809700  1
  N  N31  1  0.57024300  0.04324700  0.67809700  1
  N  N32  1  0.01854200  0.38399500  0.44123500  1
  N  N33  1  0.42975700  0.54324700  0.82190300  1
  N  N34  1  0.71207100  0.99309700  0.48514300  1
  N  N35  1  0.48145800  0.61600500  0.94123500  1
  N  N36  1  0.31126800  0.59467500  0.40510200  1
  N  N37  1  0.81126800  0.90532500  0.59489800  1
  N  N38  1  0.68873200  0.09467500  0.09489800  1
  N  N39  1  0.07024300  0.45675300  0.32190300  1
  Cl  Cl40  1  0.70877200  0.74193200  0.65986100  1
  Cl  Cl41  1  0.64198300  0.66631600  0.31958400  1
  Cl  Cl42  1  0.26329000  0.31325500  0.03258600  1
  Cl  Cl43  1  0.11945200  0.27016300  0.32878500  1
  Cl  Cl44  1  0.35844000  0.07549900  0.99290500  1
  Cl  Cl45  1  0.51676700  0.62117000  0.08472900  1
  Cl  Cl46  1  0.64489700  0.93399600  0.29487600  1
  Cl  Cl47  1  0.18325900  0.13885500  0.65277200  1
  Cl  Cl48  1  0.20877200  0.75806800  0.34013900  1
  Cl  Cl49  1  0.85844000  0.42450100  0.00709500  1
  Cl  Cl50  1  0.14489700  0.56600400  0.70512400  1
  Cl  Cl51  1  0.35510300  0.43399600  0.20512400  1
  Cl  Cl52  1  0.41686500  0.97840700  0.80904500  1
  Cl  Cl53  1  0.58313500  0.47840700  0.69095500  1
  Cl  Cl54  1  0.85801700  0.33368400  0.81958400  1
  Cl  Cl55  1  0.79122800  0.25806800  0.15986100  1
  Cl  Cl56  1  0.38054800  0.72983700  0.82878500  1
  Cl  Cl57  1  0.23671000  0.68674500  0.53258600  1
  Cl  Cl58  1  0.08313500  0.02159300  0.30904500  1
  Cl  Cl59  1  0.31674100  0.86114400  0.15277200  1
  Cl  Cl60  1  0.88054800  0.77016300  0.17121500  1
  Cl  Cl61  1  0.90836800  0.16230000  0.48946400  1
  Cl  Cl62  1  0.61945200  0.22983700  0.67121500  1
  Cl  Cl63  1  0.81674100  0.63885600  0.84722800  1
  Cl  Cl64  1  0.64156000  0.57549900  0.50709500  1
  Cl  Cl65  1  0.09163200  0.66230000  0.01053600  1
  Cl  Cl66  1  0.91686500  0.52159300  0.19095500  1
  Cl  Cl67  1  0.01676700  0.87883000  0.91527100  1
  Cl  Cl68  1  0.29122800  0.24193200  0.84013900  1
  Cl  Cl69  1  0.14198300  0.83368400  0.68041600  1
  Cl  Cl70  1  0.35801700  0.16631600  0.18041600  1
  Cl  Cl71  1  0.73671000  0.81325500  0.46741400  1
  Cl  Cl72  1  0.76329000  0.18674500  0.96741400  1
  Cl  Cl73  1  0.48323300  0.12117000  0.41527100  1
  Cl  Cl74  1  0.59163200  0.83770000  0.98946400  1
  Cl  Cl75  1  0.85510300  0.06600400  0.79487600  1
  Cl  Cl76  1  0.14156000  0.92450100  0.49290500  1
  Cl  Cl77  1  0.98323300  0.37883000  0.58472900  1
  Cl  Cl78  1  0.68325900  0.36114400  0.34722800  1
  Cl  Cl79  1  0.40836800  0.33770000  0.51053600  1
