# generated using pymatgen
data_Na5Ce3Ti6Nb2O24
_symmetry_space_group_name_H-M   'P 1'
_cell_length_a   5.52642600
_cell_length_b   5.50938700
_cell_length_c   15.40086283
_cell_angle_alpha   89.88723029
_cell_angle_beta   90.00000000
_cell_angle_gamma   90.00000000
_symmetry_Int_Tables_number   1
_chemical_formula_structural   Na5Ce3Ti6Nb2O24
_chemical_formula_sum   'Na5 Ce3 Ti6 Nb2 O24'
_cell_volume   468.91254377
_cell_formula_units_Z   1
loop_
 _symmetry_equiv_pos_site_id
 _symmetry_equiv_pos_as_xyz
  1  'x, y, z'
loop_
 _atom_site_type_symbol
 _atom_site_label
 _atom_site_symmetry_multiplicity
 _atom_site_fract_x
 _atom_site_fract_y
 _atom_site_fract_z
 _atom_site_occupancy
  Na  Na0  1  0.50000000  0.50947500  0.12312500  1
  Na  Na1  1  0.50000000  0.51277700  0.62676700  1
  Na  Na2  1  0.00000000  0.00283700  0.37727200  1
  Na  Na3  1  0.00000000  0.01916700  0.87405800  1
  Na  Na4  1  0.00000000  0.98221000  0.62379300  1
  Ce  Ce5  1  0.00000000  0.98435200  0.12552200  1
  Ce  Ce6  1  0.50000000  0.48247900  0.37244300  1
  Ce  Ce7  1  0.50000000  0.49877500  0.87633000  1
  Ti  Ti8  1  0.50000000  0.01811700  0.00166100  1
  Ti  Ti9  1  0.50000000  0.98711100  0.24787500  1
  Ti  Ti10  1  0.50000000  0.98555500  0.49941100  1
  Ti  Ti11  1  0.00000000  0.48769700  0.25121800  1
  Ti  Ti12  1  0.00000000  0.51674300  0.75117500  1
  Ti  Ti13  1  0.00000000  0.51494300  0.99943900  1
  Nb  Nb14  1  0.50000000  0.01116500  0.74485800  1
  Nb  Nb15  1  0.00000000  0.49094500  0.50565400  1
  O  O16  1  0.50000000  0.90758500  0.37345300  1
  O  O17  1  0.50000000  0.90846700  0.87825800  1
  O  O18  1  0.24954100  0.74838800  0.22679900  1
  O  O19  1  0.25783800  0.74249600  0.51854500  1
  O  O20  1  0.25445200  0.74335700  0.73213200  1
  O  O21  1  0.24748500  0.75225600  0.02362300  1
  O  O22  1  0.25646900  0.24796400  0.47256700  1
  O  O23  1  0.24945300  0.24815100  0.27119900  1
  O  O24  1  0.25280300  0.25827300  0.77809000  1
  O  O25  1  0.25278700  0.25393000  0.97713000  1
  O  O26  1  0.00000000  0.40389400  0.12413300  1
  O  O27  1  0.00000000  0.40757600  0.62723000  1
  O  O28  1  0.00000000  0.58101100  0.87601300  1
  O  O29  1  0.00000000  0.57881100  0.37221300  1
  O  O30  1  0.75251500  0.75225600  0.02362300  1
  O  O31  1  0.75045900  0.74838800  0.22679900  1
  O  O32  1  0.74216200  0.74249600  0.51854500  1
  O  O33  1  0.74554800  0.74335700  0.73213200  1
  O  O34  1  0.74353100  0.24796400  0.47256700  1
  O  O35  1  0.75054700  0.24815100  0.27119900  1
  O  O36  1  0.74719700  0.25827300  0.77809000  1
  O  O37  1  0.74721300  0.25393000  0.97713000  1
  O  O38  1  0.50000000  0.07821500  0.12503500  1
  O  O39  1  0.50000000  0.08504000  0.62308700  1
