# generated using pymatgen
data_U17O31
_symmetry_space_group_name_H-M   'P 1'
_cell_length_a   8.61770709
_cell_length_b   8.61770709
_cell_length_c   22.09294925
_cell_angle_alpha   74.16099449
_cell_angle_beta   74.16099449
_cell_angle_gamma   25.74457610
_symmetry_Int_Tables_number   1
_chemical_formula_structural   U17O31
_chemical_formula_sum   'U17 O31'
_cell_volume   684.16681306
_cell_formula_units_Z   1
loop_
 _symmetry_equiv_pos_site_id
 _symmetry_equiv_pos_as_xyz
  1  'x, y, z'
loop_
 _atom_site_type_symbol
 _atom_site_label
 _atom_site_symmetry_multiplicity
 _atom_site_fract_x
 _atom_site_fract_y
 _atom_site_fract_z
 _atom_site_occupancy
  U  U0  1  0.00192500  0.00192500  0.99975100  1
  U  U1  1  0.70634100  0.70634100  0.93871100  1
  U  U2  1  0.11767000  0.11767000  0.82609500  1
  U  U3  1  0.41138000  0.41138000  0.88243600  1
  U  U4  1  0.82131600  0.82131600  0.76510600  1
  U  U5  1  0.23979700  0.23979700  0.64534000  1
  U  U6  1  0.52547200  0.52547200  0.70509400  1
  U  U7  1  0.94269500  0.94269500  0.58734600  1
  U  U8  1  0.64673400  0.64673400  0.52886200  1
  U  U9  1  0.35288000  0.35288000  0.47361000  1
  U  U10  1  0.05681700  0.05681700  0.41209200  1
  U  U11  1  0.47561000  0.47561000  0.29219600  1
  U  U12  1  0.75888400  0.75888400  0.35211700  1
  U  U13  1  0.17762600  0.17762600  0.23306700  1
  U  U14  1  0.88118500  0.88118500  0.17870200  1
  U  U15  1  0.58342100  0.58342100  0.11951300  1
  U  U16  1  0.29994500  0.29994500  0.05976900  1
  O  O17  1  0.27355500  0.27355500  0.96396300  1
  O  O18  1  0.98639000  0.98639000  0.89519600  1
  O  O19  1  0.69120500  0.69120500  0.83911900  1
  O  O20  1  0.43001800  0.43001800  0.98519700  1
  O  O21  1  0.13197100  0.13197100  0.92563000  1
  O  O22  1  0.39369100  0.39369100  0.77937000  1
  O  O23  1  0.83698700  0.83698700  0.86946400  1
  O  O24  1  0.55009000  0.55009000  0.79915500  1
  O  O25  1  0.81197600  0.81197600  0.66148200  1
  O  O26  1  0.24263500  0.24263500  0.74873900  1
  O  O27  1  0.51525000  0.51525000  0.60228000  1
  O  O28  1  0.96263100  0.96263100  0.69252000  1
  O  O29  1  0.22060600  0.22060600  0.54447400  1
  O  O30  1  0.65612400  0.65612400  0.64255700  1
  O  O31  1  0.92707800  0.92707800  0.48620800  1
  O  O32  1  0.62908400  0.62908400  0.42633200  1
  O  O33  1  0.36785200  0.36785200  0.57322900  1
  O  O34  1  0.07417400  0.07417400  0.51421500  1
  O  O35  1  0.04825000  0.04825000  0.30803600  1
  O  O36  1  0.78557500  0.78557500  0.44794600  1
  O  O37  1  0.74907200  0.74907200  0.24946700  1
  O  O38  1  0.47762500  0.47762500  0.39568500  1
  O  O39  1  0.45510400  0.45510400  0.19335100  1
  O  O40  1  0.19608300  0.19608300  0.33870900  1
  O  O41  1  0.16570300  0.16570300  0.12346900  1
  O  O42  1  0.89307700  0.89307700  0.28838800  1
  O  O43  1  0.60381900  0.60381900  0.21838500  1
  O  O44  1  0.86275100  0.86275100  0.07308700  1
  O  O45  1  0.30965100  0.30965100  0.16237500  1
  O  O46  1  0.58110000  0.58110000  0.01615200  1
  O  O47  1  0.01064100  0.01064100  0.10366100  1
