# generated using pymatgen
data_Ta(CoTe)2
_symmetry_space_group_name_H-M   'P 1'
_cell_length_a   6.55093800
_cell_length_b   6.57538000
_cell_length_c   18.11023000
_cell_angle_alpha   90.00000000
_cell_angle_beta   90.00000000
_cell_angle_gamma   90.00000000
_symmetry_Int_Tables_number   1
_chemical_formula_structural   Ta(CoTe)2
_chemical_formula_sum   'Ta8 Co16 Te16'
_cell_volume   780.09646768
_cell_formula_units_Z   8
loop_
 _symmetry_equiv_pos_site_id
 _symmetry_equiv_pos_as_xyz
  1  'x, y, z'
loop_
 _atom_site_type_symbol
 _atom_site_label
 _atom_site_symmetry_multiplicity
 _atom_site_fract_x
 _atom_site_fract_y
 _atom_site_fract_z
 _atom_site_occupancy
  Ta  Ta0  1  0.34953000  0.75000000  0.72420800  1
  Ta  Ta1  1  0.65047000  0.25000000  0.27579200  1
  Ta  Ta2  1  0.65100000  0.75000000  0.26451300  1
  Ta  Ta3  1  0.84953000  0.25000000  0.77579200  1
  Ta  Ta4  1  0.15100000  0.25000000  0.23548700  1
  Ta  Ta5  1  0.84900000  0.75000000  0.76451300  1
  Ta  Ta6  1  0.34900000  0.25000000  0.73548700  1
  Ta  Ta7  1  0.15047000  0.75000000  0.22420800  1
  Co  Co8  1  0.04416900  0.46735900  0.68203400  1
  Co  Co9  1  0.04416900  0.03264100  0.68203400  1
  Co  Co10  1  0.65411700  0.46590900  0.68201900  1
  Co  Co11  1  0.45583100  0.46735900  0.18203400  1
  Co  Co12  1  0.65411700  0.03409100  0.68201900  1
  Co  Co13  1  0.54416900  0.96735900  0.81796600  1
  Co  Co14  1  0.54416900  0.53264100  0.81796600  1
  Co  Co15  1  0.95583100  0.96735900  0.31796600  1
  Co  Co16  1  0.15411700  0.53409100  0.81798100  1
  Co  Co17  1  0.34588300  0.96590900  0.31798100  1
  Co  Co18  1  0.84588300  0.03409100  0.18201900  1
  Co  Co19  1  0.84588300  0.46590900  0.18201900  1
  Co  Co20  1  0.45583100  0.03264100  0.18203400  1
  Co  Co21  1  0.15411700  0.96590900  0.81798100  1
  Co  Co22  1  0.95583100  0.53264100  0.31796600  1
  Co  Co23  1  0.34588300  0.53409100  0.31798100  1
  Te  Te24  1  0.15299500  0.25000000  0.39130100  1
  Te  Te25  1  0.65299500  0.75000000  0.10869900  1
  Te  Te26  1  0.84929200  0.50291700  0.90501200  1
  Te  Te27  1  0.34700500  0.25000000  0.89130100  1
  Te  Te28  1  0.35040900  0.75000000  0.91016100  1
  Te  Te29  1  0.14959100  0.75000000  0.41016100  1
  Te  Te30  1  0.64959100  0.25000000  0.08983900  1
  Te  Te31  1  0.65070800  0.50291700  0.40501200  1
  Te  Te32  1  0.84700500  0.75000000  0.60869900  1
  Te  Te33  1  0.34929200  0.49708300  0.59498800  1
  Te  Te34  1  0.65070800  0.99708300  0.40501200  1
  Te  Te35  1  0.84929200  0.99708300  0.90501200  1
  Te  Te36  1  0.34929200  0.00291700  0.59498800  1
  Te  Te37  1  0.15070800  0.00291700  0.09498800  1
  Te  Te38  1  0.15070800  0.49708300  0.09498800  1
  Te  Te39  1  0.85040900  0.25000000  0.58983900  1
