# generated using pymatgen
data_Eu(GdS2)2
_symmetry_space_group_name_H-M   'P 1'
_cell_length_a   7.34951306
_cell_length_b   7.34951306
_cell_length_c   7.34951306
_cell_angle_alpha   109.29701725
_cell_angle_beta   109.29701725
_cell_angle_gamma   109.82019203
_symmetry_Int_Tables_number   1
_chemical_formula_structural   Eu(GdS2)2
_chemical_formula_sum   'Eu2 Gd4 S8'
_cell_volume   305.59181301
_cell_formula_units_Z   2
loop_
 _symmetry_equiv_pos_site_id
 _symmetry_equiv_pos_as_xyz
  1  'x, y, z'
loop_
 _atom_site_type_symbol
 _atom_site_label
 _atom_site_symmetry_multiplicity
 _atom_site_fract_x
 _atom_site_fract_y
 _atom_site_fract_z
 _atom_site_occupancy
  Eu  Eu0  1  0.25000000  0.75000000  0.50000000  1
  Eu  Eu1  1  0.00000000  0.00000000  0.00000000  1
  Gd  Gd2  1  0.12500000  0.50145900  0.87645900  1
  Gd  Gd3  1  0.75145900  0.87500000  0.37645900  1
  Gd  Gd4  1  0.62500000  0.24854100  0.12354100  1
  Gd  Gd5  1  0.49854100  0.37500000  0.62354100  1
  S  S6  1  0.86724500  0.61580100  0.59795800  1
  S  S7  1  0.23215800  0.13419900  0.75144500  1
  S  S8  1  0.51928700  0.76784200  0.90204200  1
  S  S9  1  0.86580100  0.61724500  0.09795800  1
  S  S10  1  0.01784200  0.26928700  0.40204200  1
  S  S11  1  0.38419900  0.98215800  0.25144500  1
  S  S12  1  0.73071300  0.13275500  0.74855500  1
  S  S13  1  0.38275500  0.48071300  0.24855500  1
