# generated using pymatgen
data_Ba8Ce7YHO24
_symmetry_space_group_name_H-M   'P 1'
_cell_length_a   6.32794800
_cell_length_b   6.33463904
_cell_length_c   17.57433711
_cell_angle_alpha   90.04792077
_cell_angle_beta   90.12609143
_cell_angle_gamma   90.70976654
_symmetry_Int_Tables_number   1
_chemical_formula_structural   Ba8Ce7YHO24
_chemical_formula_sum   'Ba8 Ce7 Y1 H1 O24'
_cell_volume   704.41596493
_cell_formula_units_Z   1
loop_
 _symmetry_equiv_pos_site_id
 _symmetry_equiv_pos_as_xyz
  1  'x, y, z'
loop_
 _atom_site_type_symbol
 _atom_site_label
 _atom_site_symmetry_multiplicity
 _atom_site_fract_x
 _atom_site_fract_y
 _atom_site_fract_z
 _atom_site_occupancy
  Ba  Ba0  1  0.02156700  0.00844200  0.87438400  1
  Ba  Ba1  1  0.04086900  0.98837000  0.36408500  1
  Ba  Ba2  1  0.47687200  0.51452900  0.12605100  1
  Ba  Ba3  1  0.49886500  0.51137200  0.62423700  1
  Ba  Ba4  1  0.46967200  0.50972500  0.36470100  1
  Ba  Ba5  1  0.51984000  0.49032200  0.87447900  1
  Ba  Ba6  1  0.98845500  0.99142900  0.62634900  1
  Ba  Ba7  1  0.99040100  0.98250000  0.12596900  1
  Ce  Ce8  1  0.00016300  0.49639100  0.00017700  1
  Ce  Ce9  1  0.00149200  0.50077000  0.74833500  1
  Ce  Ce10  1  0.00649500  0.50916200  0.49715900  1
  Ce  Ce11  1  0.50471400  0.00072000  0.74851500  1
  Ce  Ce12  1  0.50688000  0.00409200  0.24827500  1
  Ce  Ce13  1  0.50465200  0.00090900  0.99899300  1
  Ce  Ce14  1  0.49587400  0.99749500  0.49899400  1
  Y  Y15  1  0.99411000  0.49310100  0.24831500  1
  H  H16  1  0.75267300  0.24276000  0.39232500  1
  O  O17  1  0.97168600  0.42358300  0.62076700  1
  O  O18  1  0.00641000  0.41710000  0.12214700  1
  O  O19  1  0.24237300  0.76070600  0.72255500  1
  O  O20  1  0.23973000  0.76587900  0.52830100  1
  O  O21  1  0.23563200  0.76643000  0.02253500  1
  O  O22  1  0.24548200  0.75923900  0.22876600  1
  O  O23  1  0.26604800  0.26257600  0.76297600  1
  O  O24  1  0.25967600  0.25086600  0.26424500  1
  O  O25  1  0.26973500  0.26422200  0.97578000  1
  O  O26  1  0.26680900  0.26684700  0.48630200  1
  O  O27  1  0.48139800  0.92160300  0.87190100  1
  O  O28  1  0.46506700  0.92859300  0.37739500  1
  O  O29  1  0.53664400  0.08502500  0.12287300  1
  O  O30  1  0.54447700  0.08275800  0.62109900  1
  O  O31  1  0.74079800  0.74381300  0.51645200  1
  O  O32  1  0.73321900  0.73241500  0.01942400  1
  O  O33  1  0.74169000  0.74126000  0.72728600  1
  O  O34  1  0.73929300  0.74350100  0.23261500  1
  O  O35  1  0.75963800  0.24352900  0.45031500  1
  O  O36  1  0.76885000  0.23204600  0.97112900  1
  O  O37  1  0.76641700  0.23763100  0.77303200  1
  O  O38  1  0.75398200  0.24298900  0.28974200  1
  O  O39  1  0.99006900  0.57756800  0.87201000  1
  O  O40  1  0.03848500  0.57243100  0.37690900  1
