# generated using pymatgen
data_K3Pr2(NO3)9
_symmetry_space_group_name_H-M   'P 1'
_cell_length_a   13.68255400
_cell_length_b   13.68255400
_cell_length_c   13.68255400
_cell_angle_alpha   90.00000000
_cell_angle_beta   90.00000000
_cell_angle_gamma   90.00000000
_symmetry_Int_Tables_number   1
_chemical_formula_structural   K3Pr2(NO3)9
_chemical_formula_sum   'K12 Pr8 N36 O108'
_cell_volume   2561.54218479
_cell_formula_units_Z   4
loop_
 _symmetry_equiv_pos_site_id
 _symmetry_equiv_pos_as_xyz
  1  'x, y, z'
loop_
 _atom_site_type_symbol
 _atom_site_label
 _atom_site_symmetry_multiplicity
 _atom_site_fract_x
 _atom_site_fract_y
 _atom_site_fract_z
 _atom_site_occupancy
  K  K0  1  0.81164100  0.56164100  0.87500000  1
  K  K1  1  0.62500000  0.18835900  0.06164100  1
  K  K2  1  0.43835900  0.37500000  0.68835900  1
  K  K3  1  0.06164100  0.62500000  0.18835900  1
  K  K4  1  0.12500000  0.31164100  0.93835900  1
  K  K5  1  0.68835900  0.43835900  0.37500000  1
  K  K6  1  0.18835900  0.06164100  0.62500000  1
  K  K7  1  0.93835900  0.12500000  0.31164100  1
  K  K8  1  0.37500000  0.68835900  0.43835900  1
  K  K9  1  0.31164100  0.93835900  0.12500000  1
  K  K10  1  0.87500000  0.81164100  0.56164100  1
  K  K11  1  0.56164100  0.87500000  0.81164100  1
  Pr  Pr12  1  0.04943200  0.45056800  0.54943200  1
  Pr  Pr13  1  0.20056800  0.70056800  0.79943200  1
  Pr  Pr14  1  0.70056800  0.79943200  0.20056800  1
  Pr  Pr15  1  0.79943200  0.20056800  0.70056800  1
  Pr  Pr16  1  0.95056800  0.95056800  0.95056800  1
  Pr  Pr17  1  0.29943200  0.29943200  0.29943200  1
  Pr  Pr18  1  0.45056800  0.54943200  0.04943200  1
  Pr  Pr19  1  0.54943200  0.04943200  0.45056800  1
  N  N20  1  0.48620000  0.76380000  0.12500000  1
  N  N21  1  0.11150100  0.83661200  0.64874200  1
  N  N22  1  0.87500000  0.98620000  0.73620000  1
  N  N23  1  0.12500000  0.48620000  0.76380000  1
  N  N24  1  0.35125800  0.61150100  0.66338800  1
  N  N25  1  0.01380000  0.23620000  0.62500000  1
  N  N26  1  0.38849900  0.16338800  0.14874200  1
  N  N27  1  0.63849900  0.89874200  0.58661200  1
  N  N28  1  0.60125800  0.41338800  0.13849900  1
  N  N29  1  0.98620000  0.73620000  0.87500000  1
  N  N30  1  0.61150100  0.66338800  0.35125800  1
  N  N31  1  0.14874200  0.38849900  0.16338800  1
  N  N32  1  0.51380000  0.26380000  0.37500000  1
  N  N33  1  0.85125800  0.88849900  0.33661200  1
  N  N34  1  0.76380000  0.12500000  0.48620000  1
  N  N35  1  0.86150100  0.10125800  0.08661200  1
  N  N36  1  0.37500000  0.51380000  0.26380000  1
  N  N37  1  0.62500000  0.01380000  0.23620000  1
  N  N38  1  0.83661200  0.64874200  0.11150100  1
  N  N39  1  0.23620000  0.62500000  0.01380000  1
  N  N40  1  0.41338800  0.13849900  0.60125800  1
  N  N41  1  0.64874200  0.11150100  0.83661200  1
  N  N42  1  0.88849900  0.33661200  0.85125800  1
  N  N43  1  0.16338800  0.14874200  0.38849900  1
  N  N44  1  0.10125800  0.08661200  0.86150100  1
  N  N45  1  0.08661200  0.86150100  0.10125800  1
  N  N46  1  0.26380000  0.37500000  0.51380000  1
  N  N47  1  0.39874200  0.91338800  0.36150100  1
  N  N48  1  0.89874200  0.58661200  0.63849900  1
  N  N49  1  0.58661200  0.63849900  0.89874200  1
  N  N50  1  0.66338800  0.35125800  0.61150100  1
  N  N51  1  0.36150100  0.39874200  0.91338800  1
  N  N52  1  0.73620000  0.87500000  0.98620000  1
  N  N53  1  0.33661200  0.85125800  0.88849900  1
  N  N54  1  0.13849900  0.60125800  0.41338800  1
  N  N55  1  0.91338800  0.36150100  0.39874200  1
  O  O56  1  0.00235400  0.82498800  0.08340200  1
  O  O57  1  0.16659800  0.42501200  0.24764600  1
  O  O58  1  0.37500000  0.44688000  0.19688000  1
  O  O59  1  0.08890700  0.42679800  0.10656100  1
  O  O60  1  0.94688000  0.30312000  0.62500000  1
  O  O61  1  0.34195400  0.49270800  0.34658600  1
  O  O62  1  0.49764600  0.17501200  0.58340200  1
  O  O63  1  0.33890700  0.85656100  0.32320200  1
  O  O64  1  0.07320200  0.89343900  0.58890700  1
  O  O65  1  0.35975600  0.80467100  0.81033900  1
  O  O66  1  0.15341400  0.65804600  0.99270800  1
  O  O67  1  0.69688000  0.12500000  0.55312000  1
  O  O68  1  0.80312000  0.87500000  0.05312000  1
  O  O69  1  0.10975600  0.93966100  0.05467100  1
  O  O70  1  0.75235400  0.66659800  0.07498800  1
  O  O71  1  0.74764600  0.33340200  0.57498800  1
  O  O72  1  0.32320200  0.33890700  0.85656100  1
  O  O73  1  0.65341400  0.84195400  0.00729200  1
  O  O74  1  0.69532900  0.18966100  0.85975600  1
  O  O75  1  0.84195400  0.00729200  0.65341400  1
  O  O76  1  0.92679800  0.39343900  0.91109300  1
  O  O77  1  0.83340200  0.92501200  0.25235400  1
  O  O78  1  0.49270800  0.34658600  0.34195400  1
  O  O79  1  0.80467100  0.81033900  0.35975600  1
  O  O80  1  0.91659800  0.50235400  0.67501200  1
  O  O81  1  0.25729200  0.59195400  0.09658600  1
  O  O82  1  0.18966100  0.85975600  0.69532900  1
  O  O83  1  0.75729200  0.90804600  0.90341400  1
  O  O84  1  0.19532900  0.31033900  0.14024400  1
  O  O85  1  0.55467100  0.39024400  0.06033900  1
  O  O86  1  0.31033900  0.14024400  0.19532900  1
  O  O87  1  0.41659800  0.99764600  0.32498800  1
  O  O88  1  0.07498800  0.75235400  0.66659800  1
  O  O89  1  0.41109300  0.57320200  0.60656100  1
  O  O90  1  0.83890700  0.64343900  0.67679800  1
  O  O91  1  0.66659800  0.07498800  0.75235400  1
  O  O92  1  0.09195400  0.40341400  0.74270800  1
  O  O93  1  0.67679800  0.83890700  0.64343900  1
  O  O94  1  0.57498800  0.74764600  0.33340200  1
  O  O95  1  0.82498800  0.08340200  0.00235400  1
  O  O96  1  0.17501200  0.58340200  0.49764600  1
  O  O97  1  0.14343900  0.82320200  0.16109300  1
  O  O98  1  0.30312000  0.62500000  0.94688000  1
  O  O99  1  0.39024400  0.06033900  0.55467100  1
  O  O100  1  0.50729200  0.84658600  0.15804600  1
  O  O101  1  0.66109300  0.35656100  0.17679800  1
  O  O102  1  0.74270800  0.09195400  0.40341400  1
  O  O103  1  0.62500000  0.94688000  0.30312000  1
  O  O104  1  0.68966100  0.64024400  0.30467100  1
  O  O105  1  0.33340200  0.57498800  0.74764600  1
  O  O106  1  0.89343900  0.58890700  0.07320200  1
  O  O107  1  0.19688000  0.37500000  0.44688000  1
  O  O108  1  0.90804600  0.90341400  0.75729200  1
  O  O109  1  0.64343900  0.67679800  0.83890700  1
  O  O110  1  0.42679800  0.10656100  0.08890700  1
  O  O111  1  0.06033900  0.55467100  0.39024400  1
  O  O112  1  0.55312000  0.69688000  0.12500000  1
  O  O113  1  0.43966100  0.44532900  0.89024400  1
  O  O114  1  0.00729200  0.65341400  0.84195400  1
  O  O115  1  0.58340200  0.49764600  0.17501200  1
  O  O116  1  0.99270800  0.15341400  0.65804600  1
  O  O117  1  0.94532900  0.60975600  0.56033900  1
  O  O118  1  0.34658600  0.34195400  0.49270800  1
  O  O119  1  0.08340200  0.00235400  0.82498800  1
  O  O120  1  0.09658600  0.25729200  0.59195400  1
  O  O121  1  0.24270800  0.40804600  0.59658600  1
  O  O122  1  0.93966100  0.05467100  0.10975600  1
  O  O123  1  0.44688000  0.19688000  0.37500000  1
  O  O124  1  0.84658600  0.15804600  0.50729200  1
  O  O125  1  0.32498800  0.41659800  0.99764600  1
  O  O126  1  0.50235400  0.67501200  0.91659800  1
  O  O127  1  0.40804600  0.59658600  0.24270800  1
  O  O128  1  0.56033900  0.94532900  0.60975600  1
  O  O129  1  0.39343900  0.91109300  0.92679800  1
  O  O130  1  0.85656100  0.32320200  0.33890700  1
  O  O131  1  0.87500000  0.05312000  0.80312000  1
  O  O132  1  0.59658600  0.24270800  0.40804600  1
  O  O133  1  0.05312000  0.80312000  0.87500000  1
  O  O134  1  0.14024400  0.19532900  0.31033900  1
  O  O135  1  0.57320200  0.60656100  0.41109300  1
  O  O136  1  0.44532900  0.89024400  0.43966100  1
  O  O137  1  0.92501200  0.25235400  0.83340200  1
  O  O138  1  0.15804600  0.50729200  0.84658600  1
  O  O139  1  0.24764600  0.16659800  0.42501200  1
  O  O140  1  0.89024400  0.43966100  0.44532900  1
  O  O141  1  0.91109300  0.92679800  0.39343900  1
  O  O142  1  0.05467100  0.10975600  0.93966100  1
  O  O143  1  0.82320200  0.16109300  0.14343900  1
  O  O144  1  0.42501200  0.24764600  0.16659800  1
  O  O145  1  0.30467100  0.68966100  0.64024400  1
  O  O146  1  0.85975600  0.69532900  0.18966100  1
  O  O147  1  0.99764600  0.32498800  0.41659800  1
  O  O148  1  0.35656100  0.17679800  0.66109300  1
  O  O149  1  0.12500000  0.55312000  0.69688000  1
  O  O150  1  0.16109300  0.14343900  0.82320200  1
  O  O151  1  0.65804600  0.99270800  0.15341400  1
  O  O152  1  0.67501200  0.91659800  0.50235400  1
  O  O153  1  0.59195400  0.09658600  0.25729200  1
  O  O154  1  0.60656100  0.41109300  0.57320200  1
  O  O155  1  0.10656100  0.08890700  0.42679800  1
  O  O156  1  0.40341400  0.74270800  0.09195400  1
  O  O157  1  0.81033900  0.35975600  0.80467100  1
  O  O158  1  0.90341400  0.75729200  0.90804600  1
  O  O159  1  0.58890700  0.07320200  0.89343900  1
  O  O160  1  0.25235400  0.83340200  0.92501200  1
  O  O161  1  0.17679800  0.66109300  0.35656100  1
  O  O162  1  0.64024400  0.30467100  0.68966100  1
  O  O163  1  0.60975600  0.56033900  0.94532900  1
