# generated using pymatgen
data_Na2P2H2O7
_symmetry_space_group_name_H-M   'P 1'
_cell_length_a   15.21915904
_cell_length_b   14.31962318
_cell_length_c   7.11453153
_cell_angle_alpha   83.22265891
_cell_angle_beta   69.11852698
_cell_angle_gamma   27.65881411
_symmetry_Int_Tables_number   1
_chemical_formula_structural   Na2P2H2O7
_chemical_formula_sum   'Na8 P8 H8 O28'
_cell_volume   598.55089126
_cell_formula_units_Z   4
loop_
 _symmetry_equiv_pos_site_id
 _symmetry_equiv_pos_as_xyz
  1  'x, y, z'
loop_
 _atom_site_type_symbol
 _atom_site_label
 _atom_site_symmetry_multiplicity
 _atom_site_fract_x
 _atom_site_fract_y
 _atom_site_fract_z
 _atom_site_occupancy
  Na  Na0  1  0.91010400  0.99105400  0.30829300  1
  Na  Na1  1  0.99105400  0.91010400  0.79054900  1
  Na  Na2  1  0.30829300  0.79054900  0.91010400  1
  Na  Na3  1  0.79054900  0.30829300  0.99105400  1
  Na  Na4  1  0.33989600  0.25894600  0.94170700  1
  Na  Na5  1  0.25894600  0.33989600  0.45945100  1
  Na  Na6  1  0.94170700  0.45945100  0.33989600  1
  Na  Na7  1  0.45945100  0.94170700  0.25894600  1
  P  P8  1  0.41164400  0.44556700  0.87302200  1
  P  P9  1  0.44556700  0.41164400  0.26976600  1
  P  P10  1  0.87302200  0.26976600  0.41164400  1
  P  P11  1  0.26976600  0.87302200  0.44556700  1
  P  P12  1  0.83835600  0.80443300  0.37697800  1
  P  P13  1  0.80443300  0.83835600  0.98023400  1
  P  P14  1  0.37697800  0.98023400  0.83835600  1
  P  P15  1  0.98023400  0.37697800  0.80443300  1
  H  H16  1  0.38549100  0.38549100  0.61450900  1
  H  H17  1  0.61450900  0.61450900  0.38549100  1
  H  H18  1  0.86450900  0.86450900  0.63549100  1
  H  H19  1  0.63549100  0.63549100  0.86450900  1
  H  H20  1  0.67632200  0.32367800  0.67632200  1
  H  H21  1  0.32367800  0.67632200  0.32367800  1
  H  H22  1  0.57367800  0.92632200  0.57367800  1
  H  H23  1  0.92632200  0.57367800  0.92632200  1
  O  O24  1  0.36293600  0.40347200  0.79613900  1
  O  O25  1  0.40347200  0.36293600  0.43745300  1
  O  O26  1  0.79613900  0.43745300  0.36293600  1
  O  O27  1  0.43745300  0.79613900  0.40347200  1
  O  O28  1  0.88706400  0.84652800  0.45386100  1
  O  O29  1  0.84652800  0.88706400  0.81254700  1
  O  O30  1  0.45386100  0.81254700  0.88706400  1
  O  O31  1  0.81254700  0.45386100  0.84652800  1
  O  O32  1  0.65846600  0.25607700  0.69709400  1
  O  O33  1  0.25607700  0.65846600  0.38836400  1
  O  O34  1  0.69709400  0.38836400  0.65846600  1
  O  O35  1  0.38836400  0.69709400  0.25607700  1
  O  O36  1  0.59153400  0.99392300  0.55290600  1
  O  O37  1  0.99392300  0.59153400  0.86163600  1
  O  O38  1  0.55290600  0.86163600  0.59153400  1
  O  O39  1  0.86163600  0.55290600  0.99392300  1
  O  O40  1  0.24086900  0.67963400  0.93564700  1
  O  O41  1  0.67963400  0.24086900  0.14384900  1
  O  O42  1  0.93564700  0.14384900  0.24086900  1
  O  O43  1  0.14384900  0.93564700  0.67963400  1
  O  O44  1  0.00913100  0.57036600  0.31435300  1
  O  O45  1  0.57036600  0.00913100  0.10615100  1
  O  O46  1  0.31435300  0.10615100  0.00913100  1
  O  O47  1  0.10615100  0.31435300  0.57036600  1
  O  O48  1  0.40422200  0.40422200  0.09577800  1
  O  O49  1  0.09577800  0.09577800  0.40422200  1
  O  O50  1  0.84577800  0.84577800  0.15422200  1
  O  O51  1  0.15422200  0.15422200  0.84577800  1
