# generated using pymatgen
data_ReHgO4
_symmetry_space_group_name_H-M   'P 1'
_cell_length_a   5.20278700
_cell_length_b   5.82510400
_cell_length_c   15.60330730
_cell_angle_alpha   69.69688575
_cell_angle_beta   90.00000000
_cell_angle_gamma   90.00000000
_symmetry_Int_Tables_number   1
_chemical_formula_structural   ReHgO4
_chemical_formula_sum   'Re4 Hg4 O16'
_cell_volume   443.50556234
_cell_formula_units_Z   4
loop_
 _symmetry_equiv_pos_site_id
 _symmetry_equiv_pos_as_xyz
  1  'x, y, z'
loop_
 _atom_site_type_symbol
 _atom_site_label
 _atom_site_symmetry_multiplicity
 _atom_site_fract_x
 _atom_site_fract_y
 _atom_site_fract_z
 _atom_site_occupancy
  Re  Re0  1  0.64218900  0.14114700  0.34404700  1
  Re  Re1  1  0.35781100  0.85885300  0.65595300  1
  Re  Re2  1  0.14218900  0.85885300  0.15595300  1
  Re  Re3  1  0.85781100  0.14114700  0.84404700  1
  Hg  Hg4  1  0.32733500  0.60500500  0.93795400  1
  Hg  Hg5  1  0.17266500  0.60500500  0.43795400  1
  Hg  Hg6  1  0.82733500  0.39499500  0.56204600  1
  Hg  Hg7  1  0.67266500  0.39499500  0.06204600  1
  O  O8  1  0.51650200  0.84116500  0.36910600  1
  O  O9  1  0.48349800  0.15883500  0.63089400  1
  O  O10  1  0.07362000  0.68147900  0.26974100  1
  O  O11  1  0.01650200  0.15883500  0.13089400  1
  O  O12  1  0.51327400  0.28196800  0.41708300  1
  O  O13  1  0.52605300  0.11108600  0.86147500  1
  O  O14  1  0.98672600  0.28196800  0.91708300  1
  O  O15  1  0.57362000  0.31852100  0.23025900  1
  O  O16  1  0.98349800  0.84116500  0.86910600  1
  O  O17  1  0.97394700  0.11108600  0.36147500  1
  O  O18  1  0.47394700  0.88891400  0.13852500  1
  O  O19  1  0.92638000  0.31852100  0.73025900  1
  O  O20  1  0.02605300  0.88891400  0.63852500  1
  O  O21  1  0.42638000  0.68147900  0.76974100  1
  O  O22  1  0.01327400  0.71803200  0.08291700  1
  O  O23  1  0.48672600  0.71803200  0.58291700  1
