# generated using pymatgen
data_Pr4MgCo
_symmetry_space_group_name_H-M   'P 1'
_cell_length_a   10.05142390
_cell_length_b   10.05142390
_cell_length_c   10.05142390
_cell_angle_alpha   60.00000000
_cell_angle_beta   60.00000000
_cell_angle_gamma   60.00000000
_symmetry_Int_Tables_number   1
_chemical_formula_structural   Pr4MgCo
_chemical_formula_sum   'Pr16 Mg4 Co4'
_cell_volume   718.07163035
_cell_formula_units_Z   4
loop_
 _symmetry_equiv_pos_site_id
 _symmetry_equiv_pos_as_xyz
  1  'x, y, z'
loop_
 _atom_site_type_symbol
 _atom_site_label
 _atom_site_symmetry_multiplicity
 _atom_site_fract_x
 _atom_site_fract_y
 _atom_site_fract_z
 _atom_site_occupancy
  Pr  Pr0  1  0.28513500  0.90495500  0.90495500  1
  Pr  Pr1  1  0.68876100  0.68876100  0.31123900  1
  Pr  Pr2  1  0.90495500  0.90495500  0.28513500  1
  Pr  Pr3  1  0.31123900  0.68876100  0.31123900  1
  Pr  Pr4  1  0.68876100  0.31123900  0.31123900  1
  Pr  Pr5  1  0.06177400  0.43822600  0.43822600  1
  Pr  Pr6  1  0.43822600  0.06177400  0.06177400  1
  Pr  Pr7  1  0.06177400  0.06177400  0.43822600  1
  Pr  Pr8  1  0.31123900  0.31123900  0.68876100  1
  Pr  Pr9  1  0.43822600  0.06177400  0.43822600  1
  Pr  Pr10  1  0.90495500  0.90495500  0.90495500  1
  Pr  Pr11  1  0.43822600  0.43822600  0.06177400  1
  Pr  Pr12  1  0.31123900  0.68876100  0.68876100  1
  Pr  Pr13  1  0.68876100  0.31123900  0.68876100  1
  Pr  Pr14  1  0.06177400  0.43822600  0.06177400  1
  Pr  Pr15  1  0.90495500  0.28513500  0.90495500  1
  Mg  Mg16  1  0.67134400  0.67134400  0.98596900  1
  Mg  Mg17  1  0.98596900  0.67134400  0.67134400  1
  Mg  Mg18  1  0.67134400  0.98596900  0.67134400  1
  Mg  Mg19  1  0.67134400  0.67134400  0.67134400  1
  Co  Co20  1  0.10946200  0.10946200  0.10946200  1
  Co  Co21  1  0.10946200  0.10946200  0.67161300  1
  Co  Co22  1  0.67161300  0.10946200  0.10946200  1
  Co  Co23  1  0.10946200  0.67161300  0.10946200  1
