# generated using pymatgen
data_Ho2Si4CN6
_symmetry_space_group_name_H-M   'P 1'
_cell_length_a   9.98531400
_cell_length_b   5.93784900
_cell_length_c   11.91406041
_cell_angle_alpha   60.37022962
_cell_angle_beta   90.00000000
_cell_angle_gamma   90.00000000
_symmetry_Int_Tables_number   1
_chemical_formula_structural   Ho2Si4CN6
_chemical_formula_sum   'Ho8 Si16 C4 N24'
_cell_volume   614.02981502
_cell_formula_units_Z   4
loop_
 _symmetry_equiv_pos_site_id
 _symmetry_equiv_pos_as_xyz
  1  'x, y, z'
loop_
 _atom_site_type_symbol
 _atom_site_label
 _atom_site_symmetry_multiplicity
 _atom_site_fract_x
 _atom_site_fract_y
 _atom_site_fract_z
 _atom_site_occupancy
  Ho  Ho0  1  0.91198800  0.34610400  0.91682600  1
  Ho  Ho1  1  0.41198800  0.65389600  0.58317400  1
  Ho  Ho2  1  0.08801200  0.65389600  0.08317400  1
  Ho  Ho3  1  0.58801200  0.34610400  0.41682600  1
  Ho  Ho4  1  0.06880800  0.67193600  0.59368100  1
  Ho  Ho5  1  0.56880800  0.32806400  0.90631900  1
  Ho  Ho6  1  0.93119200  0.32806400  0.40631900  1
  Ho  Ho7  1  0.43119200  0.67193600  0.09368100  1
  Si  Si8  1  0.72644200  0.32180000  0.65878100  1
  Si  Si9  1  0.22644200  0.67820000  0.84121900  1
  Si  Si10  1  0.27355800  0.67820000  0.34121900  1
  Si  Si11  1  0.77355800  0.32180000  0.15878100  1
  Si  Si12  1  0.70516600  0.79892400  0.67624000  1
  Si  Si13  1  0.20516600  0.20107600  0.82376000  1
  Si  Si14  1  0.29483400  0.20107600  0.32376000  1
  Si  Si15  1  0.79483400  0.79892400  0.17624000  1
  Si  Si16  1  0.71217300  0.83608100  0.92061000  1
  Si  Si17  1  0.21217300  0.16391900  0.57939000  1
  Si  Si18  1  0.28782700  0.16391900  0.07939000  1
  Si  Si19  1  0.78782700  0.83608100  0.42061000  1
  Si  Si20  1  0.97921000  0.99646600  0.74990500  1
  Si  Si21  1  0.47921000  0.00353400  0.75009500  1
  Si  Si22  1  0.02079000  0.00353400  0.25009500  1
  Si  Si23  1  0.52079000  0.99646600  0.24990500  1
  C  C24  1  0.79132700  0.97600600  0.75300300  1
  C  C25  1  0.29132700  0.02399400  0.74699700  1
  C  C26  1  0.20867300  0.02399400  0.24699700  1
  C  C27  1  0.70867300  0.97600600  0.25300300  1
  N  N28  1  0.55303800  0.29764400  0.63591500  1
  N  N29  1  0.05303800  0.70235600  0.86408500  1
  N  N30  1  0.44696200  0.70235600  0.36408500  1
  N  N31  1  0.94696200  0.29764400  0.13591500  1
  N  N32  1  0.76165200  0.47990100  0.74621500  1
  N  N33  1  0.26165200  0.52009900  0.75378500  1
  N  N34  1  0.23834800  0.52009900  0.25378500  1
  N  N35  1  0.73834800  0.47990100  0.24621500  1
  N  N36  1  0.78888300  0.49491900  0.50082700  1
  N  N37  1  0.28888300  0.50508100  0.99917300  1
  N  N38  1  0.21111700  0.50508100  0.49917300  1
  N  N39  1  0.71111700  0.49491900  0.00082700  1
  N  N40  1  0.53533200  0.75541000  0.72273000  1
  N  N41  1  0.03533200  0.24459000  0.77727000  1
  N  N42  1  0.46466800  0.24459000  0.27727000  1
  N  N43  1  0.96466800  0.75541000  0.22273000  1
  N  N44  1  0.54420600  0.93999100  0.89937700  1
  N  N45  1  0.04420600  0.06000900  0.60062300  1
  N  N46  1  0.45579400  0.06000900  0.10062300  1
  N  N47  1  0.95579400  0.93999100  0.39937700  1
  N  N48  1  0.78559500  0.96359300  0.00918200  1
  N  N49  1  0.28559500  0.03640700  0.49081800  1
  N  N50  1  0.21440500  0.03640700  0.99081800  1
  N  N51  1  0.71440500  0.96359300  0.50918200  1
