# generated using pymatgen
data_SbP3C(NCl5)3
_symmetry_space_group_name_H-M   'P 1'
_cell_length_a   9.38476900
_cell_length_b   10.83851332
_cell_length_c   13.40101847
_cell_angle_alpha   86.40132319
_cell_angle_beta   88.84366939
_cell_angle_gamma   75.91967855
_symmetry_Int_Tables_number   1
_chemical_formula_structural   SbP3C(NCl5)3
_chemical_formula_sum   'Sb2 P6 C2 N6 Cl30'
_cell_volume   1319.53280802
_cell_formula_units_Z   2
loop_
 _symmetry_equiv_pos_site_id
 _symmetry_equiv_pos_as_xyz
  1  'x, y, z'
loop_
 _atom_site_type_symbol
 _atom_site_label
 _atom_site_symmetry_multiplicity
 _atom_site_fract_x
 _atom_site_fract_y
 _atom_site_fract_z
 _atom_site_occupancy
  Sb  Sb0  1  0.31190500  0.25166700  0.30962700  1
  Sb  Sb1  1  0.68809500  0.74833300  0.69037300  1
  P  P2  1  0.86577000  0.21334800  0.64988900  1
  P  P3  1  0.59142500  0.70535700  0.21816400  1
  P  P4  1  0.21449400  0.79009000  0.00568000  1
  P  P5  1  0.40857500  0.29464300  0.78183600  1
  P  P6  1  0.13423000  0.78665200  0.35011100  1
  P  P7  1  0.78550600  0.20991000  0.99432000  1
  C  C8  1  0.30727300  0.76164700  0.18889800  1
  C  C9  1  0.69272700  0.23835300  0.81110200  1
  N  N10  1  0.19377200  0.78706100  0.12326200  1
  N  N11  1  0.71841300  0.23622900  0.71174500  1
  N  N12  1  0.44600300  0.73603000  0.15365800  1
  N  N13  1  0.28158700  0.76377100  0.28825500  1
  N  N14  1  0.80622800  0.21293900  0.87673800  1
  N  N15  1  0.55399700  0.26397000  0.84634200  1
  Cl  Cl16  1  0.95429300  0.68843600  0.69646400  1
  Cl  Cl17  1  0.98247200  0.17162900  0.05657800  1
  Cl  Cl18  1  0.30696000  0.08399700  0.43565200  1
  Cl  Cl19  1  0.31475000  0.39710000  0.43652800  1
  Cl  Cl20  1  0.31602900  0.41890400  0.17922500  1
  Cl  Cl21  1  0.99009200  0.33639200  0.66923200  1
  Cl  Cl22  1  0.32315500  0.62879200  0.94920200  1
  Cl  Cl23  1  0.24472500  0.30485100  0.87977700  1
  Cl  Cl24  1  0.63607700  0.53919700  0.29713200  1
  Cl  Cl25  1  0.31123400  0.92302600  0.94713700  1
  Cl  Cl26  1  0.81077100  0.23706300  0.50717000  1
  Cl  Cl27  1  0.99909700  0.95938600  0.33041000  1
  Cl  Cl28  1  0.31391900  0.10424900  0.17937600  1
  Cl  Cl29  1  0.00990800  0.66360800  0.33076800  1
  Cl  Cl30  1  0.68876600  0.07697400  0.05286300  1
  Cl  Cl31  1  0.42023600  0.80772000  0.69071400  1
  Cl  Cl32  1  0.04570700  0.31156400  0.30353600  1
  Cl  Cl33  1  0.18922900  0.76293700  0.49283000  1
  Cl  Cl34  1  0.61067700  0.83452300  0.31093500  1
  Cl  Cl35  1  0.38932300  0.16547700  0.68906500  1
  Cl  Cl36  1  0.67684500  0.37120800  0.05079800  1
  Cl  Cl37  1  0.68397100  0.58109600  0.82077500  1
  Cl  Cl38  1  0.01752800  0.82837100  0.94342200  1
  Cl  Cl39  1  0.68525000  0.60290000  0.56347200  1
  Cl  Cl40  1  0.00090300  0.04061400  0.66959000  1
  Cl  Cl41  1  0.57976400  0.19228000  0.30928600  1
  Cl  Cl42  1  0.68608100  0.89575100  0.82062400  1
  Cl  Cl43  1  0.75527500  0.69514900  0.12022300  1
  Cl  Cl44  1  0.36392300  0.46080300  0.70286800  1
  Cl  Cl45  1  0.69304000  0.91600300  0.56434800  1
