# generated using pymatgen
data_CdS
_symmetry_space_group_name_H-M   'P 1'
_cell_length_a   4.20653510
_cell_length_b   4.20653510
_cell_length_c   6.84292900
_cell_angle_alpha   90.00000000
_cell_angle_beta   90.00000000
_cell_angle_gamma   119.99998586
_symmetry_Int_Tables_number   1
_chemical_formula_structural   CdS
_chemical_formula_sum   'Cd2 S2'
_cell_volume   104.86287534
_cell_formula_units_Z   2
loop_
 _symmetry_equiv_pos_site_id
 _symmetry_equiv_pos_as_xyz
  1  'x, y, z'
loop_
 _atom_site_type_symbol
 _atom_site_label
 _atom_site_symmetry_multiplicity
 _atom_site_fract_x
 _atom_site_fract_y
 _atom_site_fract_z
 _atom_site_occupancy
  Cd  Cd0  1  0.66666700  0.33333300  0.50015700  1
  Cd  Cd1  1  0.33333300  0.66666700  0.00015700  1
  S  S2  1  0.66666700  0.33333300  0.87684300  1
  S  S3  1  0.33333300  0.66666700  0.37684300  1
