# generated using pymatgen
data_Sr(BIr)2
_symmetry_space_group_name_H-M   'P 1'
_cell_length_a   7.17740500
_cell_length_b   6.19785663
_cell_length_c   5.63253906
_cell_angle_alpha   74.52948567
_cell_angle_beta   56.32912123
_cell_angle_gamma   49.14139311
_symmetry_Int_Tables_number   1
_chemical_formula_structural   Sr(BIr)2
_chemical_formula_sum   'Sr2 B4 Ir4'
_cell_volume   155.87007584
_cell_formula_units_Z   2
loop_
 _symmetry_equiv_pos_site_id
 _symmetry_equiv_pos_as_xyz
  1  'x, y, z'
loop_
 _atom_site_type_symbol
 _atom_site_label
 _atom_site_symmetry_multiplicity
 _atom_site_fract_x
 _atom_site_fract_y
 _atom_site_fract_z
 _atom_site_occupancy
  Sr  Sr0  1  0.50000000  0.50000000  0.50000000  1
  Sr  Sr1  1  0.75000000  0.75000000  0.75000000  1
  B  B2  1  0.82601700  0.17398300  0.82601700  1
  B  B3  1  0.07601700  0.42398300  0.07601700  1
  B  B4  1  0.17398300  0.82601700  0.17398300  1
  B  B5  1  0.42398300  0.07601700  0.42398300  1
  Ir  Ir6  1  0.13085300  0.13085300  0.86914700  1
  Ir  Ir7  1  0.38085300  0.38085300  0.11914700  1
  Ir  Ir8  1  0.11914700  0.11914700  0.38085300  1
  Ir  Ir9  1  0.86914700  0.86914700  0.13085300  1
