# generated using pymatgen
data_Tm(CuTe)3
_symmetry_space_group_name_H-M   'P 1'
_cell_length_a   6.90612400
_cell_length_b   7.59751100
_cell_length_c   12.72601300
_cell_angle_alpha   90.00000000
_cell_angle_beta   90.00000000
_cell_angle_gamma   90.00000000
_symmetry_Int_Tables_number   1
_chemical_formula_structural   Tm(CuTe)3
_chemical_formula_sum   'Tm4 Cu12 Te12'
_cell_volume   667.72566911
_cell_formula_units_Z   4
loop_
 _symmetry_equiv_pos_site_id
 _symmetry_equiv_pos_as_xyz
  1  'x, y, z'
loop_
 _atom_site_type_symbol
 _atom_site_label
 _atom_site_symmetry_multiplicity
 _atom_site_fract_x
 _atom_site_fract_y
 _atom_site_fract_z
 _atom_site_occupancy
  Tm  Tm0  1  0.23488600  0.75151100  0.83700900  1
  Tm  Tm1  1  0.73488600  0.24848900  0.66299100  1
  Tm  Tm2  1  0.73488600  0.24848900  0.33700900  1
  Tm  Tm3  1  0.23488600  0.75151100  0.16299100  1
  Cu  Cu4  1  0.37127400  0.11879800  0.83338800  1
  Cu  Cu5  1  0.62318700  0.61653800  0.00000000  1
  Cu  Cu6  1  0.12351700  0.38046300  0.17789400  1
  Cu  Cu7  1  0.12318700  0.38346200  0.50000000  1
  Cu  Cu8  1  0.87268100  0.88272400  0.00000000  1
  Cu  Cu9  1  0.37268100  0.11727600  0.50000000  1
  Cu  Cu10  1  0.62351700  0.61953700  0.67789400  1
  Cu  Cu11  1  0.87127400  0.88120200  0.66661200  1
  Cu  Cu12  1  0.12351700  0.38046300  0.82210600  1
  Cu  Cu13  1  0.37127400  0.11879800  0.16661200  1
  Cu  Cu14  1  0.87127400  0.88120200  0.33338800  1
  Cu  Cu15  1  0.62351700  0.61953700  0.32210600  1
  Te  Te16  1  0.97740500  0.06741700  0.83431400  1
  Te  Te17  1  0.00475800  0.56398600  0.66187800  1
  Te  Te18  1  0.97740500  0.06741700  0.16568600  1
  Te  Te19  1  0.98975300  0.06002400  0.50000000  1
  Te  Te20  1  0.50475800  0.43601400  0.83812200  1
  Te  Te21  1  0.49749900  0.44757700  0.50000000  1
  Te  Te22  1  0.99749900  0.55242300  0.00000000  1
  Te  Te23  1  0.47740500  0.93258300  0.66568600  1
  Te  Te24  1  0.48975300  0.93997600  0.00000000  1
  Te  Te25  1  0.00475800  0.56398600  0.33812200  1
  Te  Te26  1  0.50475800  0.43601400  0.16187800  1
  Te  Te27  1  0.47740500  0.93258300  0.33431400  1
