# generated using pymatgen
data_Ba21(Cd2Sb9)2
_symmetry_space_group_name_H-M   'P 1'
_cell_length_a   13.36795563
_cell_length_b   13.36795563
_cell_length_c   37.83666300
_cell_angle_alpha   90.00000000
_cell_angle_beta   90.00000000
_cell_angle_gamma   92.65293406
_symmetry_Int_Tables_number   1
_chemical_formula_structural   Ba21(Cd2Sb9)2
_chemical_formula_sum   'Ba84 Cd16 Sb72'
_cell_volume   6754.24960240
_cell_formula_units_Z   4
loop_
 _symmetry_equiv_pos_site_id
 _symmetry_equiv_pos_as_xyz
  1  'x, y, z'
loop_
 _atom_site_type_symbol
 _atom_site_label
 _atom_site_symmetry_multiplicity
 _atom_site_fract_x
 _atom_site_fract_y
 _atom_site_fract_z
 _atom_site_occupancy
  Ba  Ba0  1  0.89548500  0.10451500  0.37781700  1
  Ba  Ba1  1  0.76751400  0.89267100  0.67019100  1
  Ba  Ba2  1  0.56353400  0.75775000  0.32292200  1
  Ba  Ba3  1  0.39267100  0.26751400  0.17019100  1
  Ba  Ba4  1  0.06345900  0.24202400  0.07565900  1
  Ba  Ba5  1  0.32306800  0.00170000  0.53144700  1
  Ba  Ba6  1  0.49830000  0.17693200  0.96855300  1
  Ba  Ba7  1  0.93654100  0.75797600  0.92434100  1
  Ba  Ba8  1  0.48548400  0.26949000  0.27749400  1
  Ba  Ba9  1  0.26751400  0.39267100  0.82980900  1
  Ba  Ba10  1  0.10451500  0.89548500  0.62218300  1
  Ba  Ba11  1  0.75564200  0.24435800  0.54246500  1
  Ba  Ba12  1  0.41171000  0.93992600  0.12909800  1
  Ba  Ba13  1  0.92454600  0.82440100  0.43928100  1
  Ba  Ba14  1  0.24225000  0.43646600  0.32292200  1
  Ba  Ba15  1  0.26900700  0.73099300  0.79610200  1
  Ba  Ba16  1  0.00731900  0.72980300  0.71870400  1
  Ba  Ba17  1  0.25564200  0.74435800  0.95753500  1
  Ba  Ba18  1  0.98809200  0.77310100  0.03907800  1
  Ba  Ba19  1  0.60451500  0.39548500  0.87781700  1
  Ba  Ba20  1  0.74202400  0.56345900  0.57565900  1
  Ba  Ba21  1  0.56007400  0.08829000  0.37090200  1
  Ba  Ba22  1  0.73051000  0.51451600  0.27749400  1
  Ba  Ba23  1  0.27019700  0.99268100  0.71870400  1
  Ba  Ba24  1  0.32440100  0.42454600  0.93928100  1
  Ba  Ba25  1  0.06353400  0.25775000  0.17707800  1
  Ba  Ba26  1  0.74225000  0.93646600  0.17707800  1
  Ba  Ba27  1  0.89267100  0.76751400  0.32980900  1
  Ba  Ba28  1  0.43654100  0.25797600  0.57565900  1
  Ba  Ba29  1  0.98548400  0.76949000  0.22250600  1
  Ba  Ba30  1  0.76900700  0.23099300  0.70389800  1
  Ba  Ba31  1  0.93646600  0.74225000  0.82292200  1
  Ba  Ba32  1  0.72689900  0.51190800  0.46092200  1
  Ba  Ba33  1  0.73099300  0.26900700  0.20389800  1
  Ba  Ba34  1  0.77019700  0.49268100  0.78129600  1
  Ba  Ba35  1  0.43646600  0.24225000  0.67707800  1
  Ba  Ba36  1  0.77310100  0.98809200  0.96092200  1
  Ba  Ba37  1  0.60732900  0.73248600  0.82980900  1
  Ba  Ba38  1  0.51451600  0.73051000  0.72250600  1
  Ba  Ba39  1  0.48809200  0.27310100  0.46092200  1
  Ba  Ba40  1  0.25775000  0.06353400  0.82292200  1
  Ba  Ba41  1  0.23248600  0.10732900  0.32980900  1
  Ba  Ba42  1  0.26949000  0.48548400  0.72250600  1
  Ba  Ba43  1  0.99830000  0.67693200  0.53144700  1
  Ba  Ba44  1  0.17693200  0.49830000  0.03144700  1
  Ba  Ba45  1  0.91171000  0.43992600  0.37090200  1
  Ba  Ba46  1  0.56345900  0.74202400  0.42434100  1
  Ba  Ba47  1  0.24435800  0.75564200  0.45753500  1
  Ba  Ba48  1  0.93992600  0.41171000  0.87090200  1
  Ba  Ba49  1  0.82306800  0.50170000  0.96855300  1
  Ba  Ba50  1  0.01190800  0.22689900  0.96092200  1
  Ba  Ba51  1  0.39548500  0.60451500  0.12218300  1
  Ba  Ba52  1  0.74435800  0.25564200  0.04246500  1
  Ba  Ba53  1  0.75797600  0.93654100  0.07565900  1
  Ba  Ba54  1  0.75775000  0.56353400  0.67707800  1
  Ba  Ba55  1  0.17559900  0.07545400  0.43928100  1
  Ba  Ba56  1  0.10732900  0.23248600  0.67019100  1
  Ba  Ba57  1  0.42454600  0.32440100  0.06071900  1
  Ba  Ba58  1  0.73248600  0.60732900  0.17019100  1
  Ba  Ba59  1  0.24202400  0.06345900  0.92434100  1
  Ba  Ba60  1  0.23099300  0.76900700  0.29610200  1
  Ba  Ba61  1  0.01451600  0.23051000  0.77749400  1
  Ba  Ba62  1  0.00170000  0.32306800  0.46855300  1
  Ba  Ba63  1  0.50170000  0.82306800  0.03144700  1
  Ba  Ba64  1  0.27310100  0.48809200  0.53907800  1
  Ba  Ba65  1  0.82440100  0.92454600  0.56071900  1
  Ba  Ba66  1  0.22980300  0.50731900  0.21870400  1
  Ba  Ba67  1  0.43992600  0.91171000  0.62909800  1
  Ba  Ba68  1  0.23051000  0.01451600  0.22250600  1
  Ba  Ba69  1  0.67693200  0.99830000  0.46855300  1
  Ba  Ba70  1  0.72980300  0.00731900  0.28129600  1
  Ba  Ba71  1  0.50731900  0.22980300  0.78129600  1
  Ba  Ba72  1  0.57545400  0.67559900  0.93928100  1
  Ba  Ba73  1  0.07545400  0.17559900  0.56071900  1
  Ba  Ba74  1  0.67559900  0.57545400  0.06071900  1
  Ba  Ba75  1  0.58829000  0.06007400  0.87090200  1
  Ba  Ba76  1  0.22689900  0.01190800  0.03907800  1
  Ba  Ba77  1  0.51190800  0.72689900  0.53907800  1
  Ba  Ba78  1  0.76949000  0.98548400  0.77749400  1
  Ba  Ba79  1  0.49268100  0.77019700  0.21870400  1
  Ba  Ba80  1  0.99268100  0.27019700  0.28129600  1
  Ba  Ba81  1  0.06007400  0.58829000  0.12909800  1
  Ba  Ba82  1  0.08829000  0.56007400  0.62909800  1
  Ba  Ba83  1  0.25797600  0.43654100  0.42434100  1
  Cd  Cd84  1  0.61139400  0.15235700  0.12692800  1
  Cd  Cd85  1  0.34764300  0.88860600  0.37307200  1
  Cd  Cd86  1  0.49037500  0.50962500  0.35438900  1
  Cd  Cd87  1  0.50962500  0.49037500  0.64561100  1
  Cd  Cd88  1  0.00962500  0.99037500  0.85438900  1
  Cd  Cd89  1  0.88860600  0.34764300  0.62692800  1
  Cd  Cd90  1  0.64847800  0.35152200  0.37307100  1
  Cd  Cd91  1  0.14847800  0.85152200  0.12692900  1
  Cd  Cd92  1  0.15235700  0.61139400  0.87307200  1
  Cd  Cd93  1  0.65235700  0.11139400  0.62692800  1
  Cd  Cd94  1  0.85152200  0.14847800  0.87307100  1
  Cd  Cd95  1  0.38860600  0.84764300  0.87307200  1
  Cd  Cd96  1  0.11139400  0.65235700  0.37307200  1
  Cd  Cd97  1  0.84764300  0.38860600  0.12692800  1
  Cd  Cd98  1  0.99037500  0.00962500  0.14561100  1
  Cd  Cd99  1  0.35152200  0.64847800  0.62692900  1
  Sb  Sb100  1  0.37922600  0.62077400  0.87622800  1
  Sb  Sb101  1  0.46655300  0.92075100  0.94260100  1
  Sb  Sb102  1  0.53523900  0.07114600  0.20092900  1
  Sb  Sb103  1  0.25722300  0.74277700  0.68937600  1
  Sb  Sb104  1  0.02245100  0.97754900  0.28836900  1
  Sb  Sb105  1  0.75444400  0.75444400  0.00000000  1
  Sb  Sb106  1  0.25469800  0.74530200  0.56348100  1
  Sb  Sb107  1  0.19736100  0.07521000  0.13002400  1
  Sb  Sb108  1  0.53344700  0.07924900  0.05739900  1
  Sb  Sb109  1  0.42075100  0.96655300  0.44260100  1
  Sb  Sb110  1  0.24555600  0.24555600  0.00000000  1
  Sb  Sb111  1  0.24277700  0.75722300  0.18937600  1
  Sb  Sb112  1  0.59415700  0.76983700  0.12177600  1
  Sb  Sb113  1  0.75469800  0.24530200  0.93651900  1
  Sb  Sb114  1  0.06956400  0.93043600  0.51593700  1
  Sb  Sb115  1  0.73667600  0.76332400  0.25000000  1
  Sb  Sb116  1  0.96655300  0.42075100  0.55739900  1
  Sb  Sb117  1  0.24530200  0.75469800  0.06348100  1
  Sb  Sb118  1  0.12077400  0.87922600  0.37622800  1
  Sb  Sb119  1  0.23667600  0.26332400  0.25000000  1
  Sb  Sb120  1  0.42479000  0.30263900  0.36997600  1
  Sb  Sb121  1  0.57114600  0.03523900  0.70092900  1
  Sb  Sb122  1  0.23016300  0.40584300  0.12177600  1
  Sb  Sb123  1  0.69736100  0.57521000  0.36997600  1
  Sb  Sb124  1  0.07521000  0.19736100  0.86997600  1
  Sb  Sb125  1  0.92479000  0.80263900  0.13002400  1
  Sb  Sb126  1  0.07924900  0.53344700  0.94260100  1
  Sb  Sb127  1  0.03523900  0.57114600  0.29907100  1
  Sb  Sb128  1  0.45484000  0.54516000  0.47004600  1
  Sb  Sb129  1  0.95484000  0.04516000  0.02995400  1
  Sb  Sb130  1  0.76983700  0.59415700  0.87822400  1
  Sb  Sb131  1  0.54516000  0.45484000  0.52995400  1
  Sb  Sb132  1  0.93043600  0.06956400  0.48406300  1
  Sb  Sb133  1  0.15938000  0.84062000  0.87484000  1
  Sb  Sb134  1  0.57924900  0.03344700  0.55739900  1
  Sb  Sb135  1  0.96476100  0.42885400  0.70092900  1
  Sb  Sb136  1  0.93923500  0.06076500  0.22311200  1
  Sb  Sb137  1  0.75722300  0.24277700  0.81062400  1
  Sb  Sb138  1  0.34062000  0.65938000  0.37484000  1
  Sb  Sb139  1  0.84062000  0.15938000  0.12516000  1
  Sb  Sb140  1  0.06076500  0.93923500  0.77688800  1
  Sb  Sb141  1  0.40584300  0.23016300  0.87822400  1
  Sb  Sb142  1  0.90584300  0.73016300  0.62177600  1
  Sb  Sb143  1  0.52245100  0.47754900  0.21163100  1
  Sb  Sb144  1  0.92885400  0.46476100  0.20092900  1
  Sb  Sb145  1  0.62077400  0.37922600  0.12377200  1
  Sb  Sb146  1  0.74530200  0.25469800  0.43651900  1
  Sb  Sb147  1  0.26332400  0.23667600  0.75000000  1
  Sb  Sb148  1  0.25444400  0.25444400  0.50000000  1
  Sb  Sb149  1  0.04516000  0.95484000  0.97004600  1
  Sb  Sb150  1  0.09415700  0.26983700  0.37822400  1
  Sb  Sb151  1  0.43043600  0.56956400  0.01593700  1
  Sb  Sb152  1  0.74277700  0.25722300  0.31062400  1
  Sb  Sb153  1  0.76332400  0.73667600  0.75000000  1
  Sb  Sb154  1  0.07114600  0.53523900  0.79907100  1
  Sb  Sb155  1  0.26983700  0.09415700  0.62177600  1
  Sb  Sb156  1  0.56956400  0.43043600  0.98406300  1
  Sb  Sb157  1  0.56076500  0.43923500  0.72311200  1
  Sb  Sb158  1  0.92075100  0.46655300  0.05739900  1
  Sb  Sb159  1  0.74555600  0.74555600  0.50000000  1
  Sb  Sb160  1  0.97754900  0.02245100  0.71163100  1
  Sb  Sb161  1  0.42885400  0.96476100  0.29907100  1
  Sb  Sb162  1  0.47754900  0.52245100  0.78836900  1
  Sb  Sb163  1  0.30263900  0.42479000  0.63002400  1
  Sb  Sb164  1  0.03344700  0.57924900  0.44260100  1
  Sb  Sb165  1  0.87922600  0.12077400  0.62377200  1
  Sb  Sb166  1  0.65938000  0.34062000  0.62516000  1
  Sb  Sb167  1  0.73016300  0.90584300  0.37822400  1
  Sb  Sb168  1  0.57521000  0.69736100  0.63002400  1
  Sb  Sb169  1  0.46476100  0.92885400  0.79907100  1
  Sb  Sb170  1  0.43923500  0.56076500  0.27688800  1
  Sb  Sb171  1  0.80263900  0.92479000  0.86997600  1
