# generated using pymatgen
data_Ca5(PPd)6
_symmetry_space_group_name_H-M   'P 1'
_cell_length_a   4.12589100
_cell_length_b   8.26166900
_cell_length_c   19.22560000
_cell_angle_alpha   90.00000000
_cell_angle_beta   90.00000000
_cell_angle_gamma   90.00000000
_symmetry_Int_Tables_number   1
_chemical_formula_structural   Ca5(PPd)6
_chemical_formula_sum   'Ca10 P12 Pd12'
_cell_volume   655.33813952
_cell_formula_units_Z   2
loop_
 _symmetry_equiv_pos_site_id
 _symmetry_equiv_pos_as_xyz
  1  'x, y, z'
loop_
 _atom_site_type_symbol
 _atom_site_label
 _atom_site_symmetry_multiplicity
 _atom_site_fract_x
 _atom_site_fract_y
 _atom_site_fract_z
 _atom_site_occupancy
  Ca  Ca0  1  0.50000000  0.99207900  0.68227800  1
  Ca  Ca1  1  0.00000000  0.00066900  0.12992300  1
  Ca  Ca2  1  0.50000000  0.49207900  0.31772200  1
  Ca  Ca3  1  0.50000000  0.50792100  0.68227800  1
  Ca  Ca4  1  0.00000000  0.99933100  0.87007700  1
  Ca  Ca5  1  0.50000000  0.00792100  0.31772200  1
  Ca  Ca6  1  0.00000000  0.00000000  0.50000000  1
  Ca  Ca7  1  0.00000000  0.49933100  0.12992300  1
  Ca  Ca8  1  0.00000000  0.50066900  0.87007700  1
  Ca  Ca9  1  0.00000000  0.50000000  0.50000000  1
  P  P10  1  0.50000000  0.75000000  0.55828000  1
  P  P11  1  0.00000000  0.75000000  0.25822300  1
  P  P12  1  0.00000000  0.25000000  0.74177700  1
  P  P13  1  0.50000000  0.75000000  0.07517200  1
  P  P14  1  0.00000000  0.25000000  0.25376100  1
  P  P15  1  0.50000000  0.25000000  0.92482800  1
  P  P16  1  0.50000000  0.25000000  0.07232700  1
  P  P17  1  0.50000000  0.75000000  0.92767300  1
  P  P18  1  0.00000000  0.75000000  0.74623900  1
  P  P19  1  0.00000000  0.75000000  0.37307600  1
  P  P20  1  0.00000000  0.25000000  0.62692400  1
  P  P21  1  0.50000000  0.25000000  0.44172000  1
  Pd  Pd22  1  0.00000000  0.75000000  0.62113200  1
  Pd  Pd23  1  0.50000000  0.25000000  0.19376800  1
  Pd  Pd24  1  0.50000000  0.25000000  0.56699200  1
  Pd  Pd25  1  0.00000000  0.25000000  0.37886800  1
  Pd  Pd26  1  0.50000000  0.25000000  0.80193000  1
  Pd  Pd27  1  0.00000000  0.25000000  0.99928000  1
  Pd  Pd28  1  0.50000000  0.75000000  0.80623200  1
  Pd  Pd29  1  0.50000000  0.75000000  0.19807000  1
  Pd  Pd30  1  0.00000000  0.75000000  0.00072000  1
  Pd  Pd31  1  0.50000000  0.00000000  0.00000000  1
  Pd  Pd32  1  0.50000000  0.50000000  0.00000000  1
  Pd  Pd33  1  0.50000000  0.75000000  0.43300800  1
