# generated using pymatgen
data_Re3S4Cl
_symmetry_space_group_name_H-M   'P 1'
_cell_length_a   11.53301700
_cell_length_b   6.46721800
_cell_length_c   10.97738809
_cell_angle_alpha   65.05115052
_cell_angle_beta   90.00000000
_cell_angle_gamma   90.00000000
_symmetry_Int_Tables_number   1
_chemical_formula_structural   Re3S4Cl
_chemical_formula_sum   'Re12 S16 Cl4'
_cell_volume   742.36202181
_cell_formula_units_Z   4
loop_
 _symmetry_equiv_pos_site_id
 _symmetry_equiv_pos_as_xyz
  1  'x, y, z'
loop_
 _atom_site_type_symbol
 _atom_site_label
 _atom_site_symmetry_multiplicity
 _atom_site_fract_x
 _atom_site_fract_y
 _atom_site_fract_z
 _atom_site_occupancy
  Re  Re0  1  0.97805500  0.31157400  0.93470200  1
  Re  Re1  1  0.02194500  0.68842600  0.06529800  1
  Re  Re2  1  0.35313300  0.03103600  0.56149900  1
  Re  Re3  1  0.06615700  0.03832300  0.83707100  1
  Re  Re4  1  0.56615700  0.96167700  0.66292900  1
  Re  Re5  1  0.14686700  0.03103600  0.06149900  1
  Re  Re6  1  0.64686700  0.96896400  0.43850100  1
  Re  Re7  1  0.43384300  0.03832300  0.33707100  1
  Re  Re8  1  0.93384300  0.96167700  0.16292900  1
  Re  Re9  1  0.85313300  0.96896400  0.93850100  1
  Re  Re10  1  0.52194500  0.31157400  0.43470200  1
  Re  Re11  1  0.47805500  0.68842600  0.56529800  1
  S  S12  1  0.82799400  0.64940400  0.15476200  1
  S  S13  1  0.40708900  0.70401900  0.76621300  1
  S  S14  1  0.55884800  0.73491800  0.33942600  1
  S  S15  1  0.09291100  0.70401900  0.26621300  1
  S  S16  1  0.32799400  0.35059600  0.34523800  1
  S  S17  1  0.90708900  0.29598100  0.73378700  1
  S  S18  1  0.71392200  0.22428800  0.52967300  1
  S  S19  1  0.67200600  0.64940400  0.65476200  1
  S  S20  1  0.78607800  0.22428800  0.02967300  1
  S  S21  1  0.28607800  0.77571200  0.47032700  1
  S  S22  1  0.59291100  0.29598100  0.23378700  1
  S  S23  1  0.94115200  0.73491800  0.83942600  1
  S  S24  1  0.17200600  0.35059600  0.84523800  1
  S  S25  1  0.05884800  0.26508200  0.16057400  1
  S  S26  1  0.44115200  0.26508200  0.66057400  1
  S  S27  1  0.21392200  0.77571200  0.97032700  1
  Cl  Cl28  1  0.85323000  0.90450200  0.38630400  1
  Cl  Cl29  1  0.14677000  0.09549800  0.61369600  1
  Cl  Cl30  1  0.35323000  0.09549800  0.11369600  1
  Cl  Cl31  1  0.64677000  0.90450200  0.88630400  1
