# generated using pymatgen
data_YAl3(BO3)4
_symmetry_space_group_name_H-M   'P 1'
_cell_length_a   5.93059769
_cell_length_b   5.93059769
_cell_length_c   5.93059730
_cell_angle_alpha   104.28063699
_cell_angle_beta   104.28063699
_cell_angle_gamma   104.28064672
_symmetry_Int_Tables_number   1
_chemical_formula_structural   YAl3(BO3)4
_chemical_formula_sum   'Y1 Al3 B4 O12'
_cell_volume   185.09913093
_cell_formula_units_Z   1
loop_
 _symmetry_equiv_pos_site_id
 _symmetry_equiv_pos_as_xyz
  1  'x, y, z'
loop_
 _atom_site_type_symbol
 _atom_site_label
 _atom_site_symmetry_multiplicity
 _atom_site_fract_x
 _atom_site_fract_y
 _atom_site_fract_z
 _atom_site_occupancy
  Y  Y0  1  0.00000000  0.00000000  0.00000000  1
  Al  Al1  1  0.00000000  0.44479600  0.55520400  1
  Al  Al2  1  0.55520400  0.00000000  0.44479600  1
  Al  Al3  1  0.44479600  0.55520400  0.00000000  1
  B  B4  1  0.50000000  0.05652300  0.94347700  1
  B  B5  1  0.94347700  0.50000000  0.05652300  1
  B  B6  1  0.05652300  0.94347700  0.50000000  1
  B  B7  1  0.50000000  0.50000000  0.50000000  1
  O  O8  1  0.37231200  0.22065500  0.97175400  1
  O  O9  1  0.02824600  0.77934500  0.62768800  1
  O  O10  1  0.77934500  0.62768800  0.02824600  1
  O  O11  1  0.62768800  0.02824600  0.77934500  1
  O  O12  1  0.64863700  0.35136300  0.50000000  1
  O  O13  1  0.35136300  0.50000000  0.64863700  1
  O  O14  1  0.50000000  0.64863700  0.35136300  1
  O  O15  1  0.90820800  0.09179200  0.50000000  1
  O  O16  1  0.09179200  0.50000000  0.90820800  1
  O  O17  1  0.50000000  0.90820800  0.09179200  1
  O  O18  1  0.22065500  0.97175400  0.37231200  1
  O  O19  1  0.97175400  0.37231200  0.22065500  1
