# generated using pymatgen
data_NaSn4(PO4)3
_symmetry_space_group_name_H-M   'P 1'
_cell_length_a   10.06075409
_cell_length_b   10.06075409
_cell_length_c   10.06075435
_cell_angle_alpha   58.67374348
_cell_angle_beta   58.67374348
_cell_angle_gamma   58.67374828
_symmetry_Int_Tables_number   1
_chemical_formula_structural   NaSn4(PO4)3
_chemical_formula_sum   'Na2 Sn8 P6 O24'
_cell_volume   698.24812839
_cell_formula_units_Z   2
loop_
 _symmetry_equiv_pos_site_id
 _symmetry_equiv_pos_as_xyz
  1  'x, y, z'
loop_
 _atom_site_type_symbol
 _atom_site_label
 _atom_site_symmetry_multiplicity
 _atom_site_fract_x
 _atom_site_fract_y
 _atom_site_fract_z
 _atom_site_occupancy
  Na  Na0  1  0.66130600  0.66130600  0.66130600  1
  Na  Na1  1  0.16130600  0.16130600  0.16130600  1
  Sn  Sn2  1  0.87528400  0.74343000  0.20886400  1
  Sn  Sn3  1  0.74343000  0.20886400  0.87528400  1
  Sn  Sn4  1  0.20886400  0.87528400  0.74343000  1
  Sn  Sn5  1  0.24343000  0.37528400  0.70886400  1
  Sn  Sn6  1  0.70886400  0.24343000  0.37528400  1
  Sn  Sn7  1  0.37528400  0.70886400  0.24343000  1
  Sn  Sn8  1  0.31043400  0.31043400  0.31043400  1
  Sn  Sn9  1  0.81043400  0.81043400  0.81043400  1
  P  P10  1  0.44960700  0.90976700  0.34929500  1
  P  P11  1  0.90976700  0.34929500  0.44960700  1
  P  P12  1  0.34929500  0.44960700  0.90976700  1
  P  P13  1  0.84929500  0.40976700  0.94960700  1
  P  P14  1  0.94960700  0.84929500  0.40976700  1
  P  P15  1  0.40976700  0.94960700  0.84929500  1
  O  O16  1  0.11871400  0.76587300  0.29563000  1
  O  O17  1  0.61871400  0.79563000  0.26587300  1
  O  O18  1  0.85464300  0.37900100  0.80955100  1
  O  O19  1  0.80955100  0.85464300  0.37900100  1
  O  O20  1  0.37900100  0.80955100  0.85464300  1
  O  O21  1  0.35464300  0.30955100  0.87900100  1
  O  O22  1  0.87900100  0.35464300  0.30955100  1
  O  O23  1  0.30955100  0.87900100  0.35464300  1
  O  O24  1  0.09404500  0.24413900  0.43602800  1
  O  O25  1  0.43602800  0.09404500  0.24413900  1
  O  O26  1  0.24413900  0.43602800  0.09404500  1
  O  O27  1  0.59404500  0.93602800  0.74413900  1
  O  O28  1  0.26587300  0.61871400  0.79563000  1
  O  O29  1  0.93602800  0.74413900  0.59404500  1
  O  O30  1  0.36940300  0.93130400  0.02851500  1
  O  O31  1  0.93130400  0.02851500  0.36940300  1
  O  O32  1  0.02851500  0.36940300  0.93130400  1
  O  O33  1  0.43130400  0.86940300  0.52851500  1
  O  O34  1  0.86940300  0.52851500  0.43130400  1
  O  O35  1  0.52851500  0.43130400  0.86940300  1
  O  O36  1  0.74413900  0.59404500  0.93602800  1
  O  O37  1  0.76587300  0.29563000  0.11871400  1
  O  O38  1  0.29563000  0.11871400  0.76587300  1
  O  O39  1  0.79563000  0.26587300  0.61871400  1
