# generated using pymatgen
data_Pr3(Ge3Pt2)2
_symmetry_space_group_name_H-M   'P 1'
_cell_length_a   4.49545000
_cell_length_b   9.01779300
_cell_length_c   26.63358800
_cell_angle_alpha   90.00000000
_cell_angle_beta   90.00000000
_cell_angle_gamma   90.00000000
_symmetry_Int_Tables_number   1
_chemical_formula_structural   Pr3(Ge3Pt2)2
_chemical_formula_sum   'Pr12 Ge24 Pt16'
_cell_volume   1079.70002381
_cell_formula_units_Z   4
loop_
 _symmetry_equiv_pos_site_id
 _symmetry_equiv_pos_as_xyz
  1  'x, y, z'
loop_
 _atom_site_type_symbol
 _atom_site_label
 _atom_site_symmetry_multiplicity
 _atom_site_fract_x
 _atom_site_fract_y
 _atom_site_fract_z
 _atom_site_occupancy
  Pr  Pr0  1  0.25000000  0.87503100  0.72087900  1
  Pr  Pr1  1  0.75000000  0.88289500  0.40779300  1
  Pr  Pr2  1  0.25000000  0.38289500  0.09220700  1
  Pr  Pr3  1  0.75000000  0.61710500  0.90779300  1
  Pr  Pr4  1  0.75000000  0.36794400  0.40755900  1
  Pr  Pr5  1  0.75000000  0.12496900  0.27912100  1
  Pr  Pr6  1  0.25000000  0.11710500  0.59220700  1
  Pr  Pr7  1  0.25000000  0.63205600  0.59244100  1
  Pr  Pr8  1  0.25000000  0.86794400  0.09244100  1
  Pr  Pr9  1  0.75000000  0.37503100  0.77912100  1
  Pr  Pr10  1  0.25000000  0.62496900  0.22087900  1
  Pr  Pr11  1  0.75000000  0.13205600  0.90755900  1
  Ge  Ge12  1  0.75000000  0.87618300  0.99852000  1
  Ge  Ge13  1  0.25000000  0.62769100  0.35837400  1
  Ge  Ge14  1  0.25000000  0.12729100  0.36167900  1
  Ge  Ge15  1  0.25000000  0.27248000  0.21441700  1
  Ge  Ge16  1  0.75000000  0.87270900  0.63832100  1
  Ge  Ge17  1  0.75000000  0.77248000  0.28558300  1
  Ge  Ge18  1  0.75000000  0.47682300  0.28522200  1
  Ge  Ge19  1  0.25000000  0.37618300  0.50148000  1
  Ge  Ge20  1  0.25000000  0.62933600  0.99806500  1
  Ge  Ge21  1  0.25000000  0.97682300  0.21477800  1
  Ge  Ge22  1  0.75000000  0.02317700  0.78522200  1
  Ge  Ge23  1  0.25000000  0.12381700  0.00148000  1
  Ge  Ge24  1  0.75000000  0.62729100  0.13832100  1
  Ge  Ge25  1  0.25000000  0.87230900  0.85837400  1
  Ge  Ge26  1  0.25000000  0.87066400  0.49806500  1
  Ge  Ge27  1  0.75000000  0.12933600  0.50193500  1
  Ge  Ge28  1  0.75000000  0.12769100  0.14162600  1
  Ge  Ge29  1  0.75000000  0.62381700  0.49852000  1
  Ge  Ge30  1  0.75000000  0.72752000  0.78558300  1
  Ge  Ge31  1  0.25000000  0.37270900  0.86167900  1
  Ge  Ge32  1  0.25000000  0.22752000  0.71441700  1
  Ge  Ge33  1  0.75000000  0.37066400  0.00193500  1
  Ge  Ge34  1  0.75000000  0.37230900  0.64162600  1
  Ge  Ge35  1  0.25000000  0.52317700  0.71477800  1
  Pt  Pt36  1  0.75000000  0.87536400  0.18710100  1
  Pt  Pt37  1  0.25000000  0.12759400  0.45619100  1
  Pt  Pt38  1  0.75000000  0.87240600  0.54380900  1
  Pt  Pt39  1  0.25000000  0.12463600  0.81289900  1
  Pt  Pt40  1  0.75000000  0.37813500  0.54809700  1
  Pt  Pt41  1  0.75000000  0.37571600  0.18720600  1
  Pt  Pt42  1  0.25000000  0.37536400  0.31289900  1
  Pt  Pt43  1  0.75000000  0.12428400  0.68720600  1
  Pt  Pt44  1  0.25000000  0.87571600  0.31279400  1
  Pt  Pt45  1  0.75000000  0.62463600  0.68710100  1
  Pt  Pt46  1  0.75000000  0.12186500  0.04809700  1
  Pt  Pt47  1  0.25000000  0.62186500  0.45190300  1
  Pt  Pt48  1  0.25000000  0.62428400  0.81279400  1
  Pt  Pt49  1  0.25000000  0.37240600  0.95619100  1
  Pt  Pt50  1  0.75000000  0.62759400  0.04380900  1
  Pt  Pt51  1  0.25000000  0.87813500  0.95190300  1
