# generated using pymatgen
data_OsPbO3
_symmetry_space_group_name_H-M   'P 1'
_cell_length_a   7.36728898
_cell_length_b   7.36728898
_cell_length_c   7.36728898
_cell_angle_alpha   60.00000000
_cell_angle_beta   60.00000000
_cell_angle_gamma   60.00000000
_symmetry_Int_Tables_number   1
_chemical_formula_structural   OsPbO3
_chemical_formula_sum   'Os4 Pb4 O12'
_cell_volume   282.75358423
_cell_formula_units_Z   4
loop_
 _symmetry_equiv_pos_site_id
 _symmetry_equiv_pos_as_xyz
  1  'x, y, z'
loop_
 _atom_site_type_symbol
 _atom_site_label
 _atom_site_symmetry_multiplicity
 _atom_site_fract_x
 _atom_site_fract_y
 _atom_site_fract_z
 _atom_site_occupancy
  Os  Os0  1  0.12500000  0.12500000  0.12500000  1
  Os  Os1  1  0.62500000  0.12500000  0.12500000  1
  Os  Os2  1  0.12500000  0.12500000  0.62500000  1
  Os  Os3  1  0.12500000  0.62500000  0.12500000  1
  Pb  Pb4  1  0.62500000  0.62500000  0.62500000  1
  Pb  Pb5  1  0.12500000  0.62500000  0.62500000  1
  Pb  Pb6  1  0.62500000  0.12500000  0.62500000  1
  Pb  Pb7  1  0.62500000  0.62500000  0.12500000  1
  O  O8  1  0.44399600  0.05600400  0.05600400  1
  O  O9  1  0.05600400  0.44399600  0.44399600  1
  O  O10  1  0.44399600  0.05600400  0.44399600  1
  O  O11  1  0.05600400  0.05600400  0.44399600  1
  O  O12  1  0.19399600  0.80600400  0.80600400  1
  O  O13  1  0.80600400  0.80600400  0.19399600  1
  O  O14  1  0.05600400  0.44399600  0.05600400  1
  O  O15  1  0.80600400  0.19399600  0.19399600  1
  O  O16  1  0.19399600  0.80600400  0.19399600  1
  O  O17  1  0.19399600  0.19399600  0.80600400  1
  O  O18  1  0.44399600  0.44399600  0.05600400  1
  O  O19  1  0.80600400  0.19399600  0.80600400  1
