# generated using pymatgen
data_KCe2CuSe6
_symmetry_space_group_name_H-M   'P 1'
_cell_length_a   22.96678271
_cell_length_b   22.60704529
_cell_length_c   7.10960736
_cell_angle_alpha   83.90128182
_cell_angle_beta   78.17151252
_cell_angle_gamma   17.92720567
_symmetry_Int_Tables_number   1
_chemical_formula_structural   KCe2CuSe6
_chemical_formula_sum   'K4 Ce8 Cu4 Se24'
_cell_volume   1062.71932182
_cell_formula_units_Z   4
loop_
 _symmetry_equiv_pos_site_id
 _symmetry_equiv_pos_as_xyz
  1  'x, y, z'
loop_
 _atom_site_type_symbol
 _atom_site_label
 _atom_site_symmetry_multiplicity
 _atom_site_fract_x
 _atom_site_fract_y
 _atom_site_fract_z
 _atom_site_occupancy
  K  K0  1  0.99757900  0.50242100  0.50242100  1
  K  K1  1  0.74757900  0.25242100  0.25242100  1
  K  K2  1  0.25242100  0.74757900  0.74757900  1
  K  K3  1  0.50242100  0.99757900  0.99757900  1
  Ce  Ce4  1  0.66213900  0.66213900  0.33786100  1
  Ce  Ce5  1  0.83755900  0.83755900  0.16244100  1
  Ce  Ce6  1  0.08755900  0.08755900  0.41244100  1
  Ce  Ce7  1  0.41244100  0.41244100  0.08755900  1
  Ce  Ce8  1  0.91213900  0.91213900  0.58786200  1
  Ce  Ce9  1  0.16244100  0.16244100  0.83755900  1
  Ce  Ce10  1  0.33786100  0.33786100  0.66213900  1
  Ce  Ce11  1  0.58786100  0.58786100  0.91213900  1
  Cu  Cu12  1  0.16339900  0.16339900  0.33660100  1
  Cu  Cu13  1  0.08660100  0.08660100  0.91339900  1
  Cu  Cu14  1  0.91339900  0.91339900  0.08660100  1
  Cu  Cu15  1  0.33660100  0.33660100  0.16339900  1
  Se  Se16  1  0.36461700  0.86393900  0.63885200  1
  Se  Se17  1  0.44391800  0.66496400  0.33417300  1
  Se  Se18  1  0.15301300  0.44490500  0.05297400  1
  Se  Se19  1  0.34910800  0.05297400  0.44490500  1
  Se  Se20  1  0.09698700  0.80509500  0.19702600  1
  Se  Se21  1  0.63885200  0.13259100  0.36461700  1
  Se  Se22  1  0.69305400  0.91582700  0.58503600  1
  Se  Se23  1  0.90089200  0.19702600  0.80509500  1
  Se  Se24  1  0.11740900  0.61114800  0.38606100  1
  Se  Se25  1  0.55694600  0.33417300  0.66496400  1
  Se  Se26  1  0.80608200  0.58503600  0.91582700  1
  Se  Se27  1  0.44490500  0.15301300  0.34910800  1
  Se  Se28  1  0.91582700  0.69305400  0.80608200  1
  Se  Se29  1  0.38606100  0.88538300  0.11740900  1
  Se  Se30  1  0.86393900  0.36461700  0.13259100  1
  Se  Se31  1  0.19702600  0.90089200  0.09698700  1
  Se  Se32  1  0.58503600  0.80608200  0.69305400  1
  Se  Se33  1  0.66496400  0.44391800  0.55694600  1
  Se  Se34  1  0.13259100  0.63885200  0.86393900  1
  Se  Se35  1  0.61114800  0.11740900  0.88538300  1
  Se  Se36  1  0.88538300  0.38606100  0.61114800  1
  Se  Se37  1  0.80509500  0.09698700  0.90089200  1
  Se  Se38  1  0.05297400  0.34910800  0.15301300  1
  Se  Se39  1  0.33417300  0.55694600  0.44391800  1
