# generated using pymatgen
data_Ni2RhS4
_symmetry_space_group_name_H-M   'P 1'
_cell_length_a   6.79262863
_cell_length_b   6.79262863
_cell_length_c   6.79262863
_cell_angle_alpha   120.18826698
_cell_angle_beta   119.65042526
_cell_angle_gamma   90.14038304
_symmetry_Int_Tables_number   1
_chemical_formula_structural   Ni2RhS4
_chemical_formula_sum   'Ni4 Rh2 S8'
_cell_volume   221.87808034
_cell_formula_units_Z   2
loop_
 _symmetry_equiv_pos_site_id
 _symmetry_equiv_pos_as_xyz
  1  'x, y, z'
loop_
 _atom_site_type_symbol
 _atom_site_label
 _atom_site_symmetry_multiplicity
 _atom_site_fract_x
 _atom_site_fract_y
 _atom_site_fract_z
 _atom_site_occupancy
  Ni  Ni0  1  0.87596700  0.12596700  0.75000000  1
  Ni  Ni1  1  0.12403300  0.87403300  0.25000000  1
  Ni  Ni2  1  0.50000000  0.00000000  0.00000000  1
  Ni  Ni3  1  0.50000000  0.50000000  0.50000000  1
  Rh  Rh4  1  0.50000000  0.50000000  0.00000000  1
  Rh  Rh5  1  0.00000000  0.50000000  0.50000000  1
  S  S6  1  0.26064700  0.75152400  0.99087700  1
  S  S7  1  0.73025800  0.74736900  0.98288900  1
  S  S8  1  0.26064700  0.26977000  0.50912300  1
  S  S9  1  0.26448000  0.74736900  0.51711100  1
  S  S10  1  0.73552000  0.25263100  0.48288900  1
  S  S11  1  0.26974200  0.25263100  0.01711100  1
  S  S12  1  0.73935300  0.73023000  0.49087700  1
  S  S13  1  0.73935300  0.24847600  0.00912300  1
