# generated using pymatgen
data_Ba3(H6Ir)2
_symmetry_space_group_name_H-M   'P 1'
_cell_length_a   5.53461372
_cell_length_b   5.53461372
_cell_length_c   8.93821800
_cell_angle_alpha   90.00000000
_cell_angle_beta   90.00000000
_cell_angle_gamma   119.99999664
_symmetry_Int_Tables_number   1
_chemical_formula_structural   Ba3(H6Ir)2
_chemical_formula_sum   'Ba3 H12 Ir2'
_cell_volume   237.11346646
_cell_formula_units_Z   1
loop_
 _symmetry_equiv_pos_site_id
 _symmetry_equiv_pos_as_xyz
  1  'x, y, z'
loop_
 _atom_site_type_symbol
 _atom_site_label
 _atom_site_symmetry_multiplicity
 _atom_site_fract_x
 _atom_site_fract_y
 _atom_site_fract_z
 _atom_site_occupancy
  Ba  Ba0  1  0.00000000  0.00000000  0.00000000  1
  Ba  Ba1  1  0.66666700  0.33333300  0.35739700  1
  Ba  Ba2  1  0.33333300  0.66666700  0.64260300  1
  H  H3  1  0.18739400  0.81260600  0.34858400  1
  H  H4  1  0.62521200  0.81260600  0.34858400  1
  H  H5  1  0.18739400  0.37478800  0.34858400  1
  H  H6  1  0.81260600  0.18739400  0.65141600  1
  H  H7  1  0.37478800  0.18739400  0.65141600  1
  H  H8  1  0.81260600  0.62521200  0.65141600  1
  H  H9  1  0.52741500  0.05483000  0.87233500  1
  H  H10  1  0.52741500  0.47258500  0.87233500  1
  H  H11  1  0.94517000  0.47258500  0.87233500  1
  H  H12  1  0.47258500  0.94517000  0.12766500  1
  H  H13  1  0.47258500  0.52741500  0.12766500  1
  H  H14  1  0.05483000  0.52741500  0.12766500  1
  Ir  Ir15  1  0.66666700  0.33333300  0.75899100  1
  Ir  Ir16  1  0.33333300  0.66666700  0.24100900  1
