# generated using pymatgen
data_Ga2I3
_symmetry_space_group_name_H-M   'P 1'
_cell_length_a   8.81433100
_cell_length_b   7.75510700
_cell_length_c   13.70591350
_cell_angle_alpha   56.92721345
_cell_angle_beta   90.00000000
_cell_angle_gamma   90.00000000
_symmetry_Int_Tables_number   1
_chemical_formula_structural   Ga2I3
_chemical_formula_sum   'Ga8 I12'
_cell_volume   785.08694169
_cell_formula_units_Z   4
loop_
 _symmetry_equiv_pos_site_id
 _symmetry_equiv_pos_as_xyz
  1  'x, y, z'
loop_
 _atom_site_type_symbol
 _atom_site_label
 _atom_site_symmetry_multiplicity
 _atom_site_fract_x
 _atom_site_fract_y
 _atom_site_fract_z
 _atom_site_occupancy
  Ga  Ga0  1  0.59715100  0.87316600  0.55767800  1
  Ga  Ga1  1  0.87181300  0.22205900  0.23146700  1
  Ga  Ga2  1  0.37181300  0.77794100  0.26853300  1
  Ga  Ga3  1  0.90284900  0.87316600  0.05767800  1
  Ga  Ga4  1  0.09715100  0.12683400  0.94232200  1
  Ga  Ga5  1  0.12818700  0.77794100  0.76853300  1
  Ga  Ga6  1  0.62818700  0.22205900  0.73146700  1
  Ga  Ga7  1  0.40284900  0.12683400  0.44232200  1
  I  I8  1  0.00860600  0.58841300  0.26513300  1
  I  I9  1  0.50860600  0.41158700  0.23486700  1
  I  I10  1  0.30059800  0.31057400  0.54399500  1
  I  I11  1  0.19940200  0.31057400  0.04399500  1
  I  I12  1  0.49139400  0.58841300  0.76513300  1
  I  I13  1  0.66997900  0.06433400  0.08088900  1
  I  I14  1  0.99139400  0.41158700  0.73486700  1
  I  I15  1  0.16997900  0.93566600  0.41911100  1
  I  I16  1  0.83002100  0.06433400  0.58088900  1
  I  I17  1  0.69940200  0.68942600  0.45600500  1
  I  I18  1  0.80059800  0.68942600  0.95600500  1
  I  I19  1  0.33002100  0.93566600  0.91911100  1
