# generated using pymatgen
data_GaHO2
_symmetry_space_group_name_H-M   'P 1'
_cell_length_a   3.01672100
_cell_length_b   4.56777000
_cell_length_c   9.92279100
_cell_angle_alpha   90.00000000
_cell_angle_beta   90.00000000
_cell_angle_gamma   90.00000000
_symmetry_Int_Tables_number   1
_chemical_formula_structural   GaHO2
_chemical_formula_sum   'Ga4 H4 O8'
_cell_volume   136.73296092
_cell_formula_units_Z   4
loop_
 _symmetry_equiv_pos_site_id
 _symmetry_equiv_pos_as_xyz
  1  'x, y, z'
loop_
 _atom_site_type_symbol
 _atom_site_label
 _atom_site_symmetry_multiplicity
 _atom_site_fract_x
 _atom_site_fract_y
 _atom_site_fract_z
 _atom_site_occupancy
  Ga  Ga0  1  0.25000000  0.44869900  0.35503800  1
  Ga  Ga1  1  0.25000000  0.05130100  0.85503800  1
  Ga  Ga2  1  0.75000000  0.55130100  0.64496200  1
  Ga  Ga3  1  0.75000000  0.94869900  0.14496200  1
  H  H4  1  0.25000000  0.09463100  0.58795300  1
  H  H5  1  0.25000000  0.40536900  0.08795300  1
  H  H6  1  0.75000000  0.90536900  0.41204700  1
  H  H7  1  0.75000000  0.59463100  0.91204700  1
  O  O8  1  0.25000000  0.80056300  0.69416700  1
  O  O9  1  0.25000000  0.69943700  0.19416700  1
  O  O10  1  0.75000000  0.19943700  0.30583300  1
  O  O11  1  0.75000000  0.30056300  0.80583300  1
  O  O12  1  0.25000000  0.30439700  0.55516500  1
  O  O13  1  0.25000000  0.19560300  0.05516500  1
  O  O14  1  0.75000000  0.69560300  0.44483500  1
  O  O15  1  0.75000000  0.80439700  0.94483500  1
