# generated using pymatgen
data_Gd(PRu)2
_symmetry_space_group_name_H-M   'P 1'
_cell_length_a   5.62505097
_cell_length_b   5.62505097
_cell_length_c   5.62505097
_cell_angle_alpha   137.58640082
_cell_angle_beta   137.58640082
_cell_angle_gamma   61.53703896
_symmetry_Int_Tables_number   1
_chemical_formula_structural   Gd(PRu)2
_chemical_formula_sum   'Gd1 P2 Ru2'
_cell_volume   80.04532845
_cell_formula_units_Z   1
loop_
 _symmetry_equiv_pos_site_id
 _symmetry_equiv_pos_as_xyz
  1  'x, y, z'
loop_
 _atom_site_type_symbol
 _atom_site_label
 _atom_site_symmetry_multiplicity
 _atom_site_fract_x
 _atom_site_fract_y
 _atom_site_fract_z
 _atom_site_occupancy
  Gd  Gd0  1  0.00000000  0.00000000  0.00000000  1
  P  P1  1  0.37337000  0.37337000  0.00000000  1
  P  P2  1  0.62663000  0.62663000  0.00000000  1
  Ru  Ru3  1  0.25000000  0.75000000  0.50000000  1
  Ru  Ru4  1  0.75000000  0.25000000  0.50000000  1
