# generated using pymatgen
data_Ca3Hf2Fe2SiO12
_symmetry_space_group_name_H-M   'P 1'
_cell_length_a   10.99890311
_cell_length_b   10.99890311
_cell_length_c   10.99890311
_cell_angle_alpha   109.03564341
_cell_angle_beta   109.03564341
_cell_angle_gamma   110.34593202
_symmetry_Int_Tables_number   1
_chemical_formula_structural   Ca3Hf2Fe2SiO12
_chemical_formula_sum   'Ca12 Hf8 Fe8 Si4 O48'
_cell_volume   1024.11843199
_cell_formula_units_Z   4
loop_
 _symmetry_equiv_pos_site_id
 _symmetry_equiv_pos_as_xyz
  1  'x, y, z'
loop_
 _atom_site_type_symbol
 _atom_site_label
 _atom_site_symmetry_multiplicity
 _atom_site_fract_x
 _atom_site_fract_y
 _atom_site_fract_z
 _atom_site_occupancy
  Ca  Ca0  1  0.37500000  0.74934300  0.87434300  1
  Ca  Ca1  1  0.25000000  0.25000000  0.00000000  1
  Ca  Ca2  1  0.99934300  0.62500000  0.87434300  1
  Ca  Ca3  1  0.75065700  0.12500000  0.12565700  1
  Ca  Ca4  1  0.37500000  0.24934300  0.37434300  1
  Ca  Ca5  1  0.75000000  0.75000000  0.00000000  1
  Ca  Ca6  1  0.50000000  0.00000000  0.50000000  1
  Ca  Ca7  1  0.87500000  0.50065700  0.12565700  1
  Ca  Ca8  1  0.49934300  0.62500000  0.37434300  1
  Ca  Ca9  1  0.25065700  0.12500000  0.62565700  1
  Ca  Ca10  1  0.00000000  0.50000000  0.50000000  1
  Ca  Ca11  1  0.87500000  0.00065700  0.62565700  1
  Hf  Hf12  1  0.12500000  0.87500000  0.75000000  1
  Hf  Hf13  1  0.62500000  0.87500000  0.75000000  1
  Hf  Hf14  1  0.12500000  0.37500000  0.75000000  1
  Hf  Hf15  1  0.62500000  0.37500000  0.75000000  1
  Hf  Hf16  1  0.12500000  0.87500000  0.25000000  1
  Hf  Hf17  1  0.62500000  0.87500000  0.25000000  1
  Hf  Hf18  1  0.12500000  0.37500000  0.25000000  1
  Hf  Hf19  1  0.62500000  0.37500000  0.25000000  1
  Fe  Fe20  1  0.50068100  0.12500000  0.87568100  1
  Fe  Fe21  1  0.87500000  0.25068100  0.87568100  1
  Fe  Fe22  1  0.37500000  0.99931900  0.12431900  1
  Fe  Fe23  1  0.24931900  0.62500000  0.12431900  1
  Fe  Fe24  1  0.00068100  0.12500000  0.37568100  1
  Fe  Fe25  1  0.87500000  0.75068100  0.37568100  1
  Fe  Fe26  1  0.37500000  0.49931900  0.62431900  1
  Fe  Fe27  1  0.74931900  0.62500000  0.62431900  1
  Si  Si28  1  0.00000000  0.00000000  0.00000000  1
  Si  Si29  1  0.50000000  0.50000000  0.00000000  1
  Si  Si30  1  0.75000000  0.25000000  0.50000000  1
  Si  Si31  1  0.25000000  0.75000000  0.50000000  1
  O  O32  1  0.32571200  0.37744900  0.86368900  1
  O  O33  1  0.54777600  0.97417300  0.87548200  1
  O  O34  1  0.53144600  0.69574300  0.78019800  1
  O  O35  1  0.30425700  0.08445500  0.83570300  1
  O  O36  1  0.03144600  0.25124800  0.83570300  1
  O  O37  1  0.03797700  0.98624000  0.86368900  1
  O  O38  1  0.22417300  0.84869100  0.92639800  1
  O  O39  1  0.41554500  0.19574300  0.16429700  1
  O  O40  1  0.52582700  0.95222400  0.12451800  1
  O  O41  1  0.53797700  0.67428800  0.05173700  1
  O  O42  1  0.92229400  0.29777600  0.07360200  1
  O  O43  1  0.74875200  0.58445500  0.78019800  1
  O  O44  1  0.20222400  0.57770600  0.92639800  1
  O  O45  1  0.82571200  0.96202300  0.94826300  1
  O  O46  1  0.12255100  0.17428800  0.13631100  1
  O  O47  1  0.65130900  0.27582700  0.07360200  1
  O  O48  1  0.01376000  0.87744900  0.05173700  1
  O  O49  1  0.82770600  0.40130900  0.87548200  1
  O  O50  1  0.51376000  0.46202300  0.13631100  1
  O  O51  1  0.33445500  0.99875200  0.28019800  1
  O  O52  1  0.44574300  0.78144600  0.28019800  1
  O  O53  1  0.09869100  0.67229400  0.12451800  1
  O  O54  1  0.00124800  0.28144600  0.33570300  1
  O  O55  1  0.62255100  0.48624000  0.94826300  1
  O  O56  1  0.24875200  0.46855400  0.16429700  1
  O  O57  1  0.62744900  0.26376000  0.55173700  1
  O  O58  1  0.15130900  0.07770600  0.37548200  1
  O  O59  1  0.80425700  0.96855400  0.21980200  1
  O  O60  1  0.91554500  0.75124800  0.21980200  1
  O  O61  1  0.73624000  0.28797700  0.36368900  1
  O  O62  1  0.42229400  0.34869100  0.62451800  1
  O  O63  1  0.23624000  0.87255100  0.44826300  1
  O  O64  1  0.59869100  0.47417300  0.42639800  1
  O  O65  1  0.12744900  0.57571200  0.36368900  1
  O  O66  1  0.42428800  0.78797700  0.55173700  1
  O  O67  1  0.04777600  0.17229400  0.57360200  1
  O  O68  1  0.50124800  0.16554500  0.71980200  1
  O  O69  1  0.32770600  0.45222400  0.42639800  1
  O  O70  1  0.71202300  0.07571200  0.44826300  1
  O  O71  1  0.72417300  0.79777600  0.37548200  1
  O  O72  1  0.83445500  0.55425700  0.33570300  1
  O  O73  1  0.02582700  0.90130900  0.57360200  1
  O  O74  1  0.21202300  0.76376000  0.63631100  1
  O  O75  1  0.21855400  0.49875200  0.66429700  1
  O  O76  1  0.94574300  0.66554500  0.66429700  1
  O  O77  1  0.71855400  0.05425700  0.71980200  1
  O  O78  1  0.70222400  0.77582700  0.62451800  1
  O  O79  1  0.92428800  0.37255100  0.63631100  1
