# generated using pymatgen
data_Sm2Ga9Ru5
_symmetry_space_group_name_H-M   'P 1'
_cell_length_a   8.12472456
_cell_length_b   8.12472456
_cell_length_c   8.12472456
_cell_angle_alpha   134.99612975
_cell_angle_beta   134.99612975
_cell_angle_gamma   65.53621304
_symmetry_Int_Tables_number   1
_chemical_formula_structural   Sm2Ga9Ru5
_chemical_formula_sum   'Sm2 Ga9 Ru5'
_cell_volume   264.21891515
_cell_formula_units_Z   1
loop_
 _symmetry_equiv_pos_site_id
 _symmetry_equiv_pos_as_xyz
  1  'x, y, z'
loop_
 _atom_site_type_symbol
 _atom_site_label
 _atom_site_symmetry_multiplicity
 _atom_site_fract_x
 _atom_site_fract_y
 _atom_site_fract_z
 _atom_site_occupancy
  Sm  Sm0  1  0.00000000  0.50000000  0.50000000  1
  Sm  Sm1  1  0.50000000  0.00000000  0.50000000  1
  Ga  Ga2  1  0.44102200  0.85924700  0.00000000  1
  Ga  Ga3  1  0.14075300  0.14075300  0.58177500  1
  Ga  Ga4  1  0.85924700  0.44102200  0.00000000  1
  Ga  Ga5  1  0.85924700  0.85924700  0.41822500  1
  Ga  Ga6  1  0.55897800  0.14075300  0.00000000  1
  Ga  Ga7  1  0.14075300  0.55897800  0.00000000  1
  Ga  Ga8  1  0.55897800  0.55897800  0.41822500  1
  Ga  Ga9  1  0.00000000  0.00000000  0.00000000  1
  Ga  Ga10  1  0.44102200  0.44102200  0.58177500  1
  Ru  Ru11  1  0.17885600  0.17885600  0.00000000  1
  Ru  Ru12  1  0.82114400  0.82114400  0.00000000  1
  Ru  Ru13  1  0.25000000  0.75000000  0.50000000  1
  Ru  Ru14  1  0.75000000  0.25000000  0.50000000  1
  Ru  Ru15  1  0.50000000  0.50000000  0.00000000  1
