# generated using pymatgen
data_GaH3NF3
_symmetry_space_group_name_H-M   'P 1'
_cell_length_a   5.55812345
_cell_length_b   5.55812345
_cell_length_c   5.58437100
_cell_angle_alpha   90.00000000
_cell_angle_beta   90.00000000
_cell_angle_gamma   120.45156459
_symmetry_Int_Tables_number   1
_chemical_formula_structural   GaH3NF3
_chemical_formula_sum   'Ga2 H6 N2 F6'
_cell_volume   148.71921305
_cell_formula_units_Z   2
loop_
 _symmetry_equiv_pos_site_id
 _symmetry_equiv_pos_as_xyz
  1  'x, y, z'
loop_
 _atom_site_type_symbol
 _atom_site_label
 _atom_site_symmetry_multiplicity
 _atom_site_fract_x
 _atom_site_fract_y
 _atom_site_fract_z
 _atom_site_occupancy
  Ga  Ga0  1  0.85876000  0.64124000  0.25012200  1
  Ga  Ga1  1  0.35876000  0.14124000  0.74987800  1
  H  H2  1  0.62266800  0.87733200  0.03463900  1
  H  H3  1  0.12266800  0.37733200  0.96536100  1
  H  H4  1  0.76391500  0.03994900  0.28840200  1
  H  H5  1  0.96005100  0.23608500  0.71159800  1
  H  H6  1  0.26391500  0.53994900  0.71159800  1
  H  H7  1  0.46005100  0.73608500  0.28840200  1
  N  N8  1  0.65436900  0.84563100  0.21205100  1
  N  N9  1  0.15436900  0.34563100  0.78794900  1
  F  F10  1  0.10161700  0.89838300  0.50000000  1
  F  F11  1  0.60161700  0.39838300  0.50000000  1
  F  F12  1  0.12464000  0.87536000  0.00000000  1
  F  F13  1  0.62464000  0.37536000  0.00000000  1
  F  F14  1  0.05238100  0.44761900  0.27412200  1
  F  F15  1  0.55238100  0.94761900  0.72587800  1
