# generated using pymatgen
data_RbInS2
_symmetry_space_group_name_H-M   'P 1'
_cell_length_a   7.99558741
_cell_length_b   7.99558741
_cell_length_c   15.84500015
_cell_angle_alpha   82.76429182
_cell_angle_beta   82.76429182
_cell_angle_gamma   90.01893059
_symmetry_Int_Tables_number   1
_chemical_formula_structural   RbInS2
_chemical_formula_sum   'Rb8 In8 S16'
_cell_volume   996.75725684
_cell_formula_units_Z   8
loop_
 _symmetry_equiv_pos_site_id
 _symmetry_equiv_pos_as_xyz
  1  'x, y, z'
loop_
 _atom_site_type_symbol
 _atom_site_label
 _atom_site_symmetry_multiplicity
 _atom_site_fract_x
 _atom_site_fract_y
 _atom_site_fract_z
 _atom_site_occupancy
  Rb  Rb0  1  0.72298500  0.34730500  0.11178300  1
  Rb  Rb1  1  0.27769900  0.15324700  0.88813700  1
  Rb  Rb2  1  0.72230100  0.84675300  0.11186300  1
  Rb  Rb3  1  0.15324700  0.27769900  0.38813700  1
  Rb  Rb4  1  0.65269500  0.27701500  0.38821700  1
  Rb  Rb5  1  0.84675300  0.72230100  0.61186300  1
  Rb  Rb6  1  0.34730500  0.72298500  0.61178300  1
  Rb  Rb7  1  0.27701500  0.65269500  0.88821700  1
  In  In8  1  0.41341800  0.79022200  0.33933500  1
  In  In9  1  0.20977800  0.58658200  0.16066500  1
  In  In10  1  0.79022200  0.41341800  0.83933500  1
  In  In11  1  0.20983700  0.08306200  0.16003400  1
  In  In12  1  0.79016300  0.91693800  0.83996600  1
  In  In13  1  0.58658200  0.20977800  0.66066500  1
  In  In14  1  0.91693800  0.79016300  0.33996600  1
  In  In15  1  0.08306200  0.20983700  0.66003400  1
  S  S16  1  0.44503000  0.07061500  0.25007600  1
  S  S17  1  0.92965100  0.07034900  0.25000000  1
  S  S18  1  0.92938500  0.55497000  0.24992400  1
  S  S19  1  0.85851900  0.23373700  0.56346200  1
  S  S20  1  0.64062600  0.76729900  0.43500000  1
  S  S21  1  0.76729900  0.64062600  0.93500000  1
  S  S22  1  0.14148100  0.76626300  0.43653800  1
  S  S23  1  0.07034900  0.92965100  0.75000000  1
  S  S24  1  0.07061500  0.44503000  0.75007600  1
  S  S25  1  0.55475200  0.44524800  0.75000000  1
  S  S26  1  0.23373700  0.85851900  0.06346200  1
  S  S27  1  0.44524800  0.55475200  0.25000000  1
  S  S28  1  0.55497000  0.92938500  0.74992400  1
  S  S29  1  0.76626300  0.14148100  0.93653800  1
  S  S30  1  0.35937400  0.23270100  0.56500000  1
  S  S31  1  0.23270100  0.35937400  0.06500000  1
