# generated using pymatgen
data_CuSb2(XeF8)2
_symmetry_space_group_name_H-M   'P 1'
_cell_length_a   15.05853000
_cell_length_b   5.64327200
_cell_length_c   9.36018691
_cell_angle_alpha   88.85471660
_cell_angle_beta   90.00000000
_cell_angle_gamma   90.00000000
_symmetry_Int_Tables_number   1
_chemical_formula_structural   CuSb2(XeF8)2
_chemical_formula_sum   'Cu2 Sb4 Xe4 F32'
_cell_volume   795.26398315
_cell_formula_units_Z   2
loop_
 _symmetry_equiv_pos_site_id
 _symmetry_equiv_pos_as_xyz
  1  'x, y, z'
loop_
 _atom_site_type_symbol
 _atom_site_label
 _atom_site_symmetry_multiplicity
 _atom_site_fract_x
 _atom_site_fract_y
 _atom_site_fract_z
 _atom_site_occupancy
  Cu  Cu0  1  0.50000000  0.00000000  0.00000000  1
  Cu  Cu1  1  0.00000000  0.00000000  0.50000000  1
  Sb  Sb2  1  0.41858300  0.48923600  0.24923800  1
  Sb  Sb3  1  0.08141700  0.48923600  0.74923800  1
  Sb  Sb4  1  0.58141700  0.51076400  0.75076200  1
  Sb  Sb5  1  0.91858300  0.51076400  0.25076200  1
  Xe  Xe6  1  0.83207000  0.99555100  0.83633700  1
  Xe  Xe7  1  0.66793000  0.99555100  0.33633700  1
  Xe  Xe8  1  0.16793000  0.00444900  0.16366300  1
  Xe  Xe9  1  0.33207000  0.00444900  0.66366300  1
  F  F10  1  0.25248800  0.02744500  0.99692200  1
  F  F11  1  0.91742800  0.22445100  0.37467000  1
  F  F12  1  0.41742800  0.77554900  0.12533000  1
  F  F13  1  0.90258300  0.32433600  0.08499200  1
  F  F14  1  0.45535600  0.48154400  0.74024100  1
  F  F15  1  0.58105600  0.03273400  0.15251500  1
  F  F16  1  0.04464400  0.48154400  0.24024100  1
  F  F17  1  0.58257200  0.22445100  0.87467000  1
  F  F18  1  0.75248800  0.97255500  0.50307800  1
  F  F19  1  0.09741700  0.67566400  0.91500800  1
  F  F20  1  0.57961600  0.79892400  0.64087300  1
  F  F21  1  0.06740000  0.30678900  0.57327600  1
  F  F22  1  0.59741700  0.32433600  0.58499200  1
  F  F23  1  0.29283500  0.47339800  0.22002100  1
  F  F24  1  0.40258300  0.67566400  0.41500800  1
  F  F25  1  0.20716500  0.47339800  0.72002100  1
  F  F26  1  0.95535600  0.51845600  0.75975900  1
  F  F27  1  0.91894400  0.03273400  0.65251500  1
  F  F28  1  0.79283500  0.52660200  0.27997900  1
  F  F29  1  0.43260000  0.30678900  0.07327600  1
  F  F30  1  0.92038400  0.79892400  0.14087300  1
  F  F31  1  0.74751200  0.97255500  0.00307800  1
  F  F32  1  0.56740000  0.69321100  0.92672400  1
  F  F33  1  0.70716500  0.52660200  0.77997900  1
  F  F34  1  0.93260000  0.69321100  0.42672400  1
  F  F35  1  0.41894400  0.96726600  0.84748500  1
  F  F36  1  0.54464400  0.51845600  0.25975900  1
  F  F37  1  0.07961600  0.20107600  0.85912700  1
  F  F38  1  0.08105600  0.96726600  0.34748500  1
  F  F39  1  0.08257200  0.77554900  0.62533000  1
  F  F40  1  0.42038400  0.20107600  0.35912700  1
  F  F41  1  0.24751200  0.02744500  0.49692200  1
