# generated using pymatgen
data_K3Sn2S3BrO12
_symmetry_space_group_name_H-M   'P 1'
_cell_length_a   7.60670600
_cell_length_b   10.42461900
_cell_length_c   10.46138684
_cell_angle_alpha   60.72241291
_cell_angle_beta   90.00000000
_cell_angle_gamma   90.00000000
_symmetry_Int_Tables_number   1
_chemical_formula_structural   K3Sn2S3BrO12
_chemical_formula_sum   'K6 Sn4 S6 Br2 O24'
_cell_volume   723.58967417
_cell_formula_units_Z   2
loop_
 _symmetry_equiv_pos_site_id
 _symmetry_equiv_pos_as_xyz
  1  'x, y, z'
loop_
 _atom_site_type_symbol
 _atom_site_label
 _atom_site_symmetry_multiplicity
 _atom_site_fract_x
 _atom_site_fract_y
 _atom_site_fract_z
 _atom_site_occupancy
  K  K0  1  0.97616700  0.32651500  0.32375800  1
  K  K1  1  0.49794500  0.33362000  0.33111400  1
  K  K2  1  0.73731900  0.00896100  0.73965100  1
  K  K3  1  0.23731900  0.99103900  0.26034900  1
  K  K4  1  0.47616700  0.67348500  0.67624200  1
  K  K5  1  0.99794500  0.66638000  0.66888600  1
  Sn  Sn6  1  0.20127500  0.71964400  0.02841500  1
  Sn  Sn7  1  0.22622100  0.22833600  0.73870600  1
  Sn  Sn8  1  0.72622100  0.77166400  0.26129400  1
  Sn  Sn9  1  0.70127500  0.28035600  0.97158500  1
  S  S10  1  0.24452000  0.58814400  0.37558000  1
  S  S11  1  0.24728900  0.38776500  0.02604800  1
  S  S12  1  0.23648800  0.04307100  0.59322500  1
  S  S13  1  0.73648800  0.95692900  0.40677500  1
  S  S14  1  0.74728900  0.61223500  0.97395200  1
  S  S15  1  0.74452000  0.41185600  0.62442000  1
  Br  Br16  1  0.00045700  0.00065800  0.00136500  1
  Br  Br17  1  0.50045700  0.99934200  0.99863500  1
  O  O18  1  0.09195600  0.63332100  0.26557500  1
  O  O19  1  0.40852200  0.62970600  0.28456500  1
  O  O20  1  0.23702200  0.42428300  0.46942100  1
  O  O21  1  0.72961800  0.33665300  0.53755600  1
  O  O22  1  0.73862000  0.51005900  0.13266700  1
  O  O23  1  0.24300200  0.47402400  0.11005000  1
  O  O24  1  0.07729800  0.10123200  0.63860200  1
  O  O25  1  0.39052000  0.09652900  0.64711200  1
  O  O26  1  0.42110600  0.30640500  0.06549100  1
  O  O27  1  0.24148400  0.11332200  0.43209100  1
  O  O28  1  0.10090800  0.28265000  0.08052300  1
  O  O29  1  0.73276400  0.11803800  0.33721500  1
  O  O30  1  0.23276400  0.88196200  0.66278500  1
  O  O31  1  0.60090800  0.71735000  0.91947700  1
  O  O32  1  0.74148400  0.88667800  0.56790900  1
  O  O33  1  0.92110600  0.69359500  0.93450900  1
  O  O34  1  0.89052000  0.90347100  0.35288800  1
  O  O35  1  0.57729800  0.89876800  0.36139800  1
  O  O36  1  0.74300200  0.52597600  0.88995000  1
  O  O37  1  0.23862000  0.48994100  0.86733300  1
  O  O38  1  0.22961800  0.66334700  0.46244400  1
  O  O39  1  0.73702200  0.57571700  0.53057900  1
  O  O40  1  0.90852200  0.37029400  0.71543500  1
  O  O41  1  0.59195600  0.36667900  0.73442500  1
