# generated using pymatgen
data_CdCu2SiS4
_symmetry_space_group_name_H-M   'P 1'
_cell_length_a   6.28440300
_cell_length_b   6.49538200
_cell_length_c   7.66070200
_cell_angle_alpha   90.00000000
_cell_angle_beta   90.00000000
_cell_angle_gamma   90.00000000
_symmetry_Int_Tables_number   1
_chemical_formula_structural   CdCu2SiS4
_chemical_formula_sum   'Cd2 Cu4 Si2 S8'
_cell_volume   312.70677701
_cell_formula_units_Z   2
loop_
 _symmetry_equiv_pos_site_id
 _symmetry_equiv_pos_as_xyz
  1  'x, y, z'
loop_
 _atom_site_type_symbol
 _atom_site_label
 _atom_site_symmetry_multiplicity
 _atom_site_fract_x
 _atom_site_fract_y
 _atom_site_fract_z
 _atom_site_occupancy
  Cd  Cd0  1  0.12684400  0.65099400  0.00000000  1
  Cd  Cd1  1  0.62684400  0.34900600  0.50000000  1
  Cu  Cu2  1  0.12982900  0.17561900  0.74824900  1
  Cu  Cu3  1  0.62982900  0.82438100  0.75175100  1
  Cu  Cu4  1  0.12982900  0.17561900  0.25175100  1
  Cu  Cu5  1  0.62982900  0.82438100  0.24824900  1
  Si  Si6  1  0.12280300  0.68119300  0.50000000  1
  Si  Si7  1  0.62280300  0.31880700  0.00000000  1
  S  S8  1  0.03452400  0.35943400  0.50000000  1
  S  S9  1  0.46546300  0.70986000  0.50000000  1
  S  S10  1  0.96546300  0.29014000  0.00000000  1
  S  S11  1  0.49535400  0.15893600  0.22386500  1
  S  S12  1  0.49535400  0.15893600  0.77613500  1
  S  S13  1  0.99535400  0.84106400  0.72386500  1
  S  S14  1  0.53452400  0.64056600  0.00000000  1
  S  S15  1  0.99535400  0.84106400  0.27613500  1
