# generated using pymatgen
data_AgIrF7
_symmetry_space_group_name_H-M   'P 1'
_cell_length_a   7.26461700
_cell_length_b   7.88550300
_cell_length_c   10.54797000
_cell_angle_alpha   90.00000000
_cell_angle_beta   90.00000000
_cell_angle_gamma   90.00000000
_symmetry_Int_Tables_number   1
_chemical_formula_structural   AgIrF7
_chemical_formula_sum   'Ag4 Ir4 F28'
_cell_volume   604.24214013
_cell_formula_units_Z   4
loop_
 _symmetry_equiv_pos_site_id
 _symmetry_equiv_pos_as_xyz
  1  'x, y, z'
loop_
 _atom_site_type_symbol
 _atom_site_label
 _atom_site_symmetry_multiplicity
 _atom_site_fract_x
 _atom_site_fract_y
 _atom_site_fract_z
 _atom_site_occupancy
  Ag  Ag0  1  0.25000000  0.13634600  0.24363100  1
  Ag  Ag1  1  0.75000000  0.86365400  0.75636900  1
  Ag  Ag2  1  0.75000000  0.36365400  0.74363100  1
  Ag  Ag3  1  0.25000000  0.63634600  0.25636900  1
  Ir  Ir4  1  0.25000000  0.29871600  0.55848300  1
  Ir  Ir5  1  0.75000000  0.70128400  0.44151700  1
  Ir  Ir6  1  0.25000000  0.79871600  0.94151700  1
  Ir  Ir7  1  0.75000000  0.20128400  0.05848300  1
  F  F8  1  0.75000000  0.41737700  0.13211400  1
  F  F9  1  0.56831500  0.27305900  0.93756100  1
  F  F10  1  0.93112500  0.12279400  0.17728300  1
  F  F11  1  0.75000000  0.98034800  0.98402200  1
  F  F12  1  0.06831500  0.72694100  0.06243900  1
  F  F13  1  0.06887500  0.87720600  0.82271700  1
  F  F14  1  0.43112500  0.87720600  0.82271700  1
  F  F15  1  0.25000000  0.51965200  0.48402200  1
  F  F16  1  0.93168500  0.77305900  0.56243900  1
  F  F17  1  0.43168500  0.22694100  0.43756100  1
  F  F18  1  0.25000000  0.88895500  0.30969200  1
  F  F19  1  0.75000000  0.91737700  0.36788600  1
  F  F20  1  0.75000000  0.48034800  0.51597800  1
  F  F21  1  0.56831500  0.77305900  0.56243900  1
  F  F22  1  0.25000000  0.58262300  0.86788600  1
  F  F23  1  0.56887500  0.62279400  0.32271700  1
  F  F24  1  0.75000000  0.61104500  0.80969200  1
  F  F25  1  0.25000000  0.01965200  0.01597800  1
  F  F26  1  0.06887500  0.37720600  0.67728300  1
  F  F27  1  0.25000000  0.38895500  0.19030800  1
  F  F28  1  0.93112500  0.62279400  0.32271700  1
  F  F29  1  0.43112500  0.37720600  0.67728300  1
  F  F30  1  0.93168500  0.27305900  0.93756100  1
  F  F31  1  0.06831500  0.22694100  0.43756100  1
  F  F32  1  0.56887500  0.12279400  0.17728300  1
  F  F33  1  0.43168500  0.72694100  0.06243900  1
  F  F34  1  0.75000000  0.11104500  0.69030800  1
  F  F35  1  0.25000000  0.08262300  0.63211400  1
