# generated using pymatgen
data_Na3Sm7Cl24
_symmetry_space_group_name_H-M   'P 1'
_cell_length_a   7.55064801
_cell_length_b   7.55064801
_cell_length_c   16.76443600
_cell_angle_alpha   90.00000000
_cell_angle_beta   90.00000000
_cell_angle_gamma   120.00000013
_symmetry_Int_Tables_number   1
_chemical_formula_structural   Na3Sm7Cl24
_chemical_formula_sum   'Na3 Sm7 Cl24'
_cell_volume   827.72872922
_cell_formula_units_Z   1
loop_
 _symmetry_equiv_pos_site_id
 _symmetry_equiv_pos_as_xyz
  1  'x, y, z'
loop_
 _atom_site_type_symbol
 _atom_site_label
 _atom_site_symmetry_multiplicity
 _atom_site_fract_x
 _atom_site_fract_y
 _atom_site_fract_z
 _atom_site_occupancy
  Na  Na0  1  0.00000000  0.00000000  0.50000000  1
  Na  Na1  1  0.66666700  0.33333300  0.38835700  1
  Na  Na2  1  0.66666700  0.33333300  0.61164300  1
  Sm  Sm3  1  0.00000000  0.00000000  0.75228200  1
  Sm  Sm4  1  0.00000000  0.00000000  0.00000000  1
  Sm  Sm5  1  0.00000000  0.00000000  0.24771800  1
  Sm  Sm6  1  0.33333300  0.66666700  0.87677500  1
  Sm  Sm7  1  0.33333300  0.66666700  0.12322500  1
  Sm  Sm8  1  0.33333300  0.66666700  0.37440700  1
  Sm  Sm9  1  0.33333300  0.66666700  0.62559300  1
  Cl  Cl10  1  0.97173700  0.24498700  0.87670900  1
  Cl  Cl11  1  0.97173700  0.24498700  0.12329100  1
  Cl  Cl12  1  0.98108900  0.25368800  0.36807800  1
  Cl  Cl13  1  0.98108900  0.25368800  0.63192200  1
  Cl  Cl14  1  0.75501300  0.72675000  0.87670900  1
  Cl  Cl15  1  0.75501300  0.72675000  0.12329100  1
  Cl  Cl16  1  0.74631200  0.72740100  0.36807800  1
  Cl  Cl17  1  0.74631200  0.72740100  0.63192200  1
  Cl  Cl18  1  0.05810300  0.63624700  0.75334500  1
  Cl  Cl19  1  0.05955600  0.63729800  0.00000000  1
  Cl  Cl20  1  0.05810300  0.63624700  0.24665500  1
  Cl  Cl21  1  0.04935400  0.61202000  0.50000000  1
  Cl  Cl22  1  0.27325000  0.02826300  0.87670900  1
  Cl  Cl23  1  0.27325000  0.02826300  0.12329100  1
  Cl  Cl24  1  0.27259900  0.01891100  0.36807800  1
  Cl  Cl25  1  0.27259900  0.01891100  0.63192200  1
  Cl  Cl26  1  0.57814400  0.94189700  0.75334500  1
  Cl  Cl27  1  0.57774100  0.94044400  0.00000000  1
  Cl  Cl28  1  0.57814400  0.94189700  0.24665500  1
  Cl  Cl29  1  0.56266600  0.95064600  0.50000000  1
  Cl  Cl30  1  0.36375300  0.42185600  0.75334500  1
  Cl  Cl31  1  0.36270200  0.42225900  0.00000000  1
  Cl  Cl32  1  0.36375300  0.42185600  0.24665500  1
  Cl  Cl33  1  0.38798000  0.43733400  0.50000000  1
