# generated using pymatgen
data_Er2O3
_symmetry_space_group_name_H-M   'P 1'
_cell_length_a   9.13698890
_cell_length_b   9.13698890
_cell_length_c   9.13698890
_cell_angle_alpha   109.47122063
_cell_angle_beta   109.47122063
_cell_angle_gamma   109.47122063
_symmetry_Int_Tables_number   1
_chemical_formula_structural   Er2O3
_chemical_formula_sum   'Er16 O24'
_cell_volume   587.20183076
_cell_formula_units_Z   8
loop_
 _symmetry_equiv_pos_site_id
 _symmetry_equiv_pos_as_xyz
  1  'x, y, z'
loop_
 _atom_site_type_symbol
 _atom_site_label
 _atom_site_symmetry_multiplicity
 _atom_site_fract_x
 _atom_site_fract_y
 _atom_site_fract_z
 _atom_site_occupancy
  Er  Er0  1  0.03294500  0.78294500  0.25000000  1
  Er  Er1  1  0.75000000  0.46705500  0.71705500  1
  Er  Er2  1  0.71705500  0.75000000  0.46705500  1
  Er  Er3  1  0.25000000  0.03294500  0.78294500  1
  Er  Er4  1  0.78294500  0.25000000  0.03294500  1
  Er  Er5  1  0.46705500  0.71705500  0.75000000  1
  Er  Er6  1  0.96705500  0.21705500  0.75000000  1
  Er  Er7  1  0.25000000  0.53294500  0.28294500  1
  Er  Er8  1  0.28294500  0.25000000  0.53294500  1
  Er  Er9  1  0.75000000  0.96705500  0.21705500  1
  Er  Er10  1  0.21705500  0.75000000  0.96705500  1
  Er  Er11  1  0.53294500  0.28294500  0.25000000  1
  Er  Er12  1  0.50000000  0.00000000  0.50000000  1
  Er  Er13  1  0.00000000  0.50000000  0.50000000  1
  Er  Er14  1  0.50000000  0.50000000  0.00000000  1
  Er  Er15  1  0.00000000  0.00000000  0.00000000  1
  O  O16  1  0.46837100  0.73929300  0.01134100  1
  O  O17  1  0.27204900  0.76070700  0.22907800  1
  O  O18  1  0.03162900  0.04297100  0.27092200  1
  O  O19  1  0.45702900  0.48865900  0.22795100  1
  O  O20  1  0.48865900  0.22795100  0.45702900  1
  O  O21  1  0.01134100  0.46837100  0.73929300  1
  O  O22  1  0.76070700  0.22907800  0.27204900  1
  O  O23  1  0.27092200  0.03162900  0.04297100  1
  O  O24  1  0.73929300  0.01134100  0.46837100  1
  O  O25  1  0.22907800  0.27204900  0.76070700  1
  O  O26  1  0.04297100  0.27092200  0.03162900  1
  O  O27  1  0.22795100  0.45702900  0.48865900  1
  O  O28  1  0.53162900  0.26070700  0.98865900  1
  O  O29  1  0.72795100  0.23929300  0.77092200  1
  O  O30  1  0.96837100  0.95702900  0.72907800  1
  O  O31  1  0.54297100  0.51134100  0.77204900  1
  O  O32  1  0.77204900  0.54297100  0.51134100  1
  O  O33  1  0.95702900  0.72907800  0.96837100  1
  O  O34  1  0.77092200  0.72795100  0.23929300  1
  O  O35  1  0.26070700  0.98865900  0.53162900  1
  O  O36  1  0.72907800  0.96837100  0.95702900  1
  O  O37  1  0.23929300  0.77092200  0.72795100  1
  O  O38  1  0.98865900  0.53162900  0.26070700  1
  O  O39  1  0.51134100  0.77204900  0.54297100  1
