# generated using pymatgen
data_Ba4Na(BO3)3
_symmetry_space_group_name_H-M   'P 1'
_cell_length_a   13.88969648
_cell_length_b   13.88969648
_cell_length_c   13.88969648
_cell_angle_alpha   109.47122063
_cell_angle_beta   109.47122063
_cell_angle_gamma   109.47122063
_symmetry_Int_Tables_number   1
_chemical_formula_structural   Ba4Na(BO3)3
_chemical_formula_sum   'Ba32 Na8 B24 O72'
_cell_volume   2062.79645161
_cell_formula_units_Z   8
loop_
 _symmetry_equiv_pos_site_id
 _symmetry_equiv_pos_as_xyz
  1  'x, y, z'
loop_
 _atom_site_type_symbol
 _atom_site_label
 _atom_site_symmetry_multiplicity
 _atom_site_fract_x
 _atom_site_fract_y
 _atom_site_fract_z
 _atom_site_occupancy
  Ba  Ba0  1  0.00136100  0.75136100  0.25000000  1
  Ba  Ba1  1  0.75136100  0.00136100  0.75000000  1
  Ba  Ba2  1  0.75136100  0.25000000  0.00136100  1
  Ba  Ba3  1  0.75000000  0.49863900  0.74863900  1
  Ba  Ba4  1  0.74863900  0.75000000  0.49863900  1
  Ba  Ba5  1  0.25000000  0.00136100  0.75136100  1
  Ba  Ba6  1  0.75000000  0.75136100  0.00136100  1
  Ba  Ba7  1  0.25000000  0.74863900  0.49863900  1
  Ba  Ba8  1  0.49863900  0.25000000  0.74863900  1
  Ba  Ba9  1  0.00136100  0.75000000  0.75136100  1
  Ba  Ba10  1  0.74863900  0.49863900  0.25000000  1
  Ba  Ba11  1  0.49863900  0.74863900  0.75000000  1
  Ba  Ba12  1  0.99863900  0.24863900  0.75000000  1
  Ba  Ba13  1  0.24863900  0.99863900  0.25000000  1
  Ba  Ba14  1  0.24863900  0.75000000  0.99863900  1
  Ba  Ba15  1  0.25000000  0.50136100  0.25136100  1
  Ba  Ba16  1  0.25136100  0.25000000  0.50136100  1
  Ba  Ba17  1  0.75000000  0.99863900  0.24863900  1
  Ba  Ba18  1  0.25000000  0.24863900  0.99863900  1
  Ba  Ba19  1  0.75000000  0.25136100  0.50136100  1
  Ba  Ba20  1  0.50136100  0.75000000  0.25136100  1
  Ba  Ba21  1  0.99863900  0.25000000  0.24863900  1
  Ba  Ba22  1  0.25136100  0.50136100  0.75000000  1
  Ba  Ba23  1  0.50136100  0.25136100  0.25000000  1
  Ba  Ba24  1  0.50000000  0.00000000  0.50000000  1
  Ba  Ba25  1  0.00000000  0.50000000  0.00000000  1
  Ba  Ba26  1  0.50000000  0.50000000  0.50000000  1
  Ba  Ba27  1  0.00000000  0.00000000  0.50000000  1
  Ba  Ba28  1  0.00000000  0.00000000  0.00000000  1
  Ba  Ba29  1  0.00000000  0.50000000  0.50000000  1
  Ba  Ba30  1  0.50000000  0.50000000  0.00000000  1
  Ba  Ba31  1  0.50000000  0.00000000  0.00000000  1
  Na  Na32  1  0.50000000  0.00000000  0.25000000  1
  Na  Na33  1  0.25000000  0.50000000  0.00000000  1
  Na  Na34  1  0.00000000  0.25000000  0.50000000  1
  Na  Na35  1  0.25000000  0.25000000  0.25000000  1
  Na  Na36  1  0.50000000  0.00000000  0.75000000  1
  Na  Na37  1  0.75000000  0.50000000  0.00000000  1
  Na  Na38  1  0.00000000  0.75000000  0.50000000  1
  Na  Na39  1  0.75000000  0.75000000  0.75000000  1
  B  B40  1  0.73359200  0.98359200  0.96718400  1
  B  B41  1  0.48359200  0.23359200  0.46718400  1
  B  B42  1  0.01640800  0.48359200  0.75000000  1
  B  B43  1  0.23359200  0.26640800  0.75000000  1
  B  B44  1  0.23359200  0.46718400  0.48359200  1
  B  B45  1  0.26640800  0.75000000  0.23359200  1
  B  B46  1  0.75000000  0.01640800  0.48359200  1
  B  B47  1  0.46718400  0.48359200  0.23359200  1
  B  B48  1  0.75000000  0.23359200  0.26640800  1
  B  B49  1  0.51640800  0.25000000  0.98359200  1
  B  B50  1  0.96718400  0.73359200  0.98359200  1
  B  B51  1  0.98359200  0.96718400  0.73359200  1
  B  B52  1  0.25000000  0.76640800  0.73359200  1
  B  B53  1  0.53281600  0.51640800  0.76640800  1
  B  B54  1  0.25000000  0.98359200  0.51640800  1
  B  B55  1  0.73359200  0.25000000  0.76640800  1
  B  B56  1  0.76640800  0.53281600  0.51640800  1
  B  B57  1  0.76640800  0.73359200  0.25000000  1
  B  B58  1  0.98359200  0.51640800  0.25000000  1
  B  B59  1  0.51640800  0.76640800  0.53281600  1
  B  B60  1  0.26640800  0.01640800  0.03281600  1
  B  B61  1  0.48359200  0.75000000  0.01640800  1
  B  B62  1  0.03281600  0.26640800  0.01640800  1
  B  B63  1  0.01640800  0.03281600  0.26640800  1
  O  O64  1  0.35559900  0.00099400  0.59861100  1
  O  O65  1  0.79443600  0.25000000  0.70556400  1
  O  O66  1  0.25000000  0.04443600  0.45556400  1
  O  O67  1  0.41112900  0.45556400  0.70556400  1
  O  O68  1  0.25000000  0.70556400  0.79443600  1
  O  O69  1  0.04443600  0.08887100  0.79443600  1
  O  O70  1  0.08887100  0.79443600  0.04443600  1
  O  O71  1  0.79443600  0.04443600  0.08887100  1
  O  O72  1  0.50099400  0.14539500  0.40238300  1
  O  O73  1  0.09861100  0.50099400  0.85559900  1
  O  O74  1  0.14539500  0.24301300  0.64440100  1
  O  O75  1  0.25698700  0.40238300  0.40138900  1
  O  O76  1  0.24301300  0.64440100  0.14539500  1
  O  O77  1  0.85559900  0.09861100  0.50099400  1
  O  O78  1  0.40238300  0.40138900  0.25698700  1
  O  O79  1  0.85559900  0.25698700  0.35460500  1
  O  O80  1  0.09861100  0.09761700  0.24301300  1
  O  O81  1  0.09761700  0.24301300  0.09861100  1
  O  O82  1  0.40138900  0.64440100  0.99900600  1
  O  O83  1  0.40238300  0.50099400  0.14539500  1
  O  O84  1  0.14539500  0.40238300  0.50099400  1
  O  O85  1  0.35460500  0.85559900  0.25698700  1
  O  O86  1  0.64440100  0.99900600  0.40138900  1
  O  O87  1  0.24301300  0.09861100  0.09761700  1
  O  O88  1  0.35460500  0.99900600  0.09761700  1
  O  O89  1  0.99900600  0.40138900  0.64440100  1
  O  O90  1  0.50099400  0.85559900  0.09861100  1
  O  O91  1  0.25698700  0.35460500  0.85559900  1
  O  O92  1  0.64440100  0.14539500  0.24301300  1
  O  O93  1  0.40138900  0.25698700  0.40238300  1
  O  O94  1  0.99900600  0.09761700  0.35460500  1
  O  O95  1  0.09761700  0.35460500  0.99900600  1
  O  O96  1  0.49900600  0.85460500  0.59761700  1
  O  O97  1  0.90138900  0.49900600  0.14440100  1
  O  O98  1  0.85460500  0.75698700  0.35559900  1
  O  O99  1  0.74301300  0.59761700  0.59861100  1
  O  O100  1  0.75698700  0.35559900  0.85460500  1
  O  O101  1  0.14440100  0.90138900  0.49900600  1
  O  O102  1  0.59761700  0.59861100  0.74301300  1
  O  O103  1  0.14440100  0.74301300  0.64539500  1
  O  O104  1  0.90138900  0.90238300  0.75698700  1
  O  O105  1  0.90238300  0.75698700  0.90138900  1
  O  O106  1  0.59861100  0.35559900  0.00099400  1
  O  O107  1  0.59761700  0.49900600  0.85460500  1
  O  O108  1  0.85460500  0.59761700  0.49900600  1
  O  O109  1  0.64539500  0.14440100  0.74301300  1
  O  O110  1  0.45556400  0.25000000  0.04443600  1
  O  O111  1  0.75698700  0.90138900  0.90238300  1
  O  O112  1  0.64539500  0.00099400  0.90238300  1
  O  O113  1  0.00099400  0.59861100  0.35559900  1
  O  O114  1  0.49900600  0.14440100  0.90138900  1
  O  O115  1  0.74301300  0.64539500  0.14440100  1
  O  O116  1  0.70556400  0.41112900  0.45556400  1
  O  O117  1  0.59861100  0.74301300  0.59761700  1
  O  O118  1  0.00099400  0.90238300  0.64539500  1
  O  O119  1  0.90238300  0.64539500  0.00099400  1
  O  O120  1  0.54443600  0.29443600  0.58887100  1
  O  O121  1  0.95556400  0.54443600  0.75000000  1
  O  O122  1  0.29443600  0.20556400  0.75000000  1
  O  O123  1  0.29443600  0.58887100  0.54443600  1
  O  O124  1  0.20556400  0.75000000  0.29443600  1
  O  O125  1  0.75000000  0.95556400  0.54443600  1
  O  O126  1  0.58887100  0.54443600  0.29443600  1
  O  O127  1  0.75000000  0.29443600  0.20556400  1
  O  O128  1  0.95556400  0.91112900  0.20556400  1
  O  O129  1  0.91112900  0.20556400  0.95556400  1
  O  O130  1  0.54443600  0.75000000  0.95556400  1
  O  O131  1  0.20556400  0.95556400  0.91112900  1
  O  O132  1  0.45556400  0.70556400  0.41112900  1
  O  O133  1  0.04443600  0.45556400  0.25000000  1
  O  O134  1  0.70556400  0.79443600  0.25000000  1
  O  O135  1  0.35559900  0.85460500  0.75698700  1
