# generated using pymatgen
data_CaMg(CO3)2
_symmetry_space_group_name_H-M   'P 1'
_cell_length_a   6.08540960
_cell_length_b   6.08540960
_cell_length_c   6.08540914
_cell_angle_alpha   47.19625989
_cell_angle_beta   47.19625989
_cell_angle_gamma   47.19626319
_symmetry_Int_Tables_number   1
_chemical_formula_structural   CaMg(CO3)2
_chemical_formula_sum   'Ca1 Mg1 C2 O6'
_cell_volume   110.93640357
_cell_formula_units_Z   1
loop_
 _symmetry_equiv_pos_site_id
 _symmetry_equiv_pos_as_xyz
  1  'x, y, z'
loop_
 _atom_site_type_symbol
 _atom_site_label
 _atom_site_symmetry_multiplicity
 _atom_site_fract_x
 _atom_site_fract_y
 _atom_site_fract_z
 _atom_site_occupancy
  Ca  Ca0  1  0.00000000  0.00000000  0.00000000  1
  Mg  Mg1  1  0.50000000  0.50000000  0.50000000  1
  C  C2  1  0.24298300  0.24298300  0.24298300  1
  C  C3  1  0.75701700  0.75701700  0.75701700  1
  O  O4  1  0.27745500  0.49198500  0.96253400  1
  O  O5  1  0.96253400  0.27745500  0.49198500  1
  O  O6  1  0.49198500  0.96253400  0.27745500  1
  O  O7  1  0.72254500  0.50801500  0.03746600  1
  O  O8  1  0.03746600  0.72254500  0.50801500  1
  O  O9  1  0.50801500  0.03746600  0.72254500  1
