# generated using pymatgen
data_KHO
_symmetry_space_group_name_H-M   'P 1'
_cell_length_a   5.80570736
_cell_length_b   5.80570736
_cell_length_c   3.93668300
_cell_angle_alpha   90.00000000
_cell_angle_beta   90.00000000
_cell_angle_gamma   139.55852971
_symmetry_Int_Tables_number   1
_chemical_formula_structural   KHO
_chemical_formula_sum   'K2 H2 O2'
_cell_volume   86.07264744
_cell_formula_units_Z   2
loop_
 _symmetry_equiv_pos_site_id
 _symmetry_equiv_pos_as_xyz
  1  'x, y, z'
loop_
 _atom_site_type_symbol
 _atom_site_label
 _atom_site_symmetry_multiplicity
 _atom_site_fract_x
 _atom_site_fract_y
 _atom_site_fract_z
 _atom_site_occupancy
  K  K0  1  0.64304300  0.35695700  0.23719100  1
  K  K1  1  0.35695700  0.64304300  0.73719100  1
  H  H2  1  0.96098400  0.03901600  0.10165900  1
  H  H3  1  0.03901600  0.96098400  0.60165900  1
  O  O4  1  0.88980300  0.11019700  0.25573500  1
  O  O5  1  0.11019700  0.88980300  0.75573500  1
