# generated using pymatgen
data_Yb7In(CoGe3)4
_symmetry_space_group_name_H-M   'P 1'
_cell_length_a   10.33705600
_cell_length_b   10.33705600
_cell_length_c   4.29756300
_cell_angle_alpha   90.00000000
_cell_angle_beta   90.00000000
_cell_angle_gamma   90.00000000
_symmetry_Int_Tables_number   1
_chemical_formula_structural   Yb7In(CoGe3)4
_chemical_formula_sum   'Yb7 In1 Co4 Ge12'
_cell_volume   459.21492004
_cell_formula_units_Z   1
loop_
 _symmetry_equiv_pos_site_id
 _symmetry_equiv_pos_as_xyz
  1  'x, y, z'
loop_
 _atom_site_type_symbol
 _atom_site_label
 _atom_site_symmetry_multiplicity
 _atom_site_fract_x
 _atom_site_fract_y
 _atom_site_fract_z
 _atom_site_occupancy
  Yb  Yb0  1  0.32551600  0.67545100  0.50000000  1
  Yb  Yb1  1  0.32454900  0.32551600  0.50000000  1
  Yb  Yb2  1  0.67448400  0.32454900  0.50000000  1
  Yb  Yb3  1  0.67545100  0.67448400  0.50000000  1
  Yb  Yb4  1  0.00000000  0.50000000  0.50000000  1
  Yb  Yb5  1  0.00000000  0.00000000  0.00000000  1
  Yb  Yb6  1  0.50000000  0.00000000  0.50000000  1
  In  In7  1  0.50000000  0.50000000  0.00000000  1
  Co  Co8  1  0.11613700  0.72153900  0.00000000  1
  Co  Co9  1  0.88386300  0.27846100  0.00000000  1
  Co  Co10  1  0.72153900  0.88386300  0.00000000  1
  Co  Co11  1  0.27846100  0.11613700  0.00000000  1
  Ge  Ge12  1  0.19302000  0.06737700  0.50000000  1
  Ge  Ge13  1  0.51345300  0.78868900  0.00000000  1
  Ge  Ge14  1  0.06737700  0.80698000  0.50000000  1
  Ge  Ge15  1  0.78868900  0.48654700  0.00000000  1
  Ge  Ge16  1  0.21131100  0.51345300  0.00000000  1
  Ge  Ge17  1  0.28496300  0.88669700  0.00000000  1
  Ge  Ge18  1  0.11330300  0.28496300  0.00000000  1
  Ge  Ge19  1  0.93262300  0.19302000  0.50000000  1
  Ge  Ge20  1  0.88669700  0.71503700  0.00000000  1
  Ge  Ge21  1  0.71503700  0.11330300  0.00000000  1
  Ge  Ge22  1  0.80698000  0.93262300  0.50000000  1
  Ge  Ge23  1  0.48654700  0.21131100  0.00000000  1
