# generated using pymatgen
data_LuP2H4NO7
_symmetry_space_group_name_H-M   'P 1'
_cell_length_a   10.99371200
_cell_length_b   7.73401900
_cell_length_c   8.74928533
_cell_angle_alpha   73.84662410
_cell_angle_beta   90.00000000
_cell_angle_gamma   90.00000000
_symmetry_Int_Tables_number   1
_chemical_formula_structural   LuP2H4NO7
_chemical_formula_sum   'Lu4 P8 H16 N4 O28'
_cell_volume   714.54364481
_cell_formula_units_Z   4
loop_
 _symmetry_equiv_pos_site_id
 _symmetry_equiv_pos_as_xyz
  1  'x, y, z'
loop_
 _atom_site_type_symbol
 _atom_site_label
 _atom_site_symmetry_multiplicity
 _atom_site_fract_x
 _atom_site_fract_y
 _atom_site_fract_z
 _atom_site_occupancy
  Lu  Lu0  1  0.39961500  0.76434800  0.75640700  1
  Lu  Lu1  1  0.89961500  0.23565200  0.74359300  1
  Lu  Lu2  1  0.60038500  0.23565200  0.24359300  1
  Lu  Lu3  1  0.10038500  0.76434800  0.25640700  1
  P  P4  1  0.40038100  0.87198600  0.32391000  1
  P  P5  1  0.90038100  0.12801400  0.17609000  1
  P  P6  1  0.59961900  0.12801400  0.67609000  1
  P  P7  1  0.09961900  0.87198600  0.82391000  1
  P  P8  1  0.36575100  0.56626700  0.18835400  1
  P  P9  1  0.86575100  0.43373300  0.31164600  1
  P  P10  1  0.63424900  0.43373300  0.81164600  1
  P  P11  1  0.13424900  0.56626700  0.68835400  1
  H  H12  1  0.29781200  0.15793700  0.04928900  1
  H  H13  1  0.79781200  0.84206300  0.45071100  1
  H  H14  1  0.70218800  0.84206300  0.95071100  1
  H  H15  1  0.20218800  0.15793700  0.54928900  1
  H  H16  1  0.41558200  0.17748700  0.92566500  1
  H  H17  1  0.91558200  0.82251300  0.57433500  1
  H  H18  1  0.58441800  0.82251300  0.07433500  1
  H  H19  1  0.08441800  0.17748700  0.42566500  1
  H  H20  1  0.28360100  0.09912000  0.87941900  1
  H  H21  1  0.78360100  0.90088000  0.62058100  1
  H  H22  1  0.71639900  0.90088000  0.12058100  1
  H  H23  1  0.21639900  0.09912000  0.37941900  1
  H  H24  1  0.29748900  0.32267100  0.86816100  1
  H  H25  1  0.79748900  0.67732900  0.63183900  1
  H  H26  1  0.70251100  0.67732900  0.13183900  1
  H  H27  1  0.20251100  0.32267100  0.36816100  1
  N  N28  1  0.32277100  0.19117800  0.93114500  1
  N  N29  1  0.82277100  0.80882200  0.56885500  1
  N  N30  1  0.67722900  0.80882200  0.06885500  1
  N  N31  1  0.17722900  0.19117800  0.43114500  1
  O  O32  1  0.40744900  0.85042000  0.50123900  1
  O  O33  1  0.90744900  0.14958000  0.99876100  1
  O  O34  1  0.59255100  0.14958000  0.49876100  1
  O  O35  1  0.09255100  0.85042000  0.00123900  1
  O  O36  1  0.22838000  0.92784100  0.75704800  1
  O  O37  1  0.72838000  0.07215900  0.74295200  1
  O  O38  1  0.77162000  0.07215900  0.24295200  1
  O  O39  1  0.27162000  0.92784100  0.25704800  1
  O  O40  1  0.38517500  0.67811900  0.01665800  1
  O  O41  1  0.88517500  0.32188100  0.48334200  1
  O  O42  1  0.61482500  0.32188100  0.98334200  1
  O  O43  1  0.11482500  0.67811900  0.51665800  1
  O  O44  1  0.50269900  0.00139700  0.77269600  1
  O  O45  1  0.00269900  0.99860300  0.72730400  1
  O  O46  1  0.49730100  0.99860300  0.22730400  1
  O  O47  1  0.99730100  0.00139700  0.27269600  1
  O  O48  1  0.56951200  0.61497300  0.77148800  1
  O  O49  1  0.06951200  0.38502700  0.72851200  1
  O  O50  1  0.43048800  0.38502700  0.22851200  1
  O  O51  1  0.93048800  0.61497300  0.27148800  1
  O  O52  1  0.26871600  0.54578500  0.74018800  1
  O  O53  1  0.76871600  0.45421500  0.75981200  1
  O  O54  1  0.73128400  0.45421500  0.25981200  1
  O  O55  1  0.23128400  0.54578500  0.24018800  1
  O  O56  1  0.43189800  0.67558100  0.30037900  1
  O  O57  1  0.93189800  0.32441900  0.19962100  1
  O  O58  1  0.56810200  0.32441900  0.69962100  1
  O  O59  1  0.06810200  0.67558100  0.80037900  1
