# generated using pymatgen
data_MgAlPO5
_symmetry_space_group_name_H-M   'P 1'
_cell_length_a   10.47154400
_cell_length_b   5.51107400
_cell_length_c   7.18916406
_cell_angle_alpha   81.47317399
_cell_angle_beta   90.00000000
_cell_angle_gamma   90.00000000
_symmetry_Int_Tables_number   1
_chemical_formula_structural   MgAlPO5
_chemical_formula_sum   'Mg4 Al4 P4 O20'
_cell_volume   410.29684653
_cell_formula_units_Z   4
loop_
 _symmetry_equiv_pos_site_id
 _symmetry_equiv_pos_as_xyz
  1  'x, y, z'
loop_
 _atom_site_type_symbol
 _atom_site_label
 _atom_site_symmetry_multiplicity
 _atom_site_fract_x
 _atom_site_fract_y
 _atom_site_fract_z
 _atom_site_occupancy
  Mg  Mg0  1  0.85780900  0.88138500  0.01381500  1
  Mg  Mg1  1  0.35780900  0.61861500  0.98618500  1
  Mg  Mg2  1  0.14219100  0.11861500  0.98618500  1
  Mg  Mg3  1  0.64219100  0.38138500  0.01381500  1
  Al  Al4  1  0.82526600  0.44387900  0.35884000  1
  Al  Al5  1  0.32526600  0.05612100  0.64116000  1
  Al  Al6  1  0.17473400  0.55612100  0.64116000  1
  Al  Al7  1  0.67473400  0.94387900  0.35884000  1
  P  P8  1  0.90261800  0.43055600  0.78025000  1
  P  P9  1  0.40261800  0.06944400  0.21975000  1
  P  P10  1  0.09738200  0.56944400  0.21975000  1
  P  P11  1  0.59738200  0.93055600  0.78025000  1
  O  O12  1  0.45414300  0.31478300  0.11226300  1
  O  O13  1  0.95414300  0.18521700  0.88773700  1
  O  O14  1  0.54585700  0.68521700  0.88773700  1
  O  O15  1  0.04585700  0.81478300  0.11226300  1
  O  O16  1  0.68414900  0.05744600  0.91219900  1
  O  O17  1  0.18414900  0.44255400  0.08780100  1
  O  O18  1  0.31585100  0.94255400  0.08780100  1
  O  O19  1  0.81585100  0.55744600  0.91219900  1
  O  O20  1  0.98407400  0.39563800  0.28290900  1
  O  O21  1  0.48407400  0.10436200  0.71709100  1
  O  O22  1  0.01592600  0.60436200  0.71709100  1
  O  O23  1  0.51592600  0.89563800  0.28290900  1
  O  O24  1  0.78024500  0.74506700  0.26812100  1
  O  O25  1  0.28024500  0.75493300  0.73187900  1
  O  O26  1  0.21975500  0.25493300  0.73187900  1
  O  O27  1  0.71975500  0.24506700  0.26812100  1
  O  O28  1  0.82541300  0.38203300  0.60678500  1
  O  O29  1  0.32541300  0.11796700  0.39321500  1
  O  O30  1  0.17458700  0.61796700  0.39321500  1
  O  O31  1  0.67458700  0.88203300  0.60678500  1
