# generated using pymatgen
data_La2EuS4
_symmetry_space_group_name_H-M   'P 1'
_cell_length_a   7.58418904
_cell_length_b   7.58418904
_cell_length_c   7.58418904
_cell_angle_alpha   109.26701102
_cell_angle_beta   109.26701102
_cell_angle_gamma   109.88041642
_symmetry_Int_Tables_number   1
_chemical_formula_structural   La2EuS4
_chemical_formula_sum   'La4 Eu2 S8'
_cell_volume   335.80636996
_cell_formula_units_Z   2
loop_
 _symmetry_equiv_pos_site_id
 _symmetry_equiv_pos_as_xyz
  1  'x, y, z'
loop_
 _atom_site_type_symbol
 _atom_site_label
 _atom_site_symmetry_multiplicity
 _atom_site_fract_x
 _atom_site_fract_y
 _atom_site_fract_z
 _atom_site_occupancy
  La  La0  1  0.62500000  0.24680700  0.12180700  1
  La  La1  1  0.49680700  0.37500000  0.62180700  1
  La  La2  1  0.12500000  0.50319300  0.87819300  1
  La  La3  1  0.75319300  0.87500000  0.37819300  1
  Eu  Eu4  1  0.25000000  0.75000000  0.50000000  1
  Eu  Eu5  1  0.00000000  0.00000000  0.00000000  1
  S  S6  1  0.72623000  0.12807900  0.74934300  1
  S  S7  1  0.22688700  0.12873600  0.75065700  1
  S  S8  1  0.02311300  0.27377000  0.40184900  1
  S  S9  1  0.37807900  0.47623000  0.24934300  1
  S  S10  1  0.87126400  0.62192100  0.09815100  1
  S  S11  1  0.52377000  0.77311300  0.90184900  1
  S  S12  1  0.87192100  0.62126400  0.59815100  1
  S  S13  1  0.37873600  0.97688700  0.25065700  1
