# generated using pymatgen
data_K2Ca(CO3)2
_symmetry_space_group_name_H-M   'P 1'
_cell_length_a   6.94497895
_cell_length_b   6.94497895
_cell_length_c   6.94497903
_cell_angle_alpha   46.14323268
_cell_angle_beta   46.14323268
_cell_angle_gamma   46.14323142
_symmetry_Int_Tables_number   1
_chemical_formula_structural   K2Ca(CO3)2
_chemical_formula_sum   'K2 Ca1 C2 O6'
_cell_volume   158.91374270
_cell_formula_units_Z   1
loop_
 _symmetry_equiv_pos_site_id
 _symmetry_equiv_pos_as_xyz
  1  'x, y, z'
loop_
 _atom_site_type_symbol
 _atom_site_label
 _atom_site_symmetry_multiplicity
 _atom_site_fract_x
 _atom_site_fract_y
 _atom_site_fract_z
 _atom_site_occupancy
  K  K0  1  0.21002200  0.21002200  0.21002200  1
  K  K1  1  0.78997800  0.78997800  0.78997800  1
  Ca  Ca2  1  0.00000000  0.00000000  0.00000000  1
  C  C3  1  0.58911300  0.58911300  0.58911300  1
  C  C4  1  0.41088700  0.41088700  0.41088700  1
  O  O5  1  0.27337100  0.68755600  0.27337100  1
  O  O6  1  0.27337100  0.27337100  0.68755600  1
  O  O7  1  0.68755600  0.27337100  0.27337100  1
  O  O8  1  0.31244400  0.72662900  0.72662900  1
  O  O9  1  0.72662900  0.72662900  0.31244400  1
  O  O10  1  0.72662900  0.31244400  0.72662900  1
