# generated using pymatgen
data_LiB13C2
_symmetry_space_group_name_H-M   'P 1'
_cell_length_a   7.31724719
_cell_length_b   7.31724719
_cell_length_c   7.31724719
_cell_angle_alpha   134.34749122
_cell_angle_beta   113.32474882
_cell_angle_gamma   84.55153182
_symmetry_Int_Tables_number   1
_chemical_formula_structural   LiB13C2
_chemical_formula_sum   'Li2 B26 C4'
_cell_volume   247.21336621
_cell_formula_units_Z   2
loop_
 _symmetry_equiv_pos_site_id
 _symmetry_equiv_pos_as_xyz
  1  'x, y, z'
loop_
 _atom_site_type_symbol
 _atom_site_label
 _atom_site_symmetry_multiplicity
 _atom_site_fract_x
 _atom_site_fract_y
 _atom_site_fract_z
 _atom_site_occupancy
  Li  Li0  1  0.19448900  0.50000000  0.69448900  1
  Li  Li1  1  0.32451300  0.00000000  0.32451300  1
  B  B2  1  0.40802000  0.41590800  0.99211200  1
  B  B3  1  0.37589100  0.56777800  0.30372000  1
  B  B4  1  0.73594200  0.92782900  0.30372000  1
  B  B5  1  0.13002600  0.92070000  0.69490700  1
  B  B6  1  0.98212700  0.65411200  0.99992500  1
  B  B7  1  0.34581300  0.01779800  0.99992500  1
  B  B8  1  0.13002600  0.43511900  0.20932500  1
  B  B9  1  0.73594200  0.43222200  0.80811300  1
  B  B10  1  0.16353100  0.15337400  0.67987600  1
  B  B11  1  0.09777300  0.08242200  0.01535100  1
  B  B12  1  0.00174900  0.17565700  0.82609100  1
  B  B13  1  0.34581300  0.34588800  0.32801500  1
  B  B14  1  0.77420700  0.56488100  0.69490700  1
  B  B15  1  0.57620500  0.58409200  0.99211200  1
  B  B16  1  0.37589100  0.07217100  0.80811300  1
  B  B17  1  0.86788100  0.50000000  0.36788100  1
  B  B18  1  0.52650200  0.51634500  0.67987600  1
  B  B19  1  0.93292900  0.91757800  0.01535100  1
  B  B20  1  0.85647800  0.67541500  0.18106400  1
  B  B21  1  0.16353100  0.48365500  0.01015700  1
  B  B22  1  0.98212700  0.98220200  0.32801500  1
  B  B23  1  0.65043400  0.82434300  0.82609100  1
  B  B24  1  0.77420700  0.07930000  0.20932500  1
  B  B25  1  0.50564900  0.32458500  0.18106400  1
  B  B26  1  0.64263500  0.00000000  0.64263500  1
  B  B27  1  0.52650200  0.84662600  0.01015700  1
  C  C28  1  0.50381700  0.86849500  0.63532300  1
  C  C29  1  0.76682800  0.13150500  0.63532300  1
  C  C30  1  0.74304500  0.36758000  0.37546500  1
  C  C31  1  0.00788500  0.63242000  0.37546500  1
