# generated using pymatgen
data_Rb2CeO3
_symmetry_space_group_name_H-M   'P 1'
_cell_length_a   6.42547442
_cell_length_b   6.42547442
_cell_length_c   6.93883762
_cell_angle_alpha   80.96757463
_cell_angle_beta   80.96757463
_cell_angle_gamma   119.84957820
_symmetry_Int_Tables_number   1
_chemical_formula_structural   Rb2CeO3
_chemical_formula_sum   'Rb4 Ce2 O6'
_cell_volume   235.96812387
_cell_formula_units_Z   2
loop_
 _symmetry_equiv_pos_site_id
 _symmetry_equiv_pos_as_xyz
  1  'x, y, z'
loop_
 _atom_site_type_symbol
 _atom_site_label
 _atom_site_symmetry_multiplicity
 _atom_site_fract_x
 _atom_site_fract_y
 _atom_site_fract_z
 _atom_site_occupancy
  Rb  Rb0  1  0.00000000  0.00000000  0.00000000  1
  Rb  Rb1  1  0.50000000  0.50000000  0.50000000  1
  Rb  Rb2  1  0.65701700  0.34298300  0.00000000  1
  Rb  Rb3  1  0.34298300  0.65701700  0.00000000  1
  Ce  Ce4  1  0.16699300  0.83300700  0.50000000  1
  Ce  Ce5  1  0.83300700  0.16699300  0.50000000  1
  O  O6  1  0.16527900  0.16527900  0.31668000  1
  O  O7  1  0.96113100  0.56276700  0.31383100  1
  O  O8  1  0.56276700  0.96113100  0.31383100  1
  O  O9  1  0.43723300  0.03886900  0.68616900  1
  O  O10  1  0.03886900  0.43723300  0.68616900  1
  O  O11  1  0.83472100  0.83472100  0.68332000  1
