# generated using pymatgen
data_SrCd2
_symmetry_space_group_name_H-M   'P 1'
_cell_length_a   6.46021070
_cell_length_b   6.46021070
_cell_length_c   6.46021070
_cell_angle_alpha   133.02402208
_cell_angle_beta   101.99548807
_cell_angle_gamma   96.30726867
_symmetry_Int_Tables_number   1
_chemical_formula_structural   SrCd2
_chemical_formula_sum   'Sr2 Cd4'
_cell_volume   180.46677630
_cell_formula_units_Z   2
loop_
 _symmetry_equiv_pos_site_id
 _symmetry_equiv_pos_as_xyz
  1  'x, y, z'
loop_
 _atom_site_type_symbol
 _atom_site_label
 _atom_site_symmetry_multiplicity
 _atom_site_fract_x
 _atom_site_fract_y
 _atom_site_fract_z
 _atom_site_occupancy
  Sr  Sr0  1  0.79581300  0.54581300  0.25000000  1
  Sr  Sr1  1  0.20418700  0.45418700  0.75000000  1
  Cd  Cd2  1  0.60940400  0.16455700  0.44484800  1
  Cd  Cd3  1  0.39059600  0.83544300  0.55515200  1
  Cd  Cd4  1  0.78029100  0.83544300  0.94484800  1
  Cd  Cd5  1  0.21970900  0.16455700  0.05515200  1
