# generated using pymatgen
data_MnSi6Pb8O21
_symmetry_space_group_name_H-M   'P 1'
_cell_length_a   14.37011649
_cell_length_b   14.37011649
_cell_length_c   14.37011698
_cell_angle_alpha   41.26415006
_cell_angle_beta   41.26415006
_cell_angle_gamma   41.26415083
_symmetry_Int_Tables_number   1
_chemical_formula_structural   MnSi6Pb8O21
_chemical_formula_sum   'Mn2 Si12 Pb16 O42'
_cell_volume   1165.89394186
_cell_formula_units_Z   2
loop_
 _symmetry_equiv_pos_site_id
 _symmetry_equiv_pos_as_xyz
  1  'x, y, z'
loop_
 _atom_site_type_symbol
 _atom_site_label
 _atom_site_symmetry_multiplicity
 _atom_site_fract_x
 _atom_site_fract_y
 _atom_site_fract_z
 _atom_site_occupancy
  Mn  Mn0  1  0.75000000  0.75000000  0.75000000  1
  Mn  Mn1  1  0.25000000  0.25000000  0.25000000  1
  Si  Si2  1  0.16408200  0.93239800  0.54203100  1
  Si  Si3  1  0.83591800  0.06760200  0.45796900  1
  Si  Si4  1  0.56760200  0.33591800  0.95796900  1
  Si  Si5  1  0.54203100  0.16408200  0.93239800  1
  Si  Si6  1  0.33591800  0.95796900  0.56760200  1
  Si  Si7  1  0.06760200  0.45796800  0.83591800  1
  Si  Si8  1  0.66408200  0.04203100  0.43239800  1
  Si  Si9  1  0.95796900  0.56760200  0.33591800  1
  Si  Si10  1  0.93239800  0.54203100  0.16408200  1
  Si  Si11  1  0.04203100  0.43239800  0.66408200  1
  Si  Si12  1  0.43239800  0.66408200  0.04203100  1
  Si  Si13  1  0.45796800  0.83591800  0.06760200  1
  Pb  Pb14  1  0.28374400  0.52913900  0.80399200  1
  Pb  Pb15  1  0.66240900  0.66240900  0.66240900  1
  Pb  Pb16  1  0.19600800  0.71625600  0.47086100  1
  Pb  Pb17  1  0.97086100  0.21625600  0.69600800  1
  Pb  Pb18  1  0.30399200  0.02913900  0.78374400  1
  Pb  Pb19  1  0.33759100  0.33759100  0.33759100  1
  Pb  Pb20  1  0.80399200  0.28374400  0.52913900  1
  Pb  Pb21  1  0.02913900  0.78374400  0.30399200  1
  Pb  Pb22  1  0.47086100  0.19600800  0.71625600  1
  Pb  Pb23  1  0.69600800  0.97086100  0.21625600  1
  Pb  Pb24  1  0.21625600  0.69600800  0.97086100  1
  Pb  Pb25  1  0.83759100  0.83759100  0.83759100  1
  Pb  Pb26  1  0.16240900  0.16240900  0.16240900  1
  Pb  Pb27  1  0.78374400  0.30399200  0.02913900  1
  Pb  Pb28  1  0.71625600  0.47086100  0.19600800  1
  Pb  Pb29  1  0.52913900  0.80399200  0.28374400  1
  O  O30  1  0.62547400  0.25000000  0.87452600  1
  O  O31  1  0.46545800  0.52399200  0.88103100  1
  O  O32  1  0.87452600  0.62547400  0.25000000  1
  O  O33  1  0.35237800  0.25137200  0.02989500  1
  O  O34  1  0.53454200  0.47600800  0.11896900  1
  O  O35  1  0.23252700  0.41480100  0.79902000  1
  O  O36  1  0.20098000  0.76747300  0.58519900  1
  O  O37  1  0.02399200  0.96545800  0.38103100  1
  O  O38  1  0.61896900  0.97600800  0.03454200  1
  O  O39  1  0.02989500  0.35237800  0.25137200  1
  O  O40  1  0.25000000  0.87452600  0.62547400  1
  O  O41  1  0.26747300  0.70098000  0.08519900  1
  O  O42  1  0.24862800  0.14762200  0.47010500  1
  O  O43  1  0.64762200  0.74862800  0.97010500  1
  O  O44  1  0.12547400  0.37452600  0.75000000  1
  O  O45  1  0.38103100  0.02399200  0.96545800  1
  O  O46  1  0.29902000  0.91480100  0.73252700  1
  O  O47  1  0.79902000  0.23252700  0.41480100  1
  O  O48  1  0.37452600  0.75000000  0.12547400  1
  O  O49  1  0.52989500  0.75137200  0.85237800  1
  O  O50  1  0.97010500  0.64762200  0.74862800  1
  O  O51  1  0.76747300  0.58519900  0.20098000  1
  O  O52  1  0.25137200  0.02989500  0.35237800  1
  O  O53  1  0.14762200  0.47010500  0.24862800  1
  O  O54  1  0.41480100  0.79902000  0.23252700  1
  O  O55  1  0.91480100  0.73252700  0.29902000  1
  O  O56  1  0.03454200  0.61896900  0.97600800  1
  O  O57  1  0.97600800  0.03454200  0.61896900  1
  O  O58  1  0.58519900  0.20098000  0.76747300  1
  O  O59  1  0.11896900  0.53454200  0.47600800  1
  O  O60  1  0.73252700  0.29902000  0.91480100  1
  O  O61  1  0.74862800  0.97010500  0.64762200  1
  O  O62  1  0.88103100  0.46545800  0.52399200  1
  O  O63  1  0.47010500  0.24862800  0.14762200  1
  O  O64  1  0.47600800  0.11896900  0.53454200  1
  O  O65  1  0.70098000  0.08519900  0.26747300  1
  O  O66  1  0.75137200  0.85237800  0.52989500  1
  O  O67  1  0.75000000  0.12547400  0.37452600  1
  O  O68  1  0.52399200  0.88103100  0.46545800  1
  O  O69  1  0.96545800  0.38103100  0.02399200  1
  O  O70  1  0.85237800  0.52989500  0.75137200  1
  O  O71  1  0.08519900  0.26747300  0.70098000  1
