# generated using pymatgen
data_K5HfIn(MoO4)6
_symmetry_space_group_name_H-M   'P 1'
_cell_length_a   14.19255950
_cell_length_b   14.19255950
_cell_length_c   14.19255983
_cell_angle_alpha   44.60019146
_cell_angle_beta   44.60019146
_cell_angle_gamma   44.60019094
_symmetry_Int_Tables_number   1
_chemical_formula_structural   K5HfIn(MoO4)6
_chemical_formula_sum   'K10 Hf2 In2 Mo12 O48'
_cell_volume   1281.76816131
_cell_formula_units_Z   2
loop_
 _symmetry_equiv_pos_site_id
 _symmetry_equiv_pos_as_xyz
  1  'x, y, z'
loop_
 _atom_site_type_symbol
 _atom_site_label
 _atom_site_symmetry_multiplicity
 _atom_site_fract_x
 _atom_site_fract_y
 _atom_site_fract_z
 _atom_site_occupancy
  K  K0  1  0.14663900  0.14663900  0.14663900  1
  K  K1  1  0.35336100  0.35336100  0.35336100  1
  K  K2  1  0.75000000  0.13590600  0.36409400  1
  K  K3  1  0.13590600  0.36409400  0.75000000  1
  K  K4  1  0.36409400  0.75000000  0.13590600  1
  K  K5  1  0.63590600  0.25000000  0.86409400  1
  K  K6  1  0.86409400  0.63590600  0.25000000  1
  K  K7  1  0.25000000  0.86409400  0.63590600  1
  K  K8  1  0.64663900  0.64663900  0.64663900  1
  K  K9  1  0.85336100  0.85336100  0.85336100  1
  Hf  Hf10  1  0.00000000  0.00000000  0.00000000  1
  Hf  Hf11  1  0.50000000  0.50000000  0.50000000  1
  In  In12  1  0.25000000  0.25000000  0.25000000  1
  In  In13  1  0.75000000  0.75000000  0.75000000  1
  Mo  Mo14  1  0.61871300  0.02203800  0.26217100  1
  Mo  Mo15  1  0.02203800  0.26217100  0.61871300  1
  Mo  Mo16  1  0.26217100  0.61871300  0.02203800  1
  Mo  Mo17  1  0.52203800  0.11871300  0.76217100  1
  Mo  Mo18  1  0.76217100  0.52203800  0.11871300  1
  Mo  Mo19  1  0.88128700  0.23782900  0.47796200  1
  Mo  Mo20  1  0.11871300  0.76217100  0.52203800  1
  Mo  Mo21  1  0.23782900  0.47796200  0.88128700  1
  Mo  Mo22  1  0.47796200  0.88128700  0.23782900  1
  Mo  Mo23  1  0.73782900  0.38128700  0.97796200  1
  Mo  Mo24  1  0.97796200  0.73782900  0.38128700  1
  Mo  Mo25  1  0.38128700  0.97796200  0.73782900  1
  O  O26  1  0.32120900  0.02817300  0.30251000  1
  O  O27  1  0.02817300  0.30251000  0.32120900  1
  O  O28  1  0.30251000  0.32120900  0.02817300  1
  O  O29  1  0.47182700  0.17879100  0.19749000  1
  O  O30  1  0.17879100  0.19749000  0.47182700  1
  O  O31  1  0.19749000  0.47182700  0.17879100  1
  O  O32  1  0.61773100  0.07017800  0.34746800  1
  O  O33  1  0.19879000  0.00442000  0.89597600  1
  O  O34  1  0.07017800  0.34746800  0.61773100  1
  O  O35  1  0.89597600  0.19879000  0.00442000  1
  O  O36  1  0.40657400  0.14292200  0.61132800  1
  O  O37  1  0.34746800  0.61773100  0.07017800  1
  O  O38  1  0.61132800  0.40657400  0.14292200  1
  O  O39  1  0.35707800  0.09342600  0.88867200  1
  O  O40  1  0.14292200  0.61132800  0.40657400  1
  O  O41  1  0.00442000  0.89597600  0.19879000  1
  O  O42  1  0.88867200  0.35707800  0.09342600  1
  O  O43  1  0.49558000  0.30121000  0.60402400  1
  O  O44  1  0.88226900  0.15253200  0.42982200  1
  O  O45  1  0.57017800  0.11773100  0.84746800  1
  O  O46  1  0.60402400  0.49558000  0.30121000  1
  O  O47  1  0.15253200  0.42982200  0.88226900  1
  O  O48  1  0.30121000  0.60402400  0.49558000  1
  O  O49  1  0.09342600  0.88867200  0.35707800  1
  O  O50  1  0.90657400  0.11132800  0.64292200  1
  O  O51  1  0.69879000  0.39597600  0.50442000  1
  O  O52  1  0.84746800  0.57017800  0.11773100  1
  O  O53  1  0.39597600  0.50442000  0.69879000  1
  O  O54  1  0.42982200  0.88226900  0.15253200  1
  O  O55  1  0.11773100  0.84746800  0.57017800  1
  O  O56  1  0.50442000  0.69879000  0.39597600  1
  O  O57  1  0.11132800  0.64292200  0.90657400  1
  O  O58  1  0.99558000  0.10402400  0.80121000  1
  O  O59  1  0.85707800  0.38867200  0.59342600  1
  O  O60  1  0.64292200  0.90657400  0.11132800  1
  O  O61  1  0.38867200  0.59342600  0.85707800  1
  O  O62  1  0.65253200  0.38226900  0.92982200  1
  O  O63  1  0.59342600  0.85707800  0.38867200  1
  O  O64  1  0.10402400  0.80121000  0.99558000  1
  O  O65  1  0.92982200  0.65253200  0.38226900  1
  O  O66  1  0.80121000  0.99558000  0.10402400  1
  O  O67  1  0.38226900  0.92982200  0.65253200  1
  O  O68  1  0.80251000  0.52817300  0.82120900  1
  O  O69  1  0.82120900  0.80251000  0.52817300  1
  O  O70  1  0.52817300  0.82120900  0.80251000  1
  O  O71  1  0.69749000  0.67879100  0.97182700  1
  O  O72  1  0.97182700  0.69749000  0.67879100  1
  O  O73  1  0.67879100  0.97182700  0.69749000  1
