# generated using pymatgen
data_Li2B2Rh3
_symmetry_space_group_name_H-M   'P 1'
_cell_length_a   2.85245600
_cell_length_b   5.80748300
_cell_length_c   9.57730400
_cell_angle_alpha   90.00000000
_cell_angle_beta   90.00000000
_cell_angle_gamma   90.00000000
_symmetry_Int_Tables_number   1
_chemical_formula_structural   Li2B2Rh3
_chemical_formula_sum   'Li4 B4 Rh6'
_cell_volume   158.65368877
_cell_formula_units_Z   2
loop_
 _symmetry_equiv_pos_site_id
 _symmetry_equiv_pos_as_xyz
  1  'x, y, z'
loop_
 _atom_site_type_symbol
 _atom_site_label
 _atom_site_symmetry_multiplicity
 _atom_site_fract_x
 _atom_site_fract_y
 _atom_site_fract_z
 _atom_site_occupancy
  Li  Li0  1  0.50000000  0.34082600  0.07413800  1
  Li  Li1  1  0.50000000  0.65917400  0.92586200  1
  Li  Li2  1  0.50000000  0.15917400  0.57413800  1
  Li  Li3  1  0.50000000  0.84082600  0.42586200  1
  B  B4  1  0.50000000  0.06253100  0.83105200  1
  B  B5  1  0.50000000  0.56253100  0.66894800  1
  B  B6  1  0.50000000  0.43746900  0.33105200  1
  B  B7  1  0.50000000  0.93746900  0.16894800  1
  Rh  Rh8  1  0.00000000  0.33391700  0.77971300  1
  Rh  Rh9  1  0.00000000  0.16608300  0.27971300  1
  Rh  Rh10  1  0.00000000  0.50000000  0.50000000  1
  Rh  Rh11  1  0.00000000  0.66608300  0.22028700  1
  Rh  Rh12  1  0.00000000  0.83391700  0.72028700  1
  Rh  Rh13  1  0.00000000  0.00000000  0.00000000  1
