# generated using pymatgen
data_K2LiSn4
_symmetry_space_group_name_H-M   'P 1'
_cell_length_a   15.78103580
_cell_length_b   15.78103580
_cell_length_c   19.18615608
_cell_angle_alpha   65.71713952
_cell_angle_beta   65.71713952
_cell_angle_gamma   89.96836092
_symmetry_Int_Tables_number   1
_chemical_formula_structural   K2LiSn4
_chemical_formula_sum   'K32 Li16 Sn64'
_cell_volume   3887.50169667
_cell_formula_units_Z   16
loop_
 _symmetry_equiv_pos_site_id
 _symmetry_equiv_pos_as_xyz
  1  'x, y, z'
loop_
 _atom_site_type_symbol
 _atom_site_label
 _atom_site_symmetry_multiplicity
 _atom_site_fract_x
 _atom_site_fract_y
 _atom_site_fract_z
 _atom_site_occupancy
  K  K0  1  0.87724900  0.12275100  0.75000000  1
  K  K1  1  0.92762100  0.40910900  0.13539200  1
  K  K2  1  0.63630300  0.86778900  0.25020700  1
  K  K3  1  0.40910900  0.92762100  0.63539200  1
  K  K4  1  0.60470400  0.86879700  0.74331000  1
  K  K5  1  0.59089100  0.07237900  0.36460800  1
  K  K6  1  0.46173900  0.43050700  0.62805100  1
  K  K7  1  0.91095400  0.93850900  0.63371400  1
  K  K8  1  0.38861200  0.61138800  0.75000000  1
  K  K9  1  0.12275100  0.87724900  0.25000000  1
  K  K10  1  0.35325800  0.64674200  0.25000000  1
  K  K11  1  0.64674200  0.35325800  0.75000000  1
  K  K12  1  0.61138800  0.38861200  0.25000000  1
  K  K13  1  0.88593000  0.11407000  0.25000000  1
  K  K14  1  0.39529600  0.13120300  0.25669000  1
  K  K15  1  0.93850900  0.91095400  0.13371400  1
  K  K16  1  0.06149100  0.08904600  0.86628600  1
  K  K17  1  0.08904600  0.06149100  0.36628600  1
  K  K18  1  0.36369700  0.13221100  0.74979300  1
  K  K19  1  0.53826100  0.56949300  0.37194900  1
  K  K20  1  0.86778900  0.63630300  0.75020700  1
  K  K21  1  0.56949300  0.53826100  0.87194900  1
  K  K22  1  0.13120300  0.39529600  0.75669000  1
  K  K23  1  0.43819400  0.95955900  0.13273400  1
  K  K24  1  0.13221100  0.36369700  0.24979300  1
  K  K25  1  0.11407000  0.88593000  0.75000000  1
  K  K26  1  0.43050700  0.46173900  0.12805100  1
  K  K27  1  0.04044100  0.56180600  0.36726600  1
  K  K28  1  0.95955900  0.43819400  0.63273400  1
  K  K29  1  0.56180600  0.04044100  0.86726600  1
  K  K30  1  0.86879700  0.60470400  0.24331000  1
  K  K31  1  0.07237900  0.59089100  0.86460800  1
  Li  Li32  1  0.24811300  0.54236900  0.99858000  1
  Li  Li33  1  0.24841900  0.04270800  0.50124600  1
  Li  Li34  1  0.75136000  0.54120000  0.50214100  1
  Li  Li35  1  0.75158100  0.95729200  0.49875400  1
  Li  Li36  1  0.95729200  0.75158100  0.99875400  1
  Li  Li37  1  0.75188700  0.45763100  0.00142000  1
  Li  Li38  1  0.24225100  0.95404600  0.00328000  1
  Li  Li39  1  0.24864000  0.45880000  0.49785900  1
  Li  Li40  1  0.95404600  0.24225100  0.50328000  1
  Li  Li41  1  0.45880000  0.24864000  0.99785900  1
  Li  Li42  1  0.75774900  0.04595400  0.99672000  1
  Li  Li43  1  0.54120000  0.75136000  0.00214100  1
  Li  Li44  1  0.04595400  0.75774900  0.49672000  1
  Li  Li45  1  0.04270800  0.24841900  0.00124600  1
  Li  Li46  1  0.45763100  0.75188700  0.50142000  1
  Li  Li47  1  0.54236900  0.24811300  0.49858000  1
  Sn  Sn48  1  0.76187400  0.39312200  0.87242700  1
  Sn  Sn49  1  0.14862300  0.26334600  0.63564800  1
  Sn  Sn50  1  0.69387300  0.40151300  0.44725300  1
  Sn  Sn51  1  0.63247200  0.10602300  0.12857200  1
  Sn  Sn52  1  0.59632100  0.79514900  0.57256200  1
  Sn  Sn53  1  0.10602300  0.63247200  0.62857200  1
  Sn  Sn54  1  0.80774100  0.34598300  0.55271800  1
  Sn  Sn55  1  0.13396100  0.34893300  0.46619200  1
  Sn  Sn56  1  0.60200300  0.64922900  0.13852800  1
  Sn  Sn57  1  0.87285700  0.23890400  0.87148100  1
  Sn  Sn58  1  0.11341900  0.26425800  0.11719700  1
  Sn  Sn59  1  0.34893300  0.13396100  0.96619200  1
  Sn  Sn60  1  0.76425300  0.77245700  0.61679100  1
  Sn  Sn61  1  0.77245700  0.76425300  0.11679100  1
  Sn  Sn62  1  0.23574700  0.22754300  0.38320900  1
  Sn  Sn63  1  0.85137700  0.73665400  0.36435200  1
  Sn  Sn64  1  0.22754300  0.23574700  0.88320900  1
  Sn  Sn65  1  0.34598300  0.80774100  0.05271800  1
  Sn  Sn66  1  0.35907500  0.90276300  0.45065200  1
  Sn  Sn67  1  0.73665400  0.85137700  0.86435200  1
  Sn  Sn68  1  0.39312200  0.76187400  0.37242700  1
  Sn  Sn69  1  0.26263300  0.73757300  0.86741200  1
  Sn  Sn70  1  0.23812600  0.60687800  0.12757300  1
  Sn  Sn71  1  0.14087100  0.84994900  0.55631200  1
  Sn  Sn72  1  0.76109600  0.12714300  0.62851900  1
  Sn  Sn73  1  0.30612700  0.59848700  0.55274700  1
  Sn  Sn74  1  0.12714300  0.76109600  0.12851900  1
  Sn  Sn75  1  0.26242700  0.73736700  0.63258800  1
  Sn  Sn76  1  0.85912900  0.15005100  0.44368800  1
  Sn  Sn77  1  0.90395900  0.86717400  0.42685100  1
  Sn  Sn78  1  0.36752800  0.89397700  0.87142800  1
  Sn  Sn79  1  0.19225900  0.65401700  0.44728200  1
  Sn  Sn80  1  0.63463500  0.68142000  0.46946800  1
  Sn  Sn81  1  0.23890400  0.87285700  0.37148100  1
  Sn  Sn82  1  0.09723700  0.64092500  0.04934800  1
  Sn  Sn83  1  0.13282600  0.09604100  0.07314900  1
  Sn  Sn84  1  0.35077100  0.39799700  0.36147200  1
  Sn  Sn85  1  0.73757300  0.26263300  0.36741200  1
  Sn  Sn86  1  0.40151300  0.69387300  0.94725300  1
  Sn  Sn87  1  0.73736700  0.26242700  0.13258800  1
  Sn  Sn88  1  0.90276300  0.35907500  0.95065200  1
  Sn  Sn89  1  0.20485200  0.40367900  0.92743800  1
  Sn  Sn90  1  0.88658100  0.73574200  0.88280300  1
  Sn  Sn91  1  0.86603900  0.65106700  0.53380800  1
  Sn  Sn92  1  0.15005100  0.85912900  0.94368800  1
  Sn  Sn93  1  0.64092500  0.09723700  0.54934800  1
  Sn  Sn94  1  0.59848700  0.30612700  0.05274700  1
  Sn  Sn95  1  0.40367900  0.20485200  0.42743800  1
  Sn  Sn96  1  0.09604100  0.13282600  0.57314900  1
  Sn  Sn97  1  0.68142000  0.63463500  0.96946800  1
  Sn  Sn98  1  0.73574200  0.88658100  0.38280300  1
  Sn  Sn99  1  0.84994900  0.14087100  0.05631200  1
  Sn  Sn100  1  0.89397700  0.36752800  0.37142800  1
  Sn  Sn101  1  0.65106700  0.86603900  0.03380800  1
  Sn  Sn102  1  0.39799700  0.35077100  0.86147200  1
  Sn  Sn103  1  0.26425800  0.11341900  0.61719700  1
  Sn  Sn104  1  0.26334600  0.14862300  0.13564800  1
  Sn  Sn105  1  0.60687800  0.23812600  0.62757300  1
  Sn  Sn106  1  0.86717400  0.90395900  0.92685100  1
  Sn  Sn107  1  0.31858000  0.36536500  0.03053200  1
  Sn  Sn108  1  0.36536500  0.31858000  0.53053200  1
  Sn  Sn109  1  0.79514900  0.59632100  0.07256200  1
  Sn  Sn110  1  0.65401700  0.19225900  0.94728200  1
  Sn  Sn111  1  0.64922900  0.60200300  0.63852800  1
