# generated using pymatgen
data_Na2CuP2O7
_symmetry_space_group_name_H-M   'P 1'
_cell_length_a   7.97348795
_cell_length_b   7.97348795
_cell_length_c   8.13301263
_cell_angle_alpha   66.96820996
_cell_angle_beta   66.96820996
_cell_angle_gamma   42.95238096
_symmetry_Int_Tables_number   1
_chemical_formula_structural   Na2CuP2O7
_chemical_formula_sum   'Na4 Cu2 P4 O14'
_cell_volume   319.67331096
_cell_formula_units_Z   2
loop_
 _symmetry_equiv_pos_site_id
 _symmetry_equiv_pos_as_xyz
  1  'x, y, z'
loop_
 _atom_site_type_symbol
 _atom_site_label
 _atom_site_symmetry_multiplicity
 _atom_site_fract_x
 _atom_site_fract_y
 _atom_site_fract_z
 _atom_site_occupancy
  Na  Na0  1  0.91368600  0.62998400  0.29948300  1
  Na  Na1  1  0.37001600  0.08631400  0.20051700  1
  Na  Na2  1  0.08631400  0.37001600  0.70051700  1
  Na  Na3  1  0.62998400  0.91368600  0.79948300  1
  Cu  Cu4  1  0.00000000  0.00000000  0.50000000  1
  Cu  Cu5  1  0.00000000  0.00000000  0.00000000  1
  P  P6  1  0.44289000  0.76667700  0.65620500  1
  P  P7  1  0.23332300  0.55711000  0.84379500  1
  P  P8  1  0.55711000  0.23332300  0.34379500  1
  P  P9  1  0.76667700  0.44289000  0.15620500  1
  O  O10  1  0.47647700  0.52352300  0.75000000  1
  O  O11  1  0.52352300  0.47647700  0.25000000  1
  O  O12  1  0.27677900  0.94143400  0.79973300  1
  O  O13  1  0.05856600  0.72322100  0.70026700  1
  O  O14  1  0.72322100  0.05856600  0.20026700  1
  O  O15  1  0.94143400  0.27677900  0.29973300  1
  O  O16  1  0.69977500  0.67537300  0.60155400  1
  O  O17  1  0.32462700  0.30022500  0.89844600  1
  O  O18  1  0.30022500  0.32462700  0.39844600  1
  O  O19  1  0.67537300  0.69977500  0.10155400  1
  O  O20  1  0.88996600  0.31397100  0.99147000  1
  O  O21  1  0.68602900  0.11003400  0.50853000  1
  O  O22  1  0.11003400  0.68602900  0.00853000  1
  O  O23  1  0.31397100  0.88996600  0.49147000  1
