# generated using pymatgen
data_TbCoSn
_symmetry_space_group_name_H-M   'P 1'
_cell_length_a   4.58095600
_cell_length_b   7.29048000
_cell_length_c   7.39420200
_cell_angle_alpha   90.00000000
_cell_angle_beta   90.00000000
_cell_angle_gamma   90.00000000
_symmetry_Int_Tables_number   1
_chemical_formula_structural   TbCoSn
_chemical_formula_sum   'Tb4 Co4 Sn4'
_cell_volume   246.94688599
_cell_formula_units_Z   4
loop_
 _symmetry_equiv_pos_site_id
 _symmetry_equiv_pos_as_xyz
  1  'x, y, z'
loop_
 _atom_site_type_symbol
 _atom_site_label
 _atom_site_symmetry_multiplicity
 _atom_site_fract_x
 _atom_site_fract_y
 _atom_site_fract_z
 _atom_site_occupancy
  Tb  Tb0  1  0.75000000  0.30051300  0.52636000  1
  Tb  Tb1  1  0.25000000  0.80051300  0.97364000  1
  Tb  Tb2  1  0.75000000  0.19948700  0.02636000  1
  Tb  Tb3  1  0.25000000  0.69948700  0.47364000  1
  Co  Co4  1  0.75000000  0.93934300  0.34966200  1
  Co  Co5  1  0.75000000  0.56065700  0.84966200  1
  Co  Co6  1  0.25000000  0.43934300  0.15033800  1
  Co  Co7  1  0.25000000  0.06065700  0.65033800  1
  Sn  Sn8  1  0.25000000  0.39225600  0.79790500  1
  Sn  Sn9  1  0.75000000  0.89225600  0.70209500  1
  Sn  Sn10  1  0.25000000  0.10774400  0.29790500  1
  Sn  Sn11  1  0.75000000  0.60774400  0.20209500  1
