# generated using pymatgen
data_Ca2AlH10BrO8
_symmetry_space_group_name_H-M   'P 1'
_cell_length_a   5.80193900
_cell_length_b   9.00796083
_cell_length_c   9.95605740
_cell_angle_alpha   100.95636813
_cell_angle_beta   89.95219432
_cell_angle_gamma   108.58698791
_symmetry_Int_Tables_number   1
_chemical_formula_structural   Ca2AlH10BrO8
_chemical_formula_sum   'Ca4 Al2 H20 Br2 O16'
_cell_volume   483.21031479
_cell_formula_units_Z   2
loop_
 _symmetry_equiv_pos_site_id
 _symmetry_equiv_pos_as_xyz
  1  'x, y, z'
loop_
 _atom_site_type_symbol
 _atom_site_label
 _atom_site_symmetry_multiplicity
 _atom_site_fract_x
 _atom_site_fract_y
 _atom_site_fract_z
 _atom_site_occupancy
  Ca  Ca0  1  0.71259500  0.92405700  0.40412800  1
  Ca  Ca1  1  0.21294900  0.92435700  0.90364300  1
  Ca  Ca2  1  0.28740500  0.07594300  0.59587200  1
  Ca  Ca3  1  0.78705100  0.07564300  0.09635700  1
  Al  Al4  1  0.24977400  0.99948300  0.25003200  1
  Al  Al5  1  0.75022600  0.00051700  0.74996800  1
  H  H6  1  0.52783200  0.57437600  0.25441300  1
  H  H7  1  0.67254300  0.57383400  0.38698500  1
  H  H8  1  0.60424700  0.22537500  0.38949100  1
  H  H9  1  0.88541400  0.22382300  0.61554000  1
  H  H10  1  0.09223000  0.22484500  0.35988200  1
  H  H11  1  0.91166500  0.57465600  0.89963900  1
  H  H12  1  0.02199700  0.57394400  0.75572800  1
  H  H13  1  0.90777000  0.77515500  0.64011800  1
  H  H14  1  0.11458600  0.77617700  0.38446000  1
  H  H15  1  0.39575300  0.77462500  0.61050900  1
  H  H16  1  0.10706200  0.22457900  0.88488900  1
  H  H17  1  0.39195000  0.22457200  0.11571600  1
  H  H18  1  0.59255600  0.22482900  0.86351400  1
  H  H19  1  0.32745700  0.42616600  0.61301500  1
  H  H20  1  0.47216800  0.42562400  0.74558700  1
  H  H21  1  0.40744400  0.77517100  0.13648600  1
  H  H22  1  0.60805000  0.77542800  0.88428400  1
  H  H23  1  0.89293800  0.77542100  0.11511100  1
  H  H24  1  0.97800300  0.42605600  0.24427200  1
  H  H25  1  0.08833500  0.42534400  0.10036100  1
  Br  Br26  1  0.00000000  0.50000000  0.50000000  1
  Br  Br27  1  0.50000000  0.50000000  0.00000000  1
  O  O28  1  0.57157100  0.62806000  0.35086000  1
  O  O29  1  0.49370900  0.11963600  0.39510900  1
  O  O30  1  0.90487000  0.11998500  0.61508400  1
  O  O31  1  0.02991200  0.11928000  0.30032600  1
  O  O32  1  0.05410600  0.62764500  0.85272400  1
  O  O33  1  0.97008800  0.88072000  0.69967400  1
  O  O34  1  0.09513000  0.88001500  0.38491600  1
  O  O35  1  0.50629100  0.88036400  0.60489100  1
  O  O36  1  0.99372200  0.12170000  0.89591600  1
  O  O37  1  0.40511200  0.11906800  0.11522300  1
  O  O38  1  0.53189100  0.12207000  0.79962000  1
  O  O39  1  0.42842900  0.37194000  0.64914000  1
  O  O40  1  0.46810900  0.87793000  0.20038000  1
  O  O41  1  0.59488800  0.88093200  0.88477700  1
  O  O42  1  0.00627800  0.87830000  0.10408400  1
  O  O43  1  0.94589400  0.37235500  0.14727600  1
