# generated using pymatgen
data_K2Na2Gd4Nb2O13
_symmetry_space_group_name_H-M   'P 1'
_cell_length_a   12.44017168
_cell_length_b   12.44017168
_cell_length_c   11.25431600
_cell_angle_alpha   64.40815056
_cell_angle_beta   64.40815056
_cell_angle_gamma   26.40386000
_symmetry_Int_Tables_number   1
_chemical_formula_structural   K2Na2Gd4Nb2O13
_chemical_formula_sum   'K4 Na4 Gd8 Nb4 O26'
_cell_volume   694.11524478
_cell_formula_units_Z   2
loop_
 _symmetry_equiv_pos_site_id
 _symmetry_equiv_pos_as_xyz
  1  'x, y, z'
loop_
 _atom_site_type_symbol
 _atom_site_label
 _atom_site_symmetry_multiplicity
 _atom_site_fract_x
 _atom_site_fract_y
 _atom_site_fract_z
 _atom_site_occupancy
  K  K0  1  0.19587100  0.30563000  0.63327000  1
  K  K1  1  0.80412900  0.69437000  0.36673000  1
  K  K2  1  0.69437000  0.80412900  0.86673000  1
  K  K3  1  0.30563000  0.19587100  0.13327000  1
  Na  Na4  1  0.80128400  0.88075400  0.52227300  1
  Na  Na5  1  0.19871600  0.11924600  0.47772700  1
  Na  Na6  1  0.88075400  0.80128400  0.02227300  1
  Na  Na7  1  0.11924600  0.19871600  0.97772700  1
  Gd  Gd8  1  0.39145800  0.48353400  0.44951000  1
  Gd  Gd9  1  0.48353400  0.39145800  0.94951000  1
  Gd  Gd10  1  0.09881800  0.02567700  0.32849500  1
  Gd  Gd11  1  0.60854200  0.51646600  0.55049000  1
  Gd  Gd12  1  0.51646600  0.60854200  0.05049000  1
  Gd  Gd13  1  0.97432300  0.90118200  0.17150500  1
  Gd  Gd14  1  0.02567700  0.09881800  0.82849500  1
  Gd  Gd15  1  0.90118200  0.97432300  0.67150500  1
  Nb  Nb16  1  0.61610700  0.68474000  0.71766900  1
  Nb  Nb17  1  0.38389300  0.31526000  0.28233100  1
  Nb  Nb18  1  0.68474000  0.61610700  0.21766900  1
  Nb  Nb19  1  0.31526000  0.38389300  0.78233100  1
  O  O20  1  0.24621500  0.75378500  0.25000000  1
  O  O21  1  0.66920100  0.80230400  0.62236600  1
  O  O22  1  0.75113400  0.24630900  0.47742600  1
  O  O23  1  0.13478600  0.59501800  0.37724900  1
  O  O24  1  0.40498200  0.86521400  0.12275100  1
  O  O25  1  0.33079900  0.19769600  0.37763400  1
  O  O26  1  0.75378500  0.24621500  0.75000000  1
  O  O27  1  0.19769600  0.33079900  0.87763400  1
  O  O28  1  0.82939700  0.36872000  0.16100000  1
  O  O29  1  0.09195900  0.64538400  0.63856000  1
  O  O30  1  0.75369100  0.24886600  0.02257400  1
  O  O31  1  0.64538400  0.09195900  0.13856000  1
  O  O32  1  0.36872000  0.82939700  0.66100000  1
  O  O33  1  0.35461600  0.90804100  0.86144000  1
  O  O34  1  0.86521400  0.40498200  0.62275100  1
  O  O35  1  0.56119900  0.17957600  0.63596300  1
  O  O36  1  0.24886600  0.75369100  0.52257400  1
  O  O37  1  0.59501800  0.13478600  0.87724900  1
  O  O38  1  0.63128000  0.17060300  0.33900000  1
  O  O39  1  0.17957600  0.56119900  0.13596300  1
  O  O40  1  0.17060300  0.63128000  0.83900000  1
  O  O41  1  0.90804100  0.35461600  0.36144000  1
  O  O42  1  0.80230400  0.66920100  0.12236600  1
  O  O43  1  0.24630900  0.75113400  0.97742600  1
  O  O44  1  0.43880100  0.82042400  0.36403700  1
  O  O45  1  0.82042400  0.43880100  0.86403700  1
