# generated using pymatgen
data_H8Pd(NCl3)2
_symmetry_space_group_name_H-M   'P 1'
_cell_length_a   6.97307100
_cell_length_b   6.97510800
_cell_length_c   12.16509851
_cell_angle_alpha   55.06765049
_cell_angle_beta   90.00000000
_cell_angle_gamma   90.00000000
_symmetry_Int_Tables_number   1
_chemical_formula_structural   H8Pd(NCl3)2
_chemical_formula_sum   'H16 Pd2 N4 Cl12'
_cell_volume   485.08045470
_cell_formula_units_Z   2
loop_
 _symmetry_equiv_pos_site_id
 _symmetry_equiv_pos_as_xyz
  1  'x, y, z'
loop_
 _atom_site_type_symbol
 _atom_site_label
 _atom_site_symmetry_multiplicity
 _atom_site_fract_x
 _atom_site_fract_y
 _atom_site_fract_z
 _atom_site_occupancy
  H  H0  1  0.52361100  0.61933700  0.23570600  1
  H  H1  1  0.97638900  0.61933700  0.73570600  1
  H  H2  1  0.47638900  0.38066300  0.76429400  1
  H  H3  1  0.02361100  0.38066300  0.26429400  1
  H  H4  1  0.57430700  0.71120100  0.33479800  1
  H  H5  1  0.92569300  0.71120100  0.83479800  1
  H  H6  1  0.42569300  0.28879900  0.66520200  1
  H  H7  1  0.07430700  0.28879900  0.16520200  1
  H  H8  1  0.35492200  0.75792100  0.26429200  1
  H  H9  1  0.14507800  0.75792100  0.76429200  1
  H  H10  1  0.64507800  0.24207900  0.73570800  1
  H  H11  1  0.85492200  0.24207900  0.23570800  1
  H  H12  1  0.54777000  0.90802000  0.16819500  1
  H  H13  1  0.95223000  0.90802000  0.66819500  1
  H  H14  1  0.45223000  0.09198000  0.83180500  1
  H  H15  1  0.04777000  0.09198000  0.33180500  1
  Pd  Pd16  1  0.50000000  0.00000000  0.50000000  1
  Pd  Pd17  1  0.00000000  0.00000000  0.00000000  1
  N  N18  1  0.50040200  0.74962000  0.25056000  1
  N  N19  1  0.99959800  0.74962000  0.75056000  1
  N  N20  1  0.49959800  0.25038000  0.74944000  1
  N  N21  1  0.00040200  0.25038000  0.24944000  1
  Cl  Cl22  1  0.72909000  0.75137600  0.49979100  1
  Cl  Cl23  1  0.77091000  0.75137600  0.99979100  1
  Cl  Cl24  1  0.27091000  0.24862400  0.50020900  1
  Cl  Cl25  1  0.22909000  0.24862400  0.00020900  1
  Cl  Cl26  1  0.25112600  0.77496400  0.49599500  1
  Cl  Cl27  1  0.24887400  0.77496400  0.99599500  1
  Cl  Cl28  1  0.74887400  0.22503600  0.50400500  1
  Cl  Cl29  1  0.75112600  0.22503600  0.00400500  1
  Cl  Cl30  1  0.50543500  0.24053700  0.26320800  1
  Cl  Cl31  1  0.99456500  0.24053700  0.76320800  1
  Cl  Cl32  1  0.49456500  0.75946300  0.73679200  1
  Cl  Cl33  1  0.00543500  0.75946300  0.23679200  1
