# generated using pymatgen
data_La2GeS5
_symmetry_space_group_name_H-M   'P 1'
_cell_length_a   12.81514900
_cell_length_b   7.71542200
_cell_length_c   7.96877673
_cell_angle_alpha   78.69217701
_cell_angle_beta   90.00000000
_cell_angle_gamma   90.00000000
_symmetry_Int_Tables_number   1
_chemical_formula_structural   La2GeS5
_chemical_formula_sum   'La8 Ge4 S20'
_cell_volume   772.61214686
_cell_formula_units_Z   4
loop_
 _symmetry_equiv_pos_site_id
 _symmetry_equiv_pos_as_xyz
  1  'x, y, z'
loop_
 _atom_site_type_symbol
 _atom_site_label
 _atom_site_symmetry_multiplicity
 _atom_site_fract_x
 _atom_site_fract_y
 _atom_site_fract_z
 _atom_site_occupancy
  La  La0  1  0.16649900  0.15988300  0.36515500  1
  La  La1  1  0.09346200  0.76160800  0.04191300  1
  La  La2  1  0.59346200  0.23839200  0.45808700  1
  La  La3  1  0.40653800  0.76160800  0.54191300  1
  La  La4  1  0.83350100  0.84011700  0.63484500  1
  La  La5  1  0.90653800  0.23839200  0.95808700  1
  La  La6  1  0.66649900  0.84011700  0.13484500  1
  La  La7  1  0.33350100  0.15988300  0.86515500  1
  Ge  Ge8  1  0.61668400  0.33789400  0.90895600  1
  Ge  Ge9  1  0.11668400  0.66210600  0.59104400  1
  Ge  Ge10  1  0.38331600  0.66210600  0.09104400  1
  Ge  Ge11  1  0.88331600  0.33789400  0.40895600  1
  S  S12  1  0.70564300  0.12778800  0.80286800  1
  S  S13  1  0.02582800  0.83034100  0.38087900  1
  S  S14  1  0.23353800  0.46352500  0.54705400  1
  S  S15  1  0.52582800  0.16965900  0.11912100  1
  S  S16  1  0.79435700  0.12778800  0.30286800  1
  S  S17  1  0.29435700  0.87221200  0.19713200  1
  S  S18  1  0.20564300  0.87221200  0.69713200  1
  S  S19  1  0.87898200  0.86214100  0.99905900  1
  S  S20  1  0.97417200  0.16965900  0.61912100  1
  S  S21  1  0.62101800  0.86214100  0.49905900  1
  S  S22  1  0.49285100  0.42091000  0.71557300  1
  S  S23  1  0.76646200  0.53647500  0.45294600  1
  S  S24  1  0.47417200  0.83034100  0.88087900  1
  S  S25  1  0.99285100  0.57909000  0.78442700  1
  S  S26  1  0.37898200  0.13785900  0.50094100  1
  S  S27  1  0.50714900  0.57909000  0.28442700  1
  S  S28  1  0.00714900  0.42091000  0.21557300  1
  S  S29  1  0.12101800  0.13785900  0.00094100  1
  S  S30  1  0.73353800  0.53647500  0.95294600  1
  S  S31  1  0.26646200  0.46352500  0.04705400  1
