# generated using pymatgen
data_Ba4LiW2N7
_symmetry_space_group_name_H-M   'P 1'
_cell_length_a   6.57530500
_cell_length_b   10.48807700
_cell_length_c   17.52623344
_cell_angle_alpha   62.70248014
_cell_angle_beta   90.00000000
_cell_angle_gamma   90.00000000
_symmetry_Int_Tables_number   1
_chemical_formula_structural   Ba4LiW2N7
_chemical_formula_sum   'Ba16 Li4 W8 N28'
_cell_volume   1074.05073185
_cell_formula_units_Z   4
loop_
 _symmetry_equiv_pos_site_id
 _symmetry_equiv_pos_as_xyz
  1  'x, y, z'
loop_
 _atom_site_type_symbol
 _atom_site_label
 _atom_site_symmetry_multiplicity
 _atom_site_fract_x
 _atom_site_fract_y
 _atom_site_fract_z
 _atom_site_occupancy
  Ba  Ba0  1  0.31571300  0.00000000  0.75000000  1
  Ba  Ba1  1  0.85774600  0.30332300  0.62079700  1
  Ba  Ba2  1  0.85774600  0.69667700  0.87920300  1
  Ba  Ba3  1  0.14225400  0.69667700  0.37920300  1
  Ba  Ba4  1  0.14225400  0.30332300  0.12079700  1
  Ba  Ba5  1  0.27872800  0.25931600  0.48406100  1
  Ba  Ba6  1  0.27872800  0.74068400  0.01593900  1
  Ba  Ba7  1  0.72127200  0.74068400  0.51593900  1
  Ba  Ba8  1  0.72127200  0.25931600  0.98406100  1
  Ba  Ba9  1  0.77102900  0.15098900  0.42794900  1
  Ba  Ba10  1  0.77102900  0.84901100  0.07205100  1
  Ba  Ba11  1  0.22897100  0.84901100  0.57205100  1
  Ba  Ba12  1  0.22897100  0.15098900  0.92794900  1
  Ba  Ba13  1  0.97737900  0.50000000  0.25000000  1
  Ba  Ba14  1  0.02262100  0.50000000  0.75000000  1
  Ba  Ba15  1  0.68428700  0.00000000  0.25000000  1
  Li  Li16  1  0.54350300  0.36705900  0.76083700  1
  Li  Li17  1  0.45649700  0.36705900  0.26083700  1
  Li  Li18  1  0.45649700  0.63294100  0.23916300  1
  Li  Li19  1  0.54350300  0.63294100  0.73916300  1
  W  W20  1  0.32999500  0.51790400  0.90348100  1
  W  W21  1  0.32999500  0.48209600  0.59651900  1
  W  W22  1  0.67000500  0.48209600  0.09651900  1
  W  W23  1  0.67000500  0.51790400  0.40348100  1
  W  W24  1  0.22508700  0.95066000  0.15536600  1
  W  W25  1  0.22508700  0.04934000  0.34463400  1
  W  W26  1  0.77491300  0.04934000  0.84463400  1
  W  W27  1  0.77491300  0.95066000  0.65536600  1
  N  N28  1  0.53523600  0.98419800  0.90793000  1
  N  N29  1  0.18267500  0.75296700  0.19529100  1
  N  N30  1  0.18267500  0.24703300  0.30470900  1
  N  N31  1  0.81732500  0.24703300  0.80470900  1
  N  N32  1  0.81732500  0.75296700  0.69529100  1
  N  N33  1  0.53027400  0.43190600  0.34714700  1
  N  N34  1  0.53027400  0.56809400  0.15285300  1
  N  N35  1  0.46972600  0.56809400  0.65285300  1
  N  N36  1  0.46972600  0.43190600  0.84714700  1
  N  N37  1  0.46476400  0.01580200  0.09207000  1
  N  N38  1  0.46476400  0.98419800  0.40793000  1
  N  N39  1  0.07862100  0.57663700  0.56436000  1
  N  N40  1  0.27516900  0.29130300  0.67107900  1
  N  N41  1  0.27516900  0.70869700  0.82892100  1
  N  N42  1  0.72483100  0.70869700  0.32892100  1
  N  N43  1  0.72483100  0.29130300  0.17107900  1
  N  N44  1  0.50000000  0.50000000  0.00000000  1
  N  N45  1  0.50000000  0.50000000  0.50000000  1
  N  N46  1  0.76022200  0.00000000  0.75000000  1
  N  N47  1  0.23977800  0.00000000  0.25000000  1
  N  N48  1  0.01151400  0.05472600  0.08351800  1
  N  N49  1  0.01151400  0.94527400  0.41648200  1
  N  N50  1  0.98848600  0.94527400  0.91648200  1
  N  N51  1  0.98848600  0.05472600  0.58351800  1
  N  N52  1  0.92137900  0.57663700  0.06436000  1
  N  N53  1  0.07862100  0.42336300  0.93564000  1
  N  N54  1  0.92137900  0.42336300  0.43564000  1
  N  N55  1  0.53523600  0.01580200  0.59207000  1
