# generated using pymatgen
data_Cs2Tb6Te7N2
_symmetry_space_group_name_H-M   'P 1'
_cell_length_a   12.32612614
_cell_length_b   12.32612614
_cell_length_c   11.53593221
_cell_angle_alpha   76.49964391
_cell_angle_beta   76.49964391
_cell_angle_gamma   19.72816088
_symmetry_Int_Tables_number   1
_chemical_formula_structural   Cs2Tb6Te7N2
_chemical_formula_sum   'Cs2 Tb6 Te7 N2'
_cell_volume   574.78622575
_cell_formula_units_Z   1
loop_
 _symmetry_equiv_pos_site_id
 _symmetry_equiv_pos_as_xyz
  1  'x, y, z'
loop_
 _atom_site_type_symbol
 _atom_site_label
 _atom_site_symmetry_multiplicity
 _atom_site_fract_x
 _atom_site_fract_y
 _atom_site_fract_z
 _atom_site_occupancy
  Cs  Cs0  1  0.06797800  0.06797800  0.30049900  1
  Cs  Cs1  1  0.93599700  0.93599700  0.69600200  1
  Tb  Tb2  1  0.16530600  0.16530600  0.61110300  1
  Tb  Tb3  1  0.83568500  0.83568500  0.38895300  1
  Tb  Tb4  1  0.59192600  0.59192600  0.86405500  1
  Tb  Tb5  1  0.40946200  0.40946200  0.13802200  1
  Tb  Tb6  1  0.78567000  0.78567000  0.12998800  1
  Tb  Tb7  1  0.21622400  0.21622400  0.86843900  1
  Te  Te8  1  0.66490400  0.66490400  0.05676500  1
  Te  Te9  1  0.33643900  0.33643900  0.94247500  1
  Te  Te10  1  0.00120600  0.00120600  0.00307100  1
  Te  Te11  1  0.76062900  0.76062900  0.66105600  1
  Te  Te12  1  0.57615900  0.57615900  0.59686500  1
  Te  Te13  1  0.42485600  0.42485600  0.40421500  1
  Te  Te14  1  0.24183100  0.24183100  0.33875800  1
  N  N15  1  0.13827100  0.13827100  0.80517800  1
  N  N16  1  0.86318200  0.86318200  0.19458200  1
