# generated using pymatgen
data_UVN2
_symmetry_space_group_name_H-M   'P 1'
_cell_length_a   3.15698900
_cell_length_b   5.44671400
_cell_length_c   10.68841700
_cell_angle_alpha   90.00000000
_cell_angle_beta   90.00000000
_cell_angle_gamma   90.00000000
_symmetry_Int_Tables_number   1
_chemical_formula_structural   UVN2
_chemical_formula_sum   'U4 V4 N8'
_cell_volume   183.78964098
_cell_formula_units_Z   4
loop_
 _symmetry_equiv_pos_site_id
 _symmetry_equiv_pos_as_xyz
  1  'x, y, z'
loop_
 _atom_site_type_symbol
 _atom_site_label
 _atom_site_symmetry_multiplicity
 _atom_site_fract_x
 _atom_site_fract_y
 _atom_site_fract_z
 _atom_site_occupancy
  U  U0  1  0.75000000  0.07857200  0.85674600  1
  U  U1  1  0.75000000  0.57857200  0.64325400  1
  U  U2  1  0.25000000  0.92142800  0.14325400  1
  U  U3  1  0.25000000  0.42142800  0.35674600  1
  V  V4  1  0.25000000  0.07577800  0.59818100  1
  V  V5  1  0.75000000  0.42422200  0.09818100  1
  V  V6  1  0.25000000  0.57577800  0.90181900  1
  V  V7  1  0.75000000  0.92422200  0.40181900  1
  N  N8  1  0.25000000  0.33633300  0.74564500  1
  N  N9  1  0.75000000  0.16366700  0.24564500  1
  N  N10  1  0.25000000  0.25898400  0.00698800  1
  N  N11  1  0.75000000  0.66366700  0.25435500  1
  N  N12  1  0.25000000  0.83633300  0.75435500  1
  N  N13  1  0.75000000  0.74101600  0.99301200  1
  N  N14  1  0.75000000  0.24101600  0.50698800  1
  N  N15  1  0.25000000  0.75898400  0.49301200  1
