# generated using pymatgen
data_CsSb3F16
_symmetry_space_group_name_H-M   'P 1'
_cell_length_a   7.89392000
_cell_length_b   16.33296300
_cell_length_c   22.46846800
_cell_angle_alpha   90.00000000
_cell_angle_beta   90.00000000
_cell_angle_gamma   90.00000000
_symmetry_Int_Tables_number   1
_chemical_formula_structural   CsSb3F16
_chemical_formula_sum   'Cs8 Sb24 F128'
_cell_volume   2896.88436836
_cell_formula_units_Z   8
loop_
 _symmetry_equiv_pos_site_id
 _symmetry_equiv_pos_as_xyz
  1  'x, y, z'
loop_
 _atom_site_type_symbol
 _atom_site_label
 _atom_site_symmetry_multiplicity
 _atom_site_fract_x
 _atom_site_fract_y
 _atom_site_fract_z
 _atom_site_occupancy
  Cs  Cs0  1  0.96365200  0.41078700  0.50355600  1
  Cs  Cs1  1  0.44683900  0.14472000  0.75580700  1
  Cs  Cs2  1  0.55316100  0.64472000  0.24419300  1
  Cs  Cs3  1  0.03634800  0.91078700  0.49644400  1
  Cs  Cs4  1  0.55316100  0.14472000  0.25580700  1
  Cs  Cs5  1  0.44683900  0.64472000  0.74419300  1
  Cs  Cs6  1  0.96365200  0.91078700  0.99644400  1
  Cs  Cs7  1  0.03634800  0.41078700  0.00355600  1
  Sb  Sb8  1  0.45157000  0.86183100  0.86918300  1
  Sb  Sb9  1  0.54843000  0.86183100  0.36918300  1
  Sb  Sb10  1  0.95321300  0.68473400  0.61808100  1
  Sb  Sb11  1  0.04678700  0.68473400  0.11808100  1
  Sb  Sb12  1  0.04678700  0.18473400  0.38191900  1
  Sb  Sb13  1  0.03372600  0.63890000  0.38791900  1
  Sb  Sb14  1  0.62145100  0.13792100  0.47878800  1
  Sb  Sb15  1  0.51004100  0.42077900  0.85827200  1
  Sb  Sb16  1  0.13509000  0.92003800  0.27220600  1
  Sb  Sb17  1  0.03372600  0.13890000  0.11208100  1
  Sb  Sb18  1  0.62145100  0.63792100  0.02121200  1
  Sb  Sb19  1  0.13509000  0.42003800  0.22779400  1
  Sb  Sb20  1  0.37854900  0.63792100  0.52121200  1
  Sb  Sb21  1  0.48995900  0.92077900  0.14172800  1
  Sb  Sb22  1  0.86491000  0.42003800  0.72779400  1
  Sb  Sb23  1  0.54843000  0.36183100  0.13081700  1
  Sb  Sb24  1  0.96627400  0.63890000  0.88791900  1
  Sb  Sb25  1  0.48995900  0.42077900  0.35827200  1
  Sb  Sb26  1  0.37854900  0.13792100  0.97878800  1
  Sb  Sb27  1  0.96627400  0.13890000  0.61208100  1
  Sb  Sb28  1  0.45157000  0.36183100  0.63081700  1
  Sb  Sb29  1  0.51004100  0.92077900  0.64172800  1
  Sb  Sb30  1  0.86491000  0.92003800  0.77220600  1
  Sb  Sb31  1  0.95321300  0.18473400  0.88191900  1
  F  F32  1  0.31859600  0.32177200  0.69518900  1
  F  F33  1  0.74686400  0.52016200  0.71793400  1
  F  F34  1  0.84921500  0.67469300  0.05400800  1
  F  F35  1  0.22367500  0.69601100  0.17429900  1
  F  F36  1  0.42436900  0.60452500  0.98135300  1
  F  F37  1  0.95198500  0.46878900  0.26772200  1
  F  F38  1  0.89440000  0.63181600  0.17167200  1
  F  F39  1  0.93460900  0.52326900  0.88484700  1
  F  F40  1  0.95787500  0.42303900  0.65030500  1
  F  F41  1  0.83656100  0.23678700  0.94533500  1
  F  F42  1  0.57563100  0.10452500  0.01864700  1
  F  F43  1  0.35057900  0.36725200  0.19522400  1
  F  F44  1  0.74588200  0.13965400  0.55742200  1
  F  F45  1  0.11621400  0.08041200  0.41033200  1
  F  F46  1  0.06658400  0.31152200  0.24168600  1
  F  F47  1  0.08157200  0.12094000  0.53918100  1
  F  F48  1  0.34164800  0.39501500  0.42186800  1
  F  F49  1  0.53240700  0.25311800  0.62128100  1
  F  F50  1  0.56360600  0.03362600  0.63385500  1
  F  F51  1  0.42436900  0.10452500  0.51864700  1
  F  F52  1  0.68910800  0.92798100  0.09471900  1
  F  F53  1  0.71871400  0.85408400  0.42818500  1
  F  F54  1  0.65835200  0.89501500  0.57813200  1
  F  F55  1  0.93341600  0.31152200  0.74168600  1
  F  F56  1  0.37965900  0.90169600  0.42250900  1
  F  F57  1  0.53274900  0.13767500  0.40058000  1
  F  F58  1  0.59904900  0.97072700  0.34594700  1
  F  F59  1  0.04801500  0.96878900  0.73227800  1
  F  F60  1  0.77632500  0.69601100  0.67429900  1
  F  F61  1  0.46759300  0.25311800  0.12128100  1
  F  F62  1  0.81389100  0.65255500  0.82355200  1
  F  F63  1  0.68140400  0.82177200  0.30481100  1
  F  F64  1  0.40095100  0.97072700  0.84594700  1
  F  F65  1  0.35057900  0.86725200  0.30477600  1
  F  F66  1  0.64942100  0.86725200  0.80477600  1
  F  F67  1  0.93614300  0.78590400  0.13423400  1
  F  F68  1  0.16327100  0.64240400  0.83962800  1
  F  F69  1  0.03717600  0.25336000  0.09683600  1
  F  F70  1  0.40095100  0.47072700  0.65405300  1
  F  F71  1  0.65835200  0.39501500  0.92186800  1
  F  F72  1  0.31089200  0.42798100  0.90528100  1
  F  F73  1  0.26273200  0.90982300  0.19394300  1
  F  F74  1  0.91842800  0.12094000  0.03918100  1
  F  F75  1  0.59412000  0.94899400  0.21508800  1
  F  F76  1  0.73726800  0.90982300  0.69394300  1
  F  F77  1  0.04212500  0.42303900  0.15030500  1
  F  F78  1  0.06385700  0.28590400  0.86576600  1
  F  F79  1  0.18610900  0.65255500  0.32355200  1
  F  F80  1  0.53240700  0.75311800  0.87871900  1
  F  F81  1  0.51579700  0.30797200  0.33935100  1
  F  F82  1  0.25411800  0.63965400  0.44257800  1
  F  F83  1  0.46725100  0.13767500  0.90058000  1
  F  F84  1  0.89440000  0.13181600  0.32832800  1
  F  F85  1  0.10560000  0.13181600  0.82832800  1
  F  F86  1  0.04212500  0.92303900  0.34969500  1
  F  F87  1  0.28128600  0.85408400  0.92818500  1
  F  F88  1  0.93460900  0.02326900  0.61515300  1
  F  F89  1  0.88378600  0.08041200  0.91033200  1
  F  F90  1  0.40588000  0.94899400  0.71508800  1
  F  F91  1  0.06385700  0.78590400  0.63423400  1
  F  F92  1  0.28128600  0.35408400  0.57181500  1
  F  F93  1  0.95787500  0.92303900  0.84969500  1
  F  F94  1  0.48420300  0.80797200  0.66064900  1
  F  F95  1  0.59412000  0.44899400  0.28491200  1
  F  F96  1  0.96282400  0.25336000  0.59683600  1
  F  F97  1  0.15078500  0.67469300  0.55400800  1
  F  F98  1  0.93341600  0.81152200  0.75831400  1
  F  F99  1  0.74588200  0.63965400  0.94257800  1
  F  F100  1  0.68910800  0.42798100  0.40528100  1
  F  F101  1  0.71196100  0.03072200  0.47188600  1
  F  F102  1  0.06539100  0.52326900  0.38484700  1
  F  F103  1  0.91842800  0.62094000  0.46081900  1
  F  F104  1  0.46759300  0.75311800  0.37871900  1
  F  F105  1  0.43639400  0.03362600  0.13385500  1
  F  F106  1  0.71871400  0.35408400  0.07181500  1
  F  F107  1  0.04801500  0.46878900  0.76772200  1
  F  F108  1  0.25313600  0.52016200  0.21793400  1
  F  F109  1  0.57563100  0.60452500  0.48135300  1
  F  F110  1  0.11621400  0.58041200  0.08966800  1
  F  F111  1  0.28803900  0.53072200  0.52811400  1
  F  F112  1  0.06539100  0.02326900  0.11515300  1
  F  F113  1  0.77632500  0.19601100  0.82570100  1
  F  F114  1  0.25313600  0.02016200  0.28206600  1
  F  F115  1  0.03717600  0.75336000  0.40316400  1
  F  F116  1  0.83672900  0.64240400  0.33962800  1
  F  F117  1  0.37965900  0.40169600  0.07749100  1
  F  F118  1  0.62034100  0.90169600  0.92250900  1
  F  F119  1  0.48420300  0.30797200  0.83935100  1
  F  F120  1  0.74686400  0.02016200  0.78206600  1
  F  F121  1  0.56360600  0.53362600  0.86614500  1
  F  F122  1  0.31089200  0.92798100  0.59471900  1
  F  F123  1  0.93614300  0.28590400  0.36576600  1
  F  F124  1  0.10560000  0.63181600  0.67167200  1
  F  F125  1  0.22367500  0.19601100  0.32570100  1
  F  F126  1  0.46725100  0.63767500  0.59942000  1
  F  F127  1  0.96282400  0.75336000  0.90316400  1
  F  F128  1  0.64942100  0.36725200  0.69522400  1
  F  F129  1  0.81389100  0.15255500  0.67644800  1
  F  F130  1  0.26273200  0.40982300  0.30605700  1
  F  F131  1  0.51579700  0.80797200  0.16064900  1
  F  F132  1  0.59904900  0.47072700  0.15405300  1
  F  F133  1  0.84921500  0.17469300  0.44599200  1
  F  F134  1  0.08157200  0.62094000  0.96081900  1
  F  F135  1  0.16327100  0.14240400  0.66037200  1
  F  F136  1  0.34164800  0.89501500  0.07813200  1
  F  F137  1  0.73726800  0.40982300  0.80605700  1
  F  F138  1  0.95198500  0.96878900  0.23227800  1
  F  F139  1  0.15078500  0.17469300  0.94599200  1
  F  F140  1  0.06658400  0.81152200  0.25831400  1
  F  F141  1  0.16343900  0.23678700  0.44533500  1
  F  F142  1  0.62034100  0.40169600  0.57749100  1
  F  F143  1  0.83656100  0.73678700  0.55466500  1
  F  F144  1  0.31859600  0.82177200  0.80481100  1
  F  F145  1  0.41272900  0.75121400  0.50970300  1
  F  F146  1  0.40588000  0.44899400  0.78491200  1
  F  F147  1  0.28803900  0.03072200  0.97188600  1
  F  F148  1  0.53274900  0.63767500  0.09942000  1
  F  F149  1  0.41272900  0.25121400  0.99029700  1
  F  F150  1  0.58727100  0.25121400  0.49029700  1
  F  F151  1  0.43639400  0.53362600  0.36614500  1
  F  F152  1  0.16343900  0.73678700  0.05466500  1
  F  F153  1  0.83672900  0.14240400  0.16037200  1
  F  F154  1  0.68140400  0.32177200  0.19518900  1
  F  F155  1  0.25411800  0.13965400  0.05742200  1
  F  F156  1  0.71196100  0.53072200  0.02811400  1
  F  F157  1  0.18610900  0.15255500  0.17644800  1
  F  F158  1  0.88378600  0.58041200  0.58966800  1
  F  F159  1  0.58727100  0.75121400  0.00970300  1
