# generated using pymatgen
data_SrIn6Cu7
_symmetry_space_group_name_H-M   'P 1'
_cell_length_a   9.03672468
_cell_length_b   9.03672468
_cell_length_c   12.74960400
_cell_angle_alpha   90.00000000
_cell_angle_beta   90.00000000
_cell_angle_gamma   90.03536417
_symmetry_Int_Tables_number   1
_chemical_formula_structural   SrIn6Cu7
_chemical_formula_sum   'Sr4 In24 Cu28'
_cell_volume   1041.16297447
_cell_formula_units_Z   4
loop_
 _symmetry_equiv_pos_site_id
 _symmetry_equiv_pos_as_xyz
  1  'x, y, z'
loop_
 _atom_site_type_symbol
 _atom_site_label
 _atom_site_symmetry_multiplicity
 _atom_site_fract_x
 _atom_site_fract_y
 _atom_site_fract_z
 _atom_site_occupancy
  Sr  Sr0  1  0.75206100  0.24793900  0.50000000  1
  Sr  Sr1  1  0.24793900  0.75206100  0.50000000  1
  Sr  Sr2  1  0.24793900  0.75206100  0.00000000  1
  Sr  Sr3  1  0.75206100  0.24793900  0.00000000  1
  In  In4  1  0.38617300  0.11169400  0.43574900  1
  In  In5  1  0.11169400  0.38617300  0.43574900  1
  In  In6  1  0.11169400  0.38617300  0.06425100  1
  In  In7  1  0.61303600  0.61303600  0.43192700  1
  In  In8  1  0.78244900  0.05289800  0.25000000  1
  In  In9  1  0.88830600  0.61382700  0.93574900  1
  In  In10  1  0.59330500  0.31431900  0.75000000  1
  In  In11  1  0.61382700  0.88830600  0.56425100  1
  In  In12  1  0.68568200  0.40669500  0.25000000  1
  In  In13  1  0.61303600  0.61303600  0.06807300  1
  In  In14  1  0.93831500  0.93831500  0.88465700  1
  In  In15  1  0.06168500  0.06168500  0.38465700  1
  In  In16  1  0.38617300  0.11169400  0.06425100  1
  In  In17  1  0.61382700  0.88830600  0.93574900  1
  In  In18  1  0.94710200  0.21755100  0.75000000  1
  In  In19  1  0.38696400  0.38696400  0.93192700  1
  In  In20  1  0.05289800  0.78244900  0.25000000  1
  In  In21  1  0.21755100  0.94710200  0.75000000  1
  In  In22  1  0.38696400  0.38696400  0.56807300  1
  In  In23  1  0.31431800  0.59330500  0.75000000  1
  In  In24  1  0.93831500  0.93831500  0.61534300  1
  In  In25  1  0.06168500  0.06168500  0.11534300  1
  In  In26  1  0.88830600  0.61382700  0.56425100  1
  In  In27  1  0.40669500  0.68568100  0.25000000  1
  Cu  Cu28  1  0.58861000  0.58861000  0.85448900  1
  Cu  Cu29  1  0.03822000  0.69641000  0.75000000  1
  Cu  Cu30  1  0.90629300  0.56343100  0.35400600  1
  Cu  Cu31  1  0.76096700  0.76096700  0.75000000  1
  Cu  Cu32  1  0.90629300  0.56343100  0.14599400  1
  Cu  Cu33  1  0.74042700  0.74042700  0.25000000  1
  Cu  Cu34  1  0.85096900  0.85096900  0.08112200  1
  Cu  Cu35  1  0.41139000  0.41139000  0.35448900  1
  Cu  Cu36  1  0.85096900  0.85096900  0.41887800  1
  Cu  Cu37  1  0.16930700  0.51220800  0.25000000  1
  Cu  Cu38  1  0.83069300  0.48779200  0.75000000  1
  Cu  Cu39  1  0.43656900  0.09370700  0.64599400  1
  Cu  Cu40  1  0.56343100  0.90629300  0.35400600  1
  Cu  Cu41  1  0.69641000  0.03822000  0.75000000  1
  Cu  Cu42  1  0.30359000  0.96178000  0.25000000  1
  Cu  Cu43  1  0.56343100  0.90629300  0.14599400  1
  Cu  Cu44  1  0.09370700  0.43656900  0.64599400  1
  Cu  Cu45  1  0.23903300  0.23903300  0.25000000  1
  Cu  Cu46  1  0.43656900  0.09370700  0.85400600  1
  Cu  Cu47  1  0.48779200  0.83069300  0.75000000  1
  Cu  Cu48  1  0.09370700  0.43656900  0.85400600  1
  Cu  Cu49  1  0.96178000  0.30359000  0.25000000  1
  Cu  Cu50  1  0.41139000  0.41139000  0.14551100  1
  Cu  Cu51  1  0.51220800  0.16930700  0.25000000  1
  Cu  Cu52  1  0.58861000  0.58861000  0.64551100  1
  Cu  Cu53  1  0.14903100  0.14903100  0.91887800  1
  Cu  Cu54  1  0.14903100  0.14903100  0.58112200  1
  Cu  Cu55  1  0.25957300  0.25957300  0.75000000  1
