# generated using pymatgen
data_Rb3Nb5P2O19
_symmetry_space_group_name_H-M   'P 1'
_cell_length_a   19.75989917
_cell_length_b   19.75989917
_cell_length_c   19.75989880
_cell_angle_alpha   39.07306907
_cell_angle_beta   39.07306907
_cell_angle_gamma   39.07307099
_symmetry_Int_Tables_number   1
_chemical_formula_structural   Rb3Nb5P2O19
_chemical_formula_sum   'Rb18 Nb30 P12 O114'
_cell_volume   2756.99383769
_cell_formula_units_Z   6
loop_
 _symmetry_equiv_pos_site_id
 _symmetry_equiv_pos_as_xyz
  1  'x, y, z'
loop_
 _atom_site_type_symbol
 _atom_site_label
 _atom_site_symmetry_multiplicity
 _atom_site_fract_x
 _atom_site_fract_y
 _atom_site_fract_z
 _atom_site_occupancy
  Rb  Rb0  1  0.68138100  0.32856400  0.02627000  1
  Rb  Rb1  1  0.07735700  0.75000000  0.42264300  1
  Rb  Rb2  1  0.47373000  0.17143600  0.81861900  1
  Rb  Rb3  1  0.92264300  0.25000000  0.57735700  1
  Rb  Rb4  1  0.18138100  0.52627000  0.82856400  1
  Rb  Rb5  1  0.25000000  0.57735700  0.92264300  1
  Rb  Rb6  1  0.17143600  0.81861900  0.47373000  1
  Rb  Rb7  1  0.97373000  0.31861900  0.67143600  1
  Rb  Rb8  1  0.32856400  0.02627000  0.68138100  1
  Rb  Rb9  1  0.81861900  0.47373000  0.17143600  1
  Rb  Rb10  1  0.52627000  0.82856400  0.18138100  1
  Rb  Rb11  1  0.02627000  0.68138100  0.32856400  1
  Rb  Rb12  1  0.82856400  0.18138100  0.52627000  1
  Rb  Rb13  1  0.57735700  0.92264300  0.25000000  1
  Rb  Rb14  1  0.67143600  0.97373000  0.31861900  1
  Rb  Rb15  1  0.42264300  0.07735700  0.75000000  1
  Rb  Rb16  1  0.31861900  0.67143600  0.97373000  1
  Rb  Rb17  1  0.75000000  0.42264300  0.07735700  1
  Nb  Nb18  1  0.26727700  0.13270700  0.45486200  1
  Nb  Nb19  1  0.27585400  0.46623800  0.59494600  1
  Nb  Nb20  1  0.46623800  0.59494600  0.27585400  1
  Nb  Nb21  1  0.03376200  0.22414600  0.90505400  1
  Nb  Nb22  1  0.59494600  0.27585400  0.46623800  1
  Nb  Nb23  1  0.53376200  0.40505400  0.72414600  1
  Nb  Nb24  1  0.72414600  0.53376200  0.40505400  1
  Nb  Nb25  1  0.22414600  0.90505400  0.03376200  1
  Nb  Nb26  1  0.77585400  0.09494600  0.96623800  1
  Nb  Nb27  1  0.45486200  0.26727700  0.13270700  1
  Nb  Nb28  1  0.95486200  0.63270700  0.76727700  1
  Nb  Nb29  1  0.34077100  0.34077100  0.34077100  1
  Nb  Nb30  1  0.86729300  0.54513800  0.73272300  1
  Nb  Nb31  1  0.50000000  0.50000000  0.50000000  1
  Nb  Nb32  1  0.15922900  0.15922900  0.15922900  1
  Nb  Nb33  1  0.36729300  0.23272300  0.04513800  1
  Nb  Nb34  1  0.04513800  0.36729300  0.23272300  1
  Nb  Nb35  1  0.13270700  0.45486200  0.26727700  1
  Nb  Nb36  1  0.73272300  0.86729300  0.54513800  1
  Nb  Nb37  1  0.84077100  0.84077100  0.84077100  1
  Nb  Nb38  1  0.09494600  0.96623800  0.77585400  1
  Nb  Nb39  1  0.54513800  0.73272300  0.86729300  1
  Nb  Nb40  1  0.76727700  0.95486200  0.63270700  1
  Nb  Nb41  1  0.23272300  0.04513800  0.36729300  1
  Nb  Nb42  1  0.96623800  0.77585400  0.09494600  1
  Nb  Nb43  1  0.90505400  0.03376200  0.22414600  1
  Nb  Nb44  1  0.65922900  0.65922900  0.65922900  1
  Nb  Nb45  1  0.00000000  0.00000000  0.00000000  1
  Nb  Nb46  1  0.63270700  0.76727700  0.95486200  1
  Nb  Nb47  1  0.40505400  0.72414600  0.53376200  1
  P  P48  1  0.40119200  0.83694500  0.61596300  1
  P  P49  1  0.33694500  0.90119200  0.11596300  1
  P  P50  1  0.16305500  0.38403700  0.59880800  1
  P  P51  1  0.88403700  0.66305500  0.09880800  1
  P  P52  1  0.90119200  0.11596300  0.33694500  1
  P  P53  1  0.11596300  0.33694500  0.90119200  1
  P  P54  1  0.66305500  0.09880800  0.88403700  1
  P  P55  1  0.83694500  0.61596300  0.40119200  1
  P  P56  1  0.61596300  0.40119200  0.83694500  1
  P  P57  1  0.38403700  0.59880800  0.16305500  1
  P  P58  1  0.09880800  0.88403700  0.66305500  1
  P  P59  1  0.59880800  0.16305500  0.38403700  1
  O  O60  1  0.85182800  0.71159300  0.59270000  1
  O  O61  1  0.64707500  0.50344600  0.75226800  1
  O  O62  1  0.64817200  0.90730000  0.78840700  1
  O  O63  1  0.47701600  0.60097100  0.03709000  1
  O  O64  1  0.06065200  0.43934800  0.25000000  1
  O  O65  1  0.18319300  0.07064300  0.92671700  1
  O  O66  1  0.42935700  0.31680700  0.57328300  1
  O  O67  1  0.08356200  0.93982600  0.70302700  1
  O  O68  1  0.39791000  0.64668100  0.51667000  1
  O  O69  1  0.57064300  0.68319300  0.42671700  1
  O  O70  1  0.28840700  0.40730000  0.14817200  1
  O  O71  1  0.35182800  0.09270000  0.21159300  1
  O  O72  1  0.76787700  0.65972500  0.21775800  1
  O  O73  1  0.26787700  0.71775800  0.15972500  1
  O  O74  1  0.48333000  0.60209000  0.35331900  1
  O  O75  1  0.91643800  0.06017400  0.29697300  1
  O  O76  1  0.89791000  0.01667000  0.14668100  1
  O  O77  1  0.29710700  0.18451200  0.05335400  1
  O  O78  1  0.58356200  0.20302700  0.43982600  1
  O  O79  1  0.70302700  0.08356200  0.93982600  1
  O  O80  1  0.57328300  0.42935700  0.31680700  1
  O  O81  1  0.03709000  0.47701600  0.60097100  1
  O  O82  1  0.81680700  0.92935700  0.07328300  1
  O  O83  1  0.79697300  0.56017400  0.41643800  1
  O  O84  1  0.20289300  0.44664600  0.31548800  1
  O  O85  1  0.35331900  0.48333000  0.60209000  1
  O  O86  1  0.09059700  0.62368900  0.15121200  1
  O  O87  1  0.42671700  0.57064300  0.68319300  1
  O  O88  1  0.56065200  0.75000000  0.93934800  1
  O  O89  1  0.10097100  0.97701600  0.53709000  1
  O  O90  1  0.14707500  0.25226800  0.00344600  1
  O  O91  1  0.14668100  0.89791000  0.01667000  1
  O  O92  1  0.99655400  0.85292500  0.74773200  1
  O  O93  1  0.37631100  0.84878800  0.90940300  1
  O  O94  1  0.25226800  0.00344600  0.14707500  1
  O  O95  1  0.87631100  0.40940300  0.34878800  1
  O  O96  1  0.21159300  0.35182800  0.09270000  1
  O  O97  1  0.74773200  0.99655400  0.85292500  1
  O  O98  1  0.49655400  0.24773200  0.35292500  1
  O  O99  1  0.78840700  0.64817200  0.90730000  1
  O  O100  1  0.81548800  0.94664600  0.70289300  1
  O  O101  1  0.09270000  0.21159300  0.35182800  1
  O  O102  1  0.90940300  0.37631100  0.84878800  1
  O  O103  1  0.60209000  0.35331900  0.48333000  1
  O  O104  1  0.29697300  0.91643800  0.06017400  1
  O  O105  1  0.23212300  0.34027500  0.78224200  1
  O  O106  1  0.34027500  0.78224200  0.23212300  1
  O  O107  1  0.44664600  0.31548800  0.20289300  1
  O  O108  1  0.89902900  0.02298400  0.46291000  1
  O  O109  1  0.14817200  0.28840700  0.40730000  1
  O  O110  1  0.68319300  0.42671700  0.57064300  1
  O  O111  1  0.55335400  0.68451200  0.79710700  1
  O  O112  1  0.75226800  0.64707500  0.50344600  1
  O  O113  1  0.56017400  0.41643800  0.79697300  1
  O  O114  1  0.01667000  0.14668100  0.89791000  1
  O  O115  1  0.51667000  0.39791000  0.64668100  1
  O  O116  1  0.98333000  0.85331900  0.10209000  1
  O  O117  1  0.60097100  0.03709000  0.47701600  1
  O  O118  1  0.40940300  0.34878800  0.87631100  1
  O  O119  1  0.10209000  0.98333000  0.85331900  1
  O  O120  1  0.94664600  0.70289300  0.81548800  1
  O  O121  1  0.70289300  0.81548800  0.94664600  1
  O  O122  1  0.68451200  0.79710700  0.55335400  1
  O  O123  1  0.52298400  0.39902900  0.96291000  1
  O  O124  1  0.78224200  0.23212300  0.34027500  1
  O  O125  1  0.59059700  0.65121200  0.12368900  1
  O  O126  1  0.18451200  0.05335400  0.29710700  1
  O  O127  1  0.07328300  0.81680700  0.92935700  1
  O  O128  1  0.79710700  0.55335400  0.68451200  1
  O  O129  1  0.31680700  0.57328300  0.42935700  1
  O  O130  1  0.35292500  0.49655400  0.24773200  1
  O  O131  1  0.07064300  0.92671700  0.18319300  1
  O  O132  1  0.53709000  0.10097100  0.97701600  1
  O  O133  1  0.64668100  0.51667000  0.39791000  1
  O  O134  1  0.43934800  0.25000000  0.06065200  1
  O  O135  1  0.43982600  0.58356200  0.20302700  1
  O  O136  1  0.97701600  0.53709000  0.10097100  1
  O  O137  1  0.65121200  0.12368900  0.59059700  1
  O  O138  1  0.21775800  0.76787700  0.65972500  1
  O  O139  1  0.84878800  0.90940300  0.37631100  1
  O  O140  1  0.24773200  0.35292500  0.49655400  1
  O  O141  1  0.96291000  0.52298400  0.39902900  1
  O  O142  1  0.73212300  0.28224200  0.84027500  1
  O  O143  1  0.25000000  0.06065200  0.43934800  1
  O  O144  1  0.15121200  0.09059700  0.62368900  1
  O  O145  1  0.92935700  0.07328300  0.81680700  1
  O  O146  1  0.39902900  0.96291000  0.52298400  1
  O  O147  1  0.71775800  0.15972500  0.26787700  1
  O  O148  1  0.12368900  0.59059700  0.65121200  1
  O  O149  1  0.50344600  0.75226800  0.64707500  1
  O  O150  1  0.06017400  0.29697300  0.91643800  1
  O  O151  1  0.15972500  0.26787700  0.71775800  1
  O  O152  1  0.00344600  0.14707500  0.25226800  1
  O  O153  1  0.93934800  0.56065200  0.75000000  1
  O  O154  1  0.59270000  0.85182800  0.71159300  1
  O  O155  1  0.62368900  0.15121200  0.09059700  1
  O  O156  1  0.28224200  0.84027500  0.73212300  1
  O  O157  1  0.31548800  0.20289300  0.44664600  1
  O  O158  1  0.93982600  0.70302700  0.08356200  1
  O  O159  1  0.65972500  0.21775800  0.76787700  1
  O  O160  1  0.85331900  0.10209000  0.98333000  1
  O  O161  1  0.46291000  0.89902900  0.02298400  1
  O  O162  1  0.20302700  0.43982600  0.58356200  1
  O  O163  1  0.34878800  0.87631100  0.40940300  1
  O  O164  1  0.40730000  0.14817200  0.28840700  1
  O  O165  1  0.71159300  0.59270000  0.85182800  1
  O  O166  1  0.05335400  0.29710700  0.18451200  1
  O  O167  1  0.85292500  0.74773200  0.99655400  1
  O  O168  1  0.02298400  0.46291000  0.89902900  1
  O  O169  1  0.92671700  0.18319300  0.07064300  1
  O  O170  1  0.41643800  0.79697300  0.56017400  1
  O  O171  1  0.84027500  0.73212300  0.28224200  1
  O  O172  1  0.90730000  0.78840700  0.64817200  1
  O  O173  1  0.75000000  0.93934800  0.56065200  1
