# generated using pymatgen
data_La4Rh3
_symmetry_space_group_name_H-M   'P 1'
_cell_length_a   7.81499419
_cell_length_b   7.81499419
_cell_length_c   7.81499419
_cell_angle_alpha   109.47122063
_cell_angle_beta   109.47122063
_cell_angle_gamma   109.47122063
_symmetry_Int_Tables_number   1
_chemical_formula_structural   La4Rh3
_chemical_formula_sum   'La8 Rh6'
_cell_volume   367.42109564
_cell_formula_units_Z   2
loop_
 _symmetry_equiv_pos_site_id
 _symmetry_equiv_pos_as_xyz
  1  'x, y, z'
loop_
 _atom_site_type_symbol
 _atom_site_label
 _atom_site_symmetry_multiplicity
 _atom_site_fract_x
 _atom_site_fract_y
 _atom_site_fract_z
 _atom_site_occupancy
  La  La0  1  0.11113300  0.50000000  0.00000000  1
  La  La1  1  0.50000000  0.00000000  0.61113300  1
  La  La2  1  0.38886700  0.38886700  0.38886700  1
  La  La3  1  0.00000000  0.11113300  0.50000000  1
  La  La4  1  0.88886700  0.88886700  0.88886700  1
  La  La5  1  0.00000000  0.61113300  0.50000000  1
  La  La6  1  0.61113300  0.50000000  0.00000000  1
  La  La7  1  0.50000000  0.00000000  0.11113300  1
  Rh  Rh8  1  0.87500000  0.25000000  0.12500000  1
  Rh  Rh9  1  0.12500000  0.87500000  0.25000000  1
  Rh  Rh10  1  0.37500000  0.62500000  0.75000000  1
  Rh  Rh11  1  0.25000000  0.12500000  0.87500000  1
  Rh  Rh12  1  0.75000000  0.37500000  0.62500000  1
  Rh  Rh13  1  0.62500000  0.75000000  0.37500000  1
