# generated using pymatgen
data_Rb3(Cu4Se3)2
_symmetry_space_group_name_H-M   'P 1'
_cell_length_a   9.53038445
_cell_length_b   9.53038445
_cell_length_c   10.29469749
_cell_angle_alpha   74.40625039
_cell_angle_beta   74.40625039
_cell_angle_gamma   24.33643446
_symmetry_Int_Tables_number   1
_chemical_formula_structural   Rb3(Cu4Se3)2
_chemical_formula_sum   'Rb3 Cu8 Se6'
_cell_volume   370.47213372
_cell_formula_units_Z   1
loop_
 _symmetry_equiv_pos_site_id
 _symmetry_equiv_pos_as_xyz
  1  'x, y, z'
loop_
 _atom_site_type_symbol
 _atom_site_label
 _atom_site_symmetry_multiplicity
 _atom_site_fract_x
 _atom_site_fract_y
 _atom_site_fract_z
 _atom_site_occupancy
  Rb  Rb0  1  0.31212400  0.31212400  0.30550400  1
  Rb  Rb1  1  0.68787600  0.68787600  0.69449600  1
  Rb  Rb2  1  0.50000000  0.50000000  0.00000000  1
  Cu  Cu3  1  0.07957800  0.07957800  0.46980600  1
  Cu  Cu4  1  0.29804200  0.29804200  0.92221400  1
  Cu  Cu5  1  0.47699600  0.47699600  0.64112800  1
  Cu  Cu6  1  0.11099900  0.11099900  0.21887000  1
  Cu  Cu7  1  0.52300400  0.52300400  0.35887200  1
  Cu  Cu8  1  0.92042200  0.92042200  0.53019400  1
  Cu  Cu9  1  0.70195800  0.70195800  0.07778600  1
  Cu  Cu10  1  0.88900100  0.88900100  0.78113000  1
  Se  Se11  1  0.15961200  0.15961200  0.97954800  1
  Se  Se12  1  0.84038800  0.84038800  0.02045200  1
  Se  Se13  1  0.96779700  0.96779700  0.29190900  1
  Se  Se14  1  0.34429600  0.34429600  0.64888600  1
  Se  Se15  1  0.65570400  0.65570400  0.35111400  1
  Se  Se16  1  0.03220300  0.03220300  0.70809100  1
