# generated using pymatgen
data_TiMnFe(PO4)3
_symmetry_space_group_name_H-M   'P 1'
_cell_length_a   8.65152375
_cell_length_b   8.65152375
_cell_length_c   8.65152322
_cell_angle_alpha   59.98689549
_cell_angle_beta   59.98689549
_cell_angle_gamma   59.98689514
_symmetry_Int_Tables_number   1
_chemical_formula_structural   TiMnFe(PO4)3
_chemical_formula_sum   'Ti2 Mn2 Fe2 P6 O24'
_cell_volume   457.75566036
_cell_formula_units_Z   2
loop_
 _symmetry_equiv_pos_site_id
 _symmetry_equiv_pos_as_xyz
  1  'x, y, z'
loop_
 _atom_site_type_symbol
 _atom_site_label
 _atom_site_symmetry_multiplicity
 _atom_site_fract_x
 _atom_site_fract_y
 _atom_site_fract_z
 _atom_site_occupancy
  Ti  Ti0  1  0.14535300  0.14535300  0.14535300  1
  Ti  Ti1  1  0.64535300  0.64535300  0.64535300  1
  Mn  Mn2  1  0.99761500  0.99761500  0.99761500  1
  Mn  Mn3  1  0.49761500  0.49761500  0.49761500  1
  Fe  Fe4  1  0.35411500  0.35411500  0.35411500  1
  Fe  Fe5  1  0.85411500  0.85411500  0.85411500  1
  P  P6  1  0.75054500  0.04417500  0.45760900  1
  P  P7  1  0.04417500  0.45760900  0.75054500  1
  P  P8  1  0.45760900  0.75054500  0.04417500  1
  P  P9  1  0.54417500  0.25054500  0.95760900  1
  P  P10  1  0.95760900  0.54417500  0.25054500  1
  P  P11  1  0.25054500  0.95760900  0.54417500  1
  O  O12  1  0.31208500  0.11447300  0.50323200  1
  O  O13  1  0.50323200  0.31208500  0.11447300  1
  O  O14  1  0.91544800  0.05666500  0.26342500  1
  O  O15  1  0.11447300  0.50323200  0.31208500  1
  O  O16  1  0.81208500  0.00323200  0.61447300  1
  O  O17  1  0.58713600  0.23537400  0.44108500  1
  O  O18  1  0.05666500  0.26342500  0.91544800  1
  O  O19  1  0.23537400  0.44108500  0.58713600  1
  O  O20  1  0.37809100  0.19249600  0.00107900  1
  O  O21  1  0.44108500  0.58713600  0.23537400  1
  O  O22  1  0.73537400  0.08713600  0.94108500  1
  O  O23  1  0.00107900  0.37809100  0.19249600  1
  O  O24  1  0.00323200  0.61447300  0.81208500  1
  O  O25  1  0.26342500  0.91544800  0.05666500  1
  O  O26  1  0.55666500  0.41544800  0.76342500  1
  O  O27  1  0.61447300  0.81208500  0.00323200  1
  O  O28  1  0.76342500  0.55666500  0.41544800  1
  O  O29  1  0.94108500  0.73537400  0.08713600  1
  O  O30  1  0.41544800  0.76342500  0.55666500  1
  O  O31  1  0.19249600  0.00107900  0.37809100  1
  O  O32  1  0.87809100  0.50107900  0.69249600  1
  O  O33  1  0.08713600  0.94108500  0.73537400  1
  O  O34  1  0.50107900  0.69249600  0.87809100  1
  O  O35  1  0.69249600  0.87809100  0.50107900  1
