# generated using pymatgen
data_ZnBr2
_symmetry_space_group_name_H-M   'P 1'
_cell_length_a   13.95316228
_cell_length_b   13.95316228
_cell_length_c   13.95316228
_cell_angle_alpha   129.82967538
_cell_angle_beta   129.82967538
_cell_angle_gamma   73.67920364
_symmetry_Int_Tables_number   1
_chemical_formula_structural   ZnBr2
_chemical_formula_sum   'Zn16 Br32'
_cell_volume   1563.14708915
_cell_formula_units_Z   16
loop_
 _symmetry_equiv_pos_site_id
 _symmetry_equiv_pos_as_xyz
  1  'x, y, z'
loop_
 _atom_site_type_symbol
 _atom_site_label
 _atom_site_symmetry_multiplicity
 _atom_site_fract_x
 _atom_site_fract_y
 _atom_site_fract_z
 _atom_site_occupancy
  Zn  Zn0  1  0.95266700  0.93698600  0.76573200  1
  Zn  Zn1  1  0.43693500  0.92125400  0.73426800  1
  Zn  Zn2  1  0.67125400  0.43698600  0.98431900  1
  Zn  Zn3  1  0.93693500  0.20266700  0.51568100  1
  Zn  Zn4  1  0.29733300  0.56306500  0.48431900  1
  Zn  Zn5  1  0.31306500  0.32874600  0.76573200  1
  Zn  Zn6  1  0.07874600  0.81301400  0.51568100  1
  Zn  Zn7  1  0.56301400  0.54733300  0.23426800  1
  Zn  Zn8  1  0.17125400  0.18693500  0.23426800  1
  Zn  Zn9  1  0.18698600  0.70266700  0.26573200  1
  Zn  Zn10  1  0.79733300  0.31301400  0.73426800  1
  Zn  Zn11  1  0.06301400  0.82874600  0.01568100  1
  Zn  Zn12  1  0.81306500  0.04733300  0.98431900  1
  Zn  Zn13  1  0.57874600  0.06306500  0.26573200  1
  Zn  Zn14  1  0.68698600  0.42125400  0.48431900  1
  Zn  Zn15  1  0.45266700  0.68693500  0.01568100  1
  Br  Br16  1  0.84994700  0.37500000  0.97494700  1
  Br  Br17  1  0.25969400  0.51511400  0.77327500  1
  Br  Br18  1  0.73641900  0.49183900  0.72672500  1
  Br  Br19  1  0.62699300  0.62699300  0.00000000  1
  Br  Br20  1  0.74183900  0.48641900  0.22672500  1
  Br  Br21  1  0.49030600  0.73488600  0.72672500  1
  Br  Br22  1  0.51358100  0.74030600  0.25542000  1
  Br  Br23  1  0.12699300  0.12699300  0.00000000  1
  Br  Br24  1  0.01358100  0.75816100  0.77327500  1
  Br  Br25  1  0.26511400  0.99183900  0.75542000  1
  Br  Br26  1  0.12300700  0.62300700  0.50000000  1
  Br  Br27  1  0.12500000  0.65005300  0.02505300  1
  Br  Br28  1  0.75969400  0.98641900  0.74458000  1
  Br  Br29  1  0.34994700  0.37500000  0.47494700  1
  Br  Br30  1  0.62300700  0.12300700  0.50000000  1
  Br  Br31  1  0.62500000  0.09994700  0.97494700  1
  Br  Br32  1  0.62500000  0.59994700  0.47494700  1
  Br  Br33  1  0.90005300  0.87500000  0.52505300  1
  Br  Br34  1  0.48488600  0.25816100  0.74458000  1
  Br  Br35  1  0.24183900  0.01511400  0.25542000  1
  Br  Br36  1  0.37699300  0.87699300  0.50000000  1
  Br  Br37  1  0.76511400  0.00969400  0.27327500  1
  Br  Br38  1  0.99030600  0.26358100  0.75542000  1
  Br  Br39  1  0.50816100  0.23488600  0.24458000  1
  Br  Br40  1  0.87699300  0.37699300  0.50000000  1
  Br  Br41  1  0.23641900  0.50969400  0.24458000  1
  Br  Br42  1  0.40005300  0.87500000  0.02505300  1
  Br  Br43  1  0.87300700  0.87300700  0.00000000  1
  Br  Br44  1  0.00816100  0.76358100  0.27327500  1
  Br  Br45  1  0.12500000  0.15005300  0.52505300  1
  Br  Br46  1  0.37300700  0.37300700  0.00000000  1
  Br  Br47  1  0.98488600  0.24030600  0.22672500  1
