# generated using pymatgen
data_BaCa2(PN2)6
_symmetry_space_group_name_H-M   'P 1'
_cell_length_a   10.01648600
_cell_length_b   10.01648600
_cell_length_c   10.01648600
_cell_angle_alpha   90.00000000
_cell_angle_beta   90.00000000
_cell_angle_gamma   90.00000000
_symmetry_Int_Tables_number   1
_chemical_formula_structural   BaCa2(PN2)6
_chemical_formula_sum   'Ba4 Ca8 P24 N48'
_cell_volume   1004.95395813
_cell_formula_units_Z   4
loop_
 _symmetry_equiv_pos_site_id
 _symmetry_equiv_pos_as_xyz
  1  'x, y, z'
loop_
 _atom_site_type_symbol
 _atom_site_label
 _atom_site_symmetry_multiplicity
 _atom_site_fract_x
 _atom_site_fract_y
 _atom_site_fract_z
 _atom_site_occupancy
  Ba  Ba0  1  0.00000000  0.50000000  0.50000000  1
  Ba  Ba1  1  0.50000000  0.50000000  0.00000000  1
  Ba  Ba2  1  0.50000000  0.00000000  0.50000000  1
  Ba  Ba3  1  0.00000000  0.00000000  0.00000000  1
  Ca  Ca4  1  0.37509100  0.12490900  0.87509100  1
  Ca  Ca5  1  0.12490900  0.87509100  0.37509100  1
  Ca  Ca6  1  0.87509100  0.37509100  0.12490900  1
  Ca  Ca7  1  0.62490900  0.62490900  0.62490900  1
  Ca  Ca8  1  0.62490900  0.87509100  0.12490900  1
  Ca  Ca9  1  0.87509100  0.12490900  0.62490900  1
  Ca  Ca10  1  0.12490900  0.62490900  0.87509100  1
  Ca  Ca11  1  0.37509100  0.37509100  0.37509100  1
  P  P12  1  0.68988800  0.34671800  0.38046300  1
  P  P13  1  0.18988800  0.15328200  0.61953700  1
  P  P14  1  0.31011200  0.84671800  0.11953700  1
  P  P15  1  0.15328200  0.61953700  0.18988800  1
  P  P16  1  0.11953700  0.31011200  0.84671800  1
  P  P17  1  0.61953700  0.18988800  0.15328200  1
  P  P18  1  0.34671800  0.38046300  0.68988800  1
  P  P19  1  0.38046300  0.68988800  0.34671800  1
  P  P20  1  0.84671800  0.11953700  0.31011200  1
  P  P21  1  0.65328200  0.88046300  0.81011200  1
  P  P22  1  0.88046300  0.81011200  0.65328200  1
  P  P23  1  0.81011200  0.65328200  0.88046300  1
  P  P24  1  0.31011200  0.65328200  0.61953700  1
  P  P25  1  0.81011200  0.84671800  0.38046300  1
  P  P26  1  0.68988800  0.15328200  0.88046300  1
  P  P27  1  0.84671800  0.38046300  0.81011200  1
  P  P28  1  0.88046300  0.68988800  0.15328200  1
  P  P29  1  0.38046300  0.81011200  0.84671800  1
  P  P30  1  0.65328200  0.61953700  0.31011200  1
  P  P31  1  0.61953700  0.31011200  0.65328200  1
  P  P32  1  0.15328200  0.88046300  0.68988800  1
  P  P33  1  0.34671800  0.11953700  0.18988800  1
  P  P34  1  0.11953700  0.18988800  0.34671800  1
  P  P35  1  0.18988800  0.34671800  0.11953700  1
  N  N36  1  0.71513400  0.50696900  0.41147100  1
  N  N37  1  0.21513400  0.99303100  0.58852900  1
  N  N38  1  0.28486600  0.00696900  0.08852900  1
  N  N39  1  0.99303100  0.58852900  0.21513400  1
  N  N40  1  0.08852900  0.28486600  0.00696900  1
  N  N41  1  0.58852900  0.21513400  0.99303100  1
  N  N42  1  0.50696900  0.41147100  0.71513400  1
  N  N43  1  0.41147100  0.71513400  0.50696900  1
  N  N44  1  0.00696900  0.08852900  0.28486600  1
  N  N45  1  0.49303100  0.91147100  0.78486600  1
  N  N46  1  0.91147100  0.78486600  0.49303100  1
  N  N47  1  0.78486600  0.49303100  0.91147100  1
  N  N48  1  0.28486600  0.49303100  0.58852900  1
  N  N49  1  0.78486600  0.00696900  0.41147100  1
  N  N50  1  0.71513400  0.99303100  0.91147100  1
  N  N51  1  0.00696900  0.41147100  0.78486600  1
  N  N52  1  0.91147100  0.71513400  0.99303100  1
  N  N53  1  0.41147100  0.78486600  0.00696900  1
  N  N54  1  0.49303100  0.58852900  0.28486600  1
  N  N55  1  0.58852900  0.28486600  0.49303100  1
  N  N56  1  0.16548000  0.73105600  0.62109700  1
  N  N57  1  0.99303100  0.91147100  0.71513400  1
  N  N58  1  0.08852900  0.21513400  0.50696900  1
  N  N59  1  0.21513400  0.50696900  0.08852900  1
  N  N60  1  0.83452000  0.26894400  0.37890300  1
  N  N61  1  0.33452000  0.23105600  0.62109700  1
  N  N62  1  0.16548000  0.76894400  0.12109700  1
  N  N63  1  0.23105600  0.62109700  0.33452000  1
  N  N64  1  0.12109700  0.16548000  0.76894400  1
  N  N65  1  0.62109700  0.33452000  0.23105600  1
  N  N66  1  0.26894400  0.37890300  0.83452000  1
  N  N67  1  0.37890300  0.83452000  0.26894400  1
  N  N68  1  0.76894400  0.12109700  0.16548000  1
  N  N69  1  0.73105600  0.87890300  0.66548000  1
  N  N70  1  0.87890300  0.66548000  0.73105600  1
  N  N71  1  0.66548000  0.73105600  0.87890300  1
  N  N72  1  0.33452000  0.26894400  0.12109700  1
  N  N73  1  0.12109700  0.33452000  0.26894400  1
  N  N74  1  0.26894400  0.12109700  0.33452000  1
  N  N75  1  0.23105600  0.87890300  0.83452000  1
  N  N76  1  0.62109700  0.16548000  0.73105600  1
  N  N77  1  0.73105600  0.62109700  0.16548000  1
  N  N78  1  0.37890300  0.66548000  0.76894400  1
  N  N79  1  0.87890300  0.83452000  0.23105600  1
  N  N80  1  0.76894400  0.37890300  0.66548000  1
  N  N81  1  0.83452000  0.23105600  0.87890300  1
  N  N82  1  0.66548000  0.76894400  0.37890300  1
  N  N83  1  0.50696900  0.08852900  0.21513400  1
