# generated using pymatgen
data_EuIO
_symmetry_space_group_name_H-M   'P 1'
_cell_length_a   4.07775200
_cell_length_b   4.07777500
_cell_length_c   9.37533200
_cell_angle_alpha   90.00013137
_cell_angle_beta   90.00022241
_cell_angle_gamma   90.00047773
_symmetry_Int_Tables_number   1
_chemical_formula_structural   EuIO
_chemical_formula_sum   'Eu2 I2 O2'
_cell_volume   155.89447519
_cell_formula_units_Z   2
loop_
 _symmetry_equiv_pos_site_id
 _symmetry_equiv_pos_as_xyz
  1  'x, y, z'
loop_
 _atom_site_type_symbol
 _atom_site_label
 _atom_site_symmetry_multiplicity
 _atom_site_fract_x
 _atom_site_fract_y
 _atom_site_fract_z
 _atom_site_occupancy
  Eu  Eu0  1  0.00000000  0.49999900  0.12169600  1
  Eu  Eu1  1  0.49999900  0.00000100  0.87834100  1
  I  I2  1  0.00000000  0.50000000  0.67373200  1
  I  I3  1  0.50000000  0.00000000  0.32625800  1
  O  O4  1  0.00000000  0.00000000  0.99998700  1
  O  O5  1  0.50000000  0.50000000  0.99998700  1
