# generated using pymatgen
data_Eu(ClO4)3
_symmetry_space_group_name_H-M   'P 1'
_cell_length_a   9.62345568
_cell_length_b   9.62345568
_cell_length_c   5.98430800
_cell_angle_alpha   90.00000000
_cell_angle_beta   90.00000000
_cell_angle_gamma   119.99999781
_symmetry_Int_Tables_number   1
_chemical_formula_structural   Eu(ClO4)3
_chemical_formula_sum   'Eu2 Cl6 O24'
_cell_volume   479.96180747
_cell_formula_units_Z   2
loop_
 _symmetry_equiv_pos_site_id
 _symmetry_equiv_pos_as_xyz
  1  'x, y, z'
loop_
 _atom_site_type_symbol
 _atom_site_label
 _atom_site_symmetry_multiplicity
 _atom_site_fract_x
 _atom_site_fract_y
 _atom_site_fract_z
 _atom_site_occupancy
  Eu  Eu0  1  0.66666700  0.33333300  0.75000000  1
  Eu  Eu1  1  0.33333300  0.66666700  0.25000000  1
  Cl  Cl2  1  0.09420000  0.38651500  0.75000000  1
  Cl  Cl3  1  0.29231500  0.90580000  0.75000000  1
  Cl  Cl4  1  0.38651500  0.29231500  0.25000000  1
  Cl  Cl5  1  0.90580000  0.61348500  0.25000000  1
  Cl  Cl6  1  0.61348500  0.70768500  0.75000000  1
  Cl  Cl7  1  0.70768500  0.09420000  0.25000000  1
  O  O8  1  0.80596400  0.02189900  0.25000000  1
  O  O9  1  0.46382900  0.02378000  0.75000000  1
  O  O10  1  0.21593500  0.19403600  0.25000000  1
  O  O11  1  0.97622000  0.44004900  0.75000000  1
  O  O12  1  0.80292400  0.54685700  0.44869100  1
  O  O13  1  0.19707600  0.45314300  0.55130900  1
  O  O14  1  0.02189900  0.21593500  0.75000000  1
  O  O15  1  0.45314300  0.25606700  0.44869100  1
  O  O16  1  0.25606700  0.80292400  0.55130900  1
  O  O17  1  0.53617100  0.97622000  0.25000000  1
  O  O18  1  0.19403600  0.97810100  0.75000000  1
  O  O19  1  0.74393300  0.19707600  0.05130900  1
  O  O20  1  0.55995100  0.53617100  0.75000000  1
  O  O21  1  0.54685700  0.74393300  0.55130900  1
  O  O22  1  0.78406500  0.80596400  0.75000000  1
  O  O23  1  0.44004900  0.46382900  0.25000000  1
  O  O24  1  0.02378000  0.55995100  0.25000000  1
  O  O25  1  0.19707600  0.45314300  0.94869100  1
  O  O26  1  0.97810100  0.78406500  0.25000000  1
  O  O27  1  0.54685700  0.74393300  0.94869100  1
  O  O28  1  0.25606700  0.80292400  0.94869100  1
  O  O29  1  0.45314300  0.25606700  0.05130900  1
  O  O30  1  0.74393300  0.19707600  0.44869100  1
  O  O31  1  0.80292400  0.54685700  0.05130900  1
