# generated using pymatgen
data_CsKPt6(S3O14)2
_symmetry_space_group_name_H-M   'P 1'
_cell_length_a   11.73601723
_cell_length_b   11.73601723
_cell_length_c   11.73601698
_cell_angle_alpha   62.50463704
_cell_angle_beta   62.50463704
_cell_angle_gamma   62.50463825
_symmetry_Int_Tables_number   1
_chemical_formula_structural   CsKPt6(S3O14)2
_chemical_formula_sum   'Cs2 K2 Pt12 S12 O56'
_cell_volume   1206.79877196
_cell_formula_units_Z   2
loop_
 _symmetry_equiv_pos_site_id
 _symmetry_equiv_pos_as_xyz
  1  'x, y, z'
loop_
 _atom_site_type_symbol
 _atom_site_label
 _atom_site_symmetry_multiplicity
 _atom_site_fract_x
 _atom_site_fract_y
 _atom_site_fract_z
 _atom_site_occupancy
  Cs  Cs0  1  0.41451100  0.41451100  0.41451100  1
  Cs  Cs1  1  0.58548900  0.58548900  0.58548900  1
  K  K2  1  0.20656100  0.20656100  0.20656100  1
  K  K3  1  0.79343900  0.79343900  0.79343900  1
  Pt  Pt4  1  0.14948300  0.75093900  0.19690000  1
  Pt  Pt5  1  0.19690000  0.14948300  0.75093900  1
  Pt  Pt6  1  0.72670400  0.98079700  0.03850400  1
  Pt  Pt7  1  0.85051700  0.24906100  0.80310000  1
  Pt  Pt8  1  0.80310000  0.85051700  0.24906100  1
  Pt  Pt9  1  0.24906100  0.80310000  0.85051700  1
  Pt  Pt10  1  0.98079700  0.03850400  0.72670400  1
  Pt  Pt11  1  0.75093900  0.19690000  0.14948300  1
  Pt  Pt12  1  0.27329600  0.01920300  0.96149600  1
  Pt  Pt13  1  0.96149600  0.27329600  0.01920300  1
  Pt  Pt14  1  0.01920300  0.96149600  0.27329600  1
  Pt  Pt15  1  0.03850400  0.72670400  0.98079700  1
  S  S16  1  0.29799300  0.51234500  0.05321100  1
  S  S17  1  0.74176800  0.67716500  0.16102500  1
  S  S18  1  0.70200700  0.48765500  0.94678900  1
  S  S19  1  0.25823200  0.32283500  0.83897500  1
  S  S20  1  0.67716500  0.16102500  0.74176800  1
  S  S21  1  0.05321100  0.29799300  0.51234500  1
  S  S22  1  0.32283500  0.83897500  0.25823200  1
  S  S23  1  0.48765500  0.94678900  0.70200700  1
  S  S24  1  0.16102500  0.74176800  0.67716500  1
  S  S25  1  0.94678900  0.70200700  0.48765500  1
  S  S26  1  0.83897500  0.25823200  0.32283500  1
  S  S27  1  0.51234500  0.05321100  0.29799300  1
  O  O28  1  0.06888700  0.37757200  0.37185800  1
  O  O29  1  0.81854800  0.07811800  0.67199500  1
  O  O30  1  0.37265700  0.92760500  0.11757800  1
  O  O31  1  0.88242200  0.62734300  0.07239500  1
  O  O32  1  0.00312200  0.23995500  0.84701800  1
  O  O33  1  0.66471100  0.58892200  0.21004600  1
  O  O34  1  0.23995500  0.84701800  0.00312200  1
  O  O35  1  0.74770900  0.69221900  0.28094800  1
  O  O36  1  0.39672500  0.08209100  0.63498400  1
  O  O37  1  0.15957400  0.53352800  0.05252900  1
  O  O38  1  0.21004600  0.66471100  0.58892200  1
  O  O39  1  0.44748700  0.83424300  0.72008400  1
  O  O40  1  0.94747100  0.84042600  0.46647200  1
  O  O41  1  0.71905200  0.25229100  0.30778100  1
  O  O42  1  0.37757200  0.37185800  0.06888700  1
  O  O43  1  0.69221900  0.28094800  0.74770900  1
  O  O44  1  0.30778100  0.71905200  0.25229100  1
  O  O45  1  0.05252900  0.15957400  0.53352800  1
  O  O46  1  0.92188200  0.32800500  0.18145200  1
  O  O47  1  0.63498400  0.39672500  0.08209100  1
  O  O48  1  0.11757800  0.37265700  0.92760500  1
  O  O49  1  0.76004500  0.15298200  0.99687800  1
  O  O50  1  0.07239500  0.88242200  0.62734300  1
  O  O51  1  0.37185800  0.06888700  0.37757200  1
  O  O52  1  0.72008400  0.44748700  0.83424300  1
  O  O53  1  0.27991600  0.55251300  0.16575700  1
  O  O54  1  0.18145200  0.92188200  0.32800500  1
  O  O55  1  0.90611100  0.90611100  0.90611100  1
  O  O56  1  0.62814200  0.93111300  0.62242800  1
  O  O57  1  0.15298200  0.99687800  0.76004500  1
  O  O58  1  0.09388900  0.09388900  0.09388900  1
  O  O59  1  0.78995400  0.33528900  0.41107800  1
  O  O60  1  0.07811800  0.67199500  0.81854800  1
  O  O61  1  0.60327500  0.91790900  0.36501600  1
  O  O62  1  0.91790900  0.36501600  0.60327500  1
  O  O63  1  0.62734300  0.07239500  0.88242200  1
  O  O64  1  0.28094800  0.74770900  0.69221900  1
  O  O65  1  0.46647200  0.94747100  0.84042600  1
  O  O66  1  0.62242800  0.62814200  0.93111300  1
  O  O67  1  0.33528900  0.41107800  0.78995400  1
  O  O68  1  0.25229100  0.30778100  0.71905200  1
  O  O69  1  0.08209100  0.63498400  0.39672500  1
  O  O70  1  0.58892200  0.21004600  0.66471100  1
  O  O71  1  0.32800500  0.18145200  0.92188200  1
  O  O72  1  0.84042600  0.46647200  0.94747100  1
  O  O73  1  0.99687800  0.76004500  0.15298200  1
  O  O74  1  0.92760500  0.11757800  0.37265700  1
  O  O75  1  0.41107800  0.78995400  0.33528900  1
  O  O76  1  0.36501600  0.60327500  0.91790900  1
  O  O77  1  0.83424300  0.72008400  0.44748700  1
  O  O78  1  0.53352800  0.05252900  0.15957400  1
  O  O79  1  0.93111300  0.62242800  0.62814200  1
  O  O80  1  0.55251300  0.16575700  0.27991600  1
  O  O81  1  0.16575700  0.27991600  0.55251300  1
  O  O82  1  0.84701800  0.00312200  0.23995500  1
  O  O83  1  0.67199500  0.81854800  0.07811800  1
