# generated using pymatgen
data_Tl2(ReSe2)3
_symmetry_space_group_name_H-M   'P 1'
_cell_length_a   10.14515324
_cell_length_b   10.14515324
_cell_length_c   12.49442958
_cell_angle_alpha   89.50607254
_cell_angle_beta   89.50607254
_cell_angle_gamma   59.76868605
_symmetry_Int_Tables_number   1
_chemical_formula_structural   Tl2(ReSe2)3
_chemical_formula_sum   'Tl8 Re12 Se24'
_cell_volume   1111.03005965
_cell_formula_units_Z   4
loop_
 _symmetry_equiv_pos_site_id
 _symmetry_equiv_pos_as_xyz
  1  'x, y, z'
loop_
 _atom_site_type_symbol
 _atom_site_label
 _atom_site_symmetry_multiplicity
 _atom_site_fract_x
 _atom_site_fract_y
 _atom_site_fract_z
 _atom_site_occupancy
  Tl  Tl0  1  0.35127400  0.85558000  0.51439300  1
  Tl  Tl1  1  0.78446400  0.21553600  0.75000000  1
  Tl  Tl2  1  0.14442000  0.64872600  0.98560700  1
  Tl  Tl3  1  0.21553600  0.78446400  0.25000000  1
  Tl  Tl4  1  0.41215400  0.58784600  0.75000000  1
  Tl  Tl5  1  0.85558000  0.35127400  0.01439300  1
  Tl  Tl6  1  0.64872600  0.14442000  0.48560700  1
  Tl  Tl7  1  0.58784600  0.41215400  0.25000000  1
  Re  Re8  1  0.52757500  0.88541400  0.12675500  1
  Re  Re9  1  0.18239300  0.39768700  0.58000000  1
  Re  Re10  1  0.99202200  0.68606600  0.52491300  1
  Re  Re11  1  0.68606600  0.99202200  0.02491300  1
  Re  Re12  1  0.00797800  0.31393400  0.47508700  1
  Re  Re13  1  0.47242500  0.11458600  0.87324500  1
  Re  Re14  1  0.39768700  0.18239300  0.08000000  1
  Re  Re15  1  0.31393400  0.00797800  0.97508700  1
  Re  Re16  1  0.60231300  0.81760700  0.92000000  1
  Re  Re17  1  0.88541400  0.52757500  0.62675500  1
  Re  Re18  1  0.11458600  0.47242500  0.37324500  1
  Re  Re19  1  0.81760700  0.60231300  0.42000000  1
  Se  Se20  1  0.75185900  0.92550600  0.82928000  1
  Se  Se21  1  0.80260100  0.70792100  0.06811300  1
  Se  Se22  1  0.92550600  0.75185900  0.32928000  1
  Se  Se23  1  0.24814100  0.07449400  0.17072000  1
  Se  Se24  1  0.70792100  0.80260100  0.56811300  1
  Se  Se25  1  0.94421100  0.39455000  0.28004600  1
  Se  Se26  1  0.55367600  0.27866600  0.97777300  1
  Se  Se27  1  0.55848800  0.73044200  0.30714700  1
  Se  Se28  1  0.93571900  0.98934600  0.08029700  1
  Se  Se29  1  0.06428100  0.01065400  0.91970300  1
  Se  Se30  1  0.07449400  0.24814100  0.67072000  1
  Se  Se31  1  0.01065400  0.06428100  0.41970300  1
  Se  Se32  1  0.19739900  0.29207900  0.93188700  1
  Se  Se33  1  0.73044200  0.55848800  0.80714700  1
  Se  Se34  1  0.39455000  0.94421100  0.78004600  1
  Se  Se35  1  0.98934600  0.93571900  0.58029700  1
  Se  Se36  1  0.72133400  0.44632400  0.52222700  1
  Se  Se37  1  0.60545000  0.05578900  0.21995400  1
  Se  Se38  1  0.44151200  0.26955800  0.69285300  1
  Se  Se39  1  0.26955800  0.44151200  0.19285300  1
  Se  Se40  1  0.27866600  0.55367600  0.47777300  1
  Se  Se41  1  0.29207900  0.19739900  0.43188700  1
  Se  Se42  1  0.44632400  0.72133400  0.02222700  1
  Se  Se43  1  0.05578900  0.60545000  0.71995400  1
