# generated using pymatgen
data_Ba2Ho(CuO2)4
_symmetry_space_group_name_H-M   'P 1'
_cell_length_a   13.87398175
_cell_length_b   13.87398175
_cell_length_c   3.87946000
_cell_angle_alpha   90.00000000
_cell_angle_beta   90.00000000
_cell_angle_gamma   163.86412868
_symmetry_Int_Tables_number   1
_chemical_formula_structural   Ba2Ho(CuO2)4
_chemical_formula_sum   'Ba2 Ho1 Cu4 O8'
_cell_volume   207.53304020
_cell_formula_units_Z   1
loop_
 _symmetry_equiv_pos_site_id
 _symmetry_equiv_pos_as_xyz
  1  'x, y, z'
loop_
 _atom_site_type_symbol
 _atom_site_label
 _atom_site_symmetry_multiplicity
 _atom_site_fract_x
 _atom_site_fract_y
 _atom_site_fract_z
 _atom_site_occupancy
  Ba  Ba0  1  0.63554700  0.36445300  0.50000000  1
  Ba  Ba1  1  0.36445300  0.63554700  0.50000000  1
  Ho  Ho2  1  0.50000000  0.50000000  0.50000000  1
  Cu  Cu3  1  0.06091700  0.93908300  0.00000000  1
  Cu  Cu4  1  0.93908300  0.06091700  0.00000000  1
  Cu  Cu5  1  0.21260300  0.78739700  0.00000000  1
  Cu  Cu6  1  0.78739700  0.21260300  0.00000000  1
  O  O7  1  0.71845500  0.28154500  0.00000000  1
  O  O8  1  0.28154500  0.71845500  0.00000000  1
  O  O9  1  0.55149200  0.44850800  0.00000000  1
  O  O10  1  0.44850800  0.55149200  0.00000000  1
  O  O11  1  0.05161000  0.94839000  0.50000000  1
  O  O12  1  0.94839000  0.05161000  0.50000000  1
  O  O13  1  0.14524900  0.85475100  0.00000000  1
  O  O14  1  0.85475100  0.14524900  0.00000000  1
