# generated using pymatgen
data_Ca5P3O12F
_symmetry_space_group_name_H-M   'P 1'
_cell_length_a   9.50088768
_cell_length_b   9.50088768
_cell_length_c   6.91984800
_cell_angle_alpha   90.00000000
_cell_angle_beta   90.00000000
_cell_angle_gamma   119.99999779
_symmetry_Int_Tables_number   1
_chemical_formula_structural   Ca5P3O12F
_chemical_formula_sum   'Ca10 P6 O24 F2'
_cell_volume   540.94805584
_cell_formula_units_Z   2
loop_
 _symmetry_equiv_pos_site_id
 _symmetry_equiv_pos_as_xyz
  1  'x, y, z'
loop_
 _atom_site_type_symbol
 _atom_site_label
 _atom_site_symmetry_multiplicity
 _atom_site_fract_x
 _atom_site_fract_y
 _atom_site_fract_z
 _atom_site_occupancy
  Ca  Ca0  1  0.75404800  0.75540300  0.25000000  1
  Ca  Ca1  1  0.00135500  0.24595200  0.25000000  1
  Ca  Ca2  1  0.75540300  0.00135500  0.75000000  1
  Ca  Ca3  1  0.99864500  0.75404800  0.75000000  1
  Ca  Ca4  1  0.24595200  0.24459700  0.75000000  1
  Ca  Ca5  1  0.24459700  0.99864500  0.25000000  1
  Ca  Ca6  1  0.33333300  0.66666700  0.49891500  1
  Ca  Ca7  1  0.66666700  0.33333300  0.99891500  1
  Ca  Ca8  1  0.66666700  0.33333300  0.50108500  1
  Ca  Ca9  1  0.33333300  0.66666700  0.00108500  1
  P  P10  1  0.63072700  0.02900400  0.25000000  1
  P  P11  1  0.97099600  0.60172300  0.25000000  1
  P  P12  1  0.60172300  0.63072700  0.75000000  1
  P  P13  1  0.36927300  0.97099600  0.75000000  1
  P  P14  1  0.02900400  0.39827700  0.75000000  1
  P  P15  1  0.39827700  0.36927300  0.25000000  1
  O  O16  1  0.67121100  0.51391400  0.75000000  1
  O  O17  1  0.46558600  0.87750500  0.75000000  1
  O  O18  1  0.34075600  0.25696600  0.43043600  1
  O  O19  1  0.08379000  0.34075600  0.93043600  1
  O  O20  1  0.25696600  0.91621000  0.93043600  1
  O  O21  1  0.74303400  0.08379000  0.43043600  1
  O  O22  1  0.91621000  0.65924400  0.43043600  1
  O  O23  1  0.65924400  0.74303400  0.93043600  1
  O  O24  1  0.65924400  0.74303400  0.56956400  1
  O  O25  1  0.91621000  0.65924400  0.06956400  1
  O  O26  1  0.74303400  0.08379000  0.06956400  1
  O  O27  1  0.25696600  0.91621000  0.56956400  1
  O  O28  1  0.12249500  0.58808200  0.75000000  1
  O  O29  1  0.34075600  0.25696600  0.06956400  1
  O  O30  1  0.41191800  0.53441400  0.75000000  1
  O  O31  1  0.87750500  0.41191800  0.25000000  1
  O  O32  1  0.32878900  0.48608600  0.25000000  1
  O  O33  1  0.84270300  0.32878900  0.75000000  1
  O  O34  1  0.48608600  0.15729700  0.75000000  1
  O  O35  1  0.51391400  0.84270300  0.25000000  1
  O  O36  1  0.15729700  0.67121100  0.25000000  1
  O  O37  1  0.08379000  0.34075600  0.56956400  1
  O  O38  1  0.58808200  0.46558600  0.25000000  1
  O  O39  1  0.53441400  0.12249500  0.25000000  1
  F  F40  1  0.00000000  0.00000000  0.25000000  1
  F  F41  1  0.00000000  0.00000000  0.75000000  1
