# generated using pymatgen
data_LaGa6
_symmetry_space_group_name_H-M   'P 1'
_cell_length_a   6.10960000
_cell_length_b   6.10960000
_cell_length_c   7.76445200
_cell_angle_alpha   90.00000000
_cell_angle_beta   90.00000000
_cell_angle_gamma   90.00000000
_symmetry_Int_Tables_number   1
_chemical_formula_structural   LaGa6
_chemical_formula_sum   'La2 Ga12'
_cell_volume   289.82534711
_cell_formula_units_Z   2
loop_
 _symmetry_equiv_pos_site_id
 _symmetry_equiv_pos_as_xyz
  1  'x, y, z'
loop_
 _atom_site_type_symbol
 _atom_site_label
 _atom_site_symmetry_multiplicity
 _atom_site_fract_x
 _atom_site_fract_y
 _atom_site_fract_z
 _atom_site_occupancy
  La  La0  1  0.00000000  0.50000000  0.00000000  1
  La  La1  1  0.50000000  0.00000000  0.00000000  1
  Ga  Ga2  1  0.50000000  0.50000000  0.16150400  1
  Ga  Ga3  1  0.00000000  0.00000000  0.83849600  1
  Ga  Ga4  1  0.50000000  0.50000000  0.83849600  1
  Ga  Ga5  1  0.00000000  0.00000000  0.16150400  1
  Ga  Ga6  1  0.20085600  0.70085600  0.34751800  1
  Ga  Ga7  1  0.79914400  0.29914400  0.34751800  1
  Ga  Ga8  1  0.70085600  0.20085600  0.65248200  1
  Ga  Ga9  1  0.29914400  0.79914400  0.65248200  1
  Ga  Ga10  1  0.20085600  0.29914400  0.65248200  1
  Ga  Ga11  1  0.79914400  0.70085600  0.65248200  1
  Ga  Ga12  1  0.70085600  0.79914400  0.34751800  1
  Ga  Ga13  1  0.29914400  0.20085600  0.34751800  1
