# generated using pymatgen
data_ZrN6O17
_symmetry_space_group_name_H-M   'P 1'
_cell_length_a   16.63674485
_cell_length_b   16.63674485
_cell_length_c   16.63674485
_cell_angle_alpha   130.31548449
_cell_angle_beta   130.31548449
_cell_angle_gamma   72.90291233
_symmetry_Int_Tables_number   1
_chemical_formula_structural   ZrN6O17
_chemical_formula_sum   'Zr8 N48 O136'
_cell_volume   2614.96333607
_cell_formula_units_Z   8
loop_
 _symmetry_equiv_pos_site_id
 _symmetry_equiv_pos_as_xyz
  1  'x, y, z'
loop_
 _atom_site_type_symbol
 _atom_site_label
 _atom_site_symmetry_multiplicity
 _atom_site_fract_x
 _atom_site_fract_y
 _atom_site_fract_z
 _atom_site_occupancy
  Zr  Zr0  1  0.28346200  0.95509600  0.56926700  1
  Zr  Zr1  1  0.11417000  0.28580500  0.06926700  1
  Zr  Zr2  1  0.21419500  0.78346200  0.82836600  1
  Zr  Zr3  1  0.71653800  0.04490400  0.43073300  1
  Zr  Zr4  1  0.45509600  0.38583000  0.67163400  1
  Zr  Zr5  1  0.54490400  0.61417000  0.32836600  1
  Zr  Zr6  1  0.88583000  0.71419500  0.93073300  1
  Zr  Zr7  1  0.78580500  0.21653800  0.17163400  1
  N  N8  1  0.50650600  0.32634700  0.51374000  1
  N  N9  1  0.88360600  0.11990800  0.04835100  1
  N  N10  1  0.71732500  0.54572500  0.46527900  1
  N  N11  1  0.41955400  0.74795400  0.96527900  1
  N  N12  1  0.35087200  0.46663300  0.07396500  1
  N  N13  1  0.38009200  0.92844300  0.76369800  1
  N  N14  1  0.22309300  0.14912800  0.61576100  1
  N  N15  1  0.04572500  0.08044600  0.82840000  1
  N  N16  1  0.10733200  0.72309300  0.57396500  1
  N  N17  1  0.92660200  0.10288800  0.55010100  1
  N  N18  1  0.49276600  0.00650600  0.68015900  1
  N  N19  1  0.71118700  0.35761600  0.49168600  1
  N  N20  1  0.58044600  0.25204600  0.03472100  1
  N  N21  1  0.49349400  0.67365300  0.48626000  1
  N  N22  1  0.28049800  0.78881300  0.14642800  1
  N  N23  1  0.77690700  0.85087200  0.38423900  1
  N  N24  1  0.82634700  0.81260700  0.81984100  1
  N  N25  1  0.71950200  0.21118700  0.85357200  1
  N  N26  1  0.14238400  0.13407000  0.35357200  1
  N  N27  1  0.95427500  0.91955400  0.17160000  1
  N  N28  1  0.33525400  0.38360600  0.26369800  1
  N  N29  1  0.24795400  0.78267500  0.32840000  1
  N  N30  1  0.12349900  0.57339800  0.67628600  1
  N  N31  1  0.68739300  0.00723400  0.01374000  1
  N  N32  1  0.94721400  0.62349900  0.05010100  1
  N  N33  1  0.50723400  0.99349400  0.31984100  1
  N  N34  1  0.05278600  0.37650100  0.94989900  1
  N  N35  1  0.31260700  0.99276600  0.98626000  1
  N  N36  1  0.57155700  0.83525400  0.45164900  1
  N  N37  1  0.61990800  0.07155700  0.23630200  1
  N  N38  1  0.39711200  0.44721400  0.82371400  1
  N  N39  1  0.85761600  0.86593000  0.64642800  1
  N  N40  1  0.17365300  0.18739300  0.18015900  1
  N  N41  1  0.87650100  0.42660200  0.32371400  1
  N  N42  1  0.96663300  0.39266800  0.11576100  1
  N  N43  1  0.63407000  0.78049800  0.99168600  1
  N  N44  1  0.07339800  0.89711200  0.44989900  1
  N  N45  1  0.60288800  0.55278600  0.17628600  1
  N  N46  1  0.64912800  0.53336700  0.92603500  1
  N  N47  1  0.28881300  0.64238400  0.50831400  1
  N  N48  1  0.89266800  0.27690700  0.42603500  1
  N  N49  1  0.03336700  0.60733200  0.88423900  1
  N  N50  1  0.28267500  0.45427500  0.53472100  1
  N  N51  1  0.66474600  0.61639400  0.73630200  1
  N  N52  1  0.75204600  0.21732500  0.67160000  1
  N  N53  1  0.42844300  0.16474600  0.54835100  1
  N  N54  1  0.36593000  0.21950200  0.00831400  1
  N  N55  1  0.11639400  0.88009200  0.95164900  1
  O  O56  1  0.80380800  0.76607400  0.35896200  1
  O  O57  1  0.94484600  0.30380800  0.53773400  1
  O  O58  1  0.62847800  0.52502700  0.10935600  1
  O  O59  1  0.37661700  0.02139000  0.78945500  1
  O  O60  1  0.26806500  0.41283800  0.28945500  1
  O  O61  1  0.75415000  0.88239400  0.31843400  1
  O  O62  1  0.28418700  0.20196200  0.91241000  1
  O  O63  1  0.91567100  0.51912200  0.39064400  1
  O  O64  1  0.64066300  0.91734000  0.94598000  1
  O  O65  1  0.05918300  0.71052500  0.97892300  1
  O  O66  1  0.70196200  0.28955100  0.91777500  1
  O  O67  1  0.44707900  0.91059200  0.61290200  1
  O  O68  1  0.42351700  0.61999900  0.35660900  1
  O  O69  1  0.55129900  0.76721900  0.89948400  1
  O  O70  1  0.29803800  0.71044900  0.08222500  1
  O  O71  1  0.90404500  0.34337500  0.25527700  1
  O  O72  1  0.29155500  0.30006600  0.13958800  1
  O  O73  1  0.85123200  0.59595500  0.93933000  1
  O  O74  1  0.08432900  0.48087800  0.60935600  1
  O  O75  1  0.24242300  0.76972700  0.39326800  1
  O  O76  1  0.76339100  0.06690800  0.14339100  1
  O  O77  1  0.89934800  0.08717800  0.59764200  1
  O  O78  1  0.42897800  0.43064900  0.34831500  1
  O  O79  1  0.12822400  0.21581300  0.41777500  1
  O  O80  1  0.97497300  0.58432900  0.10345100  1
  O  O81  1  0.23160200  0.08026000  0.52107700  1
  O  O82  1  0.23660900  0.93309200  0.85660900  1
  O  O83  1  0.58266000  0.02864000  0.72332200  1
  O  O84  1  0.63226500  0.34818400  0.39948400  1
  O  O85  1  0.99901500  0.11799700  0.88263400  1
  O  O86  1  0.06396000  0.43571600  0.18156600  1
  O  O87  1  0.84818400  0.94870100  0.71592000  1
  O  O88  1  0.58233400  0.08066300  0.15168500  1
  O  O89  1  0.65084500  0.25757700  0.02730400  1
  O  O90  1  0.41734000  0.97136000  0.27667800  1
  O  O91  1  0.05515400  0.69619200  0.46226600  1
  O  O92  1  0.26721900  0.86773500  0.21592000  1
  O  O93  1  0.19619200  0.23392600  0.64103800  1
  O  O94  1  0.35933700  0.08265900  0.05402000  1
  O  O95  1  0.21052500  0.73160200  0.65134200  1
  O  O96  1  0.14876800  0.40404500  0.06067000  1
  O  O97  1  0.47861000  0.76806500  0.35522700  1
  O  O98  1  0.78955100  0.37177600  0.58759000  1
  O  O99  1  0.34803300  0.20844500  0.50851100  1
  O  O100  1  0.26463700  0.88361900  0.38263400  1
  O  O101  1  0.79107200  0.51860800  0.53096900  1
  O  O102  1  0.61638100  0.49901500  0.38101800  1
  O  O103  1  0.15662500  0.91190200  0.56067000  1
  O  O104  1  0.38361900  0.50098500  0.61898200  1
  O  O105  1  0.58066300  0.92897800  0.49832900  1
  O  O106  1  0.78947500  0.26839800  0.34865800  1
  O  O107  1  0.43309200  0.07648300  0.69648300  1
  O  O108  1  0.52139000  0.23193500  0.64477300  1
  O  O109  1  0.57648300  0.38000100  0.64339100  1
  O  O110  1  0.41282200  0.51046400  0.81217000  1
  O  O111  1  0.11999900  0.26339100  0.19648300  1
  O  O112  1  0.02502700  0.41567100  0.89654900  1
  O  O113  1  0.93064900  0.08233400  0.00167100  1
  O  O114  1  0.58717800  0.48953600  0.18783000  1
  O  O115  1  0.73193500  0.58716200  0.71054500  1
  O  O116  1  0.12354100  0.15084500  0.89326800  1
  O  O117  1  0.98139200  0.01236100  0.27246400  1
  O  O118  1  0.70844500  0.69993400  0.86041200  1
  O  O119  1  0.19993400  0.83952200  0.99148900  1
  O  O120  1  0.84337500  0.08809800  0.43933000  1
  O  O121  1  0.33952200  0.84803300  0.63958800  1
  O  O122  1  0.52864000  0.30531700  0.44598000  1
  O  O123  1  0.57102200  0.56935100  0.65168500  1
  O  O124  1  0.62338300  0.97861000  0.21054500  1
  O  O125  1  0.73392600  0.59288800  0.03773400  1
  O  O126  1  0.51236100  0.73989700  0.03096900  1
  O  O127  1  0.75757700  0.23027300  0.60673200  1
  O  O128  1  0.90711200  0.44484600  0.14103800  1
  O  O129  1  0.76839800  0.91974000  0.47892300  1
  O  O130  1  0.79769000  0.83417700  0.88709800  1
  O  O131  1  0.01046400  0.69829400  0.09764200  1
  O  O132  1  0.88000100  0.73660900  0.80351700  1
  O  O133  1  0.20892800  0.48139200  0.46903100  1
  O  O134  1  0.01860800  0.98763900  0.72753600  1
  O  O135  1  0.87177600  0.78418700  0.58222500  1
  O  O136  1  0.37152200  0.47497300  0.89064400  1
  O  O137  1  0.41059200  0.29769000  0.46351300  1
  O  O138  1  0.33417700  0.94707900  0.03648700  1
  O  O139  1  0.41974000  0.44081700  0.15134200  1
  O  O140  1  0.98953600  0.30170600  0.90235800  1
  O  O141  1  0.19829400  0.60065200  0.68783000  1
  O  O142  1  0.24585000  0.11760600  0.68156600  1
  O  O143  1  0.21044900  0.62822400  0.41241000  1
  O  O144  1  0.66047800  0.15196700  0.36041200  1
  O  O145  1  0.36773500  0.65181600  0.60051600  1
  O  O146  1  0.41933700  0.07102200  0.50167100  1
  O  O147  1  0.73278100  0.13226500  0.78408000  1
  O  O148  1  0.01912200  0.12847800  0.60345100  1
  O  O149  1  0.26607400  0.40711200  0.96226600  1
  O  O150  1  0.93571600  0.25415000  0.37175600  1
  O  O151  1  0.47136000  0.69468300  0.55402000  1
  O  O152  1  0.00098500  0.88200300  0.11736600  1
  O  O153  1  0.80006600  0.16047800  0.00851100  1
  O  O154  1  0.58940800  0.70231000  0.53648700  1
  O  O155  1  0.06935100  0.91766600  0.99832900  1
  O  O156  1  0.44870100  0.23278100  0.10051600  1
  O  O157  1  0.48763900  0.26010300  0.96903100  1
  O  O158  1  0.66582300  0.05292100  0.96351300  1
  O  O159  1  0.34915500  0.74242300  0.97269600  1
  O  O160  1  0.94081700  0.28947500  0.02107700  1
  O  O161  1  0.26972700  0.37645900  0.52730400  1
  O  O162  1  0.10065200  0.91282200  0.40235800  1
  O  O163  1  0.38200300  0.76463700  0.88101800  1
  O  O164  1  0.20231000  0.16582300  0.11290200  1
  O  O165  1  0.76010300  0.29107200  0.77246400  1
  O  O166  1  0.98087800  0.87152200  0.39654900  1
  O  O167  1  0.58026000  0.55918300  0.84865800  1
  O  O168  1  0.56690800  0.92351700  0.30351700  1
  O  O169  1  0.41190200  0.35123200  0.75527700  1
  O  O170  1  0.61799700  0.23536300  0.11898200  1
  O  O171  1  0.55292100  0.08940800  0.38709800  1
  O  O172  1  0.09288800  0.55515400  0.85896200  1
  O  O173  1  0.73027300  0.62354100  0.47269600  1
  O  O174  1  0.80170600  0.39934800  0.31217000  1
  O  O175  1  0.80531700  0.85933700  0.77667800  1
  O  O176  1  0.38239400  0.56396000  0.12824400  1
  O  O177  1  0.23989700  0.70892800  0.22753600  1
  O  O178  1  0.06428400  0.74585000  0.62824400  1
  O  O179  1  0.19468300  0.14066300  0.22332200  1
  O  O180  1  0.41766600  0.91933700  0.84831500  1
  O  O181  1  0.73536300  0.11638100  0.61736600  1
  O  O182  1  0.93604000  0.56428400  0.81843400  1
  O  O183  1  0.65196700  0.79155500  0.49148900  1
  O  O184  1  0.91283800  0.12338300  0.14477300  1
  O  O185  1  0.71581300  0.79803800  0.08759000  1
  O  O186  1  0.08716200  0.87661700  0.85522700  1
  O  O187  1  0.09595500  0.65662500  0.74472300  1
  O  O188  1  0.87645900  0.84915500  0.10673200  1
  O  O189  1  0.58809800  0.64876800  0.24472300  1
  O  O190  1  0.15181600  0.05129900  0.28408000  1
  O  O191  1  0.61760600  0.43604000  0.87175600  1
