# generated using pymatgen
data_GdInRh
_symmetry_space_group_name_H-M   'P 1'
_cell_length_a   7.59750223
_cell_length_b   7.59750223
_cell_length_c   3.96786300
_cell_angle_alpha   90.00000000
_cell_angle_beta   90.00000000
_cell_angle_gamma   120.00000198
_symmetry_Int_Tables_number   1
_chemical_formula_structural   GdInRh
_chemical_formula_sum   'Gd3 In3 Rh3'
_cell_volume   198.34851981
_cell_formula_units_Z   3
loop_
 _symmetry_equiv_pos_site_id
 _symmetry_equiv_pos_as_xyz
  1  'x, y, z'
loop_
 _atom_site_type_symbol
 _atom_site_label
 _atom_site_symmetry_multiplicity
 _atom_site_fract_x
 _atom_site_fract_y
 _atom_site_fract_z
 _atom_site_occupancy
  Gd  Gd0  1  0.00000000  0.59152500  0.50000000  1
  Gd  Gd1  1  0.59152500  0.00000000  0.50000000  1
  Gd  Gd2  1  0.40847500  0.40847500  0.50000000  1
  In  In3  1  0.00000000  0.25441500  0.00000000  1
  In  In4  1  0.25441500  0.00000000  0.00000000  1
  In  In5  1  0.74558500  0.74558500  0.00000000  1
  Rh  Rh6  1  0.00000000  0.00000000  0.50000000  1
  Rh  Rh7  1  0.66666700  0.33333300  0.00000000  1
  Rh  Rh8  1  0.33333300  0.66666700  0.00000000  1
