# generated using pymatgen
data_Eu3Sb4S9
_symmetry_space_group_name_H-M   'P 1'
_cell_length_a   4.02217900
_cell_length_b   16.47576400
_cell_length_c   23.75153900
_cell_angle_alpha   90.00000000
_cell_angle_beta   90.00000000
_cell_angle_gamma   90.00000000
_symmetry_Int_Tables_number   1
_chemical_formula_structural   Eu3Sb4S9
_chemical_formula_sum   'Eu12 Sb16 S36'
_cell_volume   1573.97819646
_cell_formula_units_Z   4
loop_
 _symmetry_equiv_pos_site_id
 _symmetry_equiv_pos_as_xyz
  1  'x, y, z'
loop_
 _atom_site_type_symbol
 _atom_site_label
 _atom_site_symmetry_multiplicity
 _atom_site_fract_x
 _atom_site_fract_y
 _atom_site_fract_z
 _atom_site_occupancy
  Eu  Eu0  1  0.25000000  0.32243300  0.67780700  1
  Eu  Eu1  1  0.75000000  0.67756700  0.32219300  1
  Eu  Eu2  1  0.75000000  0.94727400  0.26646900  1
  Eu  Eu3  1  0.25000000  0.12290500  0.55369000  1
  Eu  Eu4  1  0.75000000  0.87709500  0.44631000  1
  Eu  Eu5  1  0.25000000  0.82243300  0.82219300  1
  Eu  Eu6  1  0.25000000  0.62290500  0.94631000  1
  Eu  Eu7  1  0.75000000  0.17756700  0.17780700  1
  Eu  Eu8  1  0.25000000  0.05272600  0.73353100  1
  Eu  Eu9  1  0.25000000  0.55272600  0.76646900  1
  Eu  Eu10  1  0.75000000  0.44727400  0.23353100  1
  Eu  Eu11  1  0.75000000  0.37709500  0.05369000  1
  Sb  Sb12  1  0.25000000  0.47294900  0.39562500  1
  Sb  Sb13  1  0.75000000  0.02705100  0.89562500  1
  Sb  Sb14  1  0.25000000  0.59063500  0.10711300  1
  Sb  Sb15  1  0.75000000  0.33444300  0.50598200  1
  Sb  Sb16  1  0.75000000  0.90936500  0.60711300  1
  Sb  Sb17  1  0.75000000  0.74136800  0.67426900  1
  Sb  Sb18  1  0.25000000  0.66555700  0.49401800  1
  Sb  Sb19  1  0.25000000  0.09063500  0.39288700  1
  Sb  Sb20  1  0.75000000  0.40936500  0.89288700  1
  Sb  Sb21  1  0.25000000  0.97294900  0.10437500  1
  Sb  Sb22  1  0.25000000  0.25863200  0.32573100  1
  Sb  Sb23  1  0.25000000  0.16555700  0.00598200  1
  Sb  Sb24  1  0.25000000  0.75863200  0.17426900  1
  Sb  Sb25  1  0.75000000  0.24136800  0.82573100  1
  Sb  Sb26  1  0.75000000  0.83444300  0.99401800  1
  Sb  Sb27  1  0.75000000  0.52705100  0.60437500  1
  S  S28  1  0.75000000  0.56095000  0.43313900  1
  S  S29  1  0.75000000  0.45731600  0.69693900  1
  S  S30  1  0.25000000  0.25557500  0.46468400  1
  S  S31  1  0.25000000  0.74947400  0.40760500  1
  S  S32  1  0.25000000  0.63614500  0.65309500  1
  S  S33  1  0.75000000  0.13385200  0.30460600  1
  S  S34  1  0.25000000  0.13614500  0.84690500  1
  S  S35  1  0.25000000  0.93905000  0.93313900  1
  S  S36  1  0.25000000  0.29983700  0.22595200  1
  S  S37  1  0.25000000  0.75557500  0.03531600  1
  S  S38  1  0.75000000  0.70016300  0.77404800  1
  S  S39  1  0.25000000  0.54268400  0.30306100  1
  S  S40  1  0.25000000  0.86614800  0.69539400  1
  S  S41  1  0.75000000  0.36385500  0.34690500  1
  S  S42  1  0.75000000  0.05308500  0.63730600  1
  S  S43  1  0.75000000  0.20016300  0.72595200  1
  S  S44  1  0.75000000  0.74442500  0.53531600  1
  S  S45  1  0.25000000  0.24947400  0.09239500  1
  S  S46  1  0.25000000  0.43905000  0.56686100  1
  S  S47  1  0.75000000  0.75052600  0.90760500  1
  S  S48  1  0.75000000  0.06095000  0.06686100  1
  S  S49  1  0.75000000  0.86385500  0.15309500  1
  S  S50  1  0.25000000  0.44691500  0.13730600  1
  S  S51  1  0.75000000  0.25052600  0.59239500  1
  S  S52  1  0.75000000  0.63385200  0.19539400  1
  S  S53  1  0.75000000  0.06096400  0.46479600  1
  S  S54  1  0.25000000  0.04268400  0.19693900  1
  S  S55  1  0.75000000  0.56096400  0.03520400  1
  S  S56  1  0.25000000  0.36614800  0.80460600  1
  S  S57  1  0.25000000  0.43903600  0.96479600  1
  S  S58  1  0.25000000  0.93903600  0.53520400  1
  S  S59  1  0.25000000  0.79983700  0.27404800  1
  S  S60  1  0.25000000  0.94691500  0.36269400  1
  S  S61  1  0.75000000  0.95731600  0.80306100  1
  S  S62  1  0.75000000  0.24442500  0.96468400  1
  S  S63  1  0.75000000  0.55308500  0.86269400  1
