# generated using pymatgen
data_Sr3ZnPtO6
_symmetry_space_group_name_H-M   'P 1'
_cell_length_a   6.77185082
_cell_length_b   6.77185082
_cell_length_c   6.77185079
_cell_angle_alpha   91.47306086
_cell_angle_beta   91.47306086
_cell_angle_gamma   91.47306337
_symmetry_Int_Tables_number   1
_chemical_formula_structural   Sr3ZnPtO6
_chemical_formula_sum   'Sr6 Zn2 Pt2 O12'
_cell_volume   310.23002027
_cell_formula_units_Z   2
loop_
 _symmetry_equiv_pos_site_id
 _symmetry_equiv_pos_as_xyz
  1  'x, y, z'
loop_
 _atom_site_type_symbol
 _atom_site_label
 _atom_site_symmetry_multiplicity
 _atom_site_fract_x
 _atom_site_fract_y
 _atom_site_fract_z
 _atom_site_occupancy
  Sr  Sr0  1  0.11339700  0.75000000  0.38660300  1
  Sr  Sr1  1  0.38660300  0.11339700  0.75000000  1
  Sr  Sr2  1  0.25000000  0.61339700  0.88660300  1
  Sr  Sr3  1  0.88660300  0.25000000  0.61339700  1
  Sr  Sr4  1  0.61339700  0.88660300  0.25000000  1
  Sr  Sr5  1  0.75000000  0.38660300  0.11339700  1
  Zn  Zn6  1  0.75000000  0.75000000  0.75000000  1
  Zn  Zn7  1  0.25000000  0.25000000  0.25000000  1
  Pt  Pt8  1  0.50000000  0.50000000  0.50000000  1
  Pt  Pt9  1  0.00000000  0.00000000  0.00000000  1
  O  O10  1  0.96037300  0.09320100  0.28683700  1
  O  O11  1  0.28683700  0.96037300  0.09320100  1
  O  O12  1  0.09320100  0.28683700  0.96037300  1
  O  O13  1  0.53962700  0.21316300  0.40679900  1
  O  O14  1  0.40679900  0.53962700  0.21316300  1
  O  O15  1  0.21316300  0.40679900  0.53962700  1
  O  O16  1  0.03962700  0.90679900  0.71316300  1
  O  O17  1  0.71316300  0.03962700  0.90679900  1
  O  O18  1  0.90679900  0.71316300  0.03962700  1
  O  O19  1  0.46037300  0.78683700  0.59320100  1
  O  O20  1  0.78683700  0.59320100  0.46037300  1
  O  O21  1  0.59320100  0.46037300  0.78683700  1
