# generated using pymatgen
data_ReN(OF2)3
_symmetry_space_group_name_H-M   'P 1'
_cell_length_a   10.21027700
_cell_length_b   10.60908600
_cell_length_c   12.25945790
_cell_angle_alpha   64.41524570
_cell_angle_beta   90.00000000
_cell_angle_gamma   90.00000000
_symmetry_Int_Tables_number   1
_chemical_formula_structural   ReN(OF2)3
_chemical_formula_sum   'Re8 N8 O24 F48'
_cell_volume   1197.75503233
_cell_formula_units_Z   8
loop_
 _symmetry_equiv_pos_site_id
 _symmetry_equiv_pos_as_xyz
  1  'x, y, z'
loop_
 _atom_site_type_symbol
 _atom_site_label
 _atom_site_symmetry_multiplicity
 _atom_site_fract_x
 _atom_site_fract_y
 _atom_site_fract_z
 _atom_site_occupancy
  Re  Re0  1  0.26947500  0.56897200  0.84517400  1
  Re  Re1  1  0.23052500  0.06897200  0.84517400  1
  Re  Re2  1  0.26590600  0.32001300  0.34595300  1
  Re  Re3  1  0.23409400  0.82001300  0.34595300  1
  Re  Re4  1  0.73409400  0.67998700  0.65404700  1
  Re  Re5  1  0.76590600  0.17998700  0.65404700  1
  Re  Re6  1  0.76947500  0.93102800  0.15482600  1
  Re  Re7  1  0.73052500  0.43102800  0.15482600  1
  N  N8  1  0.52344900  0.80145700  0.96271400  1
  N  N9  1  0.97655100  0.30145700  0.96271400  1
  N  N10  1  0.02344900  0.69854300  0.03728600  1
  N  N11  1  0.00000000  0.00000000  0.50000000  1
  N  N12  1  0.00000000  0.50000000  0.50000000  1
  N  N13  1  0.50000000  0.50000000  0.50000000  1
  N  N14  1  0.47655100  0.19854300  0.03728600  1
  N  N15  1  0.50000000  0.00000000  0.50000000  1
  O  O16  1  0.97369400  0.06890300  0.40177600  1
  O  O17  1  0.27062600  0.21321400  0.71621000  1
  O  O18  1  0.41786600  0.96938900  0.56961200  1
  O  O19  1  0.52630600  0.56890300  0.40177600  1
  O  O20  1  0.72937400  0.78678600  0.28379000  1
  O  O21  1  0.96531500  0.75861800  0.95101900  1
  O  O22  1  0.58108400  0.86164000  0.87607100  1
  O  O23  1  0.91891600  0.36164000  0.87607100  1
  O  O24  1  0.08108400  0.63836000  0.12392900  1
  O  O25  1  0.32253500  0.46192600  0.22287500  1
  O  O26  1  0.58213400  0.03061100  0.43038800  1
  O  O27  1  0.67746500  0.53807400  0.77712500  1
  O  O28  1  0.17746500  0.96192600  0.22287500  1
  O  O29  1  0.47369400  0.43109700  0.59822400  1
  O  O30  1  0.46531500  0.74138200  0.04898100  1
  O  O31  1  0.53468500  0.25861800  0.95101900  1
  O  O32  1  0.03468500  0.24138200  0.04898100  1
  O  O33  1  0.22937400  0.71321400  0.71621000  1
  O  O34  1  0.08213400  0.46938900  0.56961200  1
  O  O35  1  0.77062600  0.28678600  0.28379000  1
  O  O36  1  0.02630600  0.93109700  0.59822400  1
  O  O37  1  0.41891600  0.13836000  0.12392900  1
  O  O38  1  0.82253500  0.03807400  0.77712500  1
  O  O39  1  0.91786600  0.53061100  0.43038800  1
  F  F40  1  0.81038500  0.09882300  0.00618000  1
  F  F41  1  0.24549300  0.16282900  0.95011600  1
  F  F42  1  0.14110000  0.68193100  0.31227900  1
  F  F43  1  0.35890000  0.18193100  0.31227900  1
  F  F44  1  0.60654600  0.50589000  0.22941200  1
  F  F45  1  0.82534000  0.55487400  0.20607200  1
  F  F46  1  0.43413000  0.28091400  0.43086600  1
  F  F47  1  0.27240100  0.41705800  0.44904100  1
  F  F48  1  0.77240100  0.08294200  0.55095900  1
  F  F49  1  0.94132500  0.86301000  0.13906200  1
  F  F50  1  0.15147500  0.25997200  0.25205600  1
  F  F51  1  0.31038500  0.40117700  0.99382000  1
  F  F52  1  0.85890000  0.31806900  0.68772100  1
  F  F53  1  0.09355100  0.39894700  0.34406300  1
  F  F54  1  0.34852500  0.75997200  0.25205600  1
  F  F55  1  0.65147500  0.24002800  0.74794400  1
  F  F56  1  0.29836200  0.65876100  0.49069200  1
  F  F57  1  0.25450700  0.66282900  0.95011600  1
  F  F58  1  0.05867500  0.13699000  0.86093800  1
  F  F59  1  0.75450700  0.83717100  0.04988400  1
  F  F60  1  0.68961500  0.59882300  0.00618000  1
  F  F61  1  0.09110200  0.54480800  0.91074700  1
  F  F62  1  0.40644900  0.89894700  0.34406300  1
  F  F63  1  0.74549300  0.33717100  0.04988400  1
  F  F64  1  0.32534000  0.94512600  0.79392800  1
  F  F65  1  0.18961500  0.90117700  0.99382000  1
  F  F66  1  0.89345400  0.00589000  0.22941200  1
  F  F67  1  0.17466000  0.44512600  0.79392800  1
  F  F68  1  0.90889800  0.45519200  0.08925300  1
  F  F69  1  0.40889800  0.04480800  0.91074700  1
  F  F70  1  0.90644900  0.60105300  0.65593700  1
  F  F71  1  0.84852500  0.74002800  0.74794400  1
  F  F72  1  0.56587000  0.71908600  0.56913400  1
  F  F73  1  0.59355100  0.10105300  0.65593700  1
  F  F74  1  0.72759900  0.58294200  0.55095900  1
  F  F75  1  0.06587000  0.78091400  0.43086600  1
  F  F76  1  0.22759900  0.91705800  0.44904100  1
  F  F77  1  0.59110200  0.95519200  0.08925300  1
  F  F78  1  0.67466000  0.05487400  0.20607200  1
  F  F79  1  0.39345400  0.49411000  0.77058800  1
  F  F80  1  0.44132500  0.63699000  0.86093800  1
  F  F81  1  0.93413000  0.21908600  0.56913400  1
  F  F82  1  0.64110000  0.81806900  0.68772100  1
  F  F83  1  0.55867500  0.36301000  0.13906200  1
  F  F84  1  0.20163800  0.15876100  0.49069200  1
  F  F85  1  0.10654600  0.99411000  0.77058800  1
  F  F86  1  0.79836200  0.84123900  0.50930800  1
  F  F87  1  0.70163800  0.34123900  0.50930800  1
