# generated using pymatgen
data_Cu3H2(OF2)2
_symmetry_space_group_name_H-M   'P 1'
_cell_length_a   4.84982000
_cell_length_b   5.60704500
_cell_length_c   9.88098393
_cell_angle_alpha   58.92951107
_cell_angle_beta   90.00000000
_cell_angle_gamma   90.00000000
_symmetry_Int_Tables_number   1
_chemical_formula_structural   Cu3H2(OF2)2
_chemical_formula_sum   'Cu6 H4 O4 F8'
_cell_volume   230.14628260
_cell_formula_units_Z   2
loop_
 _symmetry_equiv_pos_site_id
 _symmetry_equiv_pos_as_xyz
  1  'x, y, z'
loop_
 _atom_site_type_symbol
 _atom_site_label
 _atom_site_symmetry_multiplicity
 _atom_site_fract_x
 _atom_site_fract_y
 _atom_site_fract_z
 _atom_site_occupancy
  Cu  Cu0  1  0.53852900  0.33656600  0.67443700  1
  Cu  Cu1  1  0.96147100  0.33656600  0.17443700  1
  Cu  Cu2  1  0.46147100  0.66343400  0.32556300  1
  Cu  Cu3  1  0.03852900  0.66343400  0.82556300  1
  Cu  Cu4  1  0.50000000  0.00000000  0.50000000  1
  Cu  Cu5  1  0.00000000  0.00000000  0.00000000  1
  H  H6  1  0.86749300  0.32675200  0.46304900  1
  H  H7  1  0.63250700  0.32675200  0.96304900  1
  H  H8  1  0.13250700  0.67324800  0.53695100  1
  H  H9  1  0.36749300  0.67324800  0.03695100  1
  O  O10  1  0.66856700  0.32413900  0.48906700  1
  O  O11  1  0.83143300  0.32413900  0.98906700  1
  O  O12  1  0.33143300  0.67586100  0.51093300  1
  O  O13  1  0.16856700  0.67586100  0.01093300  1
  F  F14  1  0.71399600  0.04186700  0.32132600  1
  F  F15  1  0.78600400  0.04186700  0.82132600  1
  F  F16  1  0.28600400  0.95813300  0.67867400  1
  F  F17  1  0.21399600  0.95813300  0.17867400  1
  F  F18  1  0.64194500  0.67350500  0.15049000  1
  F  F19  1  0.85805500  0.67350500  0.65049000  1
  F  F20  1  0.35805500  0.32649500  0.84951000  1
  F  F21  1  0.14194500  0.32649500  0.34951000  1
