# generated using pymatgen
data_Eu(NiAs)2
_symmetry_space_group_name_H-M   'P 1'
_cell_length_a   5.85393924
_cell_length_b   5.85393924
_cell_length_c   5.85393924
_cell_angle_alpha   138.92882642
_cell_angle_beta   138.92882642
_cell_angle_gamma   59.48339409
_symmetry_Int_Tables_number   1
_chemical_formula_structural   Eu(NiAs)2
_chemical_formula_sum   'Eu1 Ni2 As2'
_cell_volume   85.73377025
_cell_formula_units_Z   1
loop_
 _symmetry_equiv_pos_site_id
 _symmetry_equiv_pos_as_xyz
  1  'x, y, z'
loop_
 _atom_site_type_symbol
 _atom_site_label
 _atom_site_symmetry_multiplicity
 _atom_site_fract_x
 _atom_site_fract_y
 _atom_site_fract_z
 _atom_site_occupancy
  Eu  Eu0  1  0.00000000  0.00000000  0.00000000  1
  Ni  Ni1  1  0.75000000  0.25000000  0.50000000  1
  Ni  Ni2  1  0.25000000  0.75000000  0.50000000  1
  As  As3  1  0.63329900  0.63329900  0.00000000  1
  As  As4  1  0.36670100  0.36670100  0.00000000  1
