# generated using pymatgen
data_Cs5Sb8
_symmetry_space_group_name_H-M   'P 1'
_cell_length_a   11.66038300
_cell_length_b   7.47068100
_cell_length_c   28.21043586
_cell_angle_alpha   83.34362840
_cell_angle_beta   90.00000000
_cell_angle_gamma   90.00000000
_symmetry_Int_Tables_number   1
_chemical_formula_structural   Cs5Sb8
_chemical_formula_sum   'Cs20 Sb32'
_cell_volume   2440.87422402
_cell_formula_units_Z   4
loop_
 _symmetry_equiv_pos_site_id
 _symmetry_equiv_pos_as_xyz
  1  'x, y, z'
loop_
 _atom_site_type_symbol
 _atom_site_label
 _atom_site_symmetry_multiplicity
 _atom_site_fract_x
 _atom_site_fract_y
 _atom_site_fract_z
 _atom_site_occupancy
  Cs  Cs0  1  0.57090700  0.47680800  0.42613800  1
  Cs  Cs1  1  0.39692400  0.74252500  0.97871100  1
  Cs  Cs2  1  0.80751200  0.23617000  0.69010600  1
  Cs  Cs3  1  0.60307600  0.25747500  0.02128900  1
  Cs  Cs4  1  0.53645600  0.71350100  0.25761200  1
  Cs  Cs5  1  0.19248800  0.76383000  0.30989400  1
  Cs  Cs6  1  0.81391000  0.97437500  0.37774500  1
  Cs  Cs7  1  0.96354400  0.71350100  0.75761200  1
  Cs  Cs8  1  0.68609000  0.97437500  0.87774500  1
  Cs  Cs9  1  0.69248800  0.23617000  0.19010600  1
  Cs  Cs10  1  0.18609000  0.02562500  0.62225500  1
  Cs  Cs11  1  0.31391000  0.02562500  0.12225500  1
  Cs  Cs12  1  0.46354400  0.28649900  0.74238800  1
  Cs  Cs13  1  0.30751200  0.76383000  0.80989400  1
  Cs  Cs14  1  0.92909300  0.47680800  0.92613800  1
  Cs  Cs15  1  0.10307600  0.74252500  0.47871100  1
  Cs  Cs16  1  0.42909300  0.52319200  0.57386200  1
  Cs  Cs17  1  0.89692400  0.25747500  0.52128900  1
  Cs  Cs18  1  0.07090700  0.52319200  0.07386200  1
  Cs  Cs19  1  0.03645600  0.28649900  0.24238800  1
  Sb  Sb20  1  0.69998500  0.48472400  0.81649300  1
  Sb  Sb21  1  0.75233200  0.76092100  0.52439100  1
  Sb  Sb22  1  0.14219200  0.30470100  0.83703200  1
  Sb  Sb23  1  0.12926700  0.19528600  0.74411300  1
  Sb  Sb24  1  0.63910000  0.80851600  0.11281800  1
  Sb  Sb25  1  0.52490000  0.01326700  0.62530600  1
  Sb  Sb26  1  0.64219200  0.69529900  0.66296800  1
  Sb  Sb27  1  0.59699900  0.06094000  0.52762800  1
  Sb  Sb28  1  0.19998500  0.51527600  0.68350700  1
  Sb  Sb29  1  0.97510000  0.01326700  0.12530600  1
  Sb  Sb30  1  0.13910000  0.19148400  0.38718200  1
  Sb  Sb31  1  0.80001500  0.48472400  0.31649300  1
  Sb  Sb32  1  0.37073300  0.19528600  0.24411300  1
  Sb  Sb33  1  0.30001500  0.51527600  0.18350700  1
  Sb  Sb34  1  0.47510000  0.98673300  0.37469400  1
  Sb  Sb35  1  0.03910500  0.53134300  0.60891100  1
  Sb  Sb36  1  0.25233200  0.23907900  0.97560900  1
  Sb  Sb37  1  0.24766800  0.23907900  0.47560900  1
  Sb  Sb38  1  0.86090000  0.80851600  0.61281800  1
  Sb  Sb39  1  0.85780800  0.69529900  0.16296800  1
  Sb  Sb40  1  0.62926700  0.80471400  0.75588700  1
  Sb  Sb41  1  0.87073300  0.80471400  0.25588700  1
  Sb  Sb42  1  0.40300100  0.93906000  0.47237200  1
  Sb  Sb43  1  0.46089500  0.53134300  0.10891100  1
  Sb  Sb44  1  0.90300100  0.06094000  0.02762800  1
  Sb  Sb45  1  0.53910500  0.46865700  0.89108900  1
  Sb  Sb46  1  0.02490000  0.98673300  0.87469400  1
  Sb  Sb47  1  0.09699900  0.93906000  0.97237200  1
  Sb  Sb48  1  0.36090000  0.19148400  0.88718200  1
  Sb  Sb49  1  0.96089500  0.46865700  0.39108900  1
  Sb  Sb50  1  0.74766800  0.76092100  0.02439100  1
  Sb  Sb51  1  0.35780800  0.30470100  0.33703200  1
