# generated using pymatgen
data_K2Mn2(SO4)3
_symmetry_space_group_name_H-M   'P 1'
_cell_length_a   10.30339900
_cell_length_b   10.30339900
_cell_length_c   10.30339900
_cell_angle_alpha   90.00000000
_cell_angle_beta   90.00000000
_cell_angle_gamma   90.00000000
_symmetry_Int_Tables_number   1
_chemical_formula_structural   K2Mn2(SO4)3
_chemical_formula_sum   'K8 Mn8 S12 O48'
_cell_volume   1093.80915676
_cell_formula_units_Z   4
loop_
 _symmetry_equiv_pos_site_id
 _symmetry_equiv_pos_as_xyz
  1  'x, y, z'
loop_
 _atom_site_type_symbol
 _atom_site_label
 _atom_site_symmetry_multiplicity
 _atom_site_fract_x
 _atom_site_fract_y
 _atom_site_fract_z
 _atom_site_occupancy
  K  K0  1  0.68517800  0.18517800  0.31482200  1
  K  K1  1  0.31482200  0.68517800  0.18517800  1
  K  K2  1  0.94791200  0.55208800  0.44791200  1
  K  K3  1  0.18517800  0.31482200  0.68517800  1
  K  K4  1  0.05208800  0.05208800  0.05208800  1
  K  K5  1  0.44791200  0.94791200  0.55208800  1
  K  K6  1  0.55208800  0.44791200  0.94791200  1
  K  K7  1  0.81482200  0.81482200  0.81482200  1
  Mn  Mn8  1  0.33320600  0.33320600  0.33320600  1
  Mn  Mn9  1  0.16679400  0.66679400  0.83320600  1
  Mn  Mn10  1  0.83320600  0.16679400  0.66679400  1
  Mn  Mn11  1  0.66679400  0.83320600  0.16679400  1
  Mn  Mn12  1  0.59303100  0.59303100  0.59303100  1
  Mn  Mn13  1  0.09303100  0.90696900  0.40696900  1
  Mn  Mn14  1  0.40696900  0.09303100  0.90696900  1
  Mn  Mn15  1  0.90696900  0.40696900  0.09303100  1
  S  S16  1  0.27821700  0.62431400  0.51556700  1
  S  S17  1  0.77821700  0.87568600  0.48443300  1
  S  S18  1  0.72178300  0.12431400  0.98443300  1
  S  S19  1  0.87568600  0.48443300  0.77821700  1
  S  S20  1  0.98443300  0.72178300  0.12431400  1
  S  S21  1  0.48443300  0.77821700  0.87568600  1
  S  S22  1  0.62431400  0.51556700  0.27821700  1
  S  S23  1  0.51556700  0.27821700  0.62431400  1
  S  S24  1  0.12431400  0.98443300  0.72178300  1
  S  S25  1  0.22178300  0.37568600  0.01556700  1
  S  S26  1  0.01556700  0.22178300  0.37568600  1
  S  S27  1  0.37568600  0.01556700  0.22178300  1
  O  O28  1  0.24445500  0.59103900  0.65170100  1
  O  O29  1  0.74445500  0.90896100  0.34829900  1
  O  O30  1  0.75554500  0.09103900  0.84829900  1
  O  O31  1  0.90896100  0.34829900  0.74445500  1
  O  O32  1  0.84829900  0.75554500  0.09103900  1
  O  O33  1  0.34829900  0.74445500  0.90896100  1
  O  O34  1  0.59103900  0.65170100  0.24445500  1
  O  O35  1  0.65170100  0.24445500  0.59103900  1
  O  O36  1  0.09103900  0.84829900  0.75554500  1
  O  O37  1  0.40896100  0.15170100  0.25554500  1
  O  O38  1  0.15170100  0.25554500  0.40896100  1
  O  O39  1  0.25554500  0.40896100  0.15170100  1
  O  O40  1  0.26293800  0.50594800  0.43431100  1
  O  O41  1  0.76293800  0.99405200  0.56568900  1
  O  O42  1  0.73706200  0.00594800  0.06568900  1
  O  O43  1  0.99405200  0.56568900  0.76293800  1
  O  O44  1  0.06568900  0.73706200  0.00594800  1
  O  O45  1  0.56568900  0.76293800  0.99405200  1
  O  O46  1  0.99210000  0.58568900  0.17415600  1
  O  O47  1  0.50594800  0.43431100  0.26293800  1
  O  O48  1  0.00594800  0.06568900  0.73706200  1
  O  O49  1  0.49405200  0.93431100  0.23706200  1
  O  O50  1  0.93431100  0.23706200  0.49405200  1
  O  O51  1  0.23706200  0.49405200  0.93431100  1
  O  O52  1  0.41431100  0.67415700  0.50790000  1
  O  O53  1  0.91431100  0.82584300  0.49210000  1
  O  O54  1  0.58568900  0.17415600  0.99210000  1
  O  O55  1  0.82584300  0.49210000  0.91431100  1
  O  O56  1  0.31147600  0.27587900  0.96269200  1
  O  O57  1  0.96269200  0.31147600  0.27587900  1
  O  O58  1  0.27587900  0.96269200  0.31147600  1
  O  O59  1  0.22412100  0.03730800  0.81147600  1
  O  O60  1  0.46269200  0.18852400  0.72412100  1
  O  O61  1  0.72412100  0.46269200  0.18852400  1
  O  O62  1  0.53730800  0.68852400  0.77587900  1
  O  O63  1  0.03730800  0.81147600  0.22412100  1
  O  O64  1  0.77587900  0.53730800  0.68852400  1
  O  O65  1  0.81147600  0.22412100  0.03730800  1
  O  O66  1  0.68852400  0.77587900  0.53730800  1
  O  O67  1  0.18852400  0.72412100  0.46269200  1
  O  O68  1  0.08568900  0.32584400  0.00790000  1
  O  O69  1  0.00790000  0.08568900  0.32584400  1
  O  O70  1  0.32584400  0.00790000  0.08568900  1
  O  O71  1  0.17415600  0.99210000  0.58568900  1
  O  O72  1  0.50790000  0.41431100  0.67415700  1
  O  O73  1  0.67415700  0.50790000  0.41431100  1
  O  O74  1  0.49210000  0.91431100  0.82584300  1
  O  O75  1  0.43431100  0.26293800  0.50594800  1
