# generated using pymatgen
data_Se5SO3F
_symmetry_space_group_name_H-M   'P 1'
_cell_length_a   8.86265900
_cell_length_b   13.60741800
_cell_length_c   15.51581400
_cell_angle_alpha   90.00000000
_cell_angle_beta   90.00000000
_cell_angle_gamma   90.00000000
_symmetry_Int_Tables_number   1
_chemical_formula_structural   Se5SO3F
_chemical_formula_sum   'Se40 S8 O24 F8'
_cell_volume   1871.17467215
_cell_formula_units_Z   8
loop_
 _symmetry_equiv_pos_site_id
 _symmetry_equiv_pos_as_xyz
  1  'x, y, z'
loop_
 _atom_site_type_symbol
 _atom_site_label
 _atom_site_symmetry_multiplicity
 _atom_site_fract_x
 _atom_site_fract_y
 _atom_site_fract_z
 _atom_site_occupancy
  Se  Se0  1  0.64314400  0.49953500  0.10632700  1
  Se  Se1  1  0.67714100  0.51721200  0.72963300  1
  Se  Se2  1  0.82285900  0.48278800  0.22963300  1
  Se  Se3  1  0.14314400  0.00046500  0.89367400  1
  Se  Se4  1  0.03076800  0.11953500  0.49841400  1
  Se  Se5  1  0.08631200  0.14045000  0.26363100  1
  Se  Se6  1  0.77709200  0.96728400  0.34315400  1
  Se  Se7  1  0.32285900  0.01721200  0.77036700  1
  Se  Se8  1  0.96923200  0.61953500  0.00158600  1
  Se  Se9  1  0.83934900  0.88824800  0.46955300  1
  Se  Se10  1  0.23996200  0.83842000  0.94554600  1
  Se  Se11  1  0.74906800  0.38703000  0.99863500  1
  Se  Se12  1  0.37220000  0.36440900  0.63778400  1
  Se  Se13  1  0.16065100  0.38824800  0.03044700  1
  Se  Se14  1  0.12780000  0.63559100  0.13778400  1
  Se  Se15  1  0.25093200  0.88703000  0.50136500  1
  Se  Se16  1  0.17714100  0.98278800  0.27036700  1
  Se  Se17  1  0.87220000  0.13559100  0.36221600  1
  Se  Se18  1  0.53076800  0.38046500  0.50158600  1
  Se  Se19  1  0.27709200  0.53271600  0.65684600  1
  Se  Se20  1  0.06383300  0.80049800  0.43102400  1
  Se  Se21  1  0.46923200  0.88046500  0.99841400  1
  Se  Se22  1  0.22290800  0.46728400  0.15684600  1
  Se  Se23  1  0.93616700  0.30049800  0.06897600  1
  Se  Se24  1  0.73996200  0.66158000  0.05445400  1
  Se  Se25  1  0.24906800  0.11297000  0.00136500  1
  Se  Se26  1  0.66065100  0.11175200  0.96955300  1
  Se  Se27  1  0.72290800  0.03271600  0.84315400  1
  Se  Se28  1  0.43616700  0.19950200  0.93102400  1
  Se  Se29  1  0.26003800  0.16158000  0.44554600  1
  Se  Se30  1  0.76003800  0.33842000  0.55445400  1
  Se  Se31  1  0.62780000  0.86440900  0.86221600  1
  Se  Se32  1  0.56383300  0.69950200  0.56897600  1
  Se  Se33  1  0.41368800  0.85955000  0.76363100  1
  Se  Se34  1  0.33934900  0.61175200  0.53044700  1
  Se  Se35  1  0.75093200  0.61297000  0.49863500  1
  Se  Se36  1  0.91368800  0.64045000  0.23636900  1
  Se  Se37  1  0.58631200  0.35955000  0.73636900  1
  Se  Se38  1  0.85685600  0.50046500  0.60632600  1
  Se  Se39  1  0.35685600  0.99953500  0.39367400  1
  S  S40  1  0.89546800  0.91933900  0.08616300  1
  S  S41  1  0.60453200  0.08066100  0.58616300  1
  S  S42  1  0.97731300  0.78081000  0.72579300  1
  S  S43  1  0.39546800  0.58066100  0.91383700  1
  S  S44  1  0.10453200  0.41933900  0.41383700  1
  S  S45  1  0.52268700  0.21919000  0.22579300  1
  S  S46  1  0.47731300  0.71919000  0.27420700  1
  S  S47  1  0.02268700  0.28081000  0.77420700  1
  O  O48  1  0.03849100  0.51288100  0.43948300  1
  O  O49  1  0.17440100  0.36368000  0.48410800  1
  O  O50  1  0.01593500  0.36161400  0.35358800  1
  O  O51  1  0.82559900  0.86368000  0.01589200  1
  O  O52  1  0.51593500  0.13838600  0.64641200  1
  O  O53  1  0.85871900  0.82252900  0.67318700  1
  O  O54  1  0.37822000  0.23792100  0.18447400  1
  O  O55  1  0.62178000  0.73792100  0.31552600  1
  O  O56  1  0.48406500  0.63838600  0.85358800  1
  O  O57  1  0.64128100  0.17747100  0.17318700  1
  O  O58  1  0.98406500  0.86161400  0.14641200  1
  O  O59  1  0.46150900  0.48711900  0.93948300  1
  O  O60  1  0.67440100  0.13632000  0.51589200  1
  O  O61  1  0.51700500  0.18123200  0.31396900  1
  O  O62  1  0.01700500  0.31876800  0.68603100  1
  O  O63  1  0.12178000  0.76207900  0.68447400  1
  O  O64  1  0.35871900  0.67747100  0.32681300  1
  O  O65  1  0.87822000  0.26207900  0.81552600  1
  O  O66  1  0.53849100  0.98711900  0.56051700  1
  O  O67  1  0.32559900  0.63632000  0.98410800  1
  O  O68  1  0.48299500  0.68123200  0.18603100  1
  O  O69  1  0.96150900  0.01288100  0.06051700  1
  O  O70  1  0.98299500  0.81876800  0.81396900  1
  O  O71  1  0.14128100  0.32252900  0.82681300  1
  F  F72  1  0.58521100  0.33420200  0.24132700  1
  F  F73  1  0.08521100  0.16579800  0.75867300  1
  F  F74  1  0.75147400  0.04654600  0.64263500  1
  F  F75  1  0.91478900  0.66579800  0.74132700  1
  F  F76  1  0.24852600  0.54654600  0.85736500  1
  F  F77  1  0.41478900  0.83420200  0.25867300  1
  F  F78  1  0.74852600  0.95345400  0.14263500  1
  F  F79  1  0.25147400  0.45345400  0.35736500  1
