# generated using pymatgen
data_K2Mn2(MoO4)3
_symmetry_space_group_name_H-M   'P 1'
_cell_length_a   10.89456100
_cell_length_b   12.48128800
_cell_length_c   18.35198000
_cell_angle_alpha   90.00000000
_cell_angle_beta   90.00000000
_cell_angle_gamma   90.00000000
_symmetry_Int_Tables_number   1
_chemical_formula_structural   K2Mn2(MoO4)3
_chemical_formula_sum   'K16 Mn16 Mo24 O96'
_cell_volume   2495.46835300
_cell_formula_units_Z   8
loop_
 _symmetry_equiv_pos_site_id
 _symmetry_equiv_pos_as_xyz
  1  'x, y, z'
loop_
 _atom_site_type_symbol
 _atom_site_label
 _atom_site_symmetry_multiplicity
 _atom_site_fract_x
 _atom_site_fract_y
 _atom_site_fract_z
 _atom_site_occupancy
  K  K0  1  0.25000000  0.50000000  0.94395500  1
  K  K1  1  0.00000000  0.49658000  0.75000000  1
  K  K2  1  0.27456400  0.15120100  0.46206000  1
  K  K3  1  0.27456400  0.84879900  0.96206000  1
  K  K4  1  0.77456400  0.15120100  0.53794000  1
  K  K5  1  0.22543600  0.15120100  0.96206000  1
  K  K6  1  0.75000000  0.50000000  0.55604500  1
  K  K7  1  0.25000000  0.50000000  0.44395500  1
  K  K8  1  0.00000000  0.50342000  0.25000000  1
  K  K9  1  0.50000000  0.49658000  0.25000000  1
  K  K10  1  0.72543600  0.15120100  0.03794000  1
  K  K11  1  0.50000000  0.50342000  0.75000000  1
  K  K12  1  0.22543600  0.84879900  0.46206000  1
  K  K13  1  0.75000000  0.50000000  0.05604500  1
  K  K14  1  0.72543600  0.84879900  0.53794000  1
  K  K15  1  0.77456400  0.84879900  0.03794000  1
  Mn  Mn16  1  0.00000000  0.83309600  0.25000000  1
  Mn  Mn17  1  0.50000000  0.83309600  0.75000000  1
  Mn  Mn18  1  0.75000000  0.00000000  0.71424900  1
  Mn  Mn19  1  0.08448100  0.32431200  0.09704000  1
  Mn  Mn20  1  0.00000000  0.16690400  0.75000000  1
  Mn  Mn21  1  0.25000000  0.00000000  0.78575100  1
  Mn  Mn22  1  0.41551900  0.67568800  0.09704000  1
  Mn  Mn23  1  0.50000000  0.16690400  0.25000000  1
  Mn  Mn24  1  0.08448100  0.67568800  0.59704000  1
  Mn  Mn25  1  0.58448100  0.67568800  0.40296000  1
  Mn  Mn26  1  0.58448100  0.32431200  0.90296000  1
  Mn  Mn27  1  0.75000000  0.00000000  0.21424900  1
  Mn  Mn28  1  0.25000000  0.00000000  0.28575100  1
  Mn  Mn29  1  0.41551900  0.32431200  0.59704000  1
  Mn  Mn30  1  0.91551900  0.32431200  0.40296000  1
  Mn  Mn31  1  0.91551900  0.67568800  0.90296000  1
  Mo  Mo32  1  0.21978300  0.69956700  0.79522700  1
  Mo  Mo33  1  0.42405300  0.35651500  0.08711300  1
  Mo  Mo34  1  0.78021700  0.69956700  0.70477300  1
  Mo  Mo35  1  0.54709600  0.02279600  0.88408600  1
  Mo  Mo36  1  0.28021700  0.30043300  0.79522700  1
  Mo  Mo37  1  0.54709600  0.97720400  0.38408600  1
  Mo  Mo38  1  0.07594700  0.35651500  0.58711300  1
  Mo  Mo39  1  0.92405300  0.35651500  0.91288700  1
  Mo  Mo40  1  0.07594700  0.64348500  0.08711300  1
  Mo  Mo41  1  0.42405300  0.64348500  0.58711300  1
  Mo  Mo42  1  0.95290400  0.02279600  0.38408600  1
  Mo  Mo43  1  0.04709600  0.02279600  0.11591400  1
  Mo  Mo44  1  0.57594700  0.35651500  0.41288700  1
  Mo  Mo45  1  0.04709600  0.97720400  0.61591400  1
  Mo  Mo46  1  0.57594700  0.64348500  0.91288700  1
  Mo  Mo47  1  0.21978300  0.30043300  0.29522700  1
  Mo  Mo48  1  0.71978300  0.69956700  0.20477300  1
  Mo  Mo49  1  0.28021700  0.69956700  0.29522700  1
  Mo  Mo50  1  0.92405300  0.64348500  0.41288700  1
  Mo  Mo51  1  0.95290400  0.97720400  0.88408600  1
  Mo  Mo52  1  0.45290400  0.97720400  0.11591400  1
  Mo  Mo53  1  0.45290400  0.02279600  0.61591400  1
  Mo  Mo54  1  0.71978300  0.30043300  0.70477300  1
  Mo  Mo55  1  0.78021700  0.30043300  0.20477300  1
  O  O56  1  0.05925000  0.50124400  0.10152500  1
  O  O57  1  0.77270900  0.66274400  0.45023700  1
  O  O58  1  0.80339100  0.17255400  0.70231900  1
  O  O59  1  0.39225000  0.02563000  0.20307100  1
  O  O60  1  0.03625500  0.68294500  0.47942000  1
  O  O61  1  0.39272900  0.84730600  0.09464200  1
  O  O62  1  0.61802300  0.97500300  0.12615400  1
  O  O63  1  0.93877100  0.71635500  0.32837700  1
  O  O64  1  0.46374500  0.31705500  0.47942000  1
  O  O65  1  0.67588100  0.40241600  0.18045500  1
  O  O66  1  0.60671000  0.30148400  0.63316100  1
  O  O67  1  0.80339100  0.82744600  0.20231900  1
  O  O68  1  0.89272900  0.15269400  0.40535800  1
  O  O69  1  0.82411900  0.40241600  0.68045500  1
  O  O70  1  0.64877000  0.66914300  0.29073000  1
  O  O71  1  0.55925000  0.49875600  0.39847500  1
  O  O72  1  0.08886500  0.06878400  0.54682000  1
  O  O73  1  0.53625500  0.31705500  0.02058000  1
  O  O74  1  0.96374500  0.31705500  0.52058000  1
  O  O75  1  0.56122900  0.71635500  0.82837700  1
  O  O76  1  0.41113500  0.93121600  0.54682000  1
  O  O77  1  0.32411900  0.59758400  0.81954500  1
  O  O78  1  0.39329000  0.30148400  0.86683900  1
  O  O79  1  0.58886500  0.06878400  0.45318000  1
  O  O80  1  0.96374500  0.68294500  0.02058000  1
  O  O81  1  0.03625500  0.31705500  0.97942000  1
  O  O82  1  0.85123000  0.66914300  0.79073000  1
  O  O83  1  0.91113500  0.06878400  0.95318000  1
  O  O84  1  0.60727100  0.15269400  0.90535800  1
  O  O85  1  0.17588100  0.59758400  0.31954500  1
  O  O86  1  0.22729100  0.33725600  0.54976300  1
  O  O87  1  0.64877000  0.33085700  0.79073000  1
  O  O88  1  0.32411900  0.40241600  0.31954500  1
  O  O89  1  0.88197700  0.02499700  0.12615400  1
  O  O90  1  0.19660900  0.82744600  0.29768100  1
  O  O91  1  0.38197700  0.97500300  0.37384600  1
  O  O92  1  0.17588100  0.40241600  0.81954500  1
  O  O93  1  0.19660900  0.17255400  0.79768100  1
  O  O94  1  0.06122900  0.71635500  0.17162300  1
  O  O95  1  0.89329000  0.30148400  0.13316100  1
  O  O96  1  0.10775000  0.97437000  0.20307100  1
  O  O97  1  0.72729100  0.33725600  0.45023700  1
  O  O98  1  0.53625500  0.68294500  0.52058000  1
  O  O99  1  0.10671000  0.30148400  0.36683900  1
  O  O100  1  0.88197700  0.97500300  0.62615400  1
  O  O101  1  0.89329000  0.69851600  0.63316100  1
  O  O102  1  0.06122900  0.28364500  0.67162300  1
  O  O103  1  0.35123000  0.33085700  0.70927000  1
  O  O104  1  0.10727100  0.15269400  0.09464200  1
  O  O105  1  0.91113500  0.93121600  0.45318000  1
  O  O106  1  0.94075000  0.50124400  0.39847500  1
  O  O107  1  0.60727100  0.84730600  0.40535800  1
  O  O108  1  0.58886500  0.93121600  0.95318000  1
  O  O109  1  0.14877000  0.33085700  0.20927000  1
  O  O110  1  0.72729100  0.66274400  0.95023700  1
  O  O111  1  0.39329000  0.69851600  0.36683900  1
  O  O112  1  0.41113500  0.06878400  0.04682000  1
  O  O113  1  0.77270900  0.33725600  0.95023700  1
  O  O114  1  0.93877100  0.28364500  0.82837700  1
  O  O115  1  0.30339100  0.82744600  0.79768100  1
  O  O116  1  0.10727100  0.84730600  0.59464200  1
  O  O117  1  0.89225000  0.02563000  0.79692900  1
  O  O118  1  0.30339100  0.17255400  0.29768100  1
  O  O119  1  0.11802300  0.02499700  0.37384600  1
  O  O120  1  0.14877000  0.66914300  0.70927000  1
  O  O121  1  0.43877100  0.28364500  0.17162300  1
  O  O122  1  0.46374500  0.68294500  0.97942000  1
  O  O123  1  0.27270900  0.33725600  0.04976300  1
  O  O124  1  0.60775000  0.97437000  0.79692900  1
  O  O125  1  0.08886500  0.93121600  0.04682000  1
  O  O126  1  0.39225000  0.97437000  0.70307100  1
  O  O127  1  0.44075000  0.49875600  0.10152500  1
  O  O128  1  0.44075000  0.50124400  0.60152500  1
  O  O129  1  0.55925000  0.50124400  0.89847500  1
  O  O130  1  0.60671000  0.69851600  0.13316100  1
  O  O131  1  0.39272900  0.15269400  0.59464200  1
  O  O132  1  0.60775000  0.02563000  0.29692900  1
  O  O133  1  0.69660900  0.82744600  0.70231900  1
  O  O134  1  0.94075000  0.49875600  0.89847500  1
  O  O135  1  0.11802300  0.97500300  0.87384600  1
  O  O136  1  0.10671000  0.69851600  0.86683900  1
  O  O137  1  0.27270900  0.66274400  0.54976300  1
  O  O138  1  0.85123000  0.33085700  0.29073000  1
  O  O139  1  0.69660900  0.17255400  0.20231900  1
  O  O140  1  0.05925000  0.49875600  0.60152500  1
  O  O141  1  0.82411900  0.59758400  0.18045500  1
  O  O142  1  0.10775000  0.02563000  0.70307100  1
  O  O143  1  0.38197700  0.02499700  0.87384600  1
  O  O144  1  0.89272900  0.84730600  0.90535800  1
  O  O145  1  0.22729100  0.66274400  0.04976300  1
  O  O146  1  0.35123000  0.66914300  0.20927000  1
  O  O147  1  0.67588100  0.59758400  0.68045500  1
  O  O148  1  0.43877100  0.71635500  0.67162300  1
  O  O149  1  0.56122900  0.28364500  0.32837700  1
  O  O150  1  0.61802300  0.02499700  0.62615400  1
  O  O151  1  0.89225000  0.97437000  0.29692900  1
