# generated using pymatgen
data_CdFeSn(PO4)3
_symmetry_space_group_name_H-M   'P 1'
_cell_length_a   8.90330770
_cell_length_b   8.90330770
_cell_length_c   8.90330824
_cell_angle_alpha   58.72860722
_cell_angle_beta   58.72860722
_cell_angle_gamma   58.72861084
_symmetry_Int_Tables_number   1
_chemical_formula_structural   CdFeSn(PO4)3
_chemical_formula_sum   'Cd2 Fe2 Sn2 P6 O24'
_cell_volume   484.54887575
_cell_formula_units_Z   2
loop_
 _symmetry_equiv_pos_site_id
 _symmetry_equiv_pos_as_xyz
  1  'x, y, z'
loop_
 _atom_site_type_symbol
 _atom_site_label
 _atom_site_symmetry_multiplicity
 _atom_site_fract_x
 _atom_site_fract_y
 _atom_site_fract_z
 _atom_site_occupancy
  Cd  Cd0  1  0.99704600  0.99704600  0.99704600  1
  Cd  Cd1  1  0.49704600  0.49704600  0.49704600  1
  Fe  Fe2  1  0.35252600  0.35252600  0.35252600  1
  Fe  Fe3  1  0.85252600  0.85252600  0.85252600  1
  Sn  Sn4  1  0.14641000  0.14641000  0.14641000  1
  Sn  Sn5  1  0.64641000  0.64641000  0.64641000  1
  P  P6  1  0.74877900  0.04501600  0.45999300  1
  P  P7  1  0.04501600  0.45999300  0.74877900  1
  P  P8  1  0.45999300  0.74877900  0.04501600  1
  P  P9  1  0.54501600  0.24877900  0.95999300  1
  P  P10  1  0.95999300  0.54501600  0.24877900  1
  P  P11  1  0.24877900  0.95999300  0.54501600  1
  O  O12  1  0.30082200  0.11850900  0.50552200  1
  O  O13  1  0.50552200  0.30082200  0.11850900  1
  O  O14  1  0.91732900  0.06080000  0.26904600  1
  O  O15  1  0.11850900  0.50552200  0.30082200  1
  O  O16  1  0.80082200  0.00552200  0.61850900  1
  O  O17  1  0.58296400  0.23156900  0.43877000  1
  O  O18  1  0.06080000  0.26904600  0.91732900  1
  O  O19  1  0.23156900  0.43877000  0.58296400  1
  O  O20  1  0.38635400  0.20350000  0.98504300  1
  O  O21  1  0.43877000  0.58296400  0.23156900  1
  O  O22  1  0.73156900  0.08296400  0.93877000  1
  O  O23  1  0.98504300  0.38635400  0.20350000  1
  O  O24  1  0.00552200  0.61850900  0.80082200  1
  O  O25  1  0.26904600  0.91732900  0.06080000  1
  O  O26  1  0.56080000  0.41732900  0.76904600  1
  O  O27  1  0.61850900  0.80082200  0.00552200  1
  O  O28  1  0.76904600  0.56080000  0.41732900  1
  O  O29  1  0.93877000  0.73156900  0.08296400  1
  O  O30  1  0.41732900  0.76904600  0.56080000  1
  O  O31  1  0.20350000  0.98504300  0.38635400  1
  O  O32  1  0.88635400  0.48504300  0.70350000  1
  O  O33  1  0.08296400  0.93877000  0.73156900  1
  O  O34  1  0.48504300  0.70350000  0.88635400  1
  O  O35  1  0.70350000  0.88635400  0.48504300  1
