# generated using pymatgen
data_GdHO2
_symmetry_space_group_name_H-M   'P 1'
_cell_length_a   3.74545200
_cell_length_b   4.39100700
_cell_length_c   6.13235574
_cell_angle_alpha   70.71871731
_cell_angle_beta   90.00000000
_cell_angle_gamma   90.00000000
_symmetry_Int_Tables_number   1
_chemical_formula_structural   GdHO2
_chemical_formula_sum   'Gd2 H2 O4'
_cell_volume   95.19755067
_cell_formula_units_Z   2
loop_
 _symmetry_equiv_pos_site_id
 _symmetry_equiv_pos_as_xyz
  1  'x, y, z'
loop_
 _atom_site_type_symbol
 _atom_site_label
 _atom_site_symmetry_multiplicity
 _atom_site_fract_x
 _atom_site_fract_y
 _atom_site_fract_z
 _atom_site_occupancy
  Gd  Gd0  1  0.25000000  0.66447700  0.18814100  1
  Gd  Gd1  1  0.75000000  0.33552300  0.81185900  1
  H  H2  1  0.25000000  0.02219400  0.58730100  1
  H  H3  1  0.75000000  0.97780600  0.41269900  1
  O  O4  1  0.25000000  0.23466400  0.04919000  1
  O  O5  1  0.75000000  0.76533600  0.95081000  1
  O  O6  1  0.25000000  0.25125100  0.56523900  1
  O  O7  1  0.75000000  0.74874900  0.43476100  1
