# generated using pymatgen
data_Ge3N4
_symmetry_space_group_name_H-M   'P 1'
_cell_length_a   8.27855977
_cell_length_b   8.27855977
_cell_length_c   5.98956200
_cell_angle_alpha   90.00000000
_cell_angle_beta   90.00000000
_cell_angle_gamma   119.99999815
_symmetry_Int_Tables_number   1
_chemical_formula_structural   Ge3N4
_chemical_formula_sum   'Ge12 N16'
_cell_volume   355.49646115
_cell_formula_units_Z   4
loop_
 _symmetry_equiv_pos_site_id
 _symmetry_equiv_pos_as_xyz
  1  'x, y, z'
loop_
 _atom_site_type_symbol
 _atom_site_label
 _atom_site_symmetry_multiplicity
 _atom_site_fract_x
 _atom_site_fract_y
 _atom_site_fract_z
 _atom_site_occupancy
  Ge  Ge0  1  0.16835500  0.25323600  0.02241600  1
  Ge  Ge1  1  0.49001600  0.57184900  0.72826900  1
  Ge  Ge2  1  0.25323600  0.16835500  0.52241600  1
  Ge  Ge3  1  0.08183300  0.50998400  0.72826900  1
  Ge  Ge4  1  0.91816700  0.42815100  0.22826900  1
  Ge  Ge5  1  0.83164500  0.08488100  0.52241600  1
  Ge  Ge6  1  0.74676400  0.91511900  0.02241600  1
  Ge  Ge7  1  0.50998400  0.08183300  0.22826900  1
  Ge  Ge8  1  0.42815100  0.91816700  0.72826900  1
  Ge  Ge9  1  0.91511900  0.74676400  0.52241600  1
  Ge  Ge10  1  0.57184900  0.49001600  0.22826900  1
  Ge  Ge11  1  0.08488100  0.83164500  0.02241600  1
  N  N12  1  0.67998500  0.99917500  0.77010800  1
  N  N13  1  0.00082500  0.68081100  0.77010800  1
  N  N14  1  0.61575300  0.65710700  0.99856500  1
  N  N15  1  0.04135400  0.38424700  0.99856500  1
  N  N16  1  0.32001500  0.31918900  0.27010800  1
  N  N17  1  0.95864600  0.34289300  0.49856500  1
  N  N18  1  0.68081100  0.00082500  0.27010800  1
  N  N19  1  0.00000000  0.00000000  0.01840600  1
  N  N20  1  0.34289300  0.95864600  0.99856500  1
  N  N21  1  0.31918900  0.32001500  0.77010800  1
  N  N22  1  0.99917500  0.67998500  0.27010800  1
  N  N23  1  0.65710700  0.61575300  0.49856500  1
  N  N24  1  0.00000000  0.00000000  0.51840600  1
  N  N25  1  0.66666700  0.33333300  0.17351900  1
  N  N26  1  0.38424700  0.04135400  0.49856500  1
  N  N27  1  0.33333300  0.66666700  0.67351900  1
