# generated using pymatgen
data_K4PH5S3O16
_symmetry_space_group_name_H-M   'P 1'
_cell_length_a   7.38736500
_cell_length_b   7.61810371
_cell_length_c   7.64466113
_cell_angle_alpha   70.78580341
_cell_angle_beta   87.85493789
_cell_angle_gamma   85.52811335
_symmetry_Int_Tables_number   1
_chemical_formula_structural   K4PH5S3O16
_chemical_formula_sum   'K4 P1 H5 S3 O16'
_cell_volume   404.98992859
_cell_formula_units_Z   1
loop_
 _symmetry_equiv_pos_site_id
 _symmetry_equiv_pos_as_xyz
  1  'x, y, z'
loop_
 _atom_site_type_symbol
 _atom_site_label
 _atom_site_symmetry_multiplicity
 _atom_site_fract_x
 _atom_site_fract_y
 _atom_site_fract_z
 _atom_site_occupancy
  K  K0  1  0.16190900  0.18663400  0.33622200  1
  K  K1  1  0.46542300  0.25663100  0.77658200  1
  K  K2  1  0.53726000  0.74305600  0.22369700  1
  K  K3  1  0.83841400  0.80931600  0.66380300  1
  P  P4  1  0.95986000  0.27709600  0.80930800  1
  H  H5  1  0.00997700  0.47348600  0.52456800  1
  H  H6  1  0.12087800  0.05495200  0.04462500  1
  H  H7  1  0.25084700  0.58092900  0.96608700  1
  H  H8  1  0.75002800  0.42055600  0.03067900  1
  H  H9  1  0.86869600  0.98940900  0.91564400  1
  S  S10  1  0.03554700  0.72354000  0.19786100  1
  S  S11  1  0.37324200  0.77978400  0.72313200  1
  S  S12  1  0.62702800  0.22128700  0.27561500  1
  O  O13  1  0.05927800  0.34655800  0.61576000  1
  O  O14  1  0.11595100  0.19445500  0.95243500  1
  O  O15  1  0.15504200  0.56912800  0.16900700  1
  O  O16  1  0.14930900  0.88150100  0.18965400  1
  O  O17  1  0.20569100  0.89681500  0.65957200  1
  O  O18  1  0.31367500  0.57741100  0.84676100  1
  O  O19  1  0.51911300  0.14969800  0.15821200  1
  O  O20  1  0.48230200  0.73772100  0.57641000  1
  O  O21  1  0.51732400  0.26271000  0.42337200  1
  O  O22  1  0.48060900  0.84935000  0.84228900  1
  O  O23  1  0.68529500  0.42183800  0.15219100  1
  O  O24  1  0.79415600  0.10389300  0.34025700  1
  O  O25  1  0.84437900  0.11157300  0.80702000  1
  O  O26  1  0.84078800  0.43203700  0.84430000  1
  O  O27  1  0.89408400  0.79209900  0.05155400  1
  O  O28  1  0.94389600  0.65653700  0.38338300  1
