# generated using pymatgen
data_SbH3OF6
_symmetry_space_group_name_H-M   'P 1'
_cell_length_a   8.85682795
_cell_length_b   8.85682795
_cell_length_c   8.85682795
_cell_angle_alpha   109.47122063
_cell_angle_beta   109.47122063
_cell_angle_gamma   109.47122063
_symmetry_Int_Tables_number   1
_chemical_formula_structural   SbH3OF6
_chemical_formula_sum   'Sb4 H12 O4 F24'
_cell_volume   534.82627335
_cell_formula_units_Z   4
loop_
 _symmetry_equiv_pos_site_id
 _symmetry_equiv_pos_as_xyz
  1  'x, y, z'
loop_
 _atom_site_type_symbol
 _atom_site_label
 _atom_site_symmetry_multiplicity
 _atom_site_fract_x
 _atom_site_fract_y
 _atom_site_fract_z
 _atom_site_occupancy
  Sb  Sb0  1  0.50000000  0.00000000  0.01495400  1
  Sb  Sb1  1  0.00000000  0.01495400  0.50000000  1
  Sb  Sb2  1  0.01495400  0.50000000  0.00000000  1
  Sb  Sb3  1  0.48504600  0.48504600  0.48504600  1
  H  H4  1  0.37588100  0.97896500  0.48927900  1
  H  H5  1  0.60308400  0.12411900  0.61339800  1
  H  H6  1  0.52103500  0.89691600  0.51031500  1
  H  H7  1  0.12411900  0.61339800  0.60308400  1
  H  H8  1  0.89691600  0.51031500  0.52103500  1
  H  H9  1  0.97896500  0.48927900  0.37588100  1
  H  H10  1  0.51031500  0.52103500  0.89691600  1
  H  H11  1  0.48927900  0.37588100  0.97896500  1
  H  H12  1  0.61339800  0.60308400  0.12411900  1
  H  H13  1  0.98968500  0.88660200  0.01072100  1
  H  H14  1  0.01072100  0.98968500  0.88660200  1
  H  H15  1  0.88660200  0.01072100  0.98968500  1
  O  O16  1  0.50000000  0.00000000  0.50684200  1
  O  O17  1  0.00000000  0.50684200  0.50000000  1
  O  O18  1  0.50684200  0.50000000  0.00000000  1
  O  O19  1  0.99315800  0.99315800  0.99315800  1
  F  F20  1  0.66546900  0.20606300  0.25783600  1
  F  F21  1  0.54059500  0.83453100  0.09236700  1
  F  F22  1  0.29393700  0.95940500  0.05177200  1
  F  F23  1  0.83453100  0.09236700  0.54059500  1
  F  F24  1  0.95940500  0.05177200  0.29393700  1
  F  F25  1  0.20606300  0.25783600  0.66546900  1
  F  F26  1  0.05177200  0.29393700  0.95940500  1
  F  F27  1  0.25783600  0.66546900  0.20606300  1
  F  F28  1  0.09236700  0.54059500  0.83453100  1
  F  F29  1  0.44822800  0.40763300  0.24216400  1
  F  F30  1  0.24216400  0.44822800  0.40763300  1
  F  F31  1  0.40763300  0.24216400  0.44822800  1
  F  F32  1  0.33103900  0.80181000  0.76006000  1
  F  F33  1  0.47077100  0.16896100  0.92902100  1
  F  F34  1  0.69819000  0.02922900  0.95825000  1
  F  F35  1  0.16896100  0.92902100  0.47077100  1
  F  F36  1  0.02922900  0.95825000  0.69819000  1
  F  F37  1  0.80181000  0.76006000  0.33103900  1
  F  F38  1  0.95825000  0.69819000  0.02922900  1
  F  F39  1  0.76006000  0.33103900  0.80181000  1
  F  F40  1  0.92902100  0.47077100  0.16896100  1
  F  F41  1  0.54175000  0.57097900  0.73994000  1
  F  F42  1  0.73994000  0.54175000  0.57097900  1
  F  F43  1  0.57097900  0.73994000  0.54175000  1
