# generated using pymatgen
data_Mn4Si7
_symmetry_space_group_name_H-M   'P 1'
_cell_length_a   5.50312900
_cell_length_b   5.50312900
_cell_length_c   17.35855700
_cell_angle_alpha   90.00000000
_cell_angle_beta   90.00000000
_cell_angle_gamma   90.00000000
_symmetry_Int_Tables_number   1
_chemical_formula_structural   Mn4Si7
_chemical_formula_sum   'Mn16 Si28'
_cell_volume   525.69398337
_cell_formula_units_Z   4
loop_
 _symmetry_equiv_pos_site_id
 _symmetry_equiv_pos_as_xyz
  1  'x, y, z'
loop_
 _atom_site_type_symbol
 _atom_site_label
 _atom_site_symmetry_multiplicity
 _atom_site_fract_x
 _atom_site_fract_y
 _atom_site_fract_z
 _atom_site_occupancy
  Mn  Mn0  1  0.00000000  0.00000000  0.25000000  1
  Mn  Mn1  1  0.00000000  0.50000000  0.80830700  1
  Mn  Mn2  1  0.50000000  0.00000000  0.69169300  1
  Mn  Mn3  1  0.50000000  0.50000000  0.36990200  1
  Mn  Mn4  1  0.00000000  0.00000000  0.00000000  1
  Mn  Mn5  1  0.50000000  0.50000000  0.13009800  1
  Mn  Mn6  1  0.50000000  0.00000000  0.43498800  1
  Mn  Mn7  1  0.00000000  0.00000000  0.75000000  1
  Mn  Mn8  1  0.50000000  0.00000000  0.93498800  1
  Mn  Mn9  1  0.50000000  0.50000000  0.63009800  1
  Mn  Mn10  1  0.00000000  0.50000000  0.06501200  1
  Mn  Mn11  1  0.00000000  0.50000000  0.30830700  1
  Mn  Mn12  1  0.00000000  0.00000000  0.50000000  1
  Mn  Mn13  1  0.50000000  0.00000000  0.19169300  1
  Mn  Mn14  1  0.00000000  0.50000000  0.56501200  1
  Mn  Mn15  1  0.50000000  0.50000000  0.86990200  1
  Si  Si16  1  0.80090600  0.84438500  0.11288700  1
  Si  Si17  1  0.77047900  0.34641900  0.46092000  1
  Si  Si18  1  0.80090600  0.15561500  0.61288700  1
  Si  Si19  1  0.34641900  0.22952100  0.53908000  1
  Si  Si20  1  0.67871200  0.15882700  0.31744500  1
  Si  Si21  1  0.22952100  0.34641900  0.96092000  1
  Si  Si22  1  0.67871200  0.84117300  0.81744500  1
  Si  Si23  1  0.15882700  0.67871200  0.18255500  1
  Si  Si24  1  0.65358100  0.22952100  0.03908000  1
  Si  Si25  1  0.15561500  0.80090600  0.88711300  1
  Si  Si26  1  0.66614500  0.33385500  0.75000000  1
  Si  Si27  1  0.77047900  0.65358100  0.96092000  1
  Si  Si28  1  0.15882700  0.32128800  0.68255500  1
  Si  Si29  1  0.33385500  0.33385500  0.25000000  1
  Si  Si30  1  0.32128800  0.84117300  0.31744500  1
  Si  Si31  1  0.65358100  0.77047900  0.53908000  1
  Si  Si32  1  0.84117300  0.32128800  0.18255500  1
  Si  Si33  1  0.84438500  0.80090600  0.38711300  1
  Si  Si34  1  0.84438500  0.19909400  0.88711300  1
  Si  Si35  1  0.19909400  0.15561500  0.11288700  1
  Si  Si36  1  0.84117300  0.67871200  0.68255500  1
  Si  Si37  1  0.22952100  0.65358100  0.46092000  1
  Si  Si38  1  0.19909400  0.84438500  0.61288700  1
  Si  Si39  1  0.15561500  0.19909400  0.38711300  1
  Si  Si40  1  0.32128800  0.15882700  0.81744500  1
  Si  Si41  1  0.66614500  0.66614500  0.25000000  1
  Si  Si42  1  0.33385500  0.66614500  0.75000000  1
  Si  Si43  1  0.34641900  0.77047900  0.03908000  1
