# generated using pymatgen
data_Y2GeI2
_symmetry_space_group_name_H-M   'P 1'
_cell_length_a   11.01558905
_cell_length_b   11.01558905
_cell_length_c   11.01558957
_cell_angle_alpha   22.31521534
_cell_angle_beta   22.31521534
_cell_angle_gamma   22.31521375
_symmetry_Int_Tables_number   1
_chemical_formula_structural   Y2GeI2
_chemical_formula_sum   'Y2 Ge1 I2'
_cell_volume   169.00218046
_cell_formula_units_Z   1
loop_
 _symmetry_equiv_pos_site_id
 _symmetry_equiv_pos_as_xyz
  1  'x, y, z'
loop_
 _atom_site_type_symbol
 _atom_site_label
 _atom_site_symmetry_multiplicity
 _atom_site_fract_x
 _atom_site_fract_y
 _atom_site_fract_z
 _atom_site_occupancy
  Y  Y0  1  0.61803900  0.61803900  0.61803900  1
  Y  Y1  1  0.38196100  0.38196200  0.38196100  1
  Ge  Ge2  1  0.00000000  0.00000000  0.00000000  1
  I  I3  1  0.22208400  0.22208400  0.22208400  1
  I  I4  1  0.77791600  0.77791600  0.77791600  1
