# generated using pymatgen
data_Tb15(Ni4P3)7
_symmetry_space_group_name_H-M   'P 1'
_cell_length_a   24.04470667
_cell_length_b   24.04470667
_cell_length_c   3.82990900
_cell_angle_alpha   90.00000000
_cell_angle_beta   90.00000000
_cell_angle_gamma   120.00000185
_symmetry_Int_Tables_number   1
_chemical_formula_structural   Tb15(Ni4P3)7
_chemical_formula_sum   'Tb30 Ni56 P42'
_cell_volume   1917.60010791
_cell_formula_units_Z   2
loop_
 _symmetry_equiv_pos_site_id
 _symmetry_equiv_pos_as_xyz
  1  'x, y, z'
loop_
 _atom_site_type_symbol
 _atom_site_label
 _atom_site_symmetry_multiplicity
 _atom_site_fract_x
 _atom_site_fract_y
 _atom_site_fract_z
 _atom_site_occupancy
  Tb  Tb0  1  0.38716600  0.24233500  0.25000000  1
  Tb  Tb1  1  0.11771700  0.53293300  0.75000000  1
  Tb  Tb2  1  0.29326400  0.56076400  0.75000000  1
  Tb  Tb3  1  0.75799500  0.92995400  0.75000000  1
  Tb  Tb4  1  0.07004600  0.82804100  0.75000000  1
  Tb  Tb5  1  0.92995400  0.17195900  0.25000000  1
  Tb  Tb6  1  0.58674800  0.90665800  0.75000000  1
  Tb  Tb7  1  0.09334200  0.68009000  0.75000000  1
  Tb  Tb8  1  0.17195900  0.24200500  0.75000000  1
  Tb  Tb9  1  0.14483100  0.38716600  0.75000000  1
  Tb  Tb10  1  0.68009000  0.58674800  0.25000000  1
  Tb  Tb11  1  0.41325200  0.09334200  0.25000000  1
  Tb  Tb12  1  0.24233500  0.85516900  0.75000000  1
  Tb  Tb13  1  0.56076400  0.26750000  0.25000000  1
  Tb  Tb14  1  0.70673600  0.43923600  0.25000000  1
  Tb  Tb15  1  0.26750000  0.70673600  0.75000000  1
  Tb  Tb16  1  0.85516900  0.61283400  0.25000000  1
  Tb  Tb17  1  0.43923600  0.73250000  0.75000000  1
  Tb  Tb18  1  0.58478500  0.11771700  0.25000000  1
  Tb  Tb19  1  0.88228300  0.46706700  0.25000000  1
  Tb  Tb20  1  0.73250000  0.29326400  0.25000000  1
  Tb  Tb21  1  0.31991000  0.41325200  0.75000000  1
  Tb  Tb22  1  0.41521500  0.88228300  0.75000000  1
  Tb  Tb23  1  0.53293300  0.41521500  0.25000000  1
  Tb  Tb24  1  0.61283400  0.75766500  0.75000000  1
  Tb  Tb25  1  0.82804100  0.75799500  0.25000000  1
  Tb  Tb26  1  0.90665800  0.31991000  0.25000000  1
  Tb  Tb27  1  0.24200500  0.07004600  0.25000000  1
  Tb  Tb28  1  0.46706700  0.58478500  0.75000000  1
  Tb  Tb29  1  0.75766500  0.14483100  0.25000000  1
  Ni  Ni30  1  0.65265900  0.86430200  0.25000000  1
  Ni  Ni31  1  0.80068300  0.04298100  0.25000000  1
  Ni  Ni32  1  0.37012800  0.98062800  0.75000000  1
  Ni  Ni33  1  0.30794900  0.81448300  0.25000000  1
  Ni  Ni34  1  0.35986400  0.51948300  0.25000000  1
  Ni  Ni35  1  0.54361600  0.00694600  0.75000000  1
  Ni  Ni36  1  0.19931700  0.95701900  0.75000000  1
  Ni  Ni37  1  0.00694600  0.46332900  0.25000000  1
  Ni  Ni38  1  0.11420400  0.93963900  0.25000000  1
  Ni  Ni39  1  0.95701900  0.75770200  0.25000000  1
  Ni  Ni40  1  0.93422100  0.89881700  0.25000000  1
  Ni  Ni41  1  0.13569800  0.78835800  0.25000000  1
  Ni  Ni42  1  0.33333300  0.66666700  0.25000000  1
  Ni  Ni43  1  0.04298100  0.24229800  0.75000000  1
  Ni  Ni44  1  0.45638400  0.99305400  0.25000000  1
  Ni  Ni45  1  0.03540400  0.93422100  0.75000000  1
  Ni  Ni46  1  0.53667100  0.54361600  0.25000000  1
  Ni  Ni47  1  0.10118300  0.03540400  0.25000000  1
  Ni  Ni48  1  0.96459600  0.06577900  0.25000000  1
  Ni  Ni49  1  0.64013600  0.48051700  0.75000000  1
  Ni  Ni50  1  0.81448300  0.50653400  0.75000000  1
  Ni  Ni51  1  0.31627600  0.28523000  0.75000000  1
  Ni  Ni52  1  0.24229800  0.19931700  0.25000000  1
  Ni  Ni53  1  0.34734100  0.13569800  0.75000000  1
  Ni  Ni54  1  0.03104600  0.31627600  0.25000000  1
  Ni  Ni55  1  0.49346600  0.30794900  0.75000000  1
  Ni  Ni56  1  0.51948300  0.15961900  0.75000000  1
  Ni  Ni57  1  0.99305400  0.53667100  0.75000000  1
  Ni  Ni58  1  0.38950000  0.37012800  0.25000000  1
  Ni  Ni59  1  0.46332900  0.45638400  0.75000000  1
  Ni  Ni60  1  0.71477000  0.03104600  0.75000000  1
  Ni  Ni61  1  0.98062800  0.61050000  0.25000000  1
  Ni  Ni62  1  0.06036100  0.17456500  0.25000000  1
  Ni  Ni63  1  0.15961900  0.64013600  0.25000000  1
  Ni  Ni64  1  0.01937200  0.38950000  0.75000000  1
  Ni  Ni65  1  0.86430200  0.21164200  0.75000000  1
  Ni  Ni66  1  0.69205100  0.18551700  0.75000000  1
  Ni  Ni67  1  0.82543500  0.88579600  0.25000000  1
  Ni  Ni68  1  0.66666700  0.33333300  0.75000000  1
  Ni  Ni69  1  0.96895400  0.68372400  0.75000000  1
  Ni  Ni70  1  0.78835800  0.65265900  0.75000000  1
  Ni  Ni71  1  0.93963900  0.82543500  0.75000000  1
  Ni  Ni72  1  0.21164200  0.34734100  0.25000000  1
  Ni  Ni73  1  0.18551700  0.49346600  0.25000000  1
  Ni  Ni74  1  0.88579600  0.06036100  0.75000000  1
  Ni  Ni75  1  0.61050000  0.62987200  0.75000000  1
  Ni  Ni76  1  0.17456500  0.11420400  0.75000000  1
  Ni  Ni77  1  0.06577900  0.10118300  0.75000000  1
  Ni  Ni78  1  0.75770200  0.80068300  0.75000000  1
  Ni  Ni79  1  0.28523000  0.96895400  0.25000000  1
  Ni  Ni80  1  0.89881700  0.96459600  0.75000000  1
  Ni  Ni81  1  0.68372400  0.71477000  0.25000000  1
  Ni  Ni82  1  0.62987200  0.01937200  0.25000000  1
  Ni  Ni83  1  0.84038100  0.35986400  0.75000000  1
  Ni  Ni84  1  0.50653400  0.69205100  0.25000000  1
  Ni  Ni85  1  0.48051700  0.84038100  0.25000000  1
  P  P86  1  0.57275100  0.65252000  0.25000000  1
  P  P87  1  0.92023100  0.57275100  0.75000000  1
  P  P88  1  0.05338400  0.57436300  0.25000000  1
  P  P89  1  0.82291000  0.10606700  0.75000000  1
  P  P90  1  0.86190200  0.99327300  0.25000000  1
  P  P91  1  0.47902100  0.05338400  0.75000000  1
  P  P92  1  0.13137100  0.13809800  0.25000000  1
  P  P93  1  0.62531800  0.22573200  0.75000000  1
  P  P94  1  0.89393300  0.71684200  0.75000000  1
  P  P95  1  0.71684200  0.82291000  0.25000000  1
  P  P96  1  0.52097900  0.94661600  0.25000000  1
  P  P97  1  0.79791000  0.25262700  0.75000000  1
  P  P98  1  0.86862900  0.86190200  0.75000000  1
  P  P99  1  0.39958600  0.62531800  0.25000000  1
  P  P100  1  0.72170300  0.69147900  0.75000000  1
  P  P101  1  0.37468200  0.77426800  0.25000000  1
  P  P102  1  0.25262700  0.45471700  0.25000000  1
  P  P103  1  0.74737300  0.54528300  0.75000000  1
  P  P104  1  0.22573200  0.60041400  0.25000000  1
  P  P105  1  0.94661600  0.42563700  0.75000000  1
  P  P106  1  0.57436300  0.52097900  0.75000000  1
  P  P107  1  0.45471700  0.20209000  0.75000000  1
  P  P108  1  0.00672700  0.86862900  0.25000000  1
  P  P109  1  0.27829700  0.30852100  0.25000000  1
  P  P110  1  0.42724900  0.34748000  0.75000000  1
  P  P111  1  0.17709000  0.89393300  0.25000000  1
  P  P112  1  0.28315800  0.17709000  0.75000000  1
  P  P113  1  0.42563700  0.47902100  0.25000000  1
  P  P114  1  0.60041400  0.37468200  0.75000000  1
  P  P115  1  0.34748000  0.92023100  0.25000000  1
  P  P116  1  0.10606700  0.28315800  0.25000000  1
  P  P117  1  0.03022400  0.72170300  0.25000000  1
  P  P118  1  0.07976900  0.42724900  0.25000000  1
  P  P119  1  0.77426800  0.39958600  0.75000000  1
  P  P120  1  0.30852100  0.03022400  0.75000000  1
  P  P121  1  0.20209000  0.74737300  0.25000000  1
  P  P122  1  0.54528300  0.79791000  0.25000000  1
  P  P123  1  0.99327300  0.13137100  0.75000000  1
  P  P124  1  0.96977600  0.27829700  0.75000000  1
  P  P125  1  0.69147900  0.96977600  0.25000000  1
  P  P126  1  0.65252000  0.07976900  0.75000000  1
  P  P127  1  0.13809800  0.00672700  0.75000000  1
