# generated using pymatgen
data_Ba6Ti2Nb10Si8O51
_symmetry_space_group_name_H-M   'P 1'
_cell_length_a   9.09725100
_cell_length_b   12.07919712
_cell_length_c   12.09491806
_cell_angle_alpha   82.68957949
_cell_angle_beta   112.01435224
_cell_angle_gamma   111.97864860
_symmetry_Int_Tables_number   1
_chemical_formula_structural   Ba6Ti2Nb10Si8O51
_chemical_formula_sum   'Ba6 Ti2 Nb10 Si8 O51'
_cell_volume   1142.49497287
_cell_formula_units_Z   1
loop_
 _symmetry_equiv_pos_site_id
 _symmetry_equiv_pos_as_xyz
  1  'x, y, z'
loop_
 _atom_site_type_symbol
 _atom_site_label
 _atom_site_symmetry_multiplicity
 _atom_site_fract_x
 _atom_site_fract_y
 _atom_site_fract_z
 _atom_site_occupancy
  Ba  Ba0  1  0.00037500  0.94734300  0.44541500  1
  Ba  Ba1  1  0.59606100  0.55127500  0.05018300  1
  Ba  Ba2  1  0.41038200  0.75273700  0.25172100  1
  Ba  Ba3  1  0.99993900  0.44970800  0.94847200  1
  Ba  Ba4  1  0.58878700  0.04609100  0.54649800  1
  Ba  Ba5  1  0.40415400  0.25208000  0.75216800  1
  Ti  Ti6  1  0.00047000  0.47760500  0.27432800  1
  Ti  Ti7  1  0.00048100  0.77379200  0.98204500  1
  Nb  Nb8  1  0.76212900  0.88315200  0.11022500  1
  Nb  Nb9  1  0.76618000  0.62705100  0.36545500  1
  Nb  Nb10  1  0.23891300  0.24983400  0.99025200  1
  Nb  Nb11  1  0.00038300  0.00669400  0.75554200  1
  Nb  Nb12  1  0.99939800  0.25432000  0.51079700  1
  Nb  Nb13  1  0.75727700  0.38896800  0.61442400  1
  Nb  Nb14  1  0.76160600  0.13069400  0.87096600  1
  Nb  Nb15  1  0.23436900  0.74378800  0.48191200  1
  Nb  Nb16  1  0.23784400  0.00228200  0.22883500  1
  Nb  Nb17  1  0.24206600  0.50997300  0.73544500  1
  Si  Si18  1  0.67508600  0.27406500  0.07137100  1
  Si  Si19  1  0.32592500  0.43602800  0.23323800  1
  Si  Si20  1  0.66998200  0.76610800  0.56709900  1
  Si  Si21  1  0.66901400  0.06473000  0.26897700  1
  Si  Si22  1  0.33084700  0.93136000  0.73249500  1
  Si  Si23  1  0.33114700  0.23055000  0.43480100  1
  Si  Si24  1  0.67434400  0.56894300  0.77686300  1
  Si  Si25  1  0.32556200  0.73072400  0.93899900  1
  O  O26  1  0.82710900  0.40423400  0.11910600  1
  O  O27  1  0.99971900  0.96994900  0.20770300  1
  O  O28  1  0.83033900  0.78687800  0.03528600  1
  O  O29  1  0.83113800  0.53286100  0.28715200  1
  O  O30  1  0.00005900  0.70482900  0.47293500  1
  O  O31  1  0.49557200  0.29785500  0.01865500  1
  O  O32  1  0.76693200  0.74791000  0.25097200  1
  O  O33  1  0.99941300  0.35360900  0.36548800  1
  O  O34  1  0.00211200  0.13650000  0.63837300  1
  O  O35  1  0.69572800  0.95042500  0.23092500  1
  O  O36  1  0.50814200  0.76537000  0.05028900  1
  O  O37  1  0.69573400  0.72885900  0.45289600  1
  O  O38  1  0.50715200  0.54757300  0.26818500  1
  O  O39  1  0.81796900  0.89704500  0.61411800  1
  O  O40  1  0.29861600  0.38526500  0.10482300  1
  O  O41  1  0.81670600  0.11210300  0.39980400  1
  O  O42  1  0.67548400  0.17168100  0.17252300  1
  O  O43  1  0.82311900  0.02844700  0.79320800  1
  O  O44  1  0.99964700  0.47034800  0.70718400  1
  O  O45  1  0.82267800  0.29273200  0.53214300  1
  O  O46  1  0.00065500  0.20464700  0.97304700  1
  O  O47  1  0.48864400  0.01044900  0.29261000  1
  O  O48  1  0.17494000  0.49075700  0.20670100  1
  O  O49  1  0.48989600  0.78922700  0.51426400  1
  O  O50  1  0.76759400  0.24792600  0.75283600  1
  O  O51  1  0.72234100  0.49880500  0.49832500  1
  O  O52  1  0.16846400  0.87271200  0.11911400  1
  O  O53  1  0.16820900  0.61665200  0.37177700  1
  O  O54  1  0.27718700  0.13601200  0.13598200  1
  O  O55  1  0.99999100  0.86269800  0.85687900  1
  O  O56  1  0.23292200  0.86449400  0.36745900  1
  O  O57  1  0.69738800  0.45229500  0.73764700  1
  O  O58  1  0.51080300  0.26853900  0.55009900  1
  O  O59  1  0.50929600  0.04648900  0.77173000  1
  O  O60  1  0.69896000  0.23528700  0.95585400  1
  O  O61  1  0.30584800  0.10280100  0.38440500  1
  O  O62  1  0.30776300  0.88238700  0.60556200  1
  O  O63  1  0.82593800  0.61667500  0.90697000  1
  O  O64  1  0.32584700  0.33354700  0.33436100  1
  O  O65  1  0.67666100  0.66975200  0.67449100  1
  O  O66  1  0.49322400  0.51665200  0.79956200  1
  O  O67  1  0.18341500  0.20432800  0.49130300  1
  O  O68  1  0.18211200  0.98752800  0.70493300  1
  O  O69  1  0.72378900  0.99692300  0.99736400  1
  O  O70  1  0.17914500  0.38209900  0.62058300  1
  O  O71  1  0.18058000  0.11666500  0.88278100  1
  O  O72  1  0.27672400  0.63761700  0.63743200  1
  O  O73  1  0.23280700  0.36236700  0.86732300  1
  O  O74  1  0.29678500  0.60120300  0.88773100  1
  O  O75  1  0.32430600  0.83077800  0.83573500  1
  O  O76  1  0.17590100  0.70514400  0.99466900  1
