# generated using pymatgen
data_Ce6Si4S17
_symmetry_space_group_name_H-M   'P 1'
_cell_length_a   9.01100800
_cell_length_b   10.06565507
_cell_length_c   14.33625734
_cell_angle_alpha   82.26872553
_cell_angle_beta   86.86345638
_cell_angle_gamma   89.24233395
_symmetry_Int_Tables_number   1
_chemical_formula_structural   Ce6Si4S17
_chemical_formula_sum   'Ce12 Si8 S34'
_cell_volume   1286.55005064
_cell_formula_units_Z   2
loop_
 _symmetry_equiv_pos_site_id
 _symmetry_equiv_pos_as_xyz
  1  'x, y, z'
loop_
 _atom_site_type_symbol
 _atom_site_label
 _atom_site_symmetry_multiplicity
 _atom_site_fract_x
 _atom_site_fract_y
 _atom_site_fract_z
 _atom_site_occupancy
  Ce  Ce0  1  0.17050900  0.08854500  0.65803500  1
  Ce  Ce1  1  0.52036400  0.26834600  0.45847700  1
  Ce  Ce2  1  0.60604400  0.88470300  0.81721900  1
  Ce  Ce3  1  0.13025000  0.43055500  0.32550600  1
  Ce  Ce4  1  0.41788300  0.42104200  0.83338800  1
  Ce  Ce5  1  0.94859600  0.23877200  0.00057400  1
  Ce  Ce6  1  0.39395600  0.11529700  0.18278100  1
  Ce  Ce7  1  0.47963600  0.73165400  0.54152300  1
  Ce  Ce8  1  0.86975000  0.56944500  0.67449400  1
  Ce  Ce9  1  0.82949100  0.91145500  0.34196500  1
  Ce  Ce10  1  0.05140400  0.76122800  0.99942600  1
  Ce  Ce11  1  0.58211700  0.57895800  0.16661200  1
  Si  Si12  1  0.77374600  0.55846900  0.39426400  1
  Si  Si13  1  0.75236100  0.55941500  0.92284900  1
  Si  Si14  1  0.25098100  0.99911700  0.41526900  1
  Si  Si15  1  0.73083400  0.93787700  0.09914300  1
  Si  Si16  1  0.26916600  0.06212300  0.90085700  1
  Si  Si17  1  0.22625400  0.44153100  0.60573600  1
  Si  Si18  1  0.24763900  0.44058500  0.07715100  1
  Si  Si19  1  0.74901900  0.00088300  0.58473100  1
  S  S20  1  0.74648700  0.11339400  0.16738900  1
  S  S21  1  0.13265400  0.21666200  0.83268000  1
  S  S22  1  0.20317900  0.58962500  0.69549000  1
  S  S23  1  0.57128200  0.64597000  0.72115700  1
  S  S24  1  0.01818200  0.34717600  0.60287700  1
  S  S25  1  0.31710500  0.51868700  0.46659100  1
  S  S26  1  0.39419000  0.29941200  0.65370400  1
  S  S27  1  0.85464800  0.02855100  0.70733300  1
  S  S28  1  0.45784200  0.35276200  0.04900700  1
  S  S29  1  0.60581000  0.70058800  0.34629600  1
  S  S30  1  0.88401200  0.71121800  0.83845500  1
  S  S31  1  0.49103600  0.12754500  0.88590900  1
  S  S32  1  0.24232100  0.61338100  0.15005000  1
  S  S33  1  0.75767900  0.38661900  0.84995000  1
  S  S34  1  0.83908300  0.50163000  0.05679700  1
  S  S35  1  0.50896400  0.87245500  0.11409100  1
  S  S36  1  0.19157100  0.86620700  0.53682500  1
  S  S37  1  0.11598800  0.28878200  0.16154500  1
  S  S38  1  0.82163800  0.98128600  0.95688300  1
  S  S39  1  0.51525600  0.99428200  0.62310300  1
  S  S40  1  0.86734600  0.78333800  0.16732000  1
  S  S41  1  0.16091700  0.49837000  0.94320300  1
  S  S42  1  0.54215800  0.64723800  0.95099300  1
  S  S43  1  0.68289500  0.48131300  0.53340900  1
  S  S44  1  0.17836200  0.01871400  0.04311700  1
  S  S45  1  0.80842900  0.13379300  0.46317500  1
  S  S46  1  0.48474400  0.00571800  0.37689700  1
  S  S47  1  0.79332400  0.80894400  0.54021600  1
  S  S48  1  0.25351300  0.88660600  0.83261100  1
  S  S49  1  0.42871800  0.35403000  0.27884300  1
  S  S50  1  0.14535200  0.97144900  0.29266700  1
  S  S51  1  0.20667600  0.19105600  0.45978400  1
  S  S52  1  0.98181800  0.65282400  0.39712300  1
  S  S53  1  0.79682100  0.41037500  0.30451000  1
