# generated using pymatgen
data_Sc39N34
_symmetry_space_group_name_H-M   'P 1'
_cell_length_a   3.22026946
_cell_length_b   3.22026946
_cell_length_c   101.38622800
_cell_angle_alpha   90.00000000
_cell_angle_beta   90.00000000
_cell_angle_gamma   119.99998884
_symmetry_Int_Tables_number   1
_chemical_formula_structural   Sc39N34
_chemical_formula_sum   'Sc39 N34'
_cell_volume   910.52960730
_cell_formula_units_Z   1
loop_
 _symmetry_equiv_pos_site_id
 _symmetry_equiv_pos_as_xyz
  1  'x, y, z'
loop_
 _atom_site_type_symbol
 _atom_site_label
 _atom_site_symmetry_multiplicity
 _atom_site_fract_x
 _atom_site_fract_y
 _atom_site_fract_z
 _atom_site_occupancy
  Sc  Sc0  1  0.00000000  0.00000000  0.88582900  1
  Sc  Sc1  1  0.66666700  0.33333300  0.91026500  1
  Sc  Sc2  1  0.33333300  0.66666700  0.93473000  1
  Sc  Sc3  1  0.00000000  0.00000000  0.96244400  1
  Sc  Sc4  1  0.66666700  0.33333300  0.98638000  1
  Sc  Sc5  1  0.33333300  0.66666700  0.01362000  1
  Sc  Sc6  1  0.00000000  0.00000000  0.03755600  1
  Sc  Sc7  1  0.66666700  0.33333300  0.06527000  1
  Sc  Sc8  1  0.33333300  0.66666700  0.08973500  1
  Sc  Sc9  1  0.00000000  0.00000000  0.11417100  1
  Sc  Sc10  1  0.66666700  0.33333300  0.14225800  1
  Sc  Sc11  1  0.33333300  0.66666700  0.16735000  1
  Sc  Sc12  1  0.00000000  0.00000000  0.19263300  1
  Sc  Sc13  1  0.66666700  0.33333300  0.21811600  1
  Sc  Sc14  1  0.33333300  0.66666700  0.24369100  1
  Sc  Sc15  1  0.00000000  0.00000000  0.26928900  1
  Sc  Sc16  1  0.66666700  0.33333300  0.29489300  1
  Sc  Sc17  1  0.33333300  0.66666700  0.32050800  1
  Sc  Sc18  1  0.00000000  0.00000000  0.34614500  1
  Sc  Sc19  1  0.66666700  0.33333300  0.37180000  1
  Sc  Sc20  1  0.33333300  0.66666700  0.39745000  1
  Sc  Sc21  1  0.00000000  0.00000000  0.42308500  1
  Sc  Sc22  1  0.66666700  0.33333300  0.44871600  1
  Sc  Sc23  1  0.33333300  0.66666700  0.47435100  1
  Sc  Sc24  1  0.00000000  0.00000000  0.50000000  1
  Sc  Sc25  1  0.66666700  0.33333300  0.52564900  1
  Sc  Sc26  1  0.33333300  0.66666700  0.55128400  1
  Sc  Sc27  1  0.00000000  0.00000000  0.57691500  1
  Sc  Sc28  1  0.66666700  0.33333300  0.60255000  1
  Sc  Sc29  1  0.33333300  0.66666700  0.62820000  1
  Sc  Sc30  1  0.00000000  0.00000000  0.65385500  1
  Sc  Sc31  1  0.66666700  0.33333300  0.67949200  1
  Sc  Sc32  1  0.33333300  0.66666700  0.70510700  1
  Sc  Sc33  1  0.00000000  0.00000000  0.73071100  1
  Sc  Sc34  1  0.66666700  0.33333300  0.75630900  1
  Sc  Sc35  1  0.33333300  0.66666700  0.78188400  1
  Sc  Sc36  1  0.00000000  0.00000000  0.80736700  1
  Sc  Sc37  1  0.66666700  0.33333300  0.83265000  1
  Sc  Sc38  1  0.33333300  0.66666700  0.85774200  1
  N  N39  1  0.33333300  0.66666700  0.89696500  1
  N  N40  1  0.00000000  0.00000000  0.92353700  1
  N  N41  1  0.33333300  0.66666700  0.97438300  1
  N  N42  1  0.66666700  0.33333300  0.02561700  1
  N  N43  1  0.00000000  0.00000000  0.07646300  1
  N  N44  1  0.66666700  0.33333300  0.10303500  1
  N  N45  1  0.00000000  0.00000000  0.15300200  1
  N  N46  1  0.33333300  0.66666700  0.20490100  1
  N  N47  1  0.66666700  0.33333300  0.17903600  1
  N  N48  1  0.00000000  0.00000000  0.23069300  1
  N  N49  1  0.66666700  0.33333300  0.25641600  1
  N  N50  1  0.33333300  0.66666700  0.28208400  1
  N  N51  1  0.00000000  0.00000000  0.30771000  1
  N  N52  1  0.66666700  0.33333300  0.33332700  1
  N  N53  1  0.33333300  0.66666700  0.35896100  1
  N  N54  1  0.00000000  0.00000000  0.38460300  1
  N  N55  1  0.66666700  0.33333300  0.41024200  1
  N  N56  1  0.33333300  0.66666700  0.43588200  1
  N  N57  1  0.00000000  0.00000000  0.46153800  1
  N  N58  1  0.66666700  0.33333300  0.48720300  1
  N  N59  1  0.33333300  0.66666700  0.51279700  1
  N  N60  1  0.00000000  0.00000000  0.53846200  1
  N  N61  1  0.66666700  0.33333300  0.56411800  1
  N  N62  1  0.33333300  0.66666700  0.58975800  1
  N  N63  1  0.00000000  0.00000000  0.61539700  1
  N  N64  1  0.66666700  0.33333300  0.64103900  1
  N  N65  1  0.33333300  0.66666700  0.66667300  1
  N  N66  1  0.00000000  0.00000000  0.69229000  1
  N  N67  1  0.66666700  0.33333300  0.71791600  1
  N  N68  1  0.33333300  0.66666700  0.74358400  1
  N  N69  1  0.00000000  0.00000000  0.76930700  1
  N  N70  1  0.66666700  0.33333300  0.79509900  1
  N  N71  1  0.33333300  0.66666700  0.82096400  1
  N  N72  1  0.00000000  0.00000000  0.84699800  1
