# generated using pymatgen
data_ReHg2O5
_symmetry_space_group_name_H-M   'P 1'
_cell_length_a   8.18220300
_cell_length_b   9.19332039
_cell_length_c   9.24803558
_cell_angle_alpha   113.95140782
_cell_angle_beta   101.59078030
_cell_angle_gamma   91.07808792
_symmetry_Int_Tables_number   1
_chemical_formula_structural   ReHg2O5
_chemical_formula_sum   'Re4 Hg8 O20'
_cell_volume   618.85787312
_cell_formula_units_Z   4
loop_
 _symmetry_equiv_pos_site_id
 _symmetry_equiv_pos_as_xyz
  1  'x, y, z'
loop_
 _atom_site_type_symbol
 _atom_site_label
 _atom_site_symmetry_multiplicity
 _atom_site_fract_x
 _atom_site_fract_y
 _atom_site_fract_z
 _atom_site_occupancy
  Re  Re0  1  0.89978400  0.74808800  0.46095300  1
  Re  Re1  1  0.72555800  0.34759300  0.99710300  1
  Re  Re2  1  0.27444200  0.65240700  0.00289700  1
  Re  Re3  1  0.10021600  0.25191200  0.53904700  1
  Hg  Hg4  1  0.36744400  0.60810200  0.42950600  1
  Hg  Hg5  1  0.69166800  0.67657600  0.80934500  1
  Hg  Hg6  1  0.63255600  0.39189800  0.57049400  1
  Hg  Hg7  1  0.33833800  0.96915000  0.80500700  1
  Hg  Hg8  1  0.30833200  0.32342400  0.19065500  1
  Hg  Hg9  1  0.66166200  0.03085000  0.19499300  1
  Hg  Hg10  1  0.00000000  0.00000000  0.00000000  1
  Hg  Hg11  1  0.50000000  0.00000000  0.50000000  1
  O  O12  1  0.21430200  0.11456100  0.59560300  1
  O  O13  1  0.46011300  0.85316900  0.61856900  1
  O  O14  1  0.06492000  0.68378400  0.94738800  1
  O  O15  1  0.24826600  0.07285200  0.01458200  1
  O  O16  1  0.02318100  0.16526300  0.32668200  1
  O  O17  1  0.97681900  0.83473700  0.67331800  1
  O  O18  1  0.34817100  0.75710900  0.21434700  1
  O  O19  1  0.75173400  0.92714800  0.98541800  1
  O  O20  1  0.93508000  0.31621600  0.05261200  1
  O  O21  1  0.71103900  0.55197400  0.05072100  1
  O  O22  1  0.06780000  0.70290100  0.36640800  1
  O  O23  1  0.28896100  0.44802600  0.94927900  1
  O  O24  1  0.78569800  0.88543900  0.40439700  1
  O  O25  1  0.77006400  0.57160100  0.40633200  1
  O  O26  1  0.22993600  0.42839900  0.59366800  1
  O  O27  1  0.65182900  0.24289100  0.78565300  1
  O  O28  1  0.53988700  0.14683100  0.38143100  1
  O  O29  1  0.60110300  0.27204800  0.09196200  1
  O  O30  1  0.93220000  0.29709900  0.63359200  1
  O  O31  1  0.39889700  0.72795200  0.90803800  1
