# generated using pymatgen
data_NaEu2Cl6
_symmetry_space_group_name_H-M   'P 1'
_cell_length_a   13.20527508
_cell_length_b   13.20527508
_cell_length_c   4.46962800
_cell_angle_alpha   90.00000000
_cell_angle_beta   90.00000000
_cell_angle_gamma   120.00000543
_symmetry_Int_Tables_number   1
_chemical_formula_structural   NaEu2Cl6
_chemical_formula_sum   'Na3 Eu6 Cl18'
_cell_volume   674.98930577
_cell_formula_units_Z   3
loop_
 _symmetry_equiv_pos_site_id
 _symmetry_equiv_pos_as_xyz
  1  'x, y, z'
loop_
 _atom_site_type_symbol
 _atom_site_label
 _atom_site_symmetry_multiplicity
 _atom_site_fract_x
 _atom_site_fract_y
 _atom_site_fract_z
 _atom_site_occupancy
  Na  Na0  1  0.00000000  0.00000000  0.99996100  1
  Na  Na1  1  0.66666700  0.33333300  0.49838400  1
  Na  Na2  1  0.33333300  0.66666700  0.75234500  1
  Eu  Eu3  1  0.66689700  0.99988300  0.75022900  1
  Eu  Eu4  1  0.33298600  0.33310300  0.75022900  1
  Eu  Eu5  1  0.66568900  0.66688600  0.25001300  1
  Eu  Eu6  1  0.00011700  0.66701400  0.75022900  1
  Eu  Eu7  1  0.33311400  0.99880300  0.25001300  1
  Eu  Eu8  1  0.00119700  0.33431100  0.25001300  1
  Cl  Cl9  1  0.77234500  0.92940900  0.25285600  1
  Cl  Cl10  1  0.92733900  0.15681500  0.74978100  1
  Cl  Cl11  1  0.15706500  0.22765500  0.25285600  1
  Cl  Cl12  1  0.17201000  0.43121000  0.74819500  1
  Cl  Cl13  1  0.40264100  0.51387100  0.24687500  1
  Cl  Cl14  1  0.43500700  0.26046000  0.24998200  1
  Cl  Cl15  1  0.56879000  0.74080100  0.74819500  1
  Cl  Cl16  1  0.59270200  0.48973100  0.75183700  1
  Cl  Cl17  1  0.82545300  0.56499300  0.24998200  1
  Cl  Cl18  1  0.84318500  0.77052400  0.74978100  1
  Cl  Cl19  1  0.07059100  0.84293500  0.25285600  1
  Cl  Cl20  1  0.11122900  0.59735900  0.24687500  1
  Cl  Cl21  1  0.22947600  0.07266100  0.74978100  1
  Cl  Cl22  1  0.25919900  0.82799000  0.74819500  1
  Cl  Cl23  1  0.48612900  0.88877100  0.24687500  1
  Cl  Cl24  1  0.51026900  0.10297000  0.75183700  1
  Cl  Cl25  1  0.73954000  0.17454700  0.24998200  1
  Cl  Cl26  1  0.89703000  0.40729800  0.75183700  1
