# generated using pymatgen
data_Sr2CeIrO6
_symmetry_space_group_name_H-M   'P 1'
_cell_length_a   5.92729100
_cell_length_b   5.87005600
_cell_length_c   10.13968899
_cell_angle_alpha   55.14513075
_cell_angle_beta   90.00000000
_cell_angle_gamma   90.00000000
_symmetry_Int_Tables_number   1
_chemical_formula_structural   Sr2CeIrO6
_chemical_formula_sum   'Sr4 Ce2 Ir2 O12'
_cell_volume   289.50485580
_cell_formula_units_Z   2
loop_
 _symmetry_equiv_pos_site_id
 _symmetry_equiv_pos_as_xyz
  1  'x, y, z'
loop_
 _atom_site_type_symbol
 _atom_site_label
 _atom_site_symmetry_multiplicity
 _atom_site_fract_x
 _atom_site_fract_y
 _atom_site_fract_z
 _atom_site_occupancy
  Sr  Sr0  1  0.53733200  0.76115600  0.74855200  1
  Sr  Sr1  1  0.03733200  0.23884400  0.75144800  1
  Sr  Sr2  1  0.96266800  0.76115600  0.24855200  1
  Sr  Sr3  1  0.46266800  0.23884400  0.25144800  1
  Ce  Ce4  1  0.50000000  0.50000000  0.50000000  1
  Ce  Ce5  1  0.00000000  0.50000000  0.00000000  1
  Ir  Ir6  1  0.00000000  0.00000000  0.50000000  1
  Ir  Ir7  1  0.50000000  0.00000000  0.00000000  1
  O  O8  1  0.51824900  0.68880000  0.23637900  1
  O  O9  1  0.01824900  0.31120000  0.26362100  1
  O  O10  1  0.48175100  0.31120000  0.76362100  1
  O  O11  1  0.98175100  0.68880000  0.73637900  1
  O  O12  1  0.72612300  0.84094700  0.46002100  1
  O  O13  1  0.22612300  0.15905300  0.03997900  1
  O  O14  1  0.27387700  0.15905300  0.53997900  1
  O  O15  1  0.77387700  0.84094700  0.96002100  1
  O  O16  1  0.29754800  0.76694400  0.96024700  1
  O  O17  1  0.79754800  0.23305600  0.53975300  1
  O  O18  1  0.70245200  0.23305600  0.03975300  1
  O  O19  1  0.20245200  0.76694400  0.46024700  1
