# generated using pymatgen
data_Ce6Th4O19
_symmetry_space_group_name_H-M   'P 1'
_cell_length_a   10.35975638
_cell_length_b   10.35975638
_cell_length_c   6.81465664
_cell_angle_alpha   83.74386917
_cell_angle_beta   83.74386917
_cell_angle_gamma   141.57615604
_symmetry_Int_Tables_number   1
_chemical_formula_structural   Ce6Th4O19
_chemical_formula_sum   'Ce6 Th4 O19'
_cell_volume   428.88597409
_cell_formula_units_Z   1
loop_
 _symmetry_equiv_pos_site_id
 _symmetry_equiv_pos_as_xyz
  1  'x, y, z'
loop_
 _atom_site_type_symbol
 _atom_site_label
 _atom_site_symmetry_multiplicity
 _atom_site_fract_x
 _atom_site_fract_y
 _atom_site_fract_z
 _atom_site_occupancy
  Ce  Ce0  1  0.02543400  0.02543400  0.99555400  1
  Ce  Ce1  1  0.49583000  0.49583000  0.52477500  1
  Ce  Ce2  1  0.09407100  0.90019300  0.49766000  1
  Ce  Ce3  1  0.60112900  0.38956600  0.99516400  1
  Ce  Ce4  1  0.90019300  0.09407100  0.49766000  1
  Ce  Ce5  1  0.38956600  0.60112900  0.99516400  1
  Th  Th6  1  0.79822400  0.19202300  0.00030100  1
  Th  Th7  1  0.69926700  0.30197000  0.49573300  1
  Th  Th8  1  0.30197000  0.69926700  0.49573300  1
  Th  Th9  1  0.19202300  0.79822400  0.00030100  1
  O  O10  1  0.23011800  0.02932100  0.12435500  1
  O  O11  1  0.82289100  0.41885100  0.12264400  1
  O  O12  1  0.41885100  0.82289100  0.12264400  1
  O  O13  1  0.72462700  0.52323100  0.62954700  1
  O  O14  1  0.49199400  0.30800800  0.35435600  1
  O  O15  1  0.31789900  0.92929300  0.62145400  1
  O  O16  1  0.02932100  0.23011800  0.12435500  1
  O  O17  1  0.07007100  0.67224500  0.37513900  1
  O  O18  1  0.92929300  0.31789900  0.62145400  1
  O  O19  1  0.67224500  0.07007100  0.37513900  1
  O  O20  1  0.94539500  0.76242000  0.89977200  1
  O  O21  1  0.52323100  0.72462700  0.62954700  1
  O  O22  1  0.30800800  0.49199400  0.35435600  1
  O  O23  1  0.57589500  0.17346800  0.87079500  1
  O  O24  1  0.12948200  0.12948200  0.62879700  1
  O  O25  1  0.17346800  0.57589500  0.87079500  1
  O  O26  1  0.85833300  0.85833300  0.35891300  1
  O  O27  1  0.76242000  0.94539500  0.89977200  1
  O  O28  1  0.39375300  0.39375300  0.89312500  1
