# generated using pymatgen
data_SrBPO5
_symmetry_space_group_name_H-M   'P 1'
_cell_length_a   6.94216950
_cell_length_b   6.94216950
_cell_length_c   6.89612700
_cell_angle_alpha   90.00000000
_cell_angle_beta   90.00000000
_cell_angle_gamma   119.99999523
_symmetry_Int_Tables_number   1
_chemical_formula_structural   SrBPO5
_chemical_formula_sum   'Sr3 B3 P3 O15'
_cell_volume   287.82355292
_cell_formula_units_Z   3
loop_
 _symmetry_equiv_pos_site_id
 _symmetry_equiv_pos_as_xyz
  1  'x, y, z'
loop_
 _atom_site_type_symbol
 _atom_site_label
 _atom_site_symmetry_multiplicity
 _atom_site_fract_x
 _atom_site_fract_y
 _atom_site_fract_z
 _atom_site_occupancy
  Sr  Sr0  1  0.00000000  0.60672900  0.16666700  1
  Sr  Sr1  1  0.60672900  0.00000000  0.83333300  1
  Sr  Sr2  1  0.39327100  0.39327100  0.50000000  1
  B  B3  1  0.90170900  0.90170900  0.50000000  1
  B  B4  1  0.00000000  0.09829100  0.16666700  1
  B  B5  1  0.09829100  0.00000000  0.83333300  1
  P  P6  1  0.00000000  0.59624800  0.66666700  1
  P  P7  1  0.59624800  0.00000000  0.33333300  1
  P  P8  1  0.40375200  0.40375200  0.00000000  1
  O  O9  1  0.00000000  0.04326800  0.66666700  1
  O  O10  1  0.95673200  0.95673200  0.00000000  1
  O  O11  1  0.04326800  0.00000000  0.33333300  1
  O  O12  1  0.44732900  0.58601400  0.85609400  1
  O  O13  1  0.41398600  0.86131500  0.18942700  1
  O  O14  1  0.13868500  0.55267100  0.52276000  1
  O  O15  1  0.33609300  0.18731000  0.87098800  1
  O  O16  1  0.81269000  0.14878300  0.20432200  1
  O  O17  1  0.85121700  0.66390700  0.53765500  1
  O  O18  1  0.14878300  0.81269000  0.79567800  1
  O  O19  1  0.66390700  0.85121700  0.46234500  1
  O  O20  1  0.18731000  0.33609300  0.12901200  1
  O  O21  1  0.58601400  0.44732900  0.14390600  1
  O  O22  1  0.55267100  0.13868500  0.47724000  1
  O  O23  1  0.86131500  0.41398600  0.81057300  1
