# generated using pymatgen
data_BaP2(HO)4
_symmetry_space_group_name_H-M   'P 1'
_cell_length_a   8.63284961
_cell_length_b   8.63284961
_cell_length_c   6.29218400
_cell_angle_alpha   90.00000000
_cell_angle_beta   90.00000000
_cell_angle_gamma   136.89794695
_symmetry_Int_Tables_number   1
_chemical_formula_structural   BaP2(HO)4
_chemical_formula_sum   'Ba2 P4 H8 O8'
_cell_volume   320.42112810
_cell_formula_units_Z   2
loop_
 _symmetry_equiv_pos_site_id
 _symmetry_equiv_pos_as_xyz
  1  'x, y, z'
loop_
 _atom_site_type_symbol
 _atom_site_label
 _atom_site_symmetry_multiplicity
 _atom_site_fract_x
 _atom_site_fract_y
 _atom_site_fract_z
 _atom_site_occupancy
  Ba  Ba0  1  0.00000000  0.00000000  0.00000000  1
  Ba  Ba1  1  0.50000000  0.50000000  0.50000000  1
  P  P2  1  0.64005200  0.35994800  0.00000000  1
  P  P3  1  0.14005200  0.85994800  0.50000000  1
  P  P4  1  0.85994800  0.14005200  0.50000000  1
  P  P5  1  0.35994800  0.64005200  0.00000000  1
  H  H6  1  0.81782400  0.42811200  0.87372600  1
  H  H7  1  0.07188800  0.68217600  0.37372600  1
  H  H8  1  0.92811200  0.31782400  0.37372600  1
  H  H9  1  0.18217600  0.57188800  0.87372600  1
  H  H10  1  0.68217600  0.07188800  0.62627400  1
  H  H11  1  0.42811200  0.81782400  0.12627400  1
  H  H12  1  0.57188800  0.18217600  0.12627400  1
  H  H13  1  0.31782400  0.92811200  0.62627400  1
  O  O14  1  0.73790800  0.55606500  0.14590400  1
  O  O15  1  0.94393500  0.76209200  0.64590400  1
  O  O16  1  0.05606500  0.23790800  0.64590400  1
  O  O17  1  0.26209200  0.44393500  0.14590400  1
  O  O18  1  0.76209200  0.94393500  0.35409600  1
  O  O19  1  0.55606500  0.73790800  0.85409600  1
  O  O20  1  0.44393500  0.26209200  0.85409600  1
  O  O21  1  0.23790800  0.05606500  0.35409600  1
