# generated using pymatgen
data_GdCdPd
_symmetry_space_group_name_H-M   'P 1'
_cell_length_a   7.65574108
_cell_length_b   7.65574108
_cell_length_c   3.96209400
_cell_angle_alpha   90.00000000
_cell_angle_beta   90.00000000
_cell_angle_gamma   119.99999209
_symmetry_Int_Tables_number   1
_chemical_formula_structural   GdCdPd
_chemical_formula_sum   'Gd3 Cd3 Pd3'
_cell_volume   201.10826337
_cell_formula_units_Z   3
loop_
 _symmetry_equiv_pos_site_id
 _symmetry_equiv_pos_as_xyz
  1  'x, y, z'
loop_
 _atom_site_type_symbol
 _atom_site_label
 _atom_site_symmetry_multiplicity
 _atom_site_fract_x
 _atom_site_fract_y
 _atom_site_fract_z
 _atom_site_occupancy
  Gd  Gd0  1  0.59348800  0.00000000  0.00000000  1
  Gd  Gd1  1  0.40651200  0.40651200  0.00000000  1
  Gd  Gd2  1  0.00000000  0.59348800  0.00000000  1
  Cd  Cd3  1  0.25415800  0.00000000  0.50000000  1
  Cd  Cd4  1  0.74584200  0.74584200  0.50000000  1
  Cd  Cd5  1  0.00000000  0.25415800  0.50000000  1
  Pd  Pd6  1  0.66666700  0.33333300  0.50000000  1
  Pd  Pd7  1  0.33333300  0.66666700  0.50000000  1
  Pd  Pd8  1  0.00000000  0.00000000  0.00000000  1
