# generated using pymatgen
data_AlH4NF4
_symmetry_space_group_name_H-M   'P 1'
_cell_length_a   5.11482400
_cell_length_b   5.11482400
_cell_length_c   12.92595100
_cell_angle_alpha   90.00000000
_cell_angle_beta   90.00000000
_cell_angle_gamma   90.00000000
_symmetry_Int_Tables_number   1
_chemical_formula_structural   AlH4NF4
_chemical_formula_sum   'Al4 H16 N4 F16'
_cell_volume   338.16129184
_cell_formula_units_Z   4
loop_
 _symmetry_equiv_pos_site_id
 _symmetry_equiv_pos_as_xyz
  1  'x, y, z'
loop_
 _atom_site_type_symbol
 _atom_site_label
 _atom_site_symmetry_multiplicity
 _atom_site_fract_x
 _atom_site_fract_y
 _atom_site_fract_z
 _atom_site_occupancy
  Al  Al0  1  0.00000000  0.50000000  0.50000000  1
  Al  Al1  1  0.50000000  0.00000000  0.00000000  1
  Al  Al2  1  0.50000000  0.00000000  0.50000000  1
  Al  Al3  1  0.00000000  0.50000000  0.00000000  1
  H  H4  1  0.66552800  0.49850300  0.70356800  1
  H  H5  1  0.49850300  0.33447200  0.20356800  1
  H  H6  1  0.83447200  0.99850300  0.70356800  1
  H  H7  1  0.99850300  0.16552800  0.20356800  1
  H  H8  1  0.66552800  0.49850300  0.29643200  1
  H  H9  1  0.49850300  0.33447200  0.79643200  1
  H  H10  1  0.83447200  0.99850300  0.29643200  1
  H  H11  1  0.99850300  0.16552800  0.79643200  1
  H  H12  1  0.33447200  0.50149700  0.29643200  1
  H  H13  1  0.50149700  0.66552800  0.79643200  1
  H  H14  1  0.16552800  0.00149700  0.29643200  1
  H  H15  1  0.00149700  0.83447200  0.79643200  1
  H  H16  1  0.33447200  0.50149700  0.70356800  1
  H  H17  1  0.50149700  0.66552800  0.20356800  1
  H  H18  1  0.16552800  0.00149700  0.70356800  1
  H  H19  1  0.00149700  0.83447200  0.20356800  1
  N  N20  1  0.50000000  0.50000000  0.75000000  1
  N  N21  1  0.50000000  0.50000000  0.25000000  1
  N  N22  1  0.00000000  0.00000000  0.75000000  1
  N  N23  1  0.00000000  0.00000000  0.25000000  1
  F  F24  1  0.00000000  0.50000000  0.63975800  1
  F  F25  1  0.50000000  0.00000000  0.13975800  1
  F  F26  1  0.50000000  0.00000000  0.63975800  1
  F  F27  1  0.00000000  0.50000000  0.13975800  1
  F  F28  1  0.00000000  0.50000000  0.36024200  1
  F  F29  1  0.50000000  0.00000000  0.86024200  1
  F  F30  1  0.50000000  0.00000000  0.36024200  1
  F  F31  1  0.00000000  0.50000000  0.86024200  1
  F  F32  1  0.20273700  0.20304800  0.50000000  1
  F  F33  1  0.20304800  0.79726300  0.00000000  1
  F  F34  1  0.29726300  0.70304800  0.50000000  1
  F  F35  1  0.70304800  0.70273700  0.00000000  1
  F  F36  1  0.79726300  0.79695200  0.50000000  1
  F  F37  1  0.79695200  0.20273700  0.00000000  1
  F  F38  1  0.70273700  0.29695200  0.50000000  1
  F  F39  1  0.29695200  0.29726300  0.00000000  1
