# generated using pymatgen
data_KLi3Ca7Ti2Si12(O18F)2
_symmetry_space_group_name_H-M   'P 1'
_cell_length_a   9.87099868
_cell_length_b   9.87099868
_cell_length_c   21.09820408
_cell_angle_alpha   70.58401472
_cell_angle_beta   70.58401472
_cell_angle_gamma   59.86847070
_symmetry_Int_Tables_number   1
_chemical_formula_structural   KLi3Ca7Ti2Si12(O18F)2
_chemical_formula_sum   'K2 Li6 Ca14 Ti4 Si24 O72 F4'
_cell_volume   1641.94439623
_cell_formula_units_Z   2
loop_
 _symmetry_equiv_pos_site_id
 _symmetry_equiv_pos_as_xyz
  1  'x, y, z'
loop_
 _atom_site_type_symbol
 _atom_site_label
 _atom_site_symmetry_multiplicity
 _atom_site_fract_x
 _atom_site_fract_y
 _atom_site_fract_z
 _atom_site_occupancy
  K  K0  1  0.92913000  0.07087000  0.25000000  1
  K  K1  1  0.07087000  0.92913000  0.75000000  1
  Li  Li2  1  0.43555900  0.07176400  0.24874400  1
  Li  Li3  1  0.92823600  0.56444100  0.25125600  1
  Li  Li4  1  0.41750600  0.58249400  0.25000000  1
  Li  Li5  1  0.07176400  0.43555900  0.74874400  1
  Li  Li6  1  0.56444100  0.92823600  0.75125600  1
  Li  Li7  1  0.58249400  0.41750600  0.75000000  1
  Ca  Ca8  1  0.43434900  0.71121200  0.99994700  1
  Ca  Ca9  1  0.71121200  0.43434900  0.49994700  1
  Ca  Ca10  1  0.86190600  0.42815100  0.99337400  1
  Ca  Ca11  1  0.14750300  0.29253100  0.48737200  1
  Ca  Ca12  1  0.70746900  0.85249700  0.01262800  1
  Ca  Ca13  1  0.56565100  0.28878800  0.00005300  1
  Ca  Ca14  1  0.00000000  0.00000000  0.00000000  1
  Ca  Ca15  1  0.13809400  0.57184900  0.00662600  1
  Ca  Ca16  1  0.42815100  0.86190600  0.49337400  1
  Ca  Ca17  1  0.28878800  0.56565100  0.50005300  1
  Ca  Ca18  1  0.29253100  0.14750300  0.98737200  1
  Ca  Ca19  1  0.85249700  0.70746900  0.51262800  1
  Ca  Ca20  1  0.00000000  0.00000000  0.50000000  1
  Ca  Ca21  1  0.57184900  0.13809400  0.50662600  1
  Ti  Ti22  1  0.40479100  0.26412800  0.74835100  1
  Ti  Ti23  1  0.73587200  0.59520900  0.75164900  1
  Ti  Ti24  1  0.59520900  0.73587200  0.25164900  1
  Ti  Ti25  1  0.26412800  0.40479100  0.24835100  1
  Si  Si26  1  0.12043100  0.65105200  0.36071900  1
  Si  Si27  1  0.10756300  0.75463700  0.13973400  1
  Si  Si28  1  0.73389900  0.00438300  0.14011800  1
  Si  Si29  1  0.24673800  0.23051300  0.63760600  1
  Si  Si30  1  0.26610100  0.99561700  0.85988200  1
  Si  Si31  1  0.89243700  0.24536300  0.86026600  1
  Si  Si32  1  0.87956900  0.34894800  0.63928100  1
  Si  Si33  1  0.99561700  0.26610100  0.35988200  1
  Si  Si34  1  0.14112300  0.51068100  0.85952200  1
  Si  Si35  1  0.61164400  0.37096500  0.13927100  1
  Si  Si36  1  0.75326200  0.76948700  0.36239400  1
  Si  Si37  1  0.76948700  0.75326200  0.86239400  1
  Si  Si38  1  0.48931900  0.85887700  0.64047800  1
  Si  Si39  1  0.62903500  0.38835600  0.36072900  1
  Si  Si40  1  0.51068100  0.14112300  0.35952200  1
  Si  Si41  1  0.24536300  0.89243700  0.36026600  1
  Si  Si42  1  0.23051300  0.24673800  0.13760600  1
  Si  Si43  1  0.34894800  0.87956900  0.13928100  1
  Si  Si44  1  0.00438300  0.73389900  0.64011800  1
  Si  Si45  1  0.75463700  0.10756300  0.63973400  1
  Si  Si46  1  0.38835600  0.62903500  0.86072900  1
  Si  Si47  1  0.37096500  0.61164400  0.63927100  1
  Si  Si48  1  0.85887700  0.48931900  0.14047800  1
  Si  Si49  1  0.65105200  0.12043100  0.86071900  1
  O  O50  1  0.67804100  0.17569200  0.15912000  1
  O  O51  1  0.40746600  0.88661800  0.30573000  1
  O  O52  1  0.93902600  0.74341100  0.34531400  1
  O  O53  1  0.30179900  0.30051700  0.05651100  1
  O  O54  1  0.72855300  0.02967400  0.06048800  1
  O  O55  1  0.11623500  0.56349900  0.44167700  1
  O  O56  1  0.74341100  0.93902600  0.84531400  1
  O  O57  1  0.26247800  0.30883300  0.68967500  1
  O  O58  1  0.83002100  0.26327600  0.94030000  1
  O  O59  1  0.69820100  0.69948300  0.94348900  1
  O  O60  1  0.56349900  0.11623500  0.94167700  1
  O  O61  1  0.55561900  0.54735200  0.80872400  1
  O  O62  1  0.24791400  0.60650700  0.84553800  1
  O  O63  1  0.24261100  0.53182300  0.30816400  1
  O  O64  1  0.11338200  0.59253400  0.19427000  1
  O  O65  1  0.97032600  0.27144700  0.43951200  1
  O  O66  1  0.92232100  0.89887800  0.14820400  1
  O  O67  1  0.39814200  0.55941400  0.94203500  1
  O  O68  1  0.26327600  0.83002100  0.44030000  1
  O  O69  1  0.89887800  0.92232100  0.64820400  1
  O  O70  1  0.21163000  0.39830200  0.80428500  1
  O  O71  1  0.55941400  0.39814200  0.44203500  1
  O  O72  1  0.45264800  0.44438100  0.69127600  1
  O  O73  1  0.25658900  0.06097400  0.15468600  1
  O  O74  1  0.39349300  0.75208600  0.65446200  1
  O  O75  1  0.17569200  0.67804100  0.65912000  1
  O  O76  1  0.92651200  0.62071400  0.69566100  1
  O  O77  1  0.54735200  0.55561900  0.30872400  1
  O  O78  1  0.62071400  0.92651200  0.19566100  1
  O  O79  1  0.96471400  0.65016800  0.84467100  1
  O  O80  1  0.75208600  0.39349300  0.15446200  1
  O  O81  1  0.02967400  0.72855300  0.56048800  1
  O  O82  1  0.88376500  0.43650100  0.55832300  1
  O  O83  1  0.78837000  0.60169800  0.19571500  1
  O  O84  1  0.60185800  0.44058600  0.05796500  1
  O  O85  1  0.73672400  0.16997900  0.55970000  1
  O  O86  1  0.12399200  0.41776700  0.93952800  1
  O  O87  1  0.41776700  0.12399200  0.43952800  1
  O  O88  1  0.37928600  0.07348800  0.80433900  1
  O  O89  1  0.69948300  0.69820100  0.44348900  1
  O  O90  1  0.30883300  0.26247800  0.18967500  1
  O  O91  1  0.73752200  0.69116700  0.31032500  1
  O  O92  1  0.69116700  0.73752200  0.81032500  1
  O  O93  1  0.16997900  0.73672400  0.05970000  1
  O  O94  1  0.75738900  0.46817700  0.69183600  1
  O  O95  1  0.79451400  0.17563900  0.84080300  1
  O  O96  1  0.43650100  0.88376500  0.05832300  1
  O  O97  1  0.20548600  0.82436100  0.15919700  1
  O  O98  1  0.06097400  0.25658900  0.65468600  1
  O  O99  1  0.10112200  0.07767900  0.35179600  1
  O  O100  1  0.58223300  0.87600800  0.56047200  1
  O  O101  1  0.34983200  0.03528600  0.65532900  1
  O  O102  1  0.87600800  0.58223300  0.06047200  1
  O  O103  1  0.44438100  0.45264800  0.19127600  1
  O  O104  1  0.07348800  0.37928600  0.30433900  1
  O  O105  1  0.82430800  0.32195900  0.34088000  1
  O  O106  1  0.17563900  0.79451400  0.34080300  1
  O  O107  1  0.60169800  0.78837000  0.69571500  1
  O  O108  1  0.60650700  0.24791400  0.34553800  1
  O  O109  1  0.30051700  0.30179900  0.55651100  1
  O  O110  1  0.82436100  0.20548600  0.65919700  1
  O  O111  1  0.44058600  0.60185800  0.55796500  1
  O  O112  1  0.53182300  0.24261100  0.80816400  1
  O  O113  1  0.46817700  0.75738900  0.19183600  1
  O  O114  1  0.07767900  0.10112200  0.85179600  1
  O  O115  1  0.59253400  0.11338200  0.69427000  1
  O  O116  1  0.32195900  0.82430800  0.84088000  1
  O  O117  1  0.88661800  0.40746600  0.80573000  1
  O  O118  1  0.27144700  0.97032600  0.93951200  1
  O  O119  1  0.03528600  0.34983200  0.15532900  1
  O  O120  1  0.39830200  0.21163000  0.30428500  1
  O  O121  1  0.65016800  0.96471400  0.34467100  1
  F  F122  1  0.17341200  0.03472300  0.53647100  1
  F  F123  1  0.96527700  0.82658800  0.96352900  1
  F  F124  1  0.03472300  0.17341200  0.03647100  1
  F  F125  1  0.82658800  0.96527700  0.46352900  1
