# generated using pymatgen
data_RbTi2(PO4)3
_symmetry_space_group_name_H-M   'P 1'
_cell_length_a   9.31094390
_cell_length_b   9.31094390
_cell_length_c   9.31094337
_cell_angle_alpha   53.89556013
_cell_angle_beta   53.89556013
_cell_angle_gamma   53.89555789
_symmetry_Int_Tables_number   1
_chemical_formula_structural   RbTi2(PO4)3
_chemical_formula_sum   'Rb2 Ti4 P6 O24'
_cell_volume   489.36145314
_cell_formula_units_Z   2
loop_
 _symmetry_equiv_pos_site_id
 _symmetry_equiv_pos_as_xyz
  1  'x, y, z'
loop_
 _atom_site_type_symbol
 _atom_site_label
 _atom_site_symmetry_multiplicity
 _atom_site_fract_x
 _atom_site_fract_y
 _atom_site_fract_z
 _atom_site_occupancy
  Rb  Rb0  1  0.00000000  0.00000000  0.00000000  1
  Rb  Rb1  1  0.50000000  0.50000000  0.50000000  1
  Ti  Ti2  1  0.15084300  0.15084300  0.15084300  1
  Ti  Ti3  1  0.34915700  0.34915700  0.34915700  1
  Ti  Ti4  1  0.84915700  0.84915700  0.84915700  1
  Ti  Ti5  1  0.65084300  0.65084300  0.65084300  1
  P  P6  1  0.25000000  0.97015300  0.52984700  1
  P  P7  1  0.52984700  0.25000000  0.97015300  1
  P  P8  1  0.97015300  0.52984700  0.25000000  1
  P  P9  1  0.75000000  0.02984700  0.47015300  1
  P  P10  1  0.47015300  0.75000000  0.02984700  1
  P  P11  1  0.02984700  0.47015300  0.75000000  1
  O  O12  1  0.98817400  0.34771600  0.26144000  1
  O  O13  1  0.26144000  0.98817400  0.34771600  1
  O  O14  1  0.34771600  0.26144000  0.98817400  1
  O  O15  1  0.51182600  0.23856000  0.15228400  1
  O  O16  1  0.15228400  0.51182600  0.23856000  1
  O  O17  1  0.23856000  0.15228400  0.51182600  1
  O  O18  1  0.01182600  0.65228400  0.73856000  1
  O  O19  1  0.73856000  0.01182600  0.65228400  1
  O  O20  1  0.65228400  0.73856000  0.01182600  1
  O  O21  1  0.48817400  0.76144000  0.84771600  1
  O  O22  1  0.84771600  0.48817400  0.76144000  1
  O  O23  1  0.76144000  0.84771600  0.48817400  1
  O  O24  1  0.93168500  0.07035600  0.30229200  1
  O  O25  1  0.07035600  0.30229200  0.93168500  1
  O  O26  1  0.30229200  0.93168500  0.07035600  1
  O  O27  1  0.42964400  0.56831500  0.19770800  1
  O  O28  1  0.56831500  0.19770800  0.42964400  1
  O  O29  1  0.19770800  0.42964400  0.56831500  1
  O  O30  1  0.06831500  0.92964400  0.69770800  1
  O  O31  1  0.92964400  0.69770800  0.06831500  1
  O  O32  1  0.69770800  0.06831500  0.92964400  1
  O  O33  1  0.57035600  0.43168500  0.80229200  1
  O  O34  1  0.43168500  0.80229200  0.57035600  1
  O  O35  1  0.80229200  0.57035600  0.43168500  1
