# generated using pymatgen
data_LaSb(SBr)2
_symmetry_space_group_name_H-M   'P 1'
_cell_length_a   9.34854200
_cell_length_b   8.85681900
_cell_length_c   17.60124145
_cell_angle_alpha   75.91111470
_cell_angle_beta   90.00000000
_cell_angle_gamma   90.00000000
_symmetry_Int_Tables_number   1
_chemical_formula_structural   LaSb(SBr)2
_chemical_formula_sum   'La8 Sb8 S16 Br16'
_cell_volume   1413.51536849
_cell_formula_units_Z   8
loop_
 _symmetry_equiv_pos_site_id
 _symmetry_equiv_pos_as_xyz
  1  'x, y, z'
loop_
 _atom_site_type_symbol
 _atom_site_label
 _atom_site_symmetry_multiplicity
 _atom_site_fract_x
 _atom_site_fract_y
 _atom_site_fract_z
 _atom_site_occupancy
  La  La0  1  0.36505300  0.61349900  0.26338000  1
  La  La1  1  0.62989800  0.87720100  0.74430600  1
  La  La2  1  0.12989800  0.12279900  0.75569400  1
  La  La3  1  0.63494700  0.38650100  0.73662000  1
  La  La4  1  0.87010200  0.87720100  0.24430600  1
  La  La5  1  0.37010200  0.12279900  0.25569400  1
  La  La6  1  0.86505300  0.38650100  0.23662000  1
  La  La7  1  0.13494700  0.61349900  0.76338000  1
  Sb  Sb8  1  0.65945200  0.72698900  0.05363900  1
  Sb  Sb9  1  0.95474200  0.26907800  0.95442800  1
  Sb  Sb10  1  0.84054800  0.72698900  0.55363900  1
  Sb  Sb11  1  0.04525800  0.73092200  0.04557200  1
  Sb  Sb12  1  0.34054800  0.27301100  0.94636100  1
  Sb  Sb13  1  0.54525800  0.26907800  0.45442800  1
  Sb  Sb14  1  0.45474200  0.73092200  0.54557200  1
  Sb  Sb15  1  0.15945200  0.27301100  0.44636100  1
  S  S16  1  0.56523300  0.33731000  0.31054200  1
  S  S17  1  0.16619500  0.33976000  0.30301900  1
  S  S18  1  0.35150500  0.07303100  0.44772500  1
  S  S19  1  0.66619500  0.66024000  0.19698100  1
  S  S20  1  0.83380500  0.66024000  0.69698100  1
  S  S21  1  0.14849500  0.07303100  0.94772500  1
  S  S22  1  0.64849500  0.92696900  0.55227500  1
  S  S23  1  0.93476700  0.33731000  0.81054200  1
  S  S24  1  0.85051800  0.52614700  0.05209200  1
  S  S25  1  0.14948200  0.47385300  0.94790800  1
  S  S26  1  0.43476700  0.66269000  0.68945800  1
  S  S27  1  0.33380500  0.33976000  0.80301900  1
  S  S28  1  0.06523300  0.66269000  0.18945800  1
  S  S29  1  0.85150500  0.92696900  0.05227500  1
  S  S30  1  0.35051800  0.47385300  0.44790800  1
  S  S31  1  0.64948200  0.52614700  0.55209200  1
  Br  Br32  1  0.32436800  0.84219400  0.83453400  1
  Br  Br33  1  0.62728700  0.07782600  0.86766000  1
  Br  Br34  1  0.87271300  0.07782600  0.36766000  1
  Br  Br35  1  0.43943000  0.16141100  0.65954700  1
  Br  Br36  1  0.37271300  0.92217400  0.13234000  1
  Br  Br37  1  0.37551400  0.44493000  0.12766200  1
  Br  Br38  1  0.17563200  0.84219400  0.33453400  1
  Br  Br39  1  0.12448600  0.44493000  0.62766200  1
  Br  Br40  1  0.62448600  0.55507000  0.87233800  1
  Br  Br41  1  0.82436800  0.15780600  0.66546600  1
  Br  Br42  1  0.87551400  0.55507000  0.37233800  1
  Br  Br43  1  0.93943000  0.83858900  0.84045300  1
  Br  Br44  1  0.67563200  0.15780600  0.16546600  1
  Br  Br45  1  0.12728700  0.92217400  0.63234000  1
  Br  Br46  1  0.06057000  0.16141100  0.15954700  1
  Br  Br47  1  0.56057000  0.83858900  0.34045300  1
