# generated using pymatgen
data_Gd3P4Pd7
_symmetry_space_group_name_H-M   'P 1'
_cell_length_a   8.01058943
_cell_length_b   8.01058943
_cell_length_c   9.48086331
_cell_angle_alpha   55.46541266
_cell_angle_beta   55.46541266
_cell_angle_gamma   29.15705737
_symmetry_Int_Tables_number   1
_chemical_formula_structural   Gd3P4Pd7
_chemical_formula_sum   'Gd3 P4 Pd7'
_cell_volume   240.23282817
_cell_formula_units_Z   1
loop_
 _symmetry_equiv_pos_site_id
 _symmetry_equiv_pos_as_xyz
  1  'x, y, z'
loop_
 _atom_site_type_symbol
 _atom_site_label
 _atom_site_symmetry_multiplicity
 _atom_site_fract_x
 _atom_site_fract_y
 _atom_site_fract_z
 _atom_site_occupancy
  Gd  Gd0  1  0.68051300  0.68051300  0.82256400  1
  Gd  Gd1  1  0.31948700  0.31948700  0.17743600  1
  Gd  Gd2  1  0.00000000  0.00000000  0.50000000  1
  P  P3  1  0.34074100  0.34074100  0.75401500  1
  P  P4  1  0.65925900  0.65925900  0.24598500  1
  P  P5  1  0.10560500  0.10560500  0.67959700  1
  P  P6  1  0.89439500  0.89439500  0.32040300  1
  Pd  Pd7  1  0.69471800  0.69471800  0.47070400  1
  Pd  Pd8  1  0.50923900  0.50923900  0.21655000  1
  Pd  Pd9  1  0.16797100  0.16797100  0.07826200  1
  Pd  Pd10  1  0.30528200  0.30528200  0.52929600  1
  Pd  Pd11  1  0.83202900  0.83202900  0.92173800  1
  Pd  Pd12  1  0.00000000  0.00000000  0.00000000  1
  Pd  Pd13  1  0.49076100  0.49076100  0.78345000  1
