# generated using pymatgen
data_Li5SiN3
_symmetry_space_group_name_H-M   'P 1'
_cell_length_a   8.17076100
_cell_length_b   8.19531751
_cell_length_c   20.64413058
_cell_angle_alpha   97.61860635
_cell_angle_beta   97.28310445
_cell_angle_gamma   109.31994694
_symmetry_Int_Tables_number   1
_chemical_formula_structural   Li5SiN3
_chemical_formula_sum   'Li80 Si16 N48'
_cell_volume   1271.31148331
_cell_formula_units_Z   16
loop_
 _symmetry_equiv_pos_site_id
 _symmetry_equiv_pos_as_xyz
  1  'x, y, z'
loop_
 _atom_site_type_symbol
 _atom_site_label
 _atom_site_symmetry_multiplicity
 _atom_site_fract_x
 _atom_site_fract_y
 _atom_site_fract_z
 _atom_site_occupancy
  Li  Li0  1  0.05808800  0.59347500  0.92040500  1
  Li  Li1  1  0.12050500  0.09153300  0.92232400  1
  Li  Li2  1  0.33483700  0.79447600  0.92201400  1
  Li  Li3  1  0.44261500  0.71277800  0.82900200  1
  Li  Li4  1  0.40710800  0.94538600  0.58674200  1
  Li  Li5  1  0.29694800  0.57641900  0.64401000  1
  Li  Li6  1  0.37642500  0.35212500  0.90633500  1
  Li  Li7  1  0.50136500  0.96691300  0.76045700  1
  Li  Li8  1  0.60023900  0.63244500  0.92503500  1
  Li  Li9  1  0.42206600  0.15918200  0.82391400  1
  Li  Li10  1  0.73106400  0.92584500  0.84602900  1
  Li  Li11  1  0.69807300  0.11980700  0.58740900  1
  Li  Li12  1  0.76682800  0.74716700  0.75330700  1
  Li  Li13  1  0.58665600  0.28180100  0.66446300  1
  Li  Li14  1  0.64771100  0.43883400  0.83912000  1
  Li  Li15  1  0.85091600  0.10717700  0.68776600  1
  Li  Li16  1  0.77201600  0.01820200  0.48090700  1
  Li  Li17  1  0.65007900  0.90318900  0.31809800  1
  Li  Li18  1  0.74435900  0.28953800  0.25330200  1
  Li  Li19  1  0.70367800  0.68411700  0.57922900  1
  Li  Li20  1  0.82694200  0.32414400  0.42262400  1
  Li  Li21  1  0.86745800  0.84316100  0.92811800  1
  Li  Li22  1  0.08099300  0.59265200  0.43187400  1
  Li  Li23  1  0.73082100  0.24097500  0.76544300  1
  Li  Li24  1  0.81674300  0.82227800  0.40132600  1
  Li  Li25  1  0.80028700  0.34866800  0.91449400  1
  Li  Li26  1  0.80062700  0.56840600  0.66362000  1
  Li  Li27  1  0.99444900  0.00039700  0.75678000  1
  Li  Li28  1  0.90877600  0.94514500  0.58492000  1
  Li  Li29  1  0.89351300  0.65589200  0.84031300  1
  Li  Li30  1  0.75015400  0.50492100  0.49546400  1
  Li  Li31  1  0.03225300  0.25165800  0.48718200  1
  Li  Li32  1  0.02788500  0.47555300  0.25976300  1
  Li  Li33  1  0.04959600  0.83283400  0.66880500  1
  Li  Li34  1  0.94954300  0.49831100  0.74628500  1
  Li  Li35  1  0.93471400  0.18037400  0.84364000  1
  Li  Li36  1  0.96331800  0.77400200  0.49337000  1
  Li  Li37  1  0.91326200  0.62932500  0.34105800  1
  Li  Li38  1  0.06623500  0.04730100  0.40481000  1
  Li  Li39  1  0.18754500  0.44576600  0.35708800  1
  Li  Li40  1  0.10612700  0.38407400  0.15844900  1
  Li  Li41  1  0.97003900  0.23665100  0.98088900  1
  Li  Li42  1  0.03380600  0.01572200  0.24384600  1
  Li  Li43  1  0.14962500  0.64131600  0.08628300  1
  Li  Li44  1  0.13789100  0.71134200  0.57905200  1
  Li  Li45  1  0.32935300  0.33488100  0.42925200  1
  Li  Li46  1  0.22493000  0.71459900  0.73412600  1
  Li  Li47  1  0.14116900  0.88782200  0.33043200  1
  Li  Li48  1  0.09080200  0.35606600  0.68007800  1
  Li  Li49  1  0.33374000  0.04572900  0.68091600  1
  Li  Li50  1  0.08611400  0.83086100  0.15776500  1
  Li  Li51  1  0.22608500  0.97559800  0.49539200  1
  Li  Li52  1  0.23791200  0.28398400  0.25285200  1
  Li  Li53  1  0.37307500  0.59727300  0.15422600  1
  Li  Li54  1  0.37530500  0.16346900  0.33468000  1
  Li  Li55  1  0.30598900  0.83057100  0.41101800  1
  Li  Li56  1  0.22865800  0.22163200  0.74798100  1
  Li  Li57  1  0.31420500  0.09790400  0.17211000  1
  Li  Li58  1  0.23545300  0.94921800  0.00129400  1
  Li  Li59  1  0.43985500  0.41008200  0.08172200  1
  Li  Li60  1  0.51876100  0.78109200  0.01102300  1
  Li  Li61  1  0.26056800  0.52036900  0.51415200  1
  Li  Li62  1  0.40277900  0.90751900  0.09482600  1
  Li  Li63  1  0.49703200  0.04254500  0.25061700  1
  Li  Li64  1  0.66268900  0.67543300  0.08932300  1
  Li  Li65  1  0.56874700  0.06043900  0.39822200  1
  Li  Li66  1  0.47366100  0.44573900  0.59160600  1
  Li  Li67  1  0.65542500  0.39263700  0.34380100  1
  Li  Li68  1  0.42945800  0.68072400  0.34348900  1
  Li  Li69  1  0.56344600  0.30240700  0.16269900  1
  Li  Li70  1  0.45465200  0.23063400  0.99349200  1
  Li  Li71  1  0.70864000  0.48568200  0.99647200  1
  Li  Li72  1  0.61616000  0.14994700  0.07072800  1
  Li  Li73  1  0.57853800  0.57411800  0.41707400  1
  Li  Li74  1  0.60278700  0.85705000  0.18023100  1
  Li  Li75  1  0.88188800  0.38085400  0.06483900  1
  Li  Li76  1  0.97519400  0.71212700  0.00727400  1
  Li  Li77  1  0.80379600  0.76544200  0.26003300  1
  Li  Li78  1  0.76162200  0.00867600  0.00644600  1
  Li  Li79  1  0.90448100  0.90193500  0.08183400  1
  Si  Si80  1  0.57971100  0.06717900  0.91413600  1
  Si  Si81  1  0.51846700  0.22516900  0.50359400  1
  Si  Si82  1  0.48194700  0.49215900  0.73705900  1
  Si  Si83  1  0.59103800  0.83157600  0.66292500  1
  Si  Si84  1  0.93305900  0.41396400  0.57982100  1
  Si  Si85  1  0.84802600  0.56335600  0.16748500  1
  Si  Si86  1  0.92520800  0.18084000  0.33010900  1
  Si  Si87  1  0.26985700  0.75022200  0.24447300  1
  Si  Si88  1  0.17344100  0.89855900  0.83191300  1
  Si  Si89  1  0.19758400  0.18399700  0.59100900  1
  Si  Si90  1  0.17230900  0.44544900  0.82870000  1
  Si  Si91  1  0.15809600  0.16745200  0.07354700  1
  Si  Si92  1  0.26331600  0.50381400  0.99464100  1
  Si  Si93  1  0.52272900  0.50900600  0.25305800  1
  Si  Si94  1  0.51185200  0.77111500  0.50071400  1
  Si  Si95  1  0.84169300  0.11413000  0.16340500  1
  N  N96  1  0.34061000  0.04268900  0.90333500  1
  N  N97  1  0.13986900  0.37887200  0.91028600  1
  N  N98  1  0.38844300  0.44468200  0.81225500  1
  N  N99  1  0.58455100  0.04304800  0.67361700  1
  N  N100  1  0.68952800  0.36508100  0.57453000  1
  N  N101  1  0.48952400  0.70968100  0.72618900  1
  N  N102  1  0.59180500  0.86152300  0.91905000  1
  N  N103  1  0.45710500  0.70888400  0.58203000  1
  N  N104  1  0.69131000  0.48135000  0.74602800  1
  N  N105  1  0.72363200  0.77222000  0.49802100  1
  N  N106  1  0.69972200  0.22055400  0.98671400  1
  N  N107  1  0.81711800  0.58593700  0.92079700  1
  N  N108  1  0.80639900  0.83696000  0.66781600  1
  N  N109  1  0.65892200  0.14084700  0.84375300  1
  N  N110  1  0.02271600  0.70751000  0.23669900  1
  N  N111  1  0.92034200  0.39281900  0.33737200  1
  N  N112  1  0.83119200  0.08092100  0.39368800  1
  N  N113  1  0.97980700  0.21028300  0.58287500  1
  N  N114  1  0.96785600  0.91352900  0.83985400  1
  N  N115  1  0.79918700  0.05438500  0.24443500  1
  N  N116  1  0.23530400  0.96707100  0.75896000  1
  N  N117  1  0.01530400  0.28671400  0.76594300  1
  N  N118  1  0.06610600  0.82141000  0.41492200  1
  N  N119  1  0.06436400  0.12270900  0.15329800  1
  N  N120  1  0.04267800  0.56438800  0.65309100  1
  N  N121  1  0.16489200  0.96527400  0.59115700  1
  N  N122  1  0.16515100  0.66479600  0.82981400  1
  N  N123  1  0.14044600  0.18006500  0.33222800  1
  N  N124  1  0.99571800  0.49064700  0.50983300  1
  N  N125  1  0.01573300  0.01720700  0.00767300  1
  N  N126  1  0.30655300  0.24930700  0.52175300  1
  N  N127  1  0.16978200  0.39145200  0.06327400  1
  N  N128  1  0.30161100  0.53896500  0.24281000  1
  N  N129  1  0.24523600  0.71022000  0.00544500  1
  N  N130  1  0.56125400  0.30311000  0.43106900  1
  N  N131  1  0.35710100  0.61657200  0.43642300  1
  N  N132  1  0.36953800  0.15603500  0.08325100  1
  N  N133  1  0.48778000  0.28649000  0.25147900  1
  N  N134  1  0.38582000  0.89544900  0.31775500  1
  N  N135  1  0.50888200  0.99932400  0.50065800  1
  N  N136  1  0.33531700  0.33378200  0.66575400  1
  N  N137  1  0.33194400  0.82934900  0.17467100  1
  N  N138  1  0.47603800  0.50683000  0.00023400  1
  N  N139  1  0.62980700  0.57420000  0.18042800  1
  N  N140  1  0.89446000  0.63590500  0.09481500  1
  N  N141  1  0.68699600  0.95429900  0.10068300  1
  N  N142  1  0.65363200  0.64548200  0.32437200  1
  N  N143  1  0.83743400  0.33685400  0.16488200  1
