# generated using pymatgen
data_Ni3P4PbO14
_symmetry_space_group_name_H-M   'P 1'
_cell_length_a   7.79602200
_cell_length_b   7.48570900
_cell_length_c   9.52959647
_cell_angle_alpha   67.96362763
_cell_angle_beta   90.00000000
_cell_angle_gamma   90.00000000
_symmetry_Int_Tables_number   1
_chemical_formula_structural   Ni3P4PbO14
_chemical_formula_sum   'Ni6 P8 Pb2 O28'
_cell_volume   515.50736753
_cell_formula_units_Z   2
loop_
 _symmetry_equiv_pos_site_id
 _symmetry_equiv_pos_as_xyz
  1  'x, y, z'
loop_
 _atom_site_type_symbol
 _atom_site_label
 _atom_site_symmetry_multiplicity
 _atom_site_fract_x
 _atom_site_fract_y
 _atom_site_fract_z
 _atom_site_occupancy
  Ni  Ni0  1  0.62408100  0.81534500  0.02603200  1
  Ni  Ni1  1  0.87591900  0.81534500  0.52603200  1
  Ni  Ni2  1  0.37591900  0.18465500  0.97396800  1
  Ni  Ni3  1  0.12408100  0.18465500  0.47396800  1
  Ni  Ni4  1  0.00000000  0.00000000  0.00000000  1
  Ni  Ni5  1  0.50000000  0.00000000  0.50000000  1
  P  P6  1  0.55800200  0.60377600  0.79851100  1
  P  P7  1  0.20227800  0.89055900  0.30476900  1
  P  P8  1  0.44199800  0.39622400  0.20148900  1
  P  P9  1  0.05800200  0.39622400  0.70148900  1
  P  P10  1  0.70227800  0.10944100  0.19523100  1
  P  P11  1  0.79772200  0.10944100  0.69523100  1
  P  P12  1  0.29772200  0.89055900  0.80476900  1
  P  P13  1  0.94199800  0.60377600  0.29851100  1
  Pb  Pb14  1  0.50000000  0.50000000  0.50000000  1
  Pb  Pb15  1  0.00000000  0.50000000  0.00000000  1
  O  O16  1  0.12096900  0.26715100  0.86351400  1
  O  O17  1  0.87072500  0.31554000  0.68412900  1
  O  O18  1  0.62620100  0.15256400  0.61284700  1
  O  O19  1  0.37072500  0.68446000  0.81587100  1
  O  O20  1  0.87903100  0.73284900  0.13648600  1
  O  O21  1  0.12620100  0.84743600  0.88715300  1
  O  O22  1  0.47749600  0.60061200  0.19288400  1
  O  O23  1  0.42541800  0.97274100  0.88745000  1
  O  O24  1  0.57458200  0.02725900  0.11255000  1
  O  O25  1  0.37379900  0.84743600  0.38715300  1
  O  O26  1  0.67400600  0.62327500  0.92021200  1
  O  O27  1  0.92541800  0.02725900  0.61255000  1
  O  O28  1  0.12927500  0.68446000  0.31587100  1
  O  O29  1  0.82599400  0.62327500  0.42021200  1
  O  O30  1  0.29093800  0.00433100  0.63365100  1
  O  O31  1  0.17400600  0.37672500  0.57978800  1
  O  O32  1  0.62927500  0.31554000  0.18412900  1
  O  O33  1  0.37903100  0.26715100  0.36351400  1
  O  O34  1  0.62096900  0.73284900  0.63648600  1
  O  O35  1  0.02250400  0.60061200  0.69288400  1
  O  O36  1  0.70906200  0.99566900  0.36634900  1
  O  O37  1  0.32599400  0.37672500  0.07978800  1
  O  O38  1  0.79093800  0.99566900  0.86634900  1
  O  O39  1  0.07458200  0.97274100  0.38745000  1
  O  O40  1  0.87379900  0.15256400  0.11284700  1
  O  O41  1  0.52250400  0.39938800  0.80711600  1
  O  O42  1  0.97749600  0.39938800  0.30711600  1
  O  O43  1  0.20906200  0.00433100  0.13365100  1
