# generated using pymatgen
data_Gd3S3N
_symmetry_space_group_name_H-M   'P 1'
_cell_length_a   3.89130000
_cell_length_b   12.01583800
_cell_length_c   12.90900000
_cell_angle_alpha   90.00000000
_cell_angle_beta   90.00000000
_cell_angle_gamma   90.00000000
_symmetry_Int_Tables_number   1
_chemical_formula_structural   Gd3S3N
_chemical_formula_sum   'Gd12 S12 N4'
_cell_volume   603.58908735
_cell_formula_units_Z   4
loop_
 _symmetry_equiv_pos_site_id
 _symmetry_equiv_pos_as_xyz
  1  'x, y, z'
loop_
 _atom_site_type_symbol
 _atom_site_label
 _atom_site_symmetry_multiplicity
 _atom_site_fract_x
 _atom_site_fract_y
 _atom_site_fract_z
 _atom_site_occupancy
  Gd  Gd0  1  0.75000000  0.21683900  0.63785100  1
  Gd  Gd1  1  0.25000000  0.95487800  0.64449400  1
  Gd  Gd2  1  0.25000000  0.45487800  0.85550600  1
  Gd  Gd3  1  0.75000000  0.57312800  0.62965800  1
  Gd  Gd4  1  0.25000000  0.78316100  0.36214900  1
  Gd  Gd5  1  0.25000000  0.28316100  0.13785100  1
  Gd  Gd6  1  0.75000000  0.04512200  0.35550600  1
  Gd  Gd7  1  0.75000000  0.71683900  0.86214900  1
  Gd  Gd8  1  0.75000000  0.54512200  0.14449400  1
  Gd  Gd9  1  0.25000000  0.92687200  0.12965800  1
  Gd  Gd10  1  0.75000000  0.07312800  0.87034200  1
  Gd  Gd11  1  0.25000000  0.42687200  0.37034200  1
  S  S12  1  0.25000000  0.63529000  0.99343500  1
  S  S13  1  0.25000000  0.72704400  0.69400000  1
  S  S14  1  0.75000000  0.86471000  0.49343500  1
  S  S15  1  0.25000000  0.22704400  0.80600000  1
  S  S16  1  0.25000000  0.91043700  0.89859400  1
  S  S17  1  0.75000000  0.77295600  0.19400000  1
  S  S18  1  0.25000000  0.13529000  0.50656500  1
  S  S19  1  0.75000000  0.27295600  0.30600000  1
  S  S20  1  0.75000000  0.36471000  0.00656500  1
  S  S21  1  0.75000000  0.58956300  0.39859400  1
  S  S22  1  0.75000000  0.08956300  0.10140600  1
  S  S23  1  0.25000000  0.41043700  0.60140600  1
  N  N24  1  0.25000000  0.45989100  0.20220000  1
  N  N25  1  0.25000000  0.95989100  0.29780000  1
  N  N26  1  0.75000000  0.54010900  0.79780000  1
  N  N27  1  0.75000000  0.04010900  0.70220000  1
