# generated using pymatgen
data_Ho2H4CO7
_symmetry_space_group_name_H-M   'P 1'
_cell_length_a   6.03492100
_cell_length_b   6.30527100
_cell_length_c   15.46622125
_cell_angle_alpha   83.01627008
_cell_angle_beta   90.00000000
_cell_angle_gamma   90.00000000
_symmetry_Int_Tables_number   1
_chemical_formula_structural   Ho2H4CO7
_chemical_formula_sum   'Ho8 H16 C4 O28'
_cell_volume   584.15137018
_cell_formula_units_Z   4
loop_
 _symmetry_equiv_pos_site_id
 _symmetry_equiv_pos_as_xyz
  1  'x, y, z'
loop_
 _atom_site_type_symbol
 _atom_site_label
 _atom_site_symmetry_multiplicity
 _atom_site_fract_x
 _atom_site_fract_y
 _atom_site_fract_z
 _atom_site_occupancy
  Ho  Ho0  1  0.75028100  0.41112300  0.56541100  1
  Ho  Ho1  1  0.25028100  0.58887700  0.93458900  1
  Ho  Ho2  1  0.24971900  0.58887700  0.43458900  1
  Ho  Ho3  1  0.74971900  0.41112300  0.06541100  1
  Ho  Ho4  1  0.73630800  0.42121400  0.81845200  1
  Ho  Ho5  1  0.23630800  0.57878600  0.68154800  1
  Ho  Ho6  1  0.26369200  0.57878600  0.18154800  1
  Ho  Ho7  1  0.76369200  0.42121400  0.31845200  1
  H  H8  1  0.66835600  0.77950600  0.92862300  1
  H  H9  1  0.16835600  0.22049400  0.57137700  1
  H  H10  1  0.33164400  0.22049400  0.07137700  1
  H  H11  1  0.83164400  0.77950600  0.42862300  1
  H  H12  1  0.02657000  0.19073500  0.94694900  1
  H  H13  1  0.52657000  0.80926500  0.55305100  1
  H  H14  1  0.97343000  0.80926500  0.05305100  1
  H  H15  1  0.47343000  0.19073500  0.44694900  1
  H  H16  1  0.03231300  0.17758000  0.70849900  1
  H  H17  1  0.53231300  0.82242000  0.79150100  1
  H  H18  1  0.96768700  0.82242000  0.29150100  1
  H  H19  1  0.46768700  0.17758000  0.20849900  1
  H  H20  1  0.98669000  0.81305900  0.80440300  1
  H  H21  1  0.48669000  0.18694100  0.69559700  1
  H  H22  1  0.01331000  0.18694100  0.19559700  1
  H  H23  1  0.51331000  0.81305900  0.30440300  1
  C  C24  1  0.92478600  0.90243600  0.61734100  1
  C  C25  1  0.42478600  0.09756400  0.88265900  1
  C  C26  1  0.07521400  0.09756400  0.38265900  1
  C  C27  1  0.57521400  0.90243600  0.11734100  1
  O  O28  1  0.38785900  0.30338200  0.87627700  1
  O  O29  1  0.88785900  0.69661800  0.62372300  1
  O  O30  1  0.61214100  0.69661800  0.12372300  1
  O  O31  1  0.11214100  0.30338200  0.37627700  1
  O  O32  1  0.61972100  0.04522400  0.85547200  1
  O  O33  1  0.11972100  0.95477600  0.64452800  1
  O  O34  1  0.38027900  0.95477600  0.14452800  1
  O  O35  1  0.88027900  0.04522400  0.35547200  1
  O  O36  1  0.63195700  0.62739800  0.94233500  1
  O  O37  1  0.13195700  0.37260200  0.55766500  1
  O  O38  1  0.36804300  0.37260200  0.05766500  1
  O  O39  1  0.86804300  0.62739800  0.44233500  1
  O  O40  1  0.94929400  0.32727100  0.94789200  1
  O  O41  1  0.44929400  0.67272900  0.55210800  1
  O  O42  1  0.05070600  0.67272900  0.05210800  1
  O  O43  1  0.55070600  0.32727100  0.44789200  1
  O  O44  1  0.99802900  0.31210700  0.73144700  1
  O  O45  1  0.49802900  0.68789300  0.76855300  1
  O  O46  1  0.00197100  0.68789300  0.26855300  1
  O  O47  1  0.50197100  0.31210700  0.23144700  1
  O  O48  1  0.77755400  0.03642000  0.58713800  1
  O  O49  1  0.27755400  0.96358000  0.91286200  1
  O  O50  1  0.22244600  0.96358000  0.41286200  1
  O  O51  1  0.72244600  0.03642000  0.08713800  1
  O  O52  1  0.52747800  0.33734000  0.68913500  1
  O  O53  1  0.02747800  0.66266000  0.81086500  1
  O  O54  1  0.47252200  0.66266000  0.31086500  1
  O  O55  1  0.97252200  0.33734000  0.18913500  1
