# generated using pymatgen
data_Sm(BO2)3
_symmetry_space_group_name_H-M   'P 1'
_cell_length_a   7.50689900
_cell_length_b   12.47845400
_cell_length_c   16.24352300
_cell_angle_alpha   90.00000000
_cell_angle_beta   90.00000000
_cell_angle_gamma   90.00000000
_symmetry_Int_Tables_number   1
_chemical_formula_structural   Sm(BO2)3
_chemical_formula_sum   'Sm16 B48 O96'
_cell_volume   1521.60379543
_cell_formula_units_Z   16
loop_
 _symmetry_equiv_pos_site_id
 _symmetry_equiv_pos_as_xyz
  1  'x, y, z'
loop_
 _atom_site_type_symbol
 _atom_site_label
 _atom_site_symmetry_multiplicity
 _atom_site_fract_x
 _atom_site_fract_y
 _atom_site_fract_z
 _atom_site_occupancy
  Sm  Sm0  1  0.75000000  0.49356300  0.62006100  1
  Sm  Sm1  1  0.25000000  0.93136800  0.17097300  1
  Sm  Sm2  1  0.25000000  0.58603900  0.04803400  1
  Sm  Sm3  1  0.25000000  0.27383800  0.87316000  1
  Sm  Sm4  1  0.25000000  0.50643700  0.37993900  1
  Sm  Sm5  1  0.75000000  0.06863200  0.82902700  1
  Sm  Sm6  1  0.75000000  0.77383800  0.62684000  1
  Sm  Sm7  1  0.25000000  0.91396100  0.54803400  1
  Sm  Sm8  1  0.25000000  0.22616200  0.37316000  1
  Sm  Sm9  1  0.75000000  0.41396100  0.95196600  1
  Sm  Sm10  1  0.75000000  0.08603900  0.45196600  1
  Sm  Sm11  1  0.25000000  0.56863200  0.67097300  1
  Sm  Sm12  1  0.25000000  0.99356300  0.87993900  1
  Sm  Sm13  1  0.75000000  0.72616200  0.12684000  1
  Sm  Sm14  1  0.75000000  0.43136700  0.32902700  1
  Sm  Sm15  1  0.75000000  0.00643700  0.12006100  1
  B  B16  1  0.92904900  0.68721900  0.78308900  1
  B  B17  1  0.92441400  0.48123700  0.15455500  1
  B  B18  1  0.92257200  0.85548700  0.88998100  1
  B  B19  1  0.42441400  0.51876300  0.84544500  1
  B  B20  1  0.57280500  0.84465000  0.44155100  1
  B  B21  1  0.56856000  0.12898500  0.25655800  1
  B  B22  1  0.06170000  0.82017000  0.02949900  1
  B  B23  1  0.07280500  0.34465000  0.05844900  1
  B  B24  1  0.07742800  0.14451300  0.11001900  1
  B  B25  1  0.42719500  0.34465000  0.05844900  1
  B  B26  1  0.07742800  0.35548700  0.61001900  1
  B  B27  1  0.56170000  0.32017000  0.47050100  1
  B  B28  1  0.07558600  0.98123700  0.34544500  1
  B  B29  1  0.42904900  0.18721900  0.71691100  1
  B  B30  1  0.07095100  0.18721900  0.71691100  1
  B  B31  1  0.06856000  0.87101500  0.74344200  1
  B  B32  1  0.92904900  0.81278100  0.28308900  1
  B  B33  1  0.07095100  0.31278100  0.21691100  1
  B  B34  1  0.92719500  0.84465000  0.44155100  1
  B  B35  1  0.43830000  0.67983000  0.52949900  1
  B  B36  1  0.93830000  0.32017000  0.47050100  1
  B  B37  1  0.56856000  0.37101500  0.75655800  1
  B  B38  1  0.92257200  0.64451300  0.38998100  1
  B  B39  1  0.92719500  0.65535000  0.94155100  1
  B  B40  1  0.56170000  0.17983000  0.97050100  1
  B  B41  1  0.57280500  0.65535000  0.94155100  1
  B  B42  1  0.42257200  0.14451300  0.11001900  1
  B  B43  1  0.93144000  0.37101500  0.75655800  1
  B  B44  1  0.57558600  0.01876300  0.65455500  1
  B  B45  1  0.57742800  0.85548700  0.88998100  1
  B  B46  1  0.57742800  0.64451300  0.38998100  1
  B  B47  1  0.92441400  0.01876300  0.65455500  1
  B  B48  1  0.93144000  0.12898500  0.25655800  1
  B  B49  1  0.42441400  0.98123700  0.34544500  1
  B  B50  1  0.06170000  0.67983000  0.52949900  1
  B  B51  1  0.07280500  0.15535000  0.55844900  1
  B  B52  1  0.42719500  0.15535000  0.55844900  1
  B  B53  1  0.93830000  0.17983000  0.97050100  1
  B  B54  1  0.06856000  0.62898500  0.24344200  1
  B  B55  1  0.42904900  0.31278100  0.21691100  1
  B  B56  1  0.57558600  0.48123700  0.15455500  1
  B  B57  1  0.43144000  0.87101500  0.74344200  1
  B  B58  1  0.57095100  0.81278100  0.28308900  1
  B  B59  1  0.43830000  0.82017000  0.02949900  1
  B  B60  1  0.57095100  0.68721900  0.78308900  1
  B  B61  1  0.42257200  0.35548700  0.61001900  1
  B  B62  1  0.07558600  0.51876300  0.84544500  1
  B  B63  1  0.43144000  0.62898500  0.24344200  1
  O  O64  1  0.57287900  0.76532100  0.37062000  1
  O  O65  1  0.25000000  0.39299900  0.04730600  1
  O  O66  1  0.43768700  0.87595600  0.95084200  1
  O  O67  1  0.07287900  0.23467900  0.62938000  1
  O  O68  1  0.25000000  0.46501800  0.83919900  1
  O  O69  1  0.51670200  0.73081300  0.22504700  1
  O  O70  1  0.25000000  0.03498200  0.33919900  1
  O  O71  1  0.94753700  0.06707300  0.57216800  1
  O  O72  1  0.75000000  0.60865800  0.42125200  1
  O  O73  1  0.56022500  0.43400600  0.83347500  1
  O  O74  1  0.57287900  0.73467900  0.87062000  1
  O  O75  1  0.53459200  0.92042800  0.81546000  1
  O  O76  1  0.56231300  0.37595600  0.54915800  1
  O  O77  1  0.46161600  0.37358500  0.40590200  1
  O  O78  1  0.98329800  0.76918700  0.72504700  1
  O  O79  1  0.25000000  0.39134200  0.57874800  1
  O  O80  1  0.03838400  0.12641500  0.90590200  1
  O  O81  1  0.48329800  0.26918700  0.77495300  1
  O  O82  1  0.75000000  0.13728300  0.22494800  1
  O  O83  1  0.55945800  0.39836000  0.21823900  1
  O  O84  1  0.25000000  0.35175400  0.24432800  1
  O  O85  1  0.42712100  0.23467900  0.62938000  1
  O  O86  1  0.44054200  0.89836000  0.28176100  1
  O  O87  1  0.06231300  0.62404400  0.45084200  1
  O  O88  1  0.51625700  0.70831600  0.01882400  1
  O  O89  1  0.56022500  0.06599400  0.33347500  1
  O  O90  1  0.43768700  0.62404400  0.45084200  1
  O  O91  1  0.75000000  0.53498200  0.16080100  1
  O  O92  1  0.01670200  0.23081300  0.27495300  1
  O  O93  1  0.92712100  0.73467900  0.87062000  1
  O  O94  1  0.25000000  0.10865800  0.07874800  1
  O  O95  1  0.05945800  0.89836000  0.28176100  1
  O  O96  1  0.53838400  0.87358500  0.09409800  1
  O  O97  1  0.06022500  0.56599400  0.16652500  1
  O  O98  1  0.01670200  0.26918700  0.77495300  1
  O  O99  1  0.75000000  0.96501800  0.66080100  1
  O  O100  1  0.06231300  0.87595600  0.95084200  1
  O  O101  1  0.75000000  0.36271700  0.72494800  1
  O  O102  1  0.25000000  0.10700100  0.54730600  1
  O  O103  1  0.25000000  0.86271700  0.77505200  1
  O  O104  1  0.43977500  0.93400600  0.66652500  1
  O  O105  1  0.25000000  0.14824600  0.74432800  1
  O  O106  1  0.75000000  0.30264100  0.43846000  1
  O  O107  1  0.03459200  0.42042800  0.68454000  1
  O  O108  1  0.44054200  0.60164000  0.78176100  1
  O  O109  1  0.53459200  0.57957200  0.31546000  1
  O  O110  1  0.46161600  0.12641500  0.90590200  1
  O  O111  1  0.93977500  0.43400600  0.83347500  1
  O  O112  1  0.07287900  0.26532100  0.12938000  1
  O  O113  1  0.25000000  0.63728300  0.27505200  1
  O  O114  1  0.75000000  0.85175400  0.25567200  1
  O  O115  1  0.03459200  0.07957200  0.18454000  1
  O  O116  1  0.01625700  0.20831600  0.48117600  1
  O  O117  1  0.96161600  0.87358500  0.09409800  1
  O  O118  1  0.06022500  0.93400600  0.66652500  1
  O  O119  1  0.94054200  0.39836000  0.21823900  1
  O  O120  1  0.05246300  0.93292700  0.42783200  1
  O  O121  1  0.48374300  0.29168400  0.98117600  1
  O  O122  1  0.25000000  0.80264100  0.06154000  1
  O  O123  1  0.48329800  0.23081300  0.27495300  1
  O  O124  1  0.75000000  0.89299900  0.45269400  1
  O  O125  1  0.46540800  0.07957200  0.18454000  1
  O  O126  1  0.96540800  0.92042800  0.81546000  1
  O  O127  1  0.94054200  0.10164000  0.71823900  1
  O  O128  1  0.75000000  0.64824600  0.75567200  1
  O  O129  1  0.98374300  0.70831600  0.01882400  1
  O  O130  1  0.51625700  0.79168400  0.51882400  1
  O  O131  1  0.51670200  0.76918700  0.72504700  1
  O  O132  1  0.93768700  0.12404400  0.04915800  1
  O  O133  1  0.42712100  0.26532100  0.12938000  1
  O  O134  1  0.96161600  0.62641500  0.59409800  1
  O  O135  1  0.01625700  0.29168400  0.98117600  1
  O  O136  1  0.46540800  0.42042800  0.68454000  1
  O  O137  1  0.05945800  0.60164000  0.78176100  1
  O  O138  1  0.44753700  0.93292700  0.42783200  1
  O  O139  1  0.93977500  0.06599400  0.33347500  1
  O  O140  1  0.98329800  0.73081300  0.22504700  1
  O  O141  1  0.98374300  0.79168400  0.51882400  1
  O  O142  1  0.75000000  0.19735900  0.93846000  1
  O  O143  1  0.25000000  0.69735900  0.56154000  1
  O  O144  1  0.48374300  0.20831600  0.48117600  1
  O  O145  1  0.56231300  0.12404400  0.04915800  1
  O  O146  1  0.75000000  0.89134200  0.92125200  1
  O  O147  1  0.92712100  0.76532100  0.37062000  1
  O  O148  1  0.75000000  0.60700100  0.95269400  1
  O  O149  1  0.55945800  0.10164000  0.71823900  1
  O  O150  1  0.53838400  0.62641500  0.59409800  1
  O  O151  1  0.43977500  0.56599400  0.16652500  1
  O  O152  1  0.44753700  0.56707300  0.92783200  1
  O  O153  1  0.55246300  0.43292700  0.07216800  1
  O  O154  1  0.03838400  0.37358500  0.40590200  1
  O  O155  1  0.96540800  0.57957200  0.31546000  1
  O  O156  1  0.05246300  0.56707300  0.92783200  1
  O  O157  1  0.93768700  0.37595600  0.54915800  1
  O  O158  1  0.55246300  0.06707300  0.57216800  1
  O  O159  1  0.94753700  0.43292700  0.07216800  1
