# generated using pymatgen
data_Cs4K2Cu(SiO4)2
_symmetry_space_group_name_H-M   'P 1'
_cell_length_a   10.59214900
_cell_length_b   10.59214900
_cell_length_c   6.17879400
_cell_angle_alpha   90.00000000
_cell_angle_beta   90.00000000
_cell_angle_gamma   90.00000000
_symmetry_Int_Tables_number   1
_chemical_formula_structural   Cs4K2Cu(SiO4)2
_chemical_formula_sum   'Cs8 K4 Cu2 Si4 O16'
_cell_volume   693.22126880
_cell_formula_units_Z   2
loop_
 _symmetry_equiv_pos_site_id
 _symmetry_equiv_pos_as_xyz
  1  'x, y, z'
loop_
 _atom_site_type_symbol
 _atom_site_label
 _atom_site_symmetry_multiplicity
 _atom_site_fract_x
 _atom_site_fract_y
 _atom_site_fract_z
 _atom_site_occupancy
  Cs  Cs0  1  0.38361400  0.86300200  0.00000000  1
  Cs  Cs1  1  0.61638600  0.13699800  0.00000000  1
  Cs  Cs2  1  0.86300200  0.38361400  0.00000000  1
  Cs  Cs3  1  0.88361400  0.63699800  0.50000000  1
  Cs  Cs4  1  0.13699800  0.61638600  0.00000000  1
  Cs  Cs5  1  0.36300200  0.11638600  0.50000000  1
  Cs  Cs6  1  0.11638600  0.36300200  0.50000000  1
  Cs  Cs7  1  0.63699800  0.88361400  0.50000000  1
  K  K8  1  0.89709900  0.10290100  0.50000000  1
  K  K9  1  0.39709900  0.39709900  0.00000000  1
  K  K10  1  0.60290100  0.60290100  0.00000000  1
  K  K11  1  0.10290100  0.89709900  0.50000000  1
  Cu  Cu12  1  0.50000000  0.50000000  0.50000000  1
  Cu  Cu13  1  0.00000000  0.00000000  0.00000000  1
  Si  Si14  1  0.82385400  0.82385400  0.00000000  1
  Si  Si15  1  0.32385400  0.67614600  0.50000000  1
  Si  Si16  1  0.17614600  0.17614600  0.00000000  1
  Si  Si17  1  0.67614600  0.32385400  0.50000000  1
  O  O18  1  0.89763600  0.89763600  0.20725200  1
  O  O19  1  0.10236400  0.10236400  0.79274800  1
  O  O20  1  0.85197800  0.67094100  0.00000000  1
  O  O21  1  0.60236400  0.39763600  0.29274800  1
  O  O22  1  0.82905900  0.35197800  0.50000000  1
  O  O23  1  0.60236400  0.39763600  0.70725200  1
  O  O24  1  0.39763600  0.60236400  0.29274800  1
  O  O25  1  0.64802200  0.17094100  0.50000000  1
  O  O26  1  0.67094100  0.85197800  0.00000000  1
  O  O27  1  0.89763600  0.89763600  0.79274800  1
  O  O28  1  0.14802200  0.32905900  0.00000000  1
  O  O29  1  0.10236400  0.10236400  0.20725200  1
  O  O30  1  0.35197800  0.82905900  0.50000000  1
  O  O31  1  0.39763600  0.60236400  0.70725200  1
  O  O32  1  0.32905900  0.14802200  0.00000000  1
  O  O33  1  0.17094100  0.64802200  0.50000000  1
