# generated using pymatgen
data_Pu2Te3
_symmetry_space_group_name_H-M   'P 1'
_cell_length_a   24.16818480
_cell_length_b   9.29237717
_cell_length_c   9.29237709
_cell_angle_alpha   90.00000000
_cell_angle_beta   54.77898413
_cell_angle_gamma   54.77898375
_symmetry_Int_Tables_number   1
_chemical_formula_structural   Pu2Te3
_chemical_formula_sum   'Pu16 Te24'
_cell_volume   1207.43766283
_cell_formula_units_Z   8
loop_
 _symmetry_equiv_pos_site_id
 _symmetry_equiv_pos_as_xyz
  1  'x, y, z'
loop_
 _atom_site_type_symbol
 _atom_site_label
 _atom_site_symmetry_multiplicity
 _atom_site_fract_x
 _atom_site_fract_y
 _atom_site_fract_z
 _atom_site_occupancy
  Pu  Pu0  1  0.99914840  0.38183505  0.24753058  1
  Pu  Pu1  1  0.08166385  0.62750373  0.37750373  1
  Pu  Pu2  1  0.16666700  0.25000000  0.62986691  1
  Pu  Pu3  1  0.25166915  0.87249627  0.12249627  1
  Pu  Pu4  1  0.33418460  0.37928025  0.25246942  1
  Pu  Pu5  1  0.33418460  0.11816495  0.74497578  1
  Pu  Pu6  1  0.16666700  0.75000000  0.87013309  1
  Pu  Pu7  1  0.49914840  0.25502422  0.62071975  1
  Pu  Pu8  1  0.58166385  0.87750373  0.12750373  1
  Pu  Pu9  1  0.66666700  0.37013309  0.25000000  1
  Pu  Pu10  1  0.66666700  0.12986691  0.75000000  1
  Pu  Pu11  1  0.49914840  0.74753058  0.88183505  1
  Pu  Pu12  1  0.75166915  0.62249627  0.37249627  1
  Pu  Pu13  1  0.83418460  0.24497578  0.61816495  1
  Pu  Pu14  1  0.99914840  0.12071975  0.75502422  1
  Pu  Pu15  1  0.83418460  0.75246942  0.87928025  1
  Te  Te16  1  0.04934600  0.00092802  0.35179821  1
  Te  Te17  1  0.12023442  0.49583234  0.99772423  1
  Te  Te18  1  0.04934600  0.35103299  0.50016279  1
  Te  Te19  1  0.28398700  0.14896701  0.14820179  1
  Te  Te20  1  0.28398700  0.49907198  -0.00016279  1
  Te  Te21  1  0.12023442  0.64346340  0.64157151  1
  Te  Te22  1  0.38339983  0.00166893  0.34809875  1
  Te  Te23  1  0.21309858  0.85653660  0.50227577  1
  Te  Te24  1  0.44993417  0.49829725  0.99833107  1
  Te  Te25  1  0.38339983  0.34813257  0.50170275  1
  Te  Te26  1  0.21309858  0.00416766  0.85842849  1
  Te  Te27  1  0.62023442  0.14157151  0.14346340  1
  Te  Te28  1  0.62023442  0.49772423  0.99583234  1
  Te  Te29  1  0.44993417  0.65190125  0.65186743  1
  Te  Te30  1  0.71309858  0.00227577  0.35653660  1
  Te  Te31  1  0.54934600  0.85179821  0.50092802  1
  Te  Te32  1  0.78398700  0.49983721  0.99907198  1
  Te  Te33  1  0.71309858  0.35842849  0.50416766  1
  Te  Te34  1  0.54934600  0.00016279  0.85103299  1
  Te  Te35  1  0.94993417  0.15186743  0.15190125  1
  Te  Te36  1  0.94993417  0.49833107  0.99829725  1
  Te  Te37  1  0.78398700  0.64820179  0.64896701  1
  Te  Te38  1  0.88339983  0.84809875  0.50166893  1
  Te  Te39  1  0.88339983  0.00170275  0.84813257  1
