# generated using pymatgen
data_Mo6PbBr14
_symmetry_space_group_name_H-M   'P 1'
_cell_length_a   13.87194000
_cell_length_b   13.87194000
_cell_length_c   13.87194000
_cell_angle_alpha   90.00000000
_cell_angle_beta   90.00000000
_cell_angle_gamma   90.00000000
_symmetry_Int_Tables_number   1
_chemical_formula_structural   Mo6PbBr14
_chemical_formula_sum   'Mo24 Pb4 Br56'
_cell_volume   2669.38739317
_cell_formula_units_Z   4
loop_
 _symmetry_equiv_pos_site_id
 _symmetry_equiv_pos_as_xyz
  1  'x, y, z'
loop_
 _atom_site_type_symbol
 _atom_site_label
 _atom_site_symmetry_multiplicity
 _atom_site_fract_x
 _atom_site_fract_y
 _atom_site_fract_z
 _atom_site_occupancy
  Mo  Mo0  1  0.87788800  0.27737500  0.21521200  1
  Mo  Mo1  1  0.77737500  0.71521200  0.62211200  1
  Mo  Mo2  1  0.78478800  0.87788800  0.72262500  1
  Mo  Mo3  1  0.12211200  0.72262500  0.21521200  1
  Mo  Mo4  1  0.72262500  0.21521200  0.12211200  1
  Mo  Mo5  1  0.78478800  0.12211200  0.27737500  1
  Mo  Mo6  1  0.37788800  0.22262500  0.71521200  1
  Mo  Mo7  1  0.37788800  0.77737500  0.28478800  1
  Mo  Mo8  1  0.21521200  0.12211200  0.72262500  1
  Mo  Mo9  1  0.28478800  0.37788800  0.77737500  1
  Mo  Mo10  1  0.87788800  0.72262500  0.78478800  1
  Mo  Mo11  1  0.77737500  0.28478800  0.37788800  1
  Mo  Mo12  1  0.62211200  0.22262500  0.28478800  1
  Mo  Mo13  1  0.72262500  0.78478800  0.87788800  1
  Mo  Mo14  1  0.28478800  0.62211200  0.22262500  1
  Mo  Mo15  1  0.71521200  0.62211200  0.77737500  1
  Mo  Mo16  1  0.27737500  0.21521200  0.87788800  1
  Mo  Mo17  1  0.22262500  0.28478800  0.62211200  1
  Mo  Mo18  1  0.71521200  0.37788800  0.22262500  1
  Mo  Mo19  1  0.12211200  0.27737500  0.78478800  1
  Mo  Mo20  1  0.27737500  0.78478800  0.12211200  1
  Mo  Mo21  1  0.22262500  0.71521200  0.37788800  1
  Mo  Mo22  1  0.21521200  0.87788800  0.27737500  1
  Mo  Mo23  1  0.62211200  0.77737500  0.71521200  1
  Pb  Pb24  1  0.75000000  0.75000000  0.25000000  1
  Pb  Pb25  1  0.25000000  0.25000000  0.25000000  1
  Pb  Pb26  1  0.25000000  0.75000000  0.75000000  1
  Pb  Pb27  1  0.75000000  0.25000000  0.75000000  1
  Br  Br28  1  0.38372400  0.38372400  0.61627600  1
  Br  Br29  1  0.13088900  0.56292000  0.31414400  1
  Br  Br30  1  0.55702000  0.17891200  0.66172000  1
  Br  Br31  1  0.82108800  0.66172000  0.44298000  1
  Br  Br32  1  0.17891200  0.33828000  0.44298000  1
  Br  Br33  1  0.81414400  0.36911100  0.06292000  1
  Br  Br34  1  0.32108800  0.83828000  0.94298000  1
  Br  Br35  1  0.63088900  0.93708000  0.81414400  1
  Br  Br36  1  0.06292000  0.18585600  0.63088900  1
  Br  Br37  1  0.32108800  0.16172000  0.05702000  1
  Br  Br38  1  0.11627600  0.88372400  0.11627600  1
  Br  Br39  1  0.11627600  0.11627600  0.88372400  1
  Br  Br40  1  0.82108800  0.33828000  0.55702000  1
  Br  Br41  1  0.86911100  0.56292000  0.68585600  1
  Br  Br42  1  0.05702000  0.32108800  0.16172000  1
  Br  Br43  1  0.17891200  0.66172000  0.55702000  1
  Br  Br44  1  0.61627600  0.38372400  0.38372400  1
  Br  Br45  1  0.56292000  0.31414400  0.13088900  1
  Br  Br46  1  0.68585600  0.13088900  0.43708000  1
  Br  Br47  1  0.36911100  0.93708000  0.18585600  1
  Br  Br48  1  0.44298000  0.82108800  0.66172000  1
  Br  Br49  1  0.55702000  0.82108800  0.33828000  1
  Br  Br50  1  0.88372400  0.88372400  0.88372400  1
  Br  Br51  1  0.05702000  0.67891200  0.83828000  1
  Br  Br52  1  0.31414400  0.86911100  0.43708000  1
  Br  Br53  1  0.93708000  0.18585600  0.36911100  1
  Br  Br54  1  0.38372400  0.61627600  0.38372400  1
  Br  Br55  1  0.43708000  0.68585600  0.13088900  1
  Br  Br56  1  0.93708000  0.81414400  0.63088900  1
  Br  Br57  1  0.67891200  0.83828000  0.05702000  1
  Br  Br58  1  0.83828000  0.05702000  0.67891200  1
  Br  Br59  1  0.06292000  0.81414400  0.36911100  1
  Br  Br60  1  0.18585600  0.63088900  0.06292000  1
  Br  Br61  1  0.94298000  0.32108800  0.83828000  1
  Br  Br62  1  0.13088900  0.43708000  0.68585600  1
  Br  Br63  1  0.36911100  0.06292000  0.81414400  1
  Br  Br64  1  0.94298000  0.67891200  0.16172000  1
  Br  Br65  1  0.66172000  0.55702000  0.17891200  1
  Br  Br66  1  0.86911100  0.43708000  0.31414400  1
  Br  Br67  1  0.88372400  0.11627600  0.11627600  1
  Br  Br68  1  0.33828000  0.55702000  0.82108800  1
  Br  Br69  1  0.81414400  0.63088900  0.93708000  1
  Br  Br70  1  0.33828000  0.44298000  0.17891200  1
  Br  Br71  1  0.67891200  0.16172000  0.94298000  1
  Br  Br72  1  0.66172000  0.44298000  0.82108800  1
  Br  Br73  1  0.56292000  0.68585600  0.86911100  1
  Br  Br74  1  0.18585600  0.36911100  0.93708000  1
  Br  Br75  1  0.43708000  0.31414400  0.86911100  1
  Br  Br76  1  0.16172000  0.05702000  0.32108800  1
  Br  Br77  1  0.68585600  0.86911100  0.56292000  1
  Br  Br78  1  0.61627600  0.61627600  0.61627600  1
  Br  Br79  1  0.31414400  0.13088900  0.56292000  1
  Br  Br80  1  0.63088900  0.06292000  0.18585600  1
  Br  Br81  1  0.83828000  0.94298000  0.32108800  1
  Br  Br82  1  0.44298000  0.17891200  0.33828000  1
  Br  Br83  1  0.16172000  0.94298000  0.67891200  1
