# generated using pymatgen
data_NaMgPO4
_symmetry_space_group_name_H-M   'P 1'
_cell_length_a   6.93217300
_cell_length_b   8.89949700
_cell_length_c   15.50652800
_cell_angle_alpha   90.00000000
_cell_angle_beta   90.00000000
_cell_angle_gamma   90.00000000
_symmetry_Int_Tables_number   1
_chemical_formula_structural   NaMgPO4
_chemical_formula_sum   'Na12 Mg12 P12 O48'
_cell_volume   956.64194961
_cell_formula_units_Z   12
loop_
 _symmetry_equiv_pos_site_id
 _symmetry_equiv_pos_as_xyz
  1  'x, y, z'
loop_
 _atom_site_type_symbol
 _atom_site_label
 _atom_site_symmetry_multiplicity
 _atom_site_fract_x
 _atom_site_fract_y
 _atom_site_fract_z
 _atom_site_occupancy
  Na  Na0  1  0.44648100  0.60858300  0.15555800  1
  Na  Na1  1  0.94648100  0.89141700  0.84444200  1
  Na  Na2  1  0.55351900  0.10858300  0.34444200  1
  Na  Na3  1  0.05351900  0.39141700  0.65555800  1
  Na  Na4  1  0.53625500  0.59882800  0.48629300  1
  Na  Na5  1  0.03625500  0.90117200  0.51370700  1
  Na  Na6  1  0.46374500  0.09882800  0.01370700  1
  Na  Na7  1  0.96374500  0.40117200  0.98629300  1
  Na  Na8  1  0.52095200  0.60102300  0.81992500  1
  Na  Na9  1  0.02095200  0.89897700  0.18007500  1
  Na  Na10  1  0.47904800  0.10102300  0.68007500  1
  Na  Na11  1  0.97904800  0.39897700  0.31992500  1
  Mg  Mg12  1  0.30563200  0.26603500  0.48777700  1
  Mg  Mg13  1  0.80563200  0.23396500  0.51222300  1
  Mg  Mg14  1  0.69436800  0.76603500  0.01222300  1
  Mg  Mg15  1  0.19436800  0.73396500  0.98777700  1
  Mg  Mg16  1  0.70269500  0.27340400  0.15141600  1
  Mg  Mg17  1  0.20269500  0.22659600  0.84858400  1
  Mg  Mg18  1  0.29730500  0.77340400  0.34858400  1
  Mg  Mg19  1  0.79730500  0.72659600  0.65141600  1
  Mg  Mg20  1  0.72055000  0.25574500  0.82673100  1
  Mg  Mg21  1  0.22055000  0.24425500  0.17326900  1
  Mg  Mg22  1  0.27945000  0.75574500  0.67326900  1
  Mg  Mg23  1  0.77945000  0.74425500  0.32673100  1
  P  P24  1  0.53777900  0.42936700  0.64867000  1
  P  P25  1  0.03777900  0.07063300  0.35133000  1
  P  P26  1  0.46222100  0.92936700  0.85133000  1
  P  P27  1  0.96222100  0.57063300  0.14867000  1
  P  P28  1  0.47057600  0.43046300  0.98409300  1
  P  P29  1  0.97057600  0.06953700  0.01590700  1
  P  P30  1  0.52942400  0.93046300  0.51590700  1
  P  P31  1  0.02942400  0.56953700  0.48409300  1
  P  P32  1  0.49280200  0.43539500  0.31436700  1
  P  P33  1  0.99280200  0.06460500  0.68563300  1
  P  P34  1  0.50719800  0.93539500  0.18563300  1
  P  P35  1  0.00719800  0.56460500  0.81436700  1
  O  O36  1  0.01764700  0.63078400  0.57867800  1
  O  O37  1  0.51764700  0.86921600  0.42132200  1
  O  O38  1  0.98235300  0.13078400  0.92132200  1
  O  O39  1  0.48235300  0.36921600  0.07867800  1
  O  O40  1  0.83317500  0.63539700  0.76721400  1
  O  O41  1  0.33317500  0.86460300  0.23278600  1
  O  O42  1  0.16682500  0.13539700  0.73278600  1
  O  O43  1  0.66682500  0.36460300  0.26721400  1
  O  O44  1  0.77779700  0.61317100  0.09831100  1
  O  O45  1  0.27779700  0.88682900  0.90168900  1
  O  O46  1  0.22220300  0.11317100  0.40168900  1
  O  O47  1  0.72220300  0.38682900  0.59831100  1
  O  O48  1  0.84909900  0.61452200  0.43137200  1
  O  O49  1  0.34909900  0.88547800  0.56862800  1
  O  O50  1  0.15090100  0.11452200  0.06862800  1
  O  O51  1  0.65090100  0.38547800  0.93137200  1
  O  O52  1  0.98195900  0.38877900  0.81573400  1
  O  O53  1  0.48195900  0.11122100  0.18426600  1
  O  O54  1  0.01804100  0.88877900  0.68426600  1
  O  O55  1  0.51804100  0.61122100  0.31573400  1
  O  O56  1  0.21137600  0.63532900  0.44140700  1
  O  O57  1  0.01043500  0.62686300  0.90795000  1
  O  O58  1  0.98956500  0.12686300  0.59205000  1
  O  O59  1  0.48956500  0.37313700  0.40795000  1
  O  O60  1  0.04367200  0.39289900  0.48347400  1
  O  O61  1  0.54367200  0.10710100  0.51652600  1
  O  O62  1  0.95632800  0.89289900  0.01652600  1
  O  O63  1  0.45632800  0.60710100  0.98347400  1
  O  O64  1  0.95681500  0.63120800  0.24208900  1
  O  O65  1  0.45681500  0.86879200  0.75791100  1
  O  O66  1  0.04318500  0.13120800  0.25791100  1
  O  O67  1  0.54318500  0.36879200  0.74208900  1
  O  O68  1  0.97555700  0.39331800  0.14694700  1
  O  O69  1  0.47555700  0.10668200  0.85305300  1
  O  O70  1  0.02444300  0.89331800  0.35305300  1
  O  O71  1  0.52444300  0.60668200  0.64694700  1
  O  O72  1  0.36014700  0.36450700  0.60115100  1
  O  O73  1  0.86014700  0.13549300  0.39884900  1
  O  O74  1  0.63985300  0.86450700  0.89884900  1
  O  O75  1  0.13985300  0.63549300  0.10115100  1
  O  O76  1  0.30607800  0.39838000  0.26406300  1
  O  O77  1  0.80607800  0.10162000  0.73593700  1
  O  O78  1  0.69392200  0.89838000  0.23593700  1
  O  O79  1  0.19392200  0.60162000  0.76406300  1
  O  O80  1  0.28862400  0.36467100  0.94140700  1
  O  O81  1  0.78862400  0.13532900  0.05859300  1
  O  O82  1  0.71137600  0.86467100  0.55859300  1
  O  O83  1  0.51043500  0.87313700  0.09205000  1
