# generated using pymatgen
data_Re3(SeCl)7
_symmetry_space_group_name_H-M   'P 1'
_cell_length_a   10.49171600
_cell_length_b   12.25600300
_cell_length_c   14.64555200
_cell_angle_alpha   90.00000000
_cell_angle_beta   90.00000000
_cell_angle_gamma   90.00000000
_symmetry_Int_Tables_number   1
_chemical_formula_structural   Re3(SeCl)7
_chemical_formula_sum   'Re12 Se28 Cl28'
_cell_volume   1883.22031283
_cell_formula_units_Z   4
loop_
 _symmetry_equiv_pos_site_id
 _symmetry_equiv_pos_as_xyz
  1  'x, y, z'
loop_
 _atom_site_type_symbol
 _atom_site_label
 _atom_site_symmetry_multiplicity
 _atom_site_fract_x
 _atom_site_fract_y
 _atom_site_fract_z
 _atom_site_occupancy
  Re  Re0  1  0.11764900  0.72311100  0.55888300  1
  Re  Re1  1  0.75000000  0.26655000  0.60645200  1
  Re  Re2  1  0.75000000  0.73345000  0.10645200  1
  Re  Re3  1  0.88235100  0.27688900  0.44111700  1
  Re  Re4  1  0.88235100  0.72311100  0.94111700  1
  Re  Re5  1  0.11764900  0.27688900  0.05888300  1
  Re  Re6  1  0.38235100  0.72311100  0.55888300  1
  Re  Re7  1  0.61764900  0.72311100  0.94111700  1
  Re  Re8  1  0.25000000  0.73345000  0.39354800  1
  Re  Re9  1  0.61764900  0.27688900  0.44111700  1
  Re  Re10  1  0.25000000  0.26655000  0.89354800  1
  Re  Re11  1  0.38235100  0.27688900  0.05888300  1
  Se  Se12  1  0.90608100  0.12296300  0.55456500  1
  Se  Se13  1  0.00294600  0.29000800  0.90071700  1
  Se  Se14  1  0.75000000  0.57238000  0.00357500  1
  Se  Se15  1  0.75000000  0.86486500  0.85875900  1
  Se  Se16  1  0.25000000  0.68879800  0.70587400  1
  Se  Se17  1  0.50294600  0.29000800  0.59928300  1
  Se  Se18  1  0.00294600  0.70999200  0.40071700  1
  Se  Se19  1  0.75000000  0.68879800  0.79412600  1
  Se  Se20  1  0.40608100  0.87703700  0.44543500  1
  Se  Se21  1  0.09391900  0.87703700  0.44543500  1
  Se  Se22  1  0.09391900  0.12296300  0.94543500  1
  Se  Se23  1  0.90608100  0.87703700  0.05456500  1
  Se  Se24  1  0.75000000  0.42762000  0.50357500  1
  Se  Se25  1  0.59391900  0.12296300  0.55456500  1
  Se  Se26  1  0.25000000  0.57238000  0.49642500  1
  Se  Se27  1  0.75000000  0.13513500  0.35875900  1
  Se  Se28  1  0.25000000  0.42762000  0.99642500  1
  Se  Se29  1  0.40608100  0.12296300  0.94543500  1
  Se  Se30  1  0.25000000  0.31120200  0.20587400  1
  Se  Se31  1  0.99705400  0.70999200  0.09928300  1
  Se  Se32  1  0.49705400  0.70999200  0.40071700  1
  Se  Se33  1  0.25000000  0.86486500  0.64124100  1
  Se  Se34  1  0.49705400  0.29000800  0.90071700  1
  Se  Se35  1  0.25000000  0.13513500  0.14124100  1
  Se  Se36  1  0.59391900  0.87703700  0.05456500  1
  Se  Se37  1  0.50294600  0.70999200  0.09928300  1
  Se  Se38  1  0.99705400  0.29000800  0.59928300  1
  Se  Se39  1  0.75000000  0.31120200  0.29412600  1
  Cl  Cl40  1  0.75000000  0.84569400  0.24473600  1
  Cl  Cl41  1  0.05699700  0.81809500  0.86795500  1
  Cl  Cl42  1  0.98893600  0.42948100  0.11132300  1
  Cl  Cl43  1  0.44300300  0.81809500  0.86795500  1
  Cl  Cl44  1  0.94300300  0.18190500  0.13204500  1
  Cl  Cl45  1  0.25000000  0.03794200  0.52801200  1
  Cl  Cl46  1  0.01106400  0.42948100  0.38867700  1
  Cl  Cl47  1  0.55699700  0.18190500  0.13204500  1
  Cl  Cl48  1  0.75000000  0.59515400  0.22394400  1
  Cl  Cl49  1  0.55699700  0.81809500  0.63204500  1
  Cl  Cl50  1  0.48893600  0.42948100  0.38867700  1
  Cl  Cl51  1  0.75000000  0.40484600  0.72394400  1
  Cl  Cl52  1  0.48893600  0.57051900  0.88867700  1
  Cl  Cl53  1  0.25000000  0.59515400  0.27605600  1
  Cl  Cl54  1  0.05699700  0.18190500  0.36795500  1
  Cl  Cl55  1  0.98893600  0.57051900  0.61132300  1
  Cl  Cl56  1  0.25000000  0.15430600  0.75526400  1
  Cl  Cl57  1  0.25000000  0.40484600  0.77605600  1
  Cl  Cl58  1  0.01106400  0.57051900  0.88867700  1
  Cl  Cl59  1  0.51106400  0.57051900  0.61132300  1
  Cl  Cl60  1  0.44300300  0.18190500  0.36795500  1
  Cl  Cl61  1  0.75000000  0.03794200  0.97198800  1
  Cl  Cl62  1  0.75000000  0.96205800  0.47198800  1
  Cl  Cl63  1  0.94300300  0.81809500  0.63204500  1
  Cl  Cl64  1  0.25000000  0.96205800  0.02801200  1
  Cl  Cl65  1  0.51106400  0.42948100  0.11132300  1
  Cl  Cl66  1  0.75000000  0.15430600  0.74473600  1
  Cl  Cl67  1  0.25000000  0.84569400  0.25526400  1
