# generated using pymatgen
data_KNb(CuSe2)2
_symmetry_space_group_name_H-M   'P 1'
_cell_length_a   10.03200023
_cell_length_b   10.03200023
_cell_length_c   7.79359100
_cell_angle_alpha   90.00000000
_cell_angle_beta   90.00000000
_cell_angle_gamma   146.82782795
_symmetry_Int_Tables_number   1
_chemical_formula_structural   KNb(CuSe2)2
_chemical_formula_sum   'K2 Nb2 Cu4 Se8'
_cell_volume   429.16514166
_cell_formula_units_Z   2
loop_
 _symmetry_equiv_pos_site_id
 _symmetry_equiv_pos_as_xyz
  1  'x, y, z'
loop_
 _atom_site_type_symbol
 _atom_site_label
 _atom_site_symmetry_multiplicity
 _atom_site_fract_x
 _atom_site_fract_y
 _atom_site_fract_z
 _atom_site_occupancy
  K  K0  1  0.92370600  0.55613700  0.25000000  1
  K  K1  1  0.55613700  0.92370600  0.75000000  1
  Nb  Nb2  1  0.60873000  0.39068300  0.75000000  1
  Nb  Nb3  1  0.39068300  0.60873000  0.25000000  1
  Cu  Cu4  1  0.10666500  0.89351300  0.75000000  1
  Cu  Cu5  1  0.89351300  0.10666500  0.25000000  1
  Cu  Cu6  1  0.48373000  0.48373000  0.50000000  1
  Cu  Cu7  1  0.48373000  0.48373000  0.00000000  1
  Se  Se8  1  0.74926000  0.74325100  0.75000000  1
  Se  Se9  1  0.14399800  0.35759800  0.50560900  1
  Se  Se10  1  0.54104600  0.96241800  0.25000000  1
  Se  Se11  1  0.74325100  0.74926000  0.25000000  1
  Se  Se12  1  0.96241800  0.54104600  0.75000000  1
  Se  Se13  1  0.14399800  0.35759800  0.99439100  1
  Se  Se14  1  0.35759800  0.14399800  0.00560900  1
  Se  Se15  1  0.35759800  0.14399800  0.49439100  1
