# generated using pymatgen
data_Te2Mo3Se7Br10
_symmetry_space_group_name_H-M   'P 1'
_cell_length_a   10.65264700
_cell_length_b   11.51058630
_cell_length_c   12.86205236
_cell_angle_alpha   84.69005013
_cell_angle_beta   85.46421606
_cell_angle_gamma   76.60606478
_symmetry_Int_Tables_number   1
_chemical_formula_structural   Te2Mo3Se7Br10
_chemical_formula_sum   'Te4 Mo6 Se14 Br20'
_cell_volume   1524.93331625
_cell_formula_units_Z   2
loop_
 _symmetry_equiv_pos_site_id
 _symmetry_equiv_pos_as_xyz
  1  'x, y, z'
loop_
 _atom_site_type_symbol
 _atom_site_label
 _atom_site_symmetry_multiplicity
 _atom_site_fract_x
 _atom_site_fract_y
 _atom_site_fract_z
 _atom_site_occupancy
  Te  Te0  1  0.15586000  0.67705200  0.78862100  1
  Te  Te1  1  0.84414000  0.32294800  0.21137900  1
  Te  Te2  1  0.86964800  0.45009900  0.63117200  1
  Te  Te3  1  0.13035200  0.54990100  0.36882800  1
  Mo  Mo4  1  0.20909300  0.90808100  0.77786700  1
  Mo  Mo5  1  0.79090700  0.09191900  0.22213300  1
  Mo  Mo6  1  0.39565400  0.99326900  0.64887400  1
  Mo  Mo7  1  0.60434600  0.00673100  0.35112600  1
  Mo  Mo8  1  0.39549000  0.99397900  0.86574000  1
  Mo  Mo9  1  0.60451000  0.00602100  0.13426000  1
  Se  Se10  1  0.84839400  0.92241700  0.36468700  1
  Se  Se11  1  0.38089400  0.18382400  0.74223800  1
  Se  Se12  1  0.61910600  0.81617600  0.25776200  1
  Se  Se13  1  0.77027800  0.11278700  0.42622000  1
  Se  Se14  1  0.15160600  0.07758300  0.63531300  1
  Se  Se15  1  0.44204700  0.80794800  0.76995000  1
  Se  Se16  1  0.15158700  0.08001800  0.89818500  1
  Se  Se17  1  0.22891400  0.88967800  0.98029200  1
  Se  Se18  1  0.22972200  0.88721300  0.57378000  1
  Se  Se19  1  0.55795300  0.19205200  0.23005000  1
  Se  Se20  1  0.41696100  0.95034400  0.25993000  1
  Se  Se21  1  0.77108600  0.11032200  0.01970800  1
  Se  Se22  1  0.58303900  0.04965600  0.74007000  1
  Se  Se23  1  0.84841300  0.91998200  0.10181500  1
  Br  Br24  1  0.76464200  0.57841800  0.78348900  1
  Br  Br25  1  0.41972400  0.13856500  0.47202600  1
  Br  Br26  1  0.57955700  0.86013500  0.98457200  1
  Br  Br27  1  0.97856600  0.65747800  0.54855100  1
  Br  Br28  1  0.95969700  0.89574100  0.78836100  1
  Br  Br29  1  0.67514700  0.52104000  0.51623600  1
  Br  Br30  1  0.09478000  0.32441100  0.75485400  1
  Br  Br31  1  0.62664500  0.48047600  0.20785400  1
  Br  Br32  1  0.42044300  0.13986500  0.01542800  1
  Br  Br33  1  0.90522000  0.67558900  0.24514600  1
  Br  Br34  1  0.32485300  0.47896000  0.48376400  1
  Br  Br35  1  0.04030300  0.10425900  0.21163900  1
  Br  Br36  1  0.23535800  0.42158200  0.21651100  1
  Br  Br37  1  0.02143400  0.34252200  0.45144900  1
  Br  Br38  1  0.22180300  0.73572700  0.30116300  1
  Br  Br39  1  0.90412900  0.36905700  0.02034300  1
  Br  Br40  1  0.77819700  0.26427300  0.69883700  1
  Br  Br41  1  0.09587100  0.63094300  0.97965700  1
  Br  Br42  1  0.58027600  0.86143500  0.52797400  1
  Br  Br43  1  0.37335500  0.51952400  0.79214600  1
