# generated using pymatgen
data_Nb2Tl4Se11
_symmetry_space_group_name_H-M   'P 1'
_cell_length_a   8.18334900
_cell_length_b   9.35549182
_cell_length_c   14.06412452
_cell_angle_alpha   107.06908409
_cell_angle_beta   89.24175251
_cell_angle_gamma   94.32811750
_symmetry_Int_Tables_number   1
_chemical_formula_structural   Nb2Tl4Se11
_chemical_formula_sum   'Nb4 Tl8 Se22'
_cell_volume   1026.32990623
_cell_formula_units_Z   2
loop_
 _symmetry_equiv_pos_site_id
 _symmetry_equiv_pos_as_xyz
  1  'x, y, z'
loop_
 _atom_site_type_symbol
 _atom_site_label
 _atom_site_symmetry_multiplicity
 _atom_site_fract_x
 _atom_site_fract_y
 _atom_site_fract_z
 _atom_site_occupancy
  Nb  Nb0  1  0.12172900  0.63309900  0.30393700  1
  Nb  Nb1  1  0.87827100  0.36690100  0.69606300  1
  Nb  Nb2  1  0.33761200  0.89254100  0.18843900  1
  Nb  Nb3  1  0.66238800  0.10745900  0.81156100  1
  Tl  Tl4  1  0.50938900  0.71981000  0.88497300  1
  Tl  Tl5  1  0.75832200  0.41692500  0.41820300  1
  Tl  Tl6  1  0.78778700  0.97543400  0.42856800  1
  Tl  Tl7  1  0.21221300  0.02456600  0.57143200  1
  Tl  Tl8  1  0.49061100  0.28019000  0.11502700  1
  Tl  Tl9  1  0.24167800  0.58307500  0.58179700  1
  Tl  Tl10  1  0.05237100  0.23909500  0.98203500  1
  Tl  Tl11  1  0.94762900  0.76090500  0.01796500  1
  Se  Se12  1  0.05216300  0.34312500  0.24790200  1
  Se  Se13  1  0.60157800  0.07786300  0.24895800  1
  Se  Se14  1  0.39108800  0.81764800  0.37192800  1
  Se  Se15  1  0.54594000  0.69219200  0.11957100  1
  Se  Se16  1  0.34972000  0.14297300  0.33346400  1
  Se  Se17  1  0.45406000  0.30780800  0.88042900  1
  Se  Se18  1  0.26384500  0.60022300  0.11123500  1
  Se  Se19  1  0.60241100  0.44627300  0.64836800  1
  Se  Se20  1  0.27315800  0.96370600  0.03985700  1
  Se  Se21  1  0.11998200  0.50693300  0.81474100  1
  Se  Se22  1  0.03023800  0.86828200  0.24948200  1
  Se  Se23  1  0.96976200  0.13171800  0.75051800  1
  Se  Se24  1  0.73615500  0.39977700  0.88876500  1
  Se  Se25  1  0.72684200  0.03629400  0.96014300  1
  Se  Se26  1  0.94783700  0.65687500  0.75209800  1
  Se  Se27  1  0.39842200  0.92213700  0.75104200  1
  Se  Se28  1  0.60891200  0.18235200  0.62807200  1
  Se  Se29  1  0.65028000  0.85702700  0.66653600  1
  Se  Se30  1  0.39758900  0.55372700  0.35163200  1
  Se  Se31  1  0.88001800  0.49306700  0.18525900  1
  Se  Se32  1  0.98308400  0.70975700  0.46661000  1
  Se  Se33  1  0.01691600  0.29024300  0.53339000  1
