# generated using pymatgen
data_HgHNO4
_symmetry_space_group_name_H-M   'P 1'
_cell_length_a   7.35800600
_cell_length_b   6.65875500
_cell_length_c   7.98530504
_cell_angle_alpha   64.47113510
_cell_angle_beta   90.00000000
_cell_angle_gamma   90.00000000
_symmetry_Int_Tables_number   1
_chemical_formula_structural   HgHNO4
_chemical_formula_sum   'Hg4 H4 N4 O16'
_cell_volume   353.04373302
_cell_formula_units_Z   4
loop_
 _symmetry_equiv_pos_site_id
 _symmetry_equiv_pos_as_xyz
  1  'x, y, z'
loop_
 _atom_site_type_symbol
 _atom_site_label
 _atom_site_symmetry_multiplicity
 _atom_site_fract_x
 _atom_site_fract_y
 _atom_site_fract_z
 _atom_site_occupancy
  Hg  Hg0  1  0.63188200  0.99314800  0.76971200  1
  Hg  Hg1  1  0.13188200  0.00685200  0.73028800  1
  Hg  Hg2  1  0.36811800  0.00685200  0.23028800  1
  Hg  Hg3  1  0.86811800  0.99314800  0.26971200  1
  H  H4  1  0.86475100  0.27266900  0.55029700  1
  H  H5  1  0.36475100  0.72733100  0.94970300  1
  H  H6  1  0.13524900  0.72733100  0.44970300  1
  H  H7  1  0.63524900  0.27266900  0.05029700  1
  N  N8  1  0.84129200  0.58566200  0.08339100  1
  N  N9  1  0.34129200  0.41433800  0.41660900  1
  N  N10  1  0.15870800  0.41433800  0.91660900  1
  N  N11  1  0.65870800  0.58566200  0.58339100  1
  O  O12  1  0.89479300  0.78500100  0.04116800  1
  O  O13  1  0.39479300  0.21499900  0.45883200  1
  O  O14  1  0.10520700  0.21499900  0.95883200  1
  O  O15  1  0.60520700  0.78500100  0.54116800  1
  O  O16  1  0.70522000  0.55754100  0.99734800  1
  O  O17  1  0.20522000  0.44245900  0.50265200  1
  O  O18  1  0.29478000  0.44245900  0.00265200  1
  O  O19  1  0.79478000  0.55754100  0.49734800  1
  O  O20  1  0.92361500  0.42458500  0.20563800  1
  O  O21  1  0.42361500  0.57541500  0.29436200  1
  O  O22  1  0.07638500  0.57541500  0.79436200  1
  O  O23  1  0.57638500  0.42458500  0.70563800  1
  O  O24  1  0.37135500  0.89283800  0.89896800  1
  O  O25  1  0.87135500  0.10716200  0.60103200  1
  O  O26  1  0.62864500  0.10716200  0.10103200  1
  O  O27  1  0.12864500  0.89283800  0.39896800  1
