# generated using pymatgen
data_Cs2TeO4
_symmetry_space_group_name_H-M   'P 1'
_cell_length_a   6.74713000
_cell_length_b   8.73982400
_cell_length_c   11.94766000
_cell_angle_alpha   90.00000000
_cell_angle_beta   90.00000000
_cell_angle_gamma   90.00000000
_symmetry_Int_Tables_number   1
_chemical_formula_structural   Cs2TeO4
_chemical_formula_sum   'Cs8 Te4 O16'
_cell_volume   704.53832120
_cell_formula_units_Z   4
loop_
 _symmetry_equiv_pos_site_id
 _symmetry_equiv_pos_as_xyz
  1  'x, y, z'
loop_
 _atom_site_type_symbol
 _atom_site_label
 _atom_site_symmetry_multiplicity
 _atom_site_fract_x
 _atom_site_fract_y
 _atom_site_fract_z
 _atom_site_occupancy
  Cs  Cs0  1  0.75000000  0.67263900  0.41556300  1
  Cs  Cs1  1  0.25000000  0.00351900  0.28556600  1
  Cs  Cs2  1  0.75000000  0.99648100  0.71443400  1
  Cs  Cs3  1  0.25000000  0.32736100  0.58443700  1
  Cs  Cs4  1  0.25000000  0.50351900  0.21443400  1
  Cs  Cs5  1  0.25000000  0.82736100  0.91556300  1
  Cs  Cs6  1  0.75000000  0.17263900  0.08443700  1
  Cs  Cs7  1  0.75000000  0.49648100  0.78556600  1
  Te  Te8  1  0.75000000  0.71913900  0.07827400  1
  Te  Te9  1  0.75000000  0.21913900  0.42172600  1
  Te  Te10  1  0.25000000  0.28086100  0.92172600  1
  Te  Te11  1  0.25000000  0.78086100  0.57827400  1
  O  O12  1  0.75000000  0.30804800  0.56282100  1
  O  O13  1  0.52537400  0.78630900  0.15290800  1
  O  O14  1  0.25000000  0.49193400  0.92929900  1
  O  O15  1  0.25000000  0.99193400  0.57070100  1
  O  O16  1  0.47462600  0.21369100  0.84709200  1
  O  O17  1  0.75000000  0.80804800  0.93717900  1
  O  O18  1  0.25000000  0.19195200  0.06282100  1
  O  O19  1  0.47462600  0.71369100  0.65290800  1
  O  O20  1  0.02537400  0.21369100  0.84709200  1
  O  O21  1  0.97462600  0.78630900  0.15290800  1
  O  O22  1  0.97462600  0.28630900  0.34709200  1
  O  O23  1  0.75000000  0.50806600  0.07070100  1
  O  O24  1  0.52537400  0.28630900  0.34709200  1
  O  O25  1  0.02537400  0.71369100  0.65290800  1
  O  O26  1  0.25000000  0.69195200  0.43717900  1
  O  O27  1  0.75000000  0.00806600  0.42929900  1
