# generated using pymatgen
data_Ba3Nb6(Si2O13)2
_symmetry_space_group_name_H-M   'P 1'
_cell_length_a   9.18141197
_cell_length_b   9.18141197
_cell_length_c   7.85085400
_cell_angle_alpha   90.00000000
_cell_angle_beta   90.00000000
_cell_angle_gamma   119.99999978
_symmetry_Int_Tables_number   1
_chemical_formula_structural   Ba3Nb6(Si2O13)2
_chemical_formula_sum   'Ba3 Nb6 Si4 O26'
_cell_volume   573.14760620
_cell_formula_units_Z   1
loop_
 _symmetry_equiv_pos_site_id
 _symmetry_equiv_pos_as_xyz
  1  'x, y, z'
loop_
 _atom_site_type_symbol
 _atom_site_label
 _atom_site_symmetry_multiplicity
 _atom_site_fract_x
 _atom_site_fract_y
 _atom_site_fract_z
 _atom_site_occupancy
  Ba  Ba0  1  0.00000000  0.59994800  0.50000000  1
  Ba  Ba1  1  0.40005200  0.40005200  0.50000000  1
  Ba  Ba2  1  0.59994800  0.00000000  0.50000000  1
  Nb  Nb3  1  0.23875100  0.00000000  0.75565200  1
  Nb  Nb4  1  0.76124900  0.76124900  0.24434800  1
  Nb  Nb5  1  0.00000000  0.23875100  0.24434800  1
  Nb  Nb6  1  0.00000000  0.23875100  0.75565200  1
  Nb  Nb7  1  0.76124900  0.76124900  0.75565200  1
  Nb  Nb8  1  0.23875100  0.00000000  0.24434800  1
  Si  Si9  1  0.66666700  0.33333300  0.20575300  1
  Si  Si10  1  0.66666700  0.33333300  0.79424700  1
  Si  Si11  1  0.33333300  0.66666700  0.79424700  1
  Si  Si12  1  0.33333300  0.66666700  0.20575300  1
  O  O13  1  0.00000000  0.23085300  0.50000000  1
  O  O14  1  0.76914700  0.76914700  0.50000000  1
  O  O15  1  0.23085300  0.00000000  0.50000000  1
  O  O16  1  0.51124900  0.69535500  0.28390100  1
  O  O17  1  0.30464500  0.81589400  0.28390100  1
  O  O18  1  0.18410600  0.48875100  0.28390100  1
  O  O19  1  0.48875100  0.18410600  0.71609900  1
  O  O20  1  0.18410600  0.48875100  0.71609900  1
  O  O21  1  0.51124900  0.69535500  0.71609900  1
  O  O22  1  0.30464500  0.81589400  0.71609900  1
  O  O23  1  0.69535500  0.51124900  0.28390100  1
  O  O24  1  0.81589400  0.30464500  0.28390100  1
  O  O25  1  0.81589400  0.30464500  0.71609900  1
  O  O26  1  0.33333300  0.66666700  0.00000000  1
  O  O27  1  0.66666700  0.33333300  0.00000000  1
  O  O28  1  0.27889800  0.00000000  0.00000000  1
  O  O29  1  0.72110200  0.72110200  0.00000000  1
  O  O30  1  0.00000000  0.27889800  0.00000000  1
  O  O31  1  0.82395800  0.00000000  0.23476500  1
  O  O32  1  0.17604200  0.17604200  0.76523500  1
  O  O33  1  0.00000000  0.82395800  0.76523500  1
  O  O34  1  0.00000000  0.82395800  0.23476500  1
  O  O35  1  0.17604200  0.17604200  0.23476500  1
  O  O36  1  0.82395800  0.00000000  0.76523500  1
  O  O37  1  0.48875100  0.18410600  0.28390100  1
  O  O38  1  0.69535500  0.51124900  0.71609900  1
