# generated using pymatgen
data_Ca19In8N7
_symmetry_space_group_name_H-M   'P 1'
_cell_length_a   10.44038354
_cell_length_b   10.44038354
_cell_length_c   10.44038354
_cell_angle_alpha   60.00000000
_cell_angle_beta   60.00000000
_cell_angle_gamma   60.00000000
_symmetry_Int_Tables_number   1
_chemical_formula_structural   Ca19In8N7
_chemical_formula_sum   'Ca19 In8 N7'
_cell_volume   804.70066857
_cell_formula_units_Z   1
loop_
 _symmetry_equiv_pos_site_id
 _symmetry_equiv_pos_as_xyz
  1  'x, y, z'
loop_
 _atom_site_type_symbol
 _atom_site_label
 _atom_site_symmetry_multiplicity
 _atom_site_fract_x
 _atom_site_fract_y
 _atom_site_fract_z
 _atom_site_occupancy
  Ca  Ca0  1  0.17299600  0.50000000  0.82700400  1
  Ca  Ca1  1  0.50000000  0.82700400  0.17299600  1
  Ca  Ca2  1  0.82700400  0.17299600  0.50000000  1
  Ca  Ca3  1  0.16654800  0.83345200  0.16654800  1
  Ca  Ca4  1  0.82700400  0.50000000  0.17299600  1
  Ca  Ca5  1  0.17299600  0.82700400  0.50000000  1
  Ca  Ca6  1  0.16654800  0.16654800  0.83345200  1
  Ca  Ca7  1  0.17299600  0.50000000  0.50000000  1
  Ca  Ca8  1  0.83345200  0.83345200  0.16654800  1
  Ca  Ca9  1  0.83345200  0.16654800  0.83345200  1
  Ca  Ca10  1  0.50000000  0.82700400  0.50000000  1
  Ca  Ca11  1  0.50000000  0.50000000  0.50000000  1
  Ca  Ca12  1  0.50000000  0.50000000  0.17299600  1
  Ca  Ca13  1  0.16654800  0.83345200  0.83345200  1
  Ca  Ca14  1  0.50000000  0.17299600  0.82700400  1
  Ca  Ca15  1  0.50000000  0.17299600  0.50000000  1
  Ca  Ca16  1  0.82700400  0.50000000  0.50000000  1
  Ca  Ca17  1  0.83345200  0.16654800  0.16654800  1
  Ca  Ca18  1  0.50000000  0.50000000  0.82700400  1
  In  In19  1  0.17473900  0.17473900  0.47578200  1
  In  In20  1  0.82526100  0.52421800  0.82526100  1
  In  In21  1  0.47578200  0.17473900  0.17473900  1
  In  In22  1  0.17473900  0.47578200  0.17473900  1
  In  In23  1  0.52421800  0.82526100  0.82526100  1
  In  In24  1  0.17473900  0.17473900  0.17473900  1
  In  In25  1  0.82526100  0.82526100  0.82526100  1
  In  In26  1  0.82526100  0.82526100  0.52421800  1
  N  N27  1  0.67376100  0.32623900  0.67376100  1
  N  N28  1  0.67376100  0.32623900  0.32623900  1
  N  N29  1  0.32623900  0.67376100  0.67376100  1
  N  N30  1  0.32623900  0.67376100  0.32623900  1
  N  N31  1  0.32623900  0.32623900  0.67376100  1
  N  N32  1  0.67376100  0.67376100  0.32623900  1
  N  N33  1  0.00000000  0.00000000  0.00000000  1
