# generated using pymatgen
data_NaZnSiHO4
_symmetry_space_group_name_H-M   'P 1'
_cell_length_a   5.22454800
_cell_length_b   7.76076300
_cell_length_c   9.49642600
_cell_angle_alpha   90.00000000
_cell_angle_beta   90.00000000
_cell_angle_gamma   90.00000000
_symmetry_Int_Tables_number   1
_chemical_formula_structural   NaZnSiHO4
_chemical_formula_sum   'Na4 Zn4 Si4 H4 O16'
_cell_volume   385.04663558
_cell_formula_units_Z   4
loop_
 _symmetry_equiv_pos_site_id
 _symmetry_equiv_pos_as_xyz
  1  'x, y, z'
loop_
 _atom_site_type_symbol
 _atom_site_label
 _atom_site_symmetry_multiplicity
 _atom_site_fract_x
 _atom_site_fract_y
 _atom_site_fract_z
 _atom_site_occupancy
  Na  Na0  1  0.02440200  0.20524200  0.33387600  1
  Na  Na1  1  0.52440200  0.29475800  0.66612400  1
  Na  Na2  1  0.97559800  0.70524200  0.16612400  1
  Na  Na3  1  0.47559800  0.79475800  0.83387600  1
  Zn  Zn4  1  0.47835600  0.88949400  0.48884700  1
  Zn  Zn5  1  0.97835600  0.61050600  0.51115300  1
  Zn  Zn6  1  0.52164400  0.38949400  0.01115300  1
  Zn  Zn7  1  0.02164400  0.11050600  0.98884700  1
  Si  Si8  1  0.51145100  0.01543000  0.16148100  1
  Si  Si9  1  0.01145100  0.48457000  0.83851900  1
  Si  Si10  1  0.48854900  0.51543000  0.33851900  1
  Si  Si11  1  0.98854900  0.98457000  0.66148100  1
  H  H12  1  0.97363400  0.78013200  0.87494400  1
  H  H13  1  0.47363400  0.71986800  0.12505600  1
  H  H14  1  0.02636600  0.28013200  0.62505600  1
  H  H15  1  0.52636600  0.21986800  0.37494400  1
  O  O16  1  0.82334100  0.01936000  0.14895500  1
  O  O17  1  0.32334100  0.48064000  0.85104500  1
  O  O18  1  0.17665900  0.51936000  0.35104500  1
  O  O19  1  0.67665900  0.98064000  0.64895500  1
  O  O20  1  0.42279400  0.04035500  0.32641100  1
  O  O21  1  0.92279400  0.45964500  0.67358900  1
  O  O22  1  0.57720600  0.54035500  0.17358900  1
  O  O23  1  0.07720600  0.95964500  0.82641100  1
  O  O24  1  0.63350500  0.66766500  0.43020200  1
  O  O25  1  0.13350500  0.83233500  0.56979800  1
  O  O26  1  0.36649500  0.16766500  0.06979800  1
  O  O27  1  0.86649500  0.33233500  0.93020200  1
  O  O28  1  0.60751900  0.33324200  0.40706500  1
  O  O29  1  0.10751900  0.16675800  0.59293500  1
  O  O30  1  0.39248100  0.83324200  0.09293500  1
  O  O31  1  0.89248100  0.66675800  0.90706500  1
