# generated using pymatgen
data_RbHS
_symmetry_space_group_name_H-M   'P 1'
_cell_length_a   5.22356200
_cell_length_b   4.61283100
_cell_length_c   6.98878970
_cell_angle_alpha   78.07638631
_cell_angle_beta   90.00000000
_cell_angle_gamma   90.00000000
_symmetry_Int_Tables_number   1
_chemical_formula_structural   RbHS
_chemical_formula_sum   'Rb2 H2 S2'
_cell_volume   164.76438076
_cell_formula_units_Z   2
loop_
 _symmetry_equiv_pos_site_id
 _symmetry_equiv_pos_as_xyz
  1  'x, y, z'
loop_
 _atom_site_type_symbol
 _atom_site_label
 _atom_site_symmetry_multiplicity
 _atom_site_fract_x
 _atom_site_fract_y
 _atom_site_fract_z
 _atom_site_occupancy
  Rb  Rb0  1  0.75000000  0.76890200  0.76257300  1
  Rb  Rb1  1  0.25000000  0.23109800  0.23742700  1
  H  H2  1  0.75000000  0.47884600  0.39354900  1
  H  H3  1  0.25000000  0.52115400  0.60645100  1
  S  S4  1  0.75000000  0.73478300  0.25870800  1
  S  S5  1  0.25000000  0.26521700  0.74129200  1
