# generated using pymatgen
data_Cs2CuCl4
_symmetry_space_group_name_H-M   'P 1'
_cell_length_a   7.78238200
_cell_length_b   9.96156800
_cell_length_c   12.39000600
_cell_angle_alpha   90.00000000
_cell_angle_beta   90.00000000
_cell_angle_gamma   90.00000000
_symmetry_Int_Tables_number   1
_chemical_formula_structural   Cs2CuCl4
_chemical_formula_sum   'Cs8 Cu4 Cl16'
_cell_volume   960.53183881
_cell_formula_units_Z   4
loop_
 _symmetry_equiv_pos_site_id
 _symmetry_equiv_pos_as_xyz
  1  'x, y, z'
loop_
 _atom_site_type_symbol
 _atom_site_label
 _atom_site_symmetry_multiplicity
 _atom_site_fract_x
 _atom_site_fract_y
 _atom_site_fract_z
 _atom_site_occupancy
  Cs  Cs0  1  0.25000000  0.13378100  0.89771600  1
  Cs  Cs1  1  0.75000000  0.36621900  0.39771600  1
  Cs  Cs2  1  0.25000000  0.63378100  0.60228400  1
  Cs  Cs3  1  0.25000000  0.00890400  0.32677300  1
  Cs  Cs4  1  0.75000000  0.99109600  0.67322700  1
  Cs  Cs5  1  0.75000000  0.86621900  0.10228400  1
  Cs  Cs6  1  0.25000000  0.50890400  0.17322700  1
  Cs  Cs7  1  0.75000000  0.49109600  0.82677300  1
  Cu  Cu8  1  0.25000000  0.73193400  0.91599600  1
  Cu  Cu9  1  0.25000000  0.23193400  0.58400400  1
  Cu  Cu10  1  0.75000000  0.76806600  0.41599600  1
  Cu  Cu11  1  0.75000000  0.26806600  0.08400400  1
  Cl  Cl12  1  0.51636400  0.28254200  0.64050400  1
  Cl  Cl13  1  0.98363600  0.28254200  0.64050400  1
  Cl  Cl14  1  0.51636400  0.78254200  0.85949600  1
  Cl  Cl15  1  0.25000000  0.35792200  0.43071000  1
  Cl  Cl16  1  0.01636400  0.71745800  0.35949600  1
  Cl  Cl17  1  0.25000000  0.85792200  0.06929000  1
  Cl  Cl18  1  0.48363600  0.21745800  0.14050400  1
  Cl  Cl19  1  0.75000000  0.49245100  0.11913300  1
  Cl  Cl20  1  0.98363600  0.78254200  0.85949600  1
  Cl  Cl21  1  0.25000000  0.50754900  0.88086700  1
  Cl  Cl22  1  0.01636400  0.21745800  0.14050400  1
  Cl  Cl23  1  0.75000000  0.99245100  0.38086700  1
  Cl  Cl24  1  0.48363600  0.71745800  0.35949600  1
  Cl  Cl25  1  0.75000000  0.64207800  0.56929000  1
  Cl  Cl26  1  0.75000000  0.14207800  0.93071000  1
  Cl  Cl27  1  0.25000000  0.00754900  0.61913300  1
