# generated using pymatgen
data_PuS2
_symmetry_space_group_name_H-M   'P 1'
_cell_length_a   3.92294000
_cell_length_b   3.92294000
_cell_length_c   7.67791300
_cell_angle_alpha   90.00000000
_cell_angle_beta   90.00000000
_cell_angle_gamma   90.00000000
_symmetry_Int_Tables_number   1
_chemical_formula_structural   PuS2
_chemical_formula_sum   'Pu2 S4'
_cell_volume   118.15892151
_cell_formula_units_Z   2
loop_
 _symmetry_equiv_pos_site_id
 _symmetry_equiv_pos_as_xyz
  1  'x, y, z'
loop_
 _atom_site_type_symbol
 _atom_site_label
 _atom_site_symmetry_multiplicity
 _atom_site_fract_x
 _atom_site_fract_y
 _atom_site_fract_z
 _atom_site_occupancy
  Pu  Pu0  1  0.50000000  0.00000000  0.76871200  1
  Pu  Pu1  1  0.00000000  0.50000000  0.23128800  1
  S  S2  1  0.00000000  0.50000000  0.86111300  1
  S  S3  1  0.50000000  0.50000000  0.50000000  1
  S  S4  1  0.00000000  0.00000000  0.50000000  1
  S  S5  1  0.50000000  0.00000000  0.13888700  1
