# generated using pymatgen
data_NaZr2(PO4)3
_symmetry_space_group_name_H-M   'P 1'
_cell_length_a   9.24747402
_cell_length_b   9.24747402
_cell_length_c   9.24747362
_cell_angle_alpha   57.83823333
_cell_angle_beta   57.83823333
_cell_angle_gamma   57.83823053
_symmetry_Int_Tables_number   1
_chemical_formula_structural   NaZr2(PO4)3
_chemical_formula_sum   'Na2 Zr4 P6 O24'
_cell_volume   531.43041438
_cell_formula_units_Z   2
loop_
 _symmetry_equiv_pos_site_id
 _symmetry_equiv_pos_as_xyz
  1  'x, y, z'
loop_
 _atom_site_type_symbol
 _atom_site_label
 _atom_site_symmetry_multiplicity
 _atom_site_fract_x
 _atom_site_fract_y
 _atom_site_fract_z
 _atom_site_occupancy
  Na  Na0  1  0.50000000  0.50000000  0.50000000  1
  Na  Na1  1  0.00000000  0.00000000  0.00000000  1
  Zr  Zr2  1  0.85488900  0.85488900  0.85488900  1
  Zr  Zr3  1  0.64511100  0.64511100  0.64511100  1
  Zr  Zr4  1  0.35488900  0.35488900  0.35488900  1
  Zr  Zr5  1  0.14511100  0.14511100  0.14511100  1
  P  P6  1  0.95895500  0.25000000  0.54104500  1
  P  P7  1  0.54104500  0.95895500  0.25000000  1
  P  P8  1  0.04104500  0.75000000  0.45895500  1
  P  P9  1  0.45895500  0.04104500  0.75000000  1
  P  P10  1  0.25000000  0.54104500  0.95895500  1
  P  P11  1  0.75000000  0.45895500  0.04104500  1
  O  O12  1  0.91569400  0.28056200  0.06261800  1
  O  O13  1  0.06261800  0.91569400  0.28056200  1
  O  O14  1  0.28056200  0.06261800  0.91569400  1
  O  O15  1  0.58430600  0.43738200  0.21943800  1
  O  O16  1  0.21943800  0.58430600  0.43738200  1
  O  O17  1  0.43738200  0.21943800  0.58430600  1
  O  O18  1  0.08430600  0.71943800  0.93738200  1
  O  O19  1  0.93738200  0.08430600  0.71943800  1
  O  O20  1  0.71943800  0.93738200  0.08430600  1
  O  O21  1  0.41569400  0.56261800  0.78056200  1
  O  O22  1  0.78056200  0.41569400  0.56261800  1
  O  O23  1  0.56261800  0.78056200  0.41569400  1
  O  O24  1  0.49580800  0.88057700  0.70913100  1
  O  O25  1  0.88057700  0.70913100  0.49580800  1
  O  O26  1  0.70913100  0.49580800  0.88057700  1
  O  O27  1  0.61942300  0.00419200  0.79086900  1
  O  O28  1  0.00419200  0.79086900  0.61942300  1
  O  O29  1  0.79086900  0.61942300  0.00419200  1
  O  O30  1  0.50419200  0.11942300  0.29086900  1
  O  O31  1  0.11942300  0.29086900  0.50419200  1
  O  O32  1  0.29086900  0.50419200  0.11942300  1
  O  O33  1  0.38057700  0.99580800  0.20913100  1
  O  O34  1  0.99580800  0.20913100  0.38057700  1
  O  O35  1  0.20913100  0.38057700  0.99580800  1
