# generated using pymatgen
data_Nd10Si10BrN17O9
_symmetry_space_group_name_H-M   'P 1'
_cell_length_a   10.54774400
_cell_length_b   11.25746355
_cell_length_c   11.65924582
_cell_angle_alpha   90.06089362
_cell_angle_beta   90.04264537
_cell_angle_gamma   90.05690153
_symmetry_Int_Tables_number   1
_chemical_formula_structural   Nd10Si10BrN17O9
_chemical_formula_sum   'Nd20 Si20 Br2 N34 O18'
_cell_volume   1384.42683601
_cell_formula_units_Z   2
loop_
 _symmetry_equiv_pos_site_id
 _symmetry_equiv_pos_as_xyz
  1  'x, y, z'
loop_
 _atom_site_type_symbol
 _atom_site_label
 _atom_site_symmetry_multiplicity
 _atom_site_fract_x
 _atom_site_fract_y
 _atom_site_fract_z
 _atom_site_occupancy
  Nd  Nd0  1  0.00727200  0.99958200  0.83056700  1
  Nd  Nd1  1  0.89473200  0.36715200  0.00022100  1
  Nd  Nd2  1  0.86116000  0.11220500  0.50168900  1
  Nd  Nd3  1  0.86248700  0.60235600  0.75901400  1
  Nd  Nd4  1  0.86187200  0.60317900  0.24227400  1
  Nd  Nd5  1  0.64006500  0.09792800  0.23862500  1
  Nd  Nd6  1  0.63548500  0.10234200  0.76144900  1
  Nd  Nd7  1  0.63794500  0.61602600  0.49772800  1
  Nd  Nd8  1  0.62633700  0.87009900  0.00414800  1
  Nd  Nd9  1  0.50102100  0.49865600  0.17314000  1
  Nd  Nd10  1  0.49777100  0.49685100  0.82669800  1
  Nd  Nd11  1  0.35391200  0.13034600  0.99606000  1
  Nd  Nd12  1  0.37402800  0.38232000  0.50277500  1
  Nd  Nd13  1  0.35863000  0.89628600  0.23431700  1
  Nd  Nd14  1  0.35530100  0.90016000  0.76570900  1
  Nd  Nd15  1  0.14198500  0.39991800  0.76990300  1
  Nd  Nd16  1  0.14189700  0.40118300  0.22947800  1
  Nd  Nd17  1  0.12560100  0.88110100  0.49867800  1
  Nd  Nd18  1  0.13066700  0.62791700  0.99971800  1
  Nd  Nd19  1  0.00859700  0.00087500  0.16928100  1
  Si  Si20  1  0.88479600  0.25417600  0.24593200  1
  Si  Si21  1  0.88320100  0.25392400  0.75476700  1
  Si  Si22  1  0.84987700  0.85634100  0.36415200  1
  Si  Si23  1  0.84847600  0.85554700  0.63731300  1
  Si  Si24  1  0.78596000  0.11014900  0.00019100  1
  Si  Si25  1  0.71290800  0.60742000  0.99964400  1
  Si  Si26  1  0.65072000  0.35451300  0.63526400  1
  Si  Si27  1  0.65285500  0.35297500  0.36420700  1
  Si  Si28  1  0.61582900  0.76058300  0.24358200  1
  Si  Si29  1  0.61520700  0.75524100  0.75626700  1
  Si  Si30  1  0.38452700  0.24482300  0.24518100  1
  Si  Si31  1  0.38338900  0.23909700  0.75508100  1
  Si  Si32  1  0.34979200  0.64714700  0.63502100  1
  Si  Si33  1  0.35169700  0.64573500  0.36561400  1
  Si  Si34  1  0.28219300  0.39125400  0.00009100  1
  Si  Si35  1  0.21291100  0.89270700  0.99977400  1
  Si  Si36  1  0.15059700  0.14874500  0.36506900  1
  Si  Si37  1  0.14901000  0.14785000  0.63362600  1
  Si  Si38  1  0.11652700  0.73846500  0.24456800  1
  Si  Si39  1  0.11556200  0.73806400  0.75482200  1
  Br  Br40  1  0.94493500  0.53373300  0.50023000  1
  Br  Br41  1  0.54383000  0.03334500  0.50018900  1
  N  N42  1  0.97914400  0.81151000  0.28438800  1
  N  N43  1  0.97582700  0.80896600  0.71817500  1
  N  N44  1  0.89847800  0.88685600  0.50120300  1
  N  N45  1  0.82988600  0.18221600  0.12227400  1
  N  N46  1  0.82873400  0.18400400  0.87916900  1
  N  N47  1  0.76971400  0.25030800  0.64943400  1
  N  N48  1  0.77337900  0.25003300  0.35279900  1
  N  N49  1  0.72745000  0.75204300  0.64935700  1
  N  N50  1  0.73031000  0.75193500  0.35065400  1
  N  N51  1  0.67478200  0.68084200  0.12251000  1
  N  N52  1  0.67309500  0.68375400  0.87858700  1
  N  N53  1  0.60230500  0.38741400  0.49919200  1
  N  N54  1  0.58150300  0.90004700  0.19687100  1
  N  N55  1  0.52720600  0.30442800  0.28169600  1
  N  N56  1  0.52235400  0.30775400  0.71420300  1
  N  N57  1  0.47640800  0.68973700  0.27930300  1
  N  N58  1  0.47228900  0.69303200  0.72413500  1
  N  N59  1  0.41477200  0.09992900  0.80390500  1
  N  N60  1  0.40780100  0.61844600  0.50086200  1
  N  N61  1  0.33587800  0.32220400  0.12271500  1
  N  N62  1  0.33440800  0.32436000  0.87633100  1
  N  N63  1  0.26899300  0.25128900  0.64773400  1
  N  N64  1  0.27233800  0.25086900  0.35232700  1
  N  N65  1  0.22917300  0.75048600  0.64603200  1
  N  N66  1  0.23224800  0.75025500  0.35202100  1
  N  N67  1  0.17444900  0.81765300  0.12329800  1
  N  N68  1  0.17315000  0.81889200  0.87557600  1
  N  N69  1  0.15014500  0.03361900  0.00028400  1
  N  N70  1  0.11951000  0.40531300  0.00117100  1
  N  N71  1  0.09132900  0.12155100  0.49877200  1
  N  N72  1  0.08052700  0.59933800  0.19883500  1
  N  N73  1  0.08166400  0.59857500  0.80065300  1
  N  N74  1  0.02935600  0.19490900  0.27558300  1
  N  N75  1  0.02569500  0.19240500  0.72195600  1
  O  O76  1  0.91189300  0.39373600  0.20272700  1
  O  O77  1  0.91244900  0.39327300  0.79743800  1
  O  O78  1  0.86912500  0.57936400  0.99719300  1
  O  O79  1  0.84645600  0.97184300  0.99940300  1
  O  O80  1  0.81585800  0.99151200  0.68867400  1
  O  O81  1  0.81972800  0.99391500  0.31514400  1
  O  O82  1  0.68140900  0.48877500  0.31028300  1
  O  O83  1  0.67971400  0.49022300  0.68950200  1
  O  O84  1  0.64352100  0.47359600  0.99886700  1
  O  O85  1  0.62927200  0.08634900  0.00046300  1
  O  O86  1  0.58388100  0.89404500  0.80000400  1
  O  O87  1  0.41284200  0.10648900  0.19877900  1
  O  O88  1  0.37538200  0.90783700  0.99934800  1
  O  O89  1  0.34770100  0.52944200  0.00105700  1
  O  O90  1  0.31825300  0.50834500  0.68165600  1
  O  O91  1  0.31950600  0.50704800  0.31880500  1
  O  O92  1  0.18571300  0.01103800  0.31800200  1
  O  O93  1  0.18144000  0.00864200  0.67858700  1
