# generated using pymatgen
data_NdHO2
_symmetry_space_group_name_H-M   'P 1'
_cell_length_a   3.85262900
_cell_length_b   4.35718200
_cell_length_c   6.29332410
_cell_angle_alpha   73.52058090
_cell_angle_beta   90.00000000
_cell_angle_gamma   90.00000000
_symmetry_Int_Tables_number   1
_chemical_formula_structural   NdHO2
_chemical_formula_sum   'Nd2 H2 O4'
_cell_volume   101.30389220
_cell_formula_units_Z   2
loop_
 _symmetry_equiv_pos_site_id
 _symmetry_equiv_pos_as_xyz
  1  'x, y, z'
loop_
 _atom_site_type_symbol
 _atom_site_label
 _atom_site_symmetry_multiplicity
 _atom_site_fract_x
 _atom_site_fract_y
 _atom_site_fract_z
 _atom_site_occupancy
  Nd  Nd0  1  0.23829100  0.32954100  0.30746300  1
  Nd  Nd1  1  0.73829100  0.67045900  0.69253700  1
  H  H2  1  0.60470900  0.04459000  0.02831700  1
  H  H3  1  0.10470900  0.95541000  0.97168300  1
  O  O4  1  0.74027900  0.24325300  0.53273200  1
  O  O5  1  0.24027900  0.75674700  0.46726800  1
  O  O6  1  0.73733300  0.23132300  0.04500600  1
  O  O7  1  0.23733300  0.76867700  0.95499400  1
