# generated using pymatgen
data_TlH6(NO4)3
_symmetry_space_group_name_H-M   'P 1'
_cell_length_a   7.88195585
_cell_length_b   7.88195585
_cell_length_c   7.88195497
_cell_angle_alpha   100.66060390
_cell_angle_beta   100.66060390
_cell_angle_gamma   100.66059959
_symmetry_Int_Tables_number   1
_chemical_formula_structural   TlH6(NO4)3
_chemical_formula_sum   'Tl2 H12 N6 O24'
_cell_volume   460.56772880
_cell_formula_units_Z   2
loop_
 _symmetry_equiv_pos_site_id
 _symmetry_equiv_pos_as_xyz
  1  'x, y, z'
loop_
 _atom_site_type_symbol
 _atom_site_label
 _atom_site_symmetry_multiplicity
 _atom_site_fract_x
 _atom_site_fract_y
 _atom_site_fract_z
 _atom_site_occupancy
  Tl  Tl0  1  0.24396900  0.24396900  0.24396900  1
  Tl  Tl1  1  0.75603100  0.75603100  0.75603100  1
  H  H2  1  0.57870000  0.30373200  0.14549300  1
  H  H3  1  0.30373200  0.14549300  0.57870000  1
  H  H4  1  0.14549300  0.57870000  0.30373200  1
  H  H5  1  0.42130000  0.69626800  0.85450700  1
  H  H6  1  0.69626800  0.85450700  0.42130000  1
  H  H7  1  0.85450700  0.42130000  0.69626800  1
  H  H8  1  0.63944600  0.32923900  0.35334900  1
  H  H9  1  0.32923900  0.35334900  0.63944600  1
  H  H10  1  0.35334900  0.63944600  0.32923900  1
  H  H11  1  0.36055400  0.67076100  0.64665100  1
  H  H12  1  0.67076100  0.64665100  0.36055400  1
  H  H13  1  0.64665100  0.36055400  0.67076100  1
  N  N14  1  0.89973100  0.13841800  0.33963500  1
  N  N15  1  0.13841800  0.33963500  0.89973100  1
  N  N16  1  0.33963500  0.89973100  0.13841800  1
  N  N17  1  0.10026900  0.86158200  0.66036500  1
  N  N18  1  0.86158200  0.66036500  0.10026900  1
  N  N19  1  0.66036500  0.10026900  0.86158200  1
  O  O20  1  0.75800300  0.06657800  0.37169300  1
  O  O21  1  0.06657800  0.37169300  0.75800300  1
  O  O22  1  0.37169300  0.75800300  0.06657800  1
  O  O23  1  0.24199700  0.93342200  0.62830700  1
  O  O24  1  0.93342200  0.62830700  0.24199700  1
  O  O25  1  0.62830700  0.24199700  0.93342200  1
  O  O26  1  0.00685800  0.04016300  0.29074000  1
  O  O27  1  0.04016300  0.29074000  0.00685800  1
  O  O28  1  0.29074000  0.00685800  0.04016300  1
  O  O29  1  0.99314200  0.95983700  0.70926000  1
  O  O30  1  0.95983700  0.70926000  0.99314200  1
  O  O31  1  0.70926000  0.99314200  0.95983700  1
  O  O32  1  0.94348800  0.30231000  0.35199500  1
  O  O33  1  0.30231000  0.35199500  0.94348800  1
  O  O34  1  0.35199500  0.94348800  0.30231000  1
  O  O35  1  0.05651200  0.69769000  0.64800500  1
  O  O36  1  0.69769000  0.64800500  0.05651200  1
  O  O37  1  0.64800500  0.05651200  0.69769000  1
  O  O38  1  0.55114500  0.35301300  0.26035900  1
  O  O39  1  0.35301300  0.26035900  0.55114500  1
  O  O40  1  0.26035900  0.55114500  0.35301300  1
  O  O41  1  0.44885500  0.64698700  0.73964100  1
  O  O42  1  0.64698700  0.73964100  0.44885500  1
  O  O43  1  0.73964100  0.44885500  0.64698700  1
