# generated using pymatgen
data_La2Ge5Ir3
_symmetry_space_group_name_H-M   'P 1'
_cell_length_a   8.55106747
_cell_length_b   8.55106747
_cell_length_c   8.55106747
_cell_angle_alpha   137.75154657
_cell_angle_beta   105.70867489
_cell_angle_gamma   89.37073783
_symmetry_Int_Tables_number   1
_chemical_formula_structural   La2Ge5Ir3
_chemical_formula_sum   'La4 Ge10 Ir6'
_cell_volume   386.96921177
_cell_formula_units_Z   2
loop_
 _symmetry_equiv_pos_site_id
 _symmetry_equiv_pos_as_xyz
  1  'x, y, z'
loop_
 _atom_site_type_symbol
 _atom_site_label
 _atom_site_symmetry_multiplicity
 _atom_site_fract_x
 _atom_site_fract_y
 _atom_site_fract_z
 _atom_site_occupancy
  La  La0  1  0.09932700  0.86822700  0.23109900  1
  La  La1  1  0.63712800  0.36822700  0.26890100  1
  La  La2  1  0.90067300  0.13177300  0.76890100  1
  La  La3  1  0.36287200  0.63177300  0.73109900  1
  Ge  Ge4  1  0.27291800  0.02291800  0.75000000  1
  Ge  Ge5  1  0.27291800  0.52291800  0.25000000  1
  Ge  Ge6  1  0.00000000  0.25000000  0.25000000  1
  Ge  Ge7  1  0.24123800  0.39848900  0.84274900  1
  Ge  Ge8  1  0.75876200  0.60151100  0.15725100  1
  Ge  Ge9  1  0.72708200  0.47708200  0.75000000  1
  Ge  Ge10  1  0.55574000  0.89848900  0.65725100  1
  Ge  Ge11  1  0.72708200  0.97708200  0.25000000  1
  Ge  Ge12  1  0.44426000  0.10151100  0.34274900  1
  Ge  Ge13  1  0.00000000  0.75000000  0.75000000  1
  Ir  Ir14  1  0.03007400  0.64025800  0.38981600  1
  Ir  Ir15  1  0.74955800  0.85974200  0.88981600  1
  Ir  Ir16  1  0.96992600  0.35974200  0.61018400  1
  Ir  Ir17  1  0.25044200  0.14025800  0.11018400  1
  Ir  Ir18  1  0.50000000  0.75000000  0.25000000  1
  Ir  Ir19  1  0.50000000  0.25000000  0.75000000  1
