# generated using pymatgen
data_Sm3Si2Ni
_symmetry_space_group_name_H-M   'P 1'
_cell_length_a   4.13178000
_cell_length_b   11.33005100
_cell_length_c   11.39442200
_cell_angle_alpha   90.00000000
_cell_angle_beta   90.00000000
_cell_angle_gamma   90.00000000
_symmetry_Int_Tables_number   1
_chemical_formula_structural   Sm3Si2Ni
_chemical_formula_sum   'Sm12 Si8 Ni4'
_cell_volume   533.41024611
_cell_formula_units_Z   4
loop_
 _symmetry_equiv_pos_site_id
 _symmetry_equiv_pos_as_xyz
  1  'x, y, z'
loop_
 _atom_site_type_symbol
 _atom_site_label
 _atom_site_symmetry_multiplicity
 _atom_site_fract_x
 _atom_site_fract_y
 _atom_site_fract_z
 _atom_site_occupancy
  Sm  Sm0  1  0.25000000  0.37585600  0.55817600  1
  Sm  Sm1  1  0.75000000  0.55927700  0.11725400  1
  Sm  Sm2  1  0.75000000  0.19672700  0.78603600  1
  Sm  Sm3  1  0.25000000  0.69672700  0.71396400  1
  Sm  Sm4  1  0.75000000  0.62414400  0.44182400  1
  Sm  Sm5  1  0.75000000  0.87585600  0.94182400  1
  Sm  Sm6  1  0.25000000  0.80327300  0.21396400  1
  Sm  Sm7  1  0.25000000  0.44072300  0.88274600  1
  Sm  Sm8  1  0.75000000  0.30327300  0.28603600  1
  Sm  Sm9  1  0.25000000  0.12414400  0.05817600  1
  Sm  Sm10  1  0.75000000  0.94072300  0.61725400  1
  Sm  Sm11  1  0.25000000  0.05927700  0.38274600  1
  Si  Si12  1  0.25000000  0.49336500  0.30123300  1
  Si  Si13  1  0.25000000  0.81384400  0.47224300  1
  Si  Si14  1  0.25000000  0.68615600  0.97224300  1
  Si  Si15  1  0.75000000  0.99336500  0.19876700  1
  Si  Si16  1  0.75000000  0.50663500  0.69876700  1
  Si  Si17  1  0.25000000  0.00663500  0.80123300  1
  Si  Si18  1  0.75000000  0.18615600  0.52775700  1
  Si  Si19  1  0.75000000  0.31384400  0.02775700  1
  Ni  Ni20  1  0.25000000  0.13378700  0.62902000  1
  Ni  Ni21  1  0.75000000  0.86621300  0.37098000  1
  Ni  Ni22  1  0.25000000  0.36621300  0.12902000  1
  Ni  Ni23  1  0.75000000  0.63378700  0.87098000  1
