# generated using pymatgen
data_Na3(TiS2)10
_symmetry_space_group_name_H-M   'P 1'
_cell_length_a   9.05681391
_cell_length_b   9.05681391
_cell_length_c   13.12769045
_cell_angle_alpha   87.15560385
_cell_angle_beta   87.15560385
_cell_angle_gamma   141.72654458
_symmetry_Int_Tables_number   1
_chemical_formula_structural   Na3(TiS2)10
_chemical_formula_sum   'Na3 Ti10 S20'
_cell_volume   659.30692522
_cell_formula_units_Z   1
loop_
 _symmetry_equiv_pos_site_id
 _symmetry_equiv_pos_as_xyz
  1  'x, y, z'
loop_
 _atom_site_type_symbol
 _atom_site_label
 _atom_site_symmetry_multiplicity
 _atom_site_fract_x
 _atom_site_fract_y
 _atom_site_fract_z
 _atom_site_occupancy
  Na  Na0  1  0.27267200  0.27267200  0.99558700  1
  Na  Na1  1  0.12522500  0.73242300  0.00418900  1
  Na  Na2  1  0.73242300  0.12522500  0.00418900  1
  Ti  Ti3  1  0.57483500  0.77191100  0.27675400  1
  Ti  Ti4  1  0.17763500  0.17763500  0.27744600  1
  Ti  Ti5  1  0.02335200  0.02335200  0.72327900  1
  Ti  Ti6  1  0.77191100  0.57483500  0.27675400  1
  Ti  Ti7  1  0.62606500  0.42760200  0.72337000  1
  Ti  Ti8  1  0.37295400  0.97289300  0.27807500  1
  Ti  Ti9  1  0.22655500  0.82551300  0.72236800  1
  Ti  Ti10  1  0.97289300  0.37295400  0.27807500  1
  Ti  Ti11  1  0.82551300  0.22655500  0.72236800  1
  Ti  Ti12  1  0.42760200  0.62606500  0.72337000  1
  S  S13  1  0.94758600  0.14652100  0.16364000  1
  S  S14  1  0.79479800  0.99507900  0.61560500  1
  S  S15  1  0.54711200  0.54711200  0.16369300  1
  S  S16  1  0.39377500  0.39377500  0.61601100  1
  S  S17  1  0.14652100  0.94758600  0.16364000  1
  S  S18  1  0.99507900  0.79479800  0.61560500  1
  S  S19  1  0.74331100  0.34422700  0.16368400  1
  S  S20  1  0.80522200  0.80522200  0.38468200  1
  S  S21  1  0.59513500  0.19526600  0.61582000  1
  S  S22  1  0.65729900  0.65729900  0.83570200  1
  S  S23  1  0.34422700  0.74331100  0.16368400  1
  S  S24  1  0.40499300  0.20500800  0.38498400  1
  S  S25  1  0.19526600  0.59513500  0.61582000  1
  S  S26  1  0.25443800  0.05340400  0.83656300  1
  S  S27  1  0.00498600  0.60549200  0.38414800  1
  S  S28  1  0.85335400  0.45335800  0.83760000  1
  S  S29  1  0.60549200  0.00498600  0.38414800  1
  S  S30  1  0.45335800  0.85335400  0.83760000  1
  S  S31  1  0.20500800  0.40499300  0.38498400  1
  S  S32  1  0.05340400  0.25443800  0.83656300  1
