# generated using pymatgen
data_Ce2Zn4Ru
_symmetry_space_group_name_H-M   'P 1'
_cell_length_a   7.19359400
_cell_length_b   7.19359400
_cell_length_c   5.19449100
_cell_angle_alpha   90.00000000
_cell_angle_beta   90.00000000
_cell_angle_gamma   90.00000000
_symmetry_Int_Tables_number   1
_chemical_formula_structural   Ce2Zn4Ru
_chemical_formula_sum   'Ce4 Zn8 Ru2'
_cell_volume   268.80345351
_cell_formula_units_Z   2
loop_
 _symmetry_equiv_pos_site_id
 _symmetry_equiv_pos_as_xyz
  1  'x, y, z'
loop_
 _atom_site_type_symbol
 _atom_site_label
 _atom_site_symmetry_multiplicity
 _atom_site_fract_x
 _atom_site_fract_y
 _atom_site_fract_z
 _atom_site_occupancy
  Ce  Ce0  1  0.00000000  0.50000000  0.77609000  1
  Ce  Ce1  1  0.00000000  0.00000000  0.00000000  1
  Ce  Ce2  1  0.50000000  0.00000000  0.22391000  1
  Ce  Ce3  1  0.50000000  0.50000000  0.00000000  1
  Zn  Zn4  1  0.18508500  0.68508500  0.28996000  1
  Zn  Zn5  1  0.81491500  0.68508500  0.28996000  1
  Zn  Zn6  1  0.81491500  0.31491500  0.28996000  1
  Zn  Zn7  1  0.31491500  0.18508500  0.71004000  1
  Zn  Zn8  1  0.18508500  0.31491500  0.28996000  1
  Zn  Zn9  1  0.68508500  0.18508500  0.71004000  1
  Zn  Zn10  1  0.68508500  0.81491500  0.71004000  1
  Zn  Zn11  1  0.31491500  0.81491500  0.71004000  1
  Ru  Ru12  1  0.50000000  0.50000000  0.50000000  1
  Ru  Ru13  1  0.00000000  0.00000000  0.50000000  1
