# generated using pymatgen
data_Cs4Fe3F10
_symmetry_space_group_name_H-M   'P 1'
_cell_length_a   8.01943907
_cell_length_b   8.01943907
_cell_length_c   14.29057700
_cell_angle_alpha   90.00000000
_cell_angle_beta   90.00000000
_cell_angle_gamma   132.36738768
_symmetry_Int_Tables_number   1
_chemical_formula_structural   Cs4Fe3F10
_chemical_formula_sum   'Cs8 Fe6 F20'
_cell_volume   679.02783495
_cell_formula_units_Z   2
loop_
 _symmetry_equiv_pos_site_id
 _symmetry_equiv_pos_as_xyz
  1  'x, y, z'
loop_
 _atom_site_type_symbol
 _atom_site_label
 _atom_site_symmetry_multiplicity
 _atom_site_fract_x
 _atom_site_fract_y
 _atom_site_fract_z
 _atom_site_occupancy
  Cs  Cs0  1  0.25431100  0.74568900  0.39094800  1
  Cs  Cs1  1  0.24568900  0.75431100  0.89094800  1
  Cs  Cs2  1  0.54270800  0.45729200  0.86148700  1
  Cs  Cs3  1  0.74568900  0.25431100  0.60905200  1
  Cs  Cs4  1  0.04270800  0.95729200  0.63851300  1
  Cs  Cs5  1  0.95729200  0.04270800  0.36148700  1
  Cs  Cs6  1  0.75431100  0.24568900  0.10905200  1
  Cs  Cs7  1  0.45729200  0.54270800  0.13851300  1
  Fe  Fe8  1  0.37849100  0.62150900  0.65365000  1
  Fe  Fe9  1  0.62150900  0.37849100  0.34635000  1
  Fe  Fe10  1  0.12150900  0.87849100  0.15365000  1
  Fe  Fe11  1  0.50000000  0.50000000  0.50000000  1
  Fe  Fe12  1  0.87849100  0.12150900  0.84635000  1
  Fe  Fe13  1  0.00000000  0.00000000  0.00000000  1
  F  F14  1  0.75584800  0.24415200  0.35691200  1
  F  F15  1  0.97671000  0.02329000  0.14741400  1
  F  F16  1  0.11850900  0.31639300  0.96597700  1
  F  F17  1  0.18360700  0.38149100  0.53402300  1
  F  F18  1  0.24415200  0.75584800  0.64308800  1
  F  F19  1  0.81639300  0.61850900  0.46597700  1
  F  F20  1  0.74415200  0.25584800  0.85691200  1
  F  F21  1  0.88149100  0.68360700  0.03402300  1
  F  F22  1  0.31639300  0.11850900  0.03402300  1
  F  F23  1  0.86580800  0.63419200  0.25000000  1
  F  F24  1  0.63419200  0.86580800  0.75000000  1
  F  F25  1  0.02329000  0.97671000  0.85258600  1
  F  F26  1  0.68360700  0.88149100  0.96597700  1
  F  F27  1  0.38149100  0.18360700  0.46597700  1
  F  F28  1  0.61850900  0.81639300  0.53402300  1
  F  F29  1  0.47671000  0.52329000  0.35258600  1
  F  F30  1  0.25584800  0.74415200  0.14308800  1
  F  F31  1  0.52329000  0.47671000  0.64741400  1
  F  F32  1  0.13419200  0.36580800  0.75000000  1
  F  F33  1  0.36580800  0.13419200  0.25000000  1
