# generated using pymatgen
data_Al(ICl2)3
_symmetry_space_group_name_H-M   'P 1'
_cell_length_a   14.49747598
_cell_length_b   14.49747598
_cell_length_c   14.97543187
_cell_angle_alpha   73.49652610
_cell_angle_beta   73.49652610
_cell_angle_gamma   31.00766998
_symmetry_Int_Tables_number   1
_chemical_formula_structural   Al(ICl2)3
_chemical_formula_sum   'Al4 I12 Cl24'
_cell_volume   1549.37896313
_cell_formula_units_Z   4
loop_
 _symmetry_equiv_pos_site_id
 _symmetry_equiv_pos_as_xyz
  1  'x, y, z'
loop_
 _atom_site_type_symbol
 _atom_site_label
 _atom_site_symmetry_multiplicity
 _atom_site_fract_x
 _atom_site_fract_y
 _atom_site_fract_z
 _atom_site_occupancy
  Al  Al0  1  0.42284400  0.31532400  0.46091900  1
  Al  Al1  1  0.68467600  0.57715600  0.03908100  1
  Al  Al2  1  0.31532400  0.42284400  0.96091900  1
  Al  Al3  1  0.57715600  0.68467600  0.53908100  1
  I  I4  1  0.23091200  0.70250700  0.10282100  1
  I  I5  1  0.06729300  0.16420700  0.78313000  1
  I  I6  1  0.16420700  0.06729300  0.28313000  1
  I  I7  1  0.83579300  0.93270700  0.71687000  1
  I  I8  1  0.76908800  0.29749300  0.89717900  1
  I  I9  1  0.29749300  0.76908800  0.39717900  1
  I  I10  1  0.93270700  0.83579300  0.21687000  1
  I  I11  1  0.94974200  0.64633100  0.82715900  1
  I  I12  1  0.35366900  0.05025800  0.67284100  1
  I  I13  1  0.70250700  0.23091200  0.60282100  1
  I  I14  1  0.64633100  0.94974200  0.32715900  1
  I  I15  1  0.05025800  0.35366900  0.17284100  1
  Cl  Cl16  1  0.02202100  0.64431200  0.99037400  1
  Cl  Cl17  1  0.59511100  0.61621600  0.91617300  1
  Cl  Cl18  1  0.40488900  0.38378400  0.08382700  1
  Cl  Cl19  1  0.60264400  0.90683800  0.21273300  1
  Cl  Cl20  1  0.35568800  0.97797900  0.50962600  1
  Cl  Cl21  1  0.88110000  0.04872300  0.89433200  1
  Cl  Cl22  1  0.90683800  0.60264400  0.71273300  1
  Cl  Cl23  1  0.61621600  0.59511100  0.41617300  1
  Cl  Cl24  1  0.55311800  0.81798900  0.04553100  1
  Cl  Cl25  1  0.18201100  0.44688200  0.45446900  1
  Cl  Cl26  1  0.11890000  0.95127700  0.10566800  1
  Cl  Cl27  1  0.97797900  0.35568800  0.00962600  1
  Cl  Cl28  1  0.44688200  0.18201100  0.95446900  1
  Cl  Cl29  1  0.04872300  0.88110000  0.39433200  1
  Cl  Cl30  1  0.48823000  0.64923400  0.65966900  1
  Cl  Cl31  1  0.39735600  0.09316200  0.78726700  1
  Cl  Cl32  1  0.64431200  0.02202100  0.49037400  1
  Cl  Cl33  1  0.64923400  0.48823000  0.15966900  1
  Cl  Cl34  1  0.81798900  0.55311800  0.54553100  1
  Cl  Cl35  1  0.09316200  0.39735600  0.28726700  1
  Cl  Cl36  1  0.51177000  0.35076600  0.34033100  1
  Cl  Cl37  1  0.38378400  0.40488900  0.58382700  1
  Cl  Cl38  1  0.95127700  0.11890000  0.60566800  1
  Cl  Cl39  1  0.35076600  0.51177000  0.84033100  1
