# generated using pymatgen
data_Gd3NCl6
_symmetry_space_group_name_H-M   'P 1'
_cell_length_a   7.15926400
_cell_length_b   8.20857730
_cell_length_c   9.77551370
_cell_angle_alpha   75.31442284
_cell_angle_beta   70.93682736
_cell_angle_gamma   65.28075416
_symmetry_Int_Tables_number   1
_chemical_formula_structural   Gd3NCl6
_chemical_formula_sum   'Gd6 N2 Cl12'
_cell_volume   488.62584976
_cell_formula_units_Z   2
loop_
 _symmetry_equiv_pos_site_id
 _symmetry_equiv_pos_as_xyz
  1  'x, y, z'
loop_
 _atom_site_type_symbol
 _atom_site_label
 _atom_site_symmetry_multiplicity
 _atom_site_fract_x
 _atom_site_fract_y
 _atom_site_fract_z
 _atom_site_occupancy
  Gd  Gd0  1  0.58840100  0.08452700  0.68758100  1
  Gd  Gd1  1  0.72033200  0.42790800  0.77979200  1
  Gd  Gd2  1  0.25891900  0.58341800  0.62622000  1
  Gd  Gd3  1  0.27966800  0.57209200  0.22020800  1
  Gd  Gd4  1  0.41159900  0.91547300  0.31241900  1
  Gd  Gd5  1  0.74108100  0.41658200  0.37378000  1
  N  N6  1  0.40803500  0.63285700  0.37673700  1
  N  N7  1  0.59196500  0.36714300  0.62326300  1
  Cl  Cl8  1  0.30120000  0.58342900  0.91014100  1
  Cl  Cl9  1  0.28887700  0.89815600  0.08530400  1
  Cl  Cl10  1  0.00000000  0.00000000  0.50000000  1
  Cl  Cl11  1  0.82463100  0.71803600  0.79764000  1
  Cl  Cl12  1  0.16399300  0.26015700  0.79161100  1
  Cl  Cl13  1  0.71112300  0.10184400  0.91469600  1
  Cl  Cl14  1  0.53142000  0.17734500  0.39514900  1
  Cl  Cl15  1  0.17536900  0.28196400  0.20236000  1
  Cl  Cl16  1  0.46858000  0.82265500  0.60485100  1
  Cl  Cl17  1  0.69880000  0.41657100  0.08985900  1
  Cl  Cl18  1  0.83600700  0.73984300  0.20838900  1
  Cl  Cl19  1  0.00000000  0.50000000  0.50000000  1
