# generated using pymatgen
data_TlVTeO5
_symmetry_space_group_name_H-M   'P 1'
_cell_length_a   7.38666700
_cell_length_b   7.93803800
_cell_length_c   8.81933400
_cell_angle_alpha   90.00000000
_cell_angle_beta   90.00000000
_cell_angle_gamma   90.00000000
_symmetry_Int_Tables_number   1
_chemical_formula_structural   TlVTeO5
_chemical_formula_sum   'Tl4 V4 Te4 O20'
_cell_volume   517.12732291
_cell_formula_units_Z   4
loop_
 _symmetry_equiv_pos_site_id
 _symmetry_equiv_pos_as_xyz
  1  'x, y, z'
loop_
 _atom_site_type_symbol
 _atom_site_label
 _atom_site_symmetry_multiplicity
 _atom_site_fract_x
 _atom_site_fract_y
 _atom_site_fract_z
 _atom_site_occupancy
  Tl  Tl0  1  0.97647800  0.90223800  0.10770500  1
  Tl  Tl1  1  0.47647800  0.90223800  0.39229500  1
  Tl  Tl2  1  0.52352200  0.40223800  0.60770500  1
  Tl  Tl3  1  0.02352200  0.40223800  0.89229500  1
  V  V4  1  0.27834500  0.78550100  0.75776800  1
  V  V5  1  0.22165500  0.28550100  0.25776800  1
  V  V6  1  0.77834500  0.78550100  0.74223200  1
  V  V7  1  0.72165500  0.28550100  0.24223200  1
  Te  Te8  1  0.97726100  0.09707600  0.53256800  1
  Te  Te9  1  0.02273900  0.59707600  0.46743200  1
  Te  Te10  1  0.52273900  0.59707600  0.03256800  1
  Te  Te11  1  0.47726100  0.09707600  0.96743200  1
  O  O12  1  0.93631500  0.25937900  0.17490000  1
  O  O13  1  0.12760200  0.05103300  0.36468800  1
  O  O14  1  0.06368500  0.75937900  0.82510000  1
  O  O15  1  0.87239800  0.55103300  0.63531200  1
  O  O16  1  0.27470500  0.98169500  0.68179300  1
  O  O17  1  0.56368500  0.75937900  0.67490000  1
  O  O18  1  0.89877100  0.85990300  0.55065400  1
  O  O19  1  0.22529500  0.48169500  0.18179300  1
  O  O20  1  0.43631500  0.25937900  0.32510000  1
  O  O21  1  0.60122900  0.35990300  0.05065400  1
  O  O22  1  0.25534100  0.15017400  0.07763600  1
  O  O23  1  0.37239800  0.55103300  0.86468800  1
  O  O24  1  0.74465900  0.65017400  0.92236400  1
  O  O25  1  0.39877100  0.85990300  0.94934600  1
  O  O26  1  0.75534100  0.15017400  0.42236400  1
  O  O27  1  0.72529500  0.48169500  0.31820700  1
  O  O28  1  0.62760200  0.05103300  0.13531200  1
  O  O29  1  0.77470500  0.98169500  0.81820700  1
  O  O30  1  0.24465900  0.65017400  0.57763600  1
  O  O31  1  0.10122900  0.35990300  0.44934600  1
