# generated using pymatgen
data_Sm4Si2S3O7
_symmetry_space_group_name_H-M   'P 1'
_cell_length_a   10.96803027
_cell_length_b   10.96803027
_cell_length_c   10.96803027
_cell_angle_alpha   114.14810074
_cell_angle_beta   114.14810074
_cell_angle_gamma   100.47501203
_symmetry_Int_Tables_number   1
_chemical_formula_structural   Sm4Si2S3O7
_chemical_formula_sum   'Sm16 Si8 S12 O28'
_cell_volume   997.34480258
_cell_formula_units_Z   4
loop_
 _symmetry_equiv_pos_site_id
 _symmetry_equiv_pos_as_xyz
  1  'x, y, z'
loop_
 _atom_site_type_symbol
 _atom_site_label
 _atom_site_symmetry_multiplicity
 _atom_site_fract_x
 _atom_site_fract_y
 _atom_site_fract_z
 _atom_site_occupancy
  Sm  Sm0  1  0.42172700  0.92172700  0.84345500  1
  Sm  Sm1  1  0.67172700  0.32827300  0.00000000  1
  Sm  Sm2  1  0.32827300  0.67172700  0.00000000  1
  Sm  Sm3  1  0.07827300  0.57827300  0.15654500  1
  Sm  Sm4  1  0.32827300  0.32827300  0.65654500  1
  Sm  Sm5  1  0.07827300  0.92172700  0.50000000  1
  Sm  Sm6  1  0.42172700  0.57827300  0.50000000  1
  Sm  Sm7  1  0.67172700  0.67172700  0.34345500  1
  Sm  Sm8  1  0.03237000  0.79597800  0.76360800  1
  Sm  Sm9  1  0.03237000  0.26876200  0.23639200  1
  Sm  Sm10  1  0.20402200  0.96763000  0.23639200  1
  Sm  Sm11  1  0.01876200  0.28237000  0.73639200  1
  Sm  Sm12  1  0.54597800  0.28237000  0.26360800  1
  Sm  Sm13  1  0.71763000  0.98123800  0.26360800  1
  Sm  Sm14  1  0.71763000  0.45402200  0.73639200  1
  Sm  Sm15  1  0.73123800  0.96763000  0.76360800  1
  Si  Si16  1  0.27789600  0.40246300  0.12456700  1
  Si  Si17  1  0.27789600  0.15332900  0.87543300  1
  Si  Si18  1  0.59753700  0.72210400  0.87543300  1
  Si  Si19  1  0.90332900  0.52789600  0.37543300  1
  Si  Si20  1  0.15246300  0.52789600  0.62456700  1
  Si  Si21  1  0.47210400  0.09667100  0.62456700  1
  Si  Si22  1  0.47210400  0.84753700  0.37543300  1
  Si  Si23  1  0.84667100  0.72210400  0.12456700  1
  S  S24  1  0.50000000  0.50000000  0.00000000  1
  S  S25  1  0.25000000  0.75000000  0.50000000  1
  S  S26  1  0.75000000  0.25000000  0.50000000  1
  S  S27  1  0.00000000  0.00000000  0.00000000  1
  S  S28  1  0.87500000  0.97722700  0.60222700  1
  S  S29  1  0.72722700  0.62500000  0.60222700  1
  S  S30  1  0.02277300  0.12500000  0.39777300  1
  S  S31  1  0.37500000  0.27277300  0.39777300  1
  S  S32  1  0.87500000  0.27277300  0.89777300  1
  S  S33  1  0.02277300  0.62500000  0.89777300  1
  S  S34  1  0.72722700  0.12500000  0.10222700  1
  S  S35  1  0.37500000  0.97722700  0.10222700  1
  O  O36  1  0.77263600  0.77263600  0.00000000  1
  O  O37  1  0.52263600  0.02263600  0.50000000  1
  O  O38  1  0.97736400  0.47736400  0.50000000  1
  O  O39  1  0.22736400  0.22736400  0.00000000  1
  O  O40  1  0.20047500  0.97110900  0.77063400  1
  O  O41  1  0.20047500  0.42984200  0.22936600  1
  O  O42  1  0.02889100  0.79952500  0.22936600  1
  O  O43  1  0.17984200  0.45047500  0.72936600  1
  O  O44  1  0.72110900  0.45047500  0.27063400  1
  O  O45  1  0.54952500  0.82015800  0.27063400  1
  O  O46  1  0.54952500  0.27889100  0.72936600  1
  O  O47  1  0.57015800  0.79952500  0.77063400  1
  O  O48  1  0.29705500  0.05877100  0.52008300  1
  O  O49  1  0.53868800  0.77697200  0.47991700  1
  O  O50  1  0.94122900  0.70294500  0.47991700  1
  O  O51  1  0.52697200  0.54705500  0.73828400  1
  O  O52  1  0.80877100  0.78868800  0.26171600  1
  O  O53  1  0.45294500  0.47302800  0.26171600  1
  O  O54  1  0.21131200  0.19122900  0.73828400  1
  O  O55  1  0.22302800  0.46131200  0.52008300  1
  O  O56  1  0.45294500  0.19122900  0.97991700  1
  O  O57  1  0.21131200  0.47302800  0.02008300  1
  O  O58  1  0.80877100  0.54705500  0.02008300  1
  O  O59  1  0.22302800  0.70294500  0.76171600  1
  O  O60  1  0.94122900  0.46131200  0.23828400  1
  O  O61  1  0.29705500  0.77697200  0.23828400  1
  O  O62  1  0.53868800  0.05877100  0.76171600  1
  O  O63  1  0.52697200  0.78868800  0.97991700  1
