# generated using pymatgen
data_KLi3Si12(SnO15)2
_symmetry_space_group_name_H-M   'P 1'
_cell_length_a   10.15712141
_cell_length_b   10.15712141
_cell_length_c   14.51307200
_cell_angle_alpha   90.00000000
_cell_angle_beta   90.00000000
_cell_angle_gamma   119.99999616
_symmetry_Int_Tables_number   1
_chemical_formula_structural   KLi3Si12(SnO15)2
_chemical_formula_sum   'K2 Li6 Si24 Sn4 O60'
_cell_volume   1296.67544193
_cell_formula_units_Z   2
loop_
 _symmetry_equiv_pos_site_id
 _symmetry_equiv_pos_as_xyz
  1  'x, y, z'
loop_
 _atom_site_type_symbol
 _atom_site_label
 _atom_site_symmetry_multiplicity
 _atom_site_fract_x
 _atom_site_fract_y
 _atom_site_fract_z
 _atom_site_occupancy
  K  K0  1  0.00000000  0.00000000  0.25000000  1
  K  K1  1  0.00000000  0.00000000  0.75000000  1
  Li  Li2  1  0.50000000  0.50000000  0.25000000  1
  Li  Li3  1  0.50000000  0.00000000  0.75000000  1
  Li  Li4  1  0.00000000  0.50000000  0.75000000  1
  Li  Li5  1  0.50000000  0.50000000  0.75000000  1
  Li  Li6  1  0.50000000  0.00000000  0.25000000  1
  Li  Li7  1  0.00000000  0.50000000  0.25000000  1
  Si  Si8  1  0.76215800  0.11828500  0.89125900  1
  Si  Si9  1  0.88171500  0.64387300  0.89125900  1
  Si  Si10  1  0.35612700  0.23784200  0.89125900  1
  Si  Si11  1  0.64387300  0.76215800  0.89125900  1
  Si  Si12  1  0.23784200  0.35612700  0.60874100  1
  Si  Si13  1  0.23784200  0.88171500  0.89125900  1
  Si  Si14  1  0.11828500  0.35612700  0.89125900  1
  Si  Si15  1  0.88171500  0.23784200  0.60874100  1
  Si  Si16  1  0.35612700  0.11828500  0.60874100  1
  Si  Si17  1  0.64387300  0.88171500  0.60874100  1
  Si  Si18  1  0.11828500  0.76215800  0.60874100  1
  Si  Si19  1  0.76215800  0.64387300  0.60874100  1
  Si  Si20  1  0.23784200  0.88171500  0.10874100  1
  Si  Si21  1  0.11828500  0.35612700  0.10874100  1
  Si  Si22  1  0.64387300  0.76215800  0.10874100  1
  Si  Si23  1  0.23784200  0.35612700  0.39125900  1
  Si  Si24  1  0.76215800  0.64387300  0.39125900  1
  Si  Si25  1  0.76215800  0.11828500  0.10874100  1
  Si  Si26  1  0.88171500  0.64387300  0.10874100  1
  Si  Si27  1  0.11828500  0.76215800  0.39125900  1
  Si  Si28  1  0.64387300  0.88171500  0.39125900  1
  Si  Si29  1  0.35612700  0.11828500  0.39125900  1
  Si  Si30  1  0.88171500  0.23784200  0.39125900  1
  Si  Si31  1  0.35612700  0.23784200  0.10874100  1
  Sn  Sn32  1  0.33333300  0.66666700  0.25000000  1
  Sn  Sn33  1  0.66666700  0.33333300  0.25000000  1
  Sn  Sn34  1  0.66666700  0.33333300  0.75000000  1
  Sn  Sn35  1  0.33333300  0.66666700  0.75000000  1
  O  O36  1  0.22224100  0.27859200  0.13270700  1
  O  O37  1  0.15781500  0.65652800  0.67271400  1
  O  O38  1  0.15781500  0.50128700  0.82728600  1
  O  O39  1  0.49871300  0.84218500  0.67271400  1
  O  O40  1  0.50128700  0.15781500  0.67271400  1
  O  O41  1  0.65652800  0.49871300  0.67271400  1
  O  O42  1  0.34347200  0.50128700  0.67271400  1
  O  O43  1  0.65652800  0.15781500  0.82728600  1
  O  O44  1  0.50128700  0.34347200  0.82728600  1
  O  O45  1  0.49871300  0.65652800  0.82728600  1
  O  O46  1  0.34347200  0.84218500  0.82728600  1
  O  O47  1  0.84218500  0.49871300  0.82728600  1
  O  O48  1  0.15781500  0.65652800  0.32728600  1
  O  O49  1  0.34347200  0.50128700  0.32728600  1
  O  O50  1  0.49871300  0.84218500  0.32728600  1
  O  O51  1  0.50128700  0.15781500  0.32728600  1
  O  O52  1  0.84218500  0.49871300  0.17271400  1
  O  O53  1  0.84218500  0.34347200  0.32728600  1
  O  O54  1  0.65652800  0.49871300  0.32728600  1
  O  O55  1  0.34347200  0.84218500  0.17271400  1
  O  O56  1  0.49871300  0.65652800  0.17271400  1
  O  O57  1  0.50128700  0.34347200  0.17271400  1
  O  O58  1  0.65652800  0.15781500  0.17271400  1
  O  O59  1  0.05635100  0.27859200  0.63270700  1
  O  O60  1  0.77775900  0.05635100  0.63270700  1
  O  O61  1  0.94364900  0.72140800  0.63270700  1
  O  O62  1  0.27859200  0.22224100  0.63270700  1
  O  O63  1  0.72140800  0.77775900  0.63270700  1
  O  O64  1  0.22224100  0.27859200  0.86729300  1
  O  O65  1  0.22224100  0.94364900  0.63270700  1
  O  O66  1  0.13329500  0.40053300  0.00000000  1
  O  O67  1  0.73276200  0.13329500  0.00000000  1
  O  O68  1  0.40053300  0.26723800  0.00000000  1
  O  O69  1  0.59946700  0.73276200  0.00000000  1
  O  O70  1  0.26723800  0.86670500  0.00000000  1
  O  O71  1  0.73276200  0.59946700  0.50000000  1
  O  O72  1  0.86670500  0.26723800  0.50000000  1
  O  O73  1  0.86670500  0.59946700  0.00000000  1
  O  O74  1  0.40053300  0.13329500  0.50000000  1
  O  O75  1  0.59946700  0.86670500  0.50000000  1
  O  O76  1  0.26723800  0.40053300  0.50000000  1
  O  O77  1  0.13329500  0.73276200  0.50000000  1
  O  O78  1  0.84218500  0.34347200  0.67271400  1
  O  O79  1  0.94364900  0.22224100  0.13270700  1
  O  O80  1  0.27859200  0.05635100  0.13270700  1
  O  O81  1  0.72140800  0.94364900  0.13270700  1
  O  O82  1  0.05635100  0.77775900  0.13270700  1
  O  O83  1  0.94364900  0.72140800  0.36729300  1
  O  O84  1  0.77775900  0.05635100  0.36729300  1
  O  O85  1  0.77775900  0.72140800  0.13270700  1
  O  O86  1  0.27859200  0.22224100  0.36729300  1
  O  O87  1  0.72140800  0.77775900  0.36729300  1
  O  O88  1  0.05635100  0.27859200  0.36729300  1
  O  O89  1  0.22224100  0.94364900  0.36729300  1
  O  O90  1  0.77775900  0.72140800  0.86729300  1
  O  O91  1  0.05635100  0.77775900  0.86729300  1
  O  O92  1  0.72140800  0.94364900  0.86729300  1
  O  O93  1  0.27859200  0.05635100  0.86729300  1
  O  O94  1  0.94364900  0.22224100  0.86729300  1
  O  O95  1  0.15781500  0.50128700  0.17271400  1
