# generated using pymatgen
data_Eu5P3ClO12
_symmetry_space_group_name_H-M   'P 1'
_cell_length_a   9.96865794
_cell_length_b   9.96865794
_cell_length_c   7.20470600
_cell_angle_alpha   90.00000000
_cell_angle_beta   90.00000000
_cell_angle_gamma   119.99999960
_symmetry_Int_Tables_number   1
_chemical_formula_structural   Eu5P3ClO12
_chemical_formula_sum   'Eu10 P6 Cl2 O24'
_cell_volume   620.04082431
_cell_formula_units_Z   2
loop_
 _symmetry_equiv_pos_site_id
 _symmetry_equiv_pos_as_xyz
  1  'x, y, z'
loop_
 _atom_site_type_symbol
 _atom_site_label
 _atom_site_symmetry_multiplicity
 _atom_site_fract_x
 _atom_site_fract_y
 _atom_site_fract_z
 _atom_site_occupancy
  Eu  Eu0  1  0.33333300  0.66666700  0.99853100  1
  Eu  Eu1  1  0.74585500  0.75454300  0.75000000  1
  Eu  Eu2  1  0.25414500  0.24545700  0.25000000  1
  Eu  Eu3  1  0.99131200  0.74585500  0.25000000  1
  Eu  Eu4  1  0.75454300  0.00868800  0.25000000  1
  Eu  Eu5  1  0.66666700  0.33333300  0.00146900  1
  Eu  Eu6  1  0.24545700  0.99131200  0.75000000  1
  Eu  Eu7  1  0.00868800  0.25414500  0.75000000  1
  Eu  Eu8  1  0.33333300  0.66666700  0.50146900  1
  Eu  Eu9  1  0.66666700  0.33333300  0.49853100  1
  P  P10  1  0.37208900  0.96464900  0.25000000  1
  P  P11  1  0.40744000  0.37208900  0.75000000  1
  P  P12  1  0.03535100  0.40744000  0.25000000  1
  P  P13  1  0.59256000  0.62791100  0.25000000  1
  P  P14  1  0.62791100  0.03535100  0.75000000  1
  P  P15  1  0.96464900  0.59256000  0.75000000  1
  Cl  Cl16  1  0.00000000  0.00000000  0.00000000  1
  Cl  Cl17  1  0.00000000  0.00000000  0.50000000  1
  O  O18  1  0.26604700  0.90845200  0.42478900  1
  O  O19  1  0.26604700  0.90845200  0.07521100  1
  O  O20  1  0.11797800  0.58808400  0.25000000  1
  O  O21  1  0.47866600  0.14419900  0.25000000  1
  O  O22  1  0.64240500  0.73395300  0.07521100  1
  O  O23  1  0.85580100  0.33446700  0.25000000  1
  O  O24  1  0.14419900  0.66553300  0.75000000  1
  O  O25  1  0.58808400  0.47010600  0.75000000  1
  O  O26  1  0.73395300  0.09154800  0.92478900  1
  O  O27  1  0.52989400  0.11797800  0.75000000  1
  O  O28  1  0.47010600  0.88202200  0.25000000  1
  O  O29  1  0.90845200  0.64240500  0.92478900  1
  O  O30  1  0.35759500  0.26604700  0.92478900  1
  O  O31  1  0.09154800  0.35759500  0.07521100  1
  O  O32  1  0.52133400  0.85580100  0.75000000  1
  O  O33  1  0.35759500  0.26604700  0.57521100  1
  O  O34  1  0.41191600  0.52989400  0.25000000  1
  O  O35  1  0.33446700  0.47866600  0.75000000  1
  O  O36  1  0.73395300  0.09154800  0.57521100  1
  O  O37  1  0.90845200  0.64240500  0.57521100  1
  O  O38  1  0.64240500  0.73395300  0.42478900  1
  O  O39  1  0.66553300  0.52133400  0.25000000  1
  O  O40  1  0.88202200  0.41191600  0.75000000  1
  O  O41  1  0.09154800  0.35759500  0.42478900  1
