# generated using pymatgen
data_FeSCl7
_symmetry_space_group_name_H-M   'P 1'
_cell_length_a   12.55943700
_cell_length_b   6.52797200
_cell_length_c   13.63464888
_cell_angle_alpha   78.23782619
_cell_angle_beta   90.00000000
_cell_angle_gamma   90.00000000
_symmetry_Int_Tables_number   1
_chemical_formula_structural   FeSCl7
_chemical_formula_sum   'Fe4 S4 Cl28'
_cell_volume   1094.39997087
_cell_formula_units_Z   4
loop_
 _symmetry_equiv_pos_site_id
 _symmetry_equiv_pos_as_xyz
  1  'x, y, z'
loop_
 _atom_site_type_symbol
 _atom_site_label
 _atom_site_symmetry_multiplicity
 _atom_site_fract_x
 _atom_site_fract_y
 _atom_site_fract_z
 _atom_site_occupancy
  Fe  Fe0  1  0.51784000  0.61055500  0.76767500  1
  Fe  Fe1  1  0.01784000  0.38944500  0.73232500  1
  Fe  Fe2  1  0.48216000  0.38944500  0.23232500  1
  Fe  Fe3  1  0.98216000  0.61055500  0.26767500  1
  S  S4  1  0.25319700  0.97142000  0.08200400  1
  S  S5  1  0.75319700  0.02858000  0.41799600  1
  S  S6  1  0.74680300  0.02858000  0.91799600  1
  S  S7  1  0.24680300  0.97142000  0.58200400  1
  Cl  Cl8  1  0.34906900  0.14747000  0.97932800  1
  Cl  Cl9  1  0.85322700  0.81645100  0.88739500  1
  Cl  Cl10  1  0.92296300  0.39070500  0.40320000  1
  Cl  Cl11  1  0.57703700  0.39070500  0.90320000  1
  Cl  Cl12  1  0.14677300  0.18354900  0.11260500  1
  Cl  Cl13  1  0.94682400  0.49549300  0.12922600  1
  Cl  Cl14  1  0.05317600  0.50450700  0.87077400  1
  Cl  Cl15  1  0.44682400  0.50450700  0.37077400  1
  Cl  Cl16  1  0.40749000  0.07834400  0.24282300  1
  Cl  Cl17  1  0.07703700  0.60929500  0.59680000  1
  Cl  Cl18  1  0.16608600  0.81431100  0.99627300  1
  Cl  Cl19  1  0.15710300  0.64053900  0.27757000  1
  Cl  Cl20  1  0.64677300  0.81645100  0.38739500  1
  Cl  Cl21  1  0.34289700  0.64053900  0.77757000  1
  Cl  Cl22  1  0.42296300  0.60929500  0.09680000  1
  Cl  Cl23  1  0.90749000  0.92165600  0.25717700  1
  Cl  Cl24  1  0.15093100  0.14747000  0.47932800  1
  Cl  Cl25  1  0.09251000  0.07834400  0.74282300  1
  Cl  Cl26  1  0.55317600  0.49549300  0.62922600  1
  Cl  Cl27  1  0.83391400  0.18568900  0.00372700  1
  Cl  Cl28  1  0.84289700  0.35946100  0.72243000  1
  Cl  Cl29  1  0.33391400  0.81431100  0.49627300  1
  Cl  Cl30  1  0.35322700  0.18354900  0.61260500  1
  Cl  Cl31  1  0.66608600  0.18568900  0.50372700  1
  Cl  Cl32  1  0.65710300  0.35946100  0.22243000  1
  Cl  Cl33  1  0.65093100  0.85253000  0.02067200  1
  Cl  Cl34  1  0.84906900  0.85253000  0.52067200  1
  Cl  Cl35  1  0.59251000  0.92165600  0.75717700  1
