# generated using pymatgen
data_NaHSO4
_symmetry_space_group_name_H-M   'P 1'
_cell_length_a   7.60294900
_cell_length_b   5.18827500
_cell_length_c   9.47200822
_cell_angle_alpha   67.64228338
_cell_angle_beta   90.00000000
_cell_angle_gamma   90.00000000
_symmetry_Int_Tables_number   1
_chemical_formula_structural   NaHSO4
_chemical_formula_sum   'Na4 H4 S4 O16'
_cell_volume   345.54740352
_cell_formula_units_Z   4
loop_
 _symmetry_equiv_pos_site_id
 _symmetry_equiv_pos_as_xyz
  1  'x, y, z'
loop_
 _atom_site_type_symbol
 _atom_site_label
 _atom_site_symmetry_multiplicity
 _atom_site_fract_x
 _atom_site_fract_y
 _atom_site_fract_z
 _atom_site_occupancy
  Na  Na0  1  0.00926900  0.98689300  0.29851600  1
  Na  Na1  1  0.49073100  0.98689300  0.79851600  1
  Na  Na2  1  0.99073100  0.01310700  0.70148400  1
  Na  Na3  1  0.50926900  0.01310700  0.20148400  1
  H  H4  1  0.96147400  0.61936600  0.12702500  1
  H  H5  1  0.53852600  0.61936600  0.62702500  1
  H  H6  1  0.03852600  0.38063400  0.87297500  1
  H  H7  1  0.46147400  0.38063400  0.37297500  1
  S  S8  1  0.22625900  0.59550200  0.06378800  1
  S  S9  1  0.27374100  0.59550200  0.56378800  1
  S  S10  1  0.77374100  0.40449800  0.93621200  1
  S  S11  1  0.72625900  0.40449800  0.43621200  1
  O  O12  1  0.24316200  0.30142800  0.16562700  1
  O  O13  1  0.25683800  0.30142800  0.66562700  1
  O  O14  1  0.75683800  0.69857200  0.83437300  1
  O  O15  1  0.74316200  0.69857200  0.33437300  1
  O  O16  1  0.17011500  0.63345500  0.90799800  1
  O  O17  1  0.32988500  0.63345500  0.40799800  1
  O  O18  1  0.82988500  0.36654500  0.09200200  1
  O  O19  1  0.67011500  0.36654500  0.59200200  1
  O  O20  1  0.07131300  0.72206700  0.13350300  1
  O  O21  1  0.42868700  0.72206700  0.63350300  1
  O  O22  1  0.92868700  0.27793300  0.86649700  1
  O  O23  1  0.57131300  0.27793300  0.36649700  1
  O  O24  1  0.37984600  0.76361500  0.06210800  1
  O  O25  1  0.12015400  0.76361500  0.56210800  1
  O  O26  1  0.62015400  0.23638500  0.93789200  1
  O  O27  1  0.87984600  0.23638500  0.43789200  1
