# generated using pymatgen
data_Ta14(CuS8)3
_symmetry_space_group_name_H-M   'P 1'
_cell_length_a   6.67965300
_cell_length_b   8.81650476
_cell_length_c   13.09462544
_cell_angle_alpha   92.35603140
_cell_angle_beta   97.84461406
_cell_angle_gamma   101.39692471
_symmetry_Int_Tables_number   1
_chemical_formula_structural   Ta14(CuS8)3
_chemical_formula_sum   'Ta14 Cu3 S24'
_cell_volume   747.03542137
_cell_formula_units_Z   1
loop_
 _symmetry_equiv_pos_site_id
 _symmetry_equiv_pos_as_xyz
  1  'x, y, z'
loop_
 _atom_site_type_symbol
 _atom_site_label
 _atom_site_symmetry_multiplicity
 _atom_site_fract_x
 _atom_site_fract_y
 _atom_site_fract_z
 _atom_site_occupancy
  Ta  Ta0  1  0.06132700  0.02227800  0.24248800  1
  Ta  Ta1  1  0.40675600  0.36220800  0.24359600  1
  Ta  Ta2  1  0.57201500  0.02673100  0.24152700  1
  Ta  Ta3  1  0.85278600  0.35069900  0.00079000  1
  Ta  Ta4  1  0.89898500  0.36179000  0.24720500  1
  Ta  Ta5  1  0.72913200  0.69968300  0.24545800  1
  Ta  Ta6  1  0.76389700  0.30635800  0.75289000  1
  Ta  Ta7  1  0.23499100  0.69246800  0.24748400  1
  Ta  Ta8  1  0.27155800  0.30158500  0.75442300  1
  Ta  Ta9  1  0.09859200  0.63824800  0.75310000  1
  Ta  Ta10  1  0.14798000  0.64947500  0.00001500  1
  Ta  Ta11  1  0.43076400  0.97461800  0.75835000  1
  Ta  Ta12  1  0.59564900  0.63729400  0.75630900  1
  Ta  Ta13  1  0.93517900  0.97617900  0.75755900  1
  Cu  Cu14  1  0.79643800  0.71773200  0.46393000  1
  Cu  Cu15  1  0.20387500  0.28460400  0.53531900  1
  Cu  Cu16  1  0.37274200  0.94718400  0.53586900  1
  S  S17  1  0.16766700  0.06553100  0.63121000  1
  S  S18  1  0.24706000  0.09738100  0.87736200  1
  S  S19  1  0.51525700  0.40771300  0.63215900  1
  S  S20  1  0.68013900  0.07230200  0.63445900  1
  S  S21  1  0.58086400  0.43035400  0.87891600  1
  S  S22  1  0.74727500  0.10076600  0.87996200  1
  S  S23  1  0.59143500  0.23820000  0.11889900  1
  S  S24  1  0.65680600  0.26118700  0.36480300  1
  S  S25  1  0.84090700  0.73889400  0.63591500  1
  S  S26  1  0.00505300  0.40550000  0.63249800  1
  S  S27  1  0.91115400  0.76209000  0.87762100  1
  S  S28  1  0.08894700  0.42389300  0.87551700  1
  S  S29  1  0.91101100  0.57628000  0.12457100  1
  S  S30  1  0.08880500  0.23842200  0.12313800  1
  S  S31  1  0.99421200  0.59466500  0.36796500  1
  S  S32  1  0.15874200  0.26083700  0.36371200  1
  S  S33  1  0.34156800  0.73310200  0.63415500  1
  S  S34  1  0.40873900  0.76228700  0.88000000  1
  S  S35  1  0.25236000  0.89890700  0.12121900  1
  S  S36  1  0.41914500  0.56973300  0.12135300  1
  S  S37  1  0.32585400  0.93059300  0.36408600  1
  S  S38  1  0.48532800  0.59177100  0.36786000  1
  S  S39  1  0.75267100  0.90199200  0.12148700  1
  S  S40  1  0.82666800  0.93659900  0.36802000  1
