# generated using pymatgen
data_Tm(BO2)3
_symmetry_space_group_name_H-M   'P 1'
_cell_length_a   7.39809700
_cell_length_b   12.21973300
_cell_length_c   15.89855800
_cell_angle_alpha   90.00000000
_cell_angle_beta   90.00000000
_cell_angle_gamma   90.00000000
_symmetry_Int_Tables_number   1
_chemical_formula_structural   Tm(BO2)3
_chemical_formula_sum   'Tm16 B48 O96'
_cell_volume   1437.27368297
_cell_formula_units_Z   16
loop_
 _symmetry_equiv_pos_site_id
 _symmetry_equiv_pos_as_xyz
  1  'x, y, z'
loop_
 _atom_site_type_symbol
 _atom_site_label
 _atom_site_symmetry_multiplicity
 _atom_site_fract_x
 _atom_site_fract_y
 _atom_site_fract_z
 _atom_site_occupancy
  Tm  Tm0  1  0.75000000  0.76499400  0.62867500  1
  Tm  Tm1  1  0.75000000  0.01019100  0.12062800  1
  Tm  Tm2  1  0.75000000  0.43552500  0.32696600  1
  Tm  Tm3  1  0.75000000  0.48980900  0.62062800  1
  Tm  Tm4  1  0.25000000  0.26499400  0.87132500  1
  Tm  Tm5  1  0.75000000  0.06447500  0.82696600  1
  Tm  Tm6  1  0.25000000  0.56447500  0.67303400  1
  Tm  Tm7  1  0.25000000  0.23500600  0.37132500  1
  Tm  Tm8  1  0.25000000  0.93552500  0.17303400  1
  Tm  Tm9  1  0.25000000  0.98980900  0.87937200  1
  Tm  Tm10  1  0.25000000  0.51019100  0.37937200  1
  Tm  Tm11  1  0.75000000  0.41169900  0.95146600  1
  Tm  Tm12  1  0.75000000  0.08830100  0.45146600  1
  Tm  Tm13  1  0.25000000  0.91169900  0.54853400  1
  Tm  Tm14  1  0.25000000  0.58830100  0.04853400  1
  Tm  Tm15  1  0.75000000  0.73500600  0.12867500  1
  B  B16  1  0.56875600  0.12815400  0.25866200  1
  B  B17  1  0.05917500  0.82346300  0.03310900  1
  B  B18  1  0.92972500  0.68551600  0.78240700  1
  B  B19  1  0.56875600  0.37184600  0.75866200  1
  B  B20  1  0.93124400  0.37184600  0.75866200  1
  B  B21  1  0.42348300  0.14222600  0.10955400  1
  B  B22  1  0.57651700  0.64222600  0.39044600  1
  B  B23  1  0.42655600  0.34582700  0.05588000  1
  B  B24  1  0.55917500  0.32346300  0.46689100  1
  B  B25  1  0.92348300  0.85777400  0.89044600  1
  B  B26  1  0.57834900  0.48281300  0.15190900  1
  B  B27  1  0.92165100  0.01718700  0.65190900  1
  B  B28  1  0.42165100  0.51718700  0.84809100  1
  B  B29  1  0.06875600  0.62815400  0.24133800  1
  B  B30  1  0.07027500  0.18551600  0.71759300  1
  B  B31  1  0.94082500  0.32346300  0.46689100  1
  B  B32  1  0.57344400  0.84582700  0.44412000  1
  B  B33  1  0.07027500  0.31448400  0.21759300  1
  B  B34  1  0.42972500  0.18551600  0.71759300  1
  B  B35  1  0.07834900  0.51718700  0.84809100  1
  B  B36  1  0.92655600  0.84582700  0.44412000  1
  B  B37  1  0.93124400  0.12815400  0.25866200  1
  B  B38  1  0.92348300  0.64222600  0.39044600  1
  B  B39  1  0.44082500  0.82346300  0.03310900  1
  B  B40  1  0.57344400  0.65417300  0.94412000  1
  B  B41  1  0.43124400  0.87184600  0.74133800  1
  B  B42  1  0.07834900  0.98281300  0.34809100  1
  B  B43  1  0.07651700  0.35777400  0.60955400  1
  B  B44  1  0.55917500  0.17653700  0.96689100  1
  B  B45  1  0.42655600  0.15417300  0.55588000  1
  B  B46  1  0.92655600  0.65417300  0.94412000  1
  B  B47  1  0.42348300  0.35777400  0.60955400  1
  B  B48  1  0.57027500  0.68551600  0.78240700  1
  B  B49  1  0.57651700  0.85777400  0.89044600  1
  B  B50  1  0.57027500  0.81448400  0.28240700  1
  B  B51  1  0.05917500  0.67653700  0.53310900  1
  B  B52  1  0.07651700  0.14222600  0.10955400  1
  B  B53  1  0.07344400  0.34582700  0.05588000  1
  B  B54  1  0.42165100  0.98281300  0.34809100  1
  B  B55  1  0.57834900  0.01718700  0.65190900  1
  B  B56  1  0.44082500  0.67653700  0.53310900  1
  B  B57  1  0.43124400  0.62815400  0.24133800  1
  B  B58  1  0.42972500  0.31448400  0.21759300  1
  B  B59  1  0.92972500  0.81448400  0.28240700  1
  B  B60  1  0.94082500  0.17653700  0.96689100  1
  B  B61  1  0.07344400  0.15417300  0.55588000  1
  B  B62  1  0.92165100  0.48281300  0.15190900  1
  B  B63  1  0.06875600  0.87184600  0.74133800  1
  O  O64  1  0.02465300  0.21005500  0.47653400  1
  O  O65  1  0.06142300  0.93084800  0.43163500  1
  O  O66  1  0.97534700  0.71005500  0.02346600  1
  O  O67  1  0.56142300  0.06915200  0.56836500  1
  O  O68  1  0.56618000  0.12147300  0.04793000  1
  O  O69  1  0.25000000  0.63939800  0.27608000  1
  O  O70  1  0.56754300  0.06367700  0.33673500  1
  O  O71  1  0.75000000  0.64274000  0.75506800  1
  O  O72  1  0.43857700  0.56915200  0.93163500  1
  O  O73  1  0.75000000  0.60021000  0.95203800  1
  O  O74  1  0.54394600  0.87952300  0.09719400  1
  O  O75  1  0.47534700  0.21005500  0.47653400  1
  O  O76  1  0.75000000  0.13939800  0.22392000  1
  O  O77  1  0.75000000  0.60339600  0.42222400  1
  O  O78  1  0.03441800  0.07612000  0.18562600  1
  O  O79  1  0.43382000  0.87852700  0.95207000  1
  O  O80  1  0.43250700  0.60139000  0.78189800  1
  O  O81  1  0.56754300  0.43632300  0.83673500  1
  O  O82  1  0.75000000  0.30365700  0.43246400  1
  O  O83  1  0.56749300  0.39861000  0.21810200  1
  O  O84  1  0.93857700  0.43084800  0.06836500  1
  O  O85  1  0.25000000  0.80365700  0.06753600  1
  O  O86  1  0.56749300  0.10139000  0.71810200  1
  O  O87  1  0.92587800  0.76482900  0.37145200  1
  O  O88  1  0.07412200  0.26482900  0.12854800  1
  O  O89  1  0.25000000  0.39660400  0.57777600  1
  O  O90  1  0.75000000  0.54284500  0.15806400  1
  O  O91  1  0.52254000  0.77038400  0.72236100  1
  O  O92  1  0.53441800  0.92388000  0.81437400  1
  O  O93  1  0.25000000  0.35726000  0.24493200  1
  O  O94  1  0.75000000  0.89660400  0.92222400  1
  O  O95  1  0.54394600  0.62047700  0.59719400  1
  O  O96  1  0.96558200  0.92388000  0.81437400  1
  O  O97  1  0.57412200  0.73517100  0.87145200  1
  O  O98  1  0.25000000  0.04284500  0.34193600  1
  O  O99  1  0.06618000  0.62147300  0.45207000  1
  O  O100  1  0.93857700  0.06915200  0.56836500  1
  O  O101  1  0.46558200  0.07612000  0.18562600  1
  O  O102  1  0.06618000  0.87852700  0.95207000  1
  O  O103  1  0.42587800  0.23517100  0.62854800  1
  O  O104  1  0.45605400  0.37952300  0.40280600  1
  O  O105  1  0.56618000  0.37852700  0.54793000  1
  O  O106  1  0.95605400  0.87952300  0.09719400  1
  O  O107  1  0.06142300  0.56915200  0.93163500  1
  O  O108  1  0.93382000  0.12147300  0.04793000  1
  O  O109  1  0.02254000  0.27038400  0.77763900  1
  O  O110  1  0.97746000  0.72961600  0.22236100  1
  O  O111  1  0.75000000  0.85726000  0.25506800  1
  O  O112  1  0.06749300  0.60139000  0.78189800  1
  O  O113  1  0.75000000  0.89979000  0.45203800  1
  O  O114  1  0.25000000  0.10021000  0.54796200  1
  O  O115  1  0.25000000  0.39979000  0.04796200  1
  O  O116  1  0.03441800  0.42388000  0.68562600  1
  O  O117  1  0.97746000  0.77038400  0.72236100  1
  O  O118  1  0.43382000  0.62147300  0.45207000  1
  O  O119  1  0.43245700  0.93632300  0.66326500  1
  O  O120  1  0.93250700  0.39861000  0.21810200  1
  O  O121  1  0.25000000  0.69634300  0.56753600  1
  O  O122  1  0.47534700  0.28994500  0.97653400  1
  O  O123  1  0.02254000  0.22961600  0.27763900  1
  O  O124  1  0.93382000  0.37852700  0.54793000  1
  O  O125  1  0.56142300  0.43084800  0.06836500  1
  O  O126  1  0.47746000  0.22961600  0.27763900  1
  O  O127  1  0.25000000  0.14274000  0.74493200  1
  O  O128  1  0.25000000  0.10339600  0.07777600  1
  O  O129  1  0.02465300  0.28994500  0.97653400  1
  O  O130  1  0.06754300  0.56367700  0.16326500  1
  O  O131  1  0.43857700  0.93084800  0.43163500  1
  O  O132  1  0.04394600  0.12047700  0.90280600  1
  O  O133  1  0.46558200  0.42388000  0.68562600  1
  O  O134  1  0.75000000  0.19634300  0.93246400  1
  O  O135  1  0.52465300  0.78994500  0.52346600  1
  O  O136  1  0.42587800  0.26482900  0.12854800  1
  O  O137  1  0.97534700  0.78994500  0.52346600  1
  O  O138  1  0.53441800  0.57612000  0.31437400  1
  O  O139  1  0.57412200  0.76482900  0.37145200  1
  O  O140  1  0.43250700  0.89861000  0.28189800  1
  O  O141  1  0.06754300  0.93632300  0.66326500  1
  O  O142  1  0.25000000  0.86060200  0.77608000  1
  O  O143  1  0.45605400  0.12047700  0.90280600  1
  O  O144  1  0.75000000  0.36060200  0.72392000  1
  O  O145  1  0.75000000  0.95715500  0.65806400  1
  O  O146  1  0.25000000  0.45715500  0.84193600  1
  O  O147  1  0.04394600  0.37952300  0.40280600  1
  O  O148  1  0.07412200  0.23517100  0.62854800  1
  O  O149  1  0.92587800  0.73517100  0.87145200  1
  O  O150  1  0.95605400  0.62047700  0.59719400  1
  O  O151  1  0.43245700  0.56367700  0.16326500  1
  O  O152  1  0.93250700  0.10139000  0.71810200  1
  O  O153  1  0.47746000  0.27038400  0.77763900  1
  O  O154  1  0.06749300  0.89861000  0.28189800  1
  O  O155  1  0.96558200  0.57612000  0.31437400  1
  O  O156  1  0.52465300  0.71005500  0.02346600  1
  O  O157  1  0.93245700  0.06367700  0.33673500  1
  O  O158  1  0.52254000  0.72961600  0.22236100  1
  O  O159  1  0.93245700  0.43632300  0.83673500  1
