# generated using pymatgen
data_K2H2RuO5
_symmetry_space_group_name_H-M   'P 1'
_cell_length_a   6.84473700
_cell_length_b   8.17447700
_cell_length_c   10.71409300
_cell_angle_alpha   90.00000000
_cell_angle_beta   90.00000000
_cell_angle_gamma   90.00000000
_symmetry_Int_Tables_number   1
_chemical_formula_structural   K2H2RuO5
_chemical_formula_sum   'K8 H8 Ru4 O20'
_cell_volume   599.47648698
_cell_formula_units_Z   4
loop_
 _symmetry_equiv_pos_site_id
 _symmetry_equiv_pos_as_xyz
  1  'x, y, z'
loop_
 _atom_site_type_symbol
 _atom_site_label
 _atom_site_symmetry_multiplicity
 _atom_site_fract_x
 _atom_site_fract_y
 _atom_site_fract_z
 _atom_site_occupancy
  K  K0  1  0.87600200  0.40265900  0.54261500  1
  K  K1  1  0.62399800  0.59734100  0.04261500  1
  K  K2  1  0.12399800  0.90265900  0.95738500  1
  K  K3  1  0.37600200  0.09734100  0.45738500  1
  K  K4  1  0.46192800  0.75456600  0.68742600  1
  K  K5  1  0.03807200  0.24543400  0.18742600  1
  K  K6  1  0.53807200  0.25456600  0.81257400  1
  K  K7  1  0.96192800  0.74543400  0.31257400  1
  H  H8  1  0.86088900  0.07457000  0.40534900  1
  H  H9  1  0.63911100  0.92543000  0.90534900  1
  H  H10  1  0.13911100  0.57457000  0.09465100  1
  H  H11  1  0.36088900  0.42543000  0.59465100  1
  H  H12  1  0.64985600  0.27099700  0.29169900  1
  H  H13  1  0.85014400  0.72900300  0.79169900  1
  H  H14  1  0.35014400  0.77099700  0.20830100  1
  H  H15  1  0.14985600  0.22900300  0.70830100  1
  Ru  Ru16  1  0.40873700  0.55952600  0.38170800  1
  Ru  Ru17  1  0.09126300  0.44047400  0.88170800  1
  Ru  Ru18  1  0.59126300  0.05952600  0.11829200  1
  Ru  Ru19  1  0.90873700  0.94047400  0.61829200  1
  O  O20  1  0.79455600  0.92305000  0.12656900  1
  O  O21  1  0.70544400  0.07695000  0.62656900  1
  O  O22  1  0.20544400  0.42305000  0.37343100  1
  O  O23  1  0.29455600  0.57695000  0.87343100  1
  O  O24  1  0.98261300  0.04090000  0.44937300  1
  O  O25  1  0.51738700  0.95910000  0.94937300  1
  O  O26  1  0.01738700  0.54090000  0.05062700  1
  O  O27  1  0.48261300  0.45910000  0.55062700  1
  O  O28  1  0.14697800  0.99310900  0.67688700  1
  O  O29  1  0.35302200  0.00689100  0.17688700  1
  O  O30  1  0.85302200  0.49310900  0.82311300  1
  O  O31  1  0.64697800  0.50689100  0.32311300  1
  O  O32  1  0.12959700  0.24242800  0.94402500  1
  O  O33  1  0.37040300  0.75757200  0.44402500  1
  O  O34  1  0.87040300  0.74242800  0.55597500  1
  O  O35  1  0.62959700  0.25757200  0.05597500  1
  O  O36  1  0.82464100  0.84763800  0.79094900  1
  O  O37  1  0.67535900  0.15236200  0.29094900  1
  O  O38  1  0.17535900  0.34763800  0.70905100  1
  O  O39  1  0.32464100  0.65236200  0.20905100  1
