# generated using pymatgen
data_RbV2SbO8
_symmetry_space_group_name_H-M   'P 1'
_cell_length_a   5.65659700
_cell_length_b   8.82964400
_cell_length_c   15.01666500
_cell_angle_alpha   90.00000000
_cell_angle_beta   90.00000000
_cell_angle_gamma   90.00000000
_symmetry_Int_Tables_number   1
_chemical_formula_structural   RbV2SbO8
_chemical_formula_sum   'Rb4 V8 Sb4 O32'
_cell_volume   750.01841214
_cell_formula_units_Z   4
loop_
 _symmetry_equiv_pos_site_id
 _symmetry_equiv_pos_as_xyz
  1  'x, y, z'
loop_
 _atom_site_type_symbol
 _atom_site_label
 _atom_site_symmetry_multiplicity
 _atom_site_fract_x
 _atom_site_fract_y
 _atom_site_fract_z
 _atom_site_occupancy
  Rb  Rb0  1  0.25000000  0.54838800  0.38570200  1
  Rb  Rb1  1  0.25000000  0.95161200  0.88570200  1
  Rb  Rb2  1  0.75000000  0.45161200  0.61429800  1
  Rb  Rb3  1  0.75000000  0.04838800  0.11429800  1
  V  V4  1  0.25000000  0.29653800  0.02473100  1
  V  V5  1  0.75000000  0.48984700  0.21689300  1
  V  V6  1  0.25000000  0.98984700  0.28310700  1
  V  V7  1  0.75000000  0.70346200  0.97526900  1
  V  V8  1  0.25000000  0.51015300  0.78310700  1
  V  V9  1  0.75000000  0.79653800  0.47526900  1
  V  V10  1  0.75000000  0.01015300  0.71689300  1
  V  V11  1  0.25000000  0.20346200  0.52473100  1
  Sb  Sb12  1  0.25000000  0.81883200  0.62172900  1
  Sb  Sb13  1  0.25000000  0.68116800  0.12172900  1
  Sb  Sb14  1  0.75000000  0.18116800  0.37827100  1
  Sb  Sb15  1  0.75000000  0.31883200  0.87827100  1
  O  O16  1  0.99100600  0.10587500  0.29153100  1
  O  O17  1  0.00298800  0.76407900  0.03967400  1
  O  O18  1  0.25000000  0.30902400  0.61449400  1
  O  O19  1  0.99701200  0.23592100  0.96032600  1
  O  O20  1  0.25000000  0.62675600  0.86695900  1
  O  O21  1  0.25000000  0.61578700  0.68095500  1
  O  O22  1  0.49100600  0.60587500  0.20846900  1
  O  O23  1  0.50298800  0.23592100  0.96032600  1
  O  O24  1  0.75000000  0.69097600  0.38550600  1
  O  O25  1  0.50298800  0.26407900  0.46032600  1
  O  O26  1  0.00899400  0.89412500  0.70846900  1
  O  O27  1  0.00899400  0.60587500  0.20846900  1
  O  O28  1  0.50899400  0.10587500  0.29153100  1
  O  O29  1  0.75000000  0.12675600  0.63304100  1
  O  O30  1  0.99701200  0.26407900  0.46032600  1
  O  O31  1  0.49701200  0.73592100  0.53967400  1
  O  O32  1  0.25000000  0.48917800  0.05139500  1
  O  O33  1  0.25000000  0.88421300  0.18095500  1
  O  O34  1  0.75000000  0.37324400  0.13304100  1
  O  O35  1  0.49701200  0.76407900  0.03967400  1
  O  O36  1  0.50899400  0.39412500  0.79153100  1
  O  O37  1  0.49100600  0.89412500  0.70846900  1
  O  O38  1  0.25000000  0.87324400  0.36695900  1
  O  O39  1  0.75000000  0.51082200  0.94860500  1
  O  O40  1  0.75000000  0.38421300  0.31904500  1
  O  O41  1  0.99100600  0.39412500  0.79153100  1
  O  O42  1  0.25000000  0.19097600  0.11449400  1
  O  O43  1  0.75000000  0.98917800  0.44860500  1
  O  O44  1  0.75000000  0.80902400  0.88550600  1
  O  O45  1  0.75000000  0.11578700  0.81904500  1
  O  O46  1  0.00298800  0.73592100  0.53967400  1
  O  O47  1  0.25000000  0.01082200  0.55139500  1
