# generated using pymatgen
data_Cr21(MoC3)2
_symmetry_space_group_name_H-M   'P 1'
_cell_length_a   7.52635266
_cell_length_b   7.52635266
_cell_length_c   7.52635266
_cell_angle_alpha   60.00000000
_cell_angle_beta   60.00000000
_cell_angle_gamma   60.00000000
_symmetry_Int_Tables_number   1
_chemical_formula_structural   Cr21(MoC3)2
_chemical_formula_sum   'Cr21 Mo2 C6'
_cell_volume   301.46624639
_cell_formula_units_Z   1
loop_
 _symmetry_equiv_pos_site_id
 _symmetry_equiv_pos_as_xyz
  1  'x, y, z'
loop_
 _atom_site_type_symbol
 _atom_site_label
 _atom_site_symmetry_multiplicity
 _atom_site_fract_x
 _atom_site_fract_y
 _atom_site_fract_z
 _atom_site_occupancy
  Cr  Cr0  1  0.00000000  0.00000000  0.00000000  1
  Cr  Cr1  1  0.61596200  0.61596200  0.15211300  1
  Cr  Cr2  1  0.61596200  0.15211300  0.61596200  1
  Cr  Cr3  1  0.15211300  0.61596200  0.61596200  1
  Cr  Cr4  1  0.61596200  0.61596200  0.61596200  1
  Cr  Cr5  1  0.38403800  0.38403800  0.84788700  1
  Cr  Cr6  1  0.38403800  0.84788700  0.38403800  1
  Cr  Cr7  1  0.84788700  0.38403800  0.38403800  1
  Cr  Cr8  1  0.38403800  0.38403800  0.38403800  1
  Cr  Cr9  1  0.00000000  0.00000000  0.33761900  1
  Cr  Cr10  1  0.66238100  0.00000000  0.33761900  1
  Cr  Cr11  1  0.00000000  0.66238100  0.33761900  1
  Cr  Cr12  1  0.66238100  0.33761900  0.00000000  1
  Cr  Cr13  1  0.00000000  0.33761900  0.00000000  1
  Cr  Cr14  1  0.00000000  0.33761900  0.66238100  1
  Cr  Cr15  1  0.33761900  0.66238100  0.00000000  1
  Cr  Cr16  1  0.33761900  0.00000000  0.66238100  1
  Cr  Cr17  1  0.33761900  0.00000000  0.00000000  1
  Cr  Cr18  1  0.00000000  0.00000000  0.66238100  1
  Cr  Cr19  1  0.00000000  0.66238100  0.00000000  1
  Cr  Cr20  1  0.66238100  0.00000000  0.00000000  1
  Mo  Mo21  1  0.75000000  0.75000000  0.75000000  1
  Mo  Mo22  1  0.25000000  0.25000000  0.25000000  1
  C  C23  1  0.72396800  0.72396800  0.27603200  1
  C  C24  1  0.27603200  0.72396800  0.27603200  1
  C  C25  1  0.72396800  0.27603200  0.27603200  1
  C  C26  1  0.27603200  0.27603200  0.72396800  1
  C  C27  1  0.72396800  0.27603200  0.72396800  1
  C  C28  1  0.27603200  0.72396800  0.72396800  1
