# generated using pymatgen
data_GaPO4
_symmetry_space_group_name_H-M   'P 1'
_cell_length_a   5.15126856
_cell_length_b   5.15126856
_cell_length_c   5.15126856
_cell_angle_alpha   120.82725063
_cell_angle_beta   120.82725063
_cell_angle_gamma   88.57303408
_symmetry_Int_Tables_number   1
_chemical_formula_structural   GaPO4
_chemical_formula_sum   'Ga1 P1 O4'
_cell_volume   95.41504436
_cell_formula_units_Z   1
loop_
 _symmetry_equiv_pos_site_id
 _symmetry_equiv_pos_as_xyz
  1  'x, y, z'
loop_
 _atom_site_type_symbol
 _atom_site_label
 _atom_site_symmetry_multiplicity
 _atom_site_fract_x
 _atom_site_fract_y
 _atom_site_fract_z
 _atom_site_occupancy
  Ga  Ga0  1  0.00000000  0.00000000  0.00000000  1
  P  P1  1  0.25000000  0.75000000  0.50000000  1
  O  O2  1  0.14648900  0.98991300  0.40262900  1
  O  O3  1  0.58728500  0.74386000  0.59737100  1
  O  O4  1  0.01008700  0.41271500  0.15657500  1
  O  O5  1  0.25614000  0.85351100  0.84342500  1
