# generated using pymatgen
data_Co2PClO4
_symmetry_space_group_name_H-M   'P 1'
_cell_length_a   8.22751131
_cell_length_b   8.22751131
_cell_length_c   9.31746473
_cell_angle_alpha   55.59606967
_cell_angle_beta   55.59606967
_cell_angle_gamma   67.93351953
_symmetry_Int_Tables_number   1
_chemical_formula_structural   Co2PClO4
_chemical_formula_sum   'Co8 P4 Cl4 O16'
_cell_volume   427.88201267
_cell_formula_units_Z   4
loop_
 _symmetry_equiv_pos_site_id
 _symmetry_equiv_pos_as_xyz
  1  'x, y, z'
loop_
 _atom_site_type_symbol
 _atom_site_label
 _atom_site_symmetry_multiplicity
 _atom_site_fract_x
 _atom_site_fract_y
 _atom_site_fract_z
 _atom_site_occupancy
  Co  Co0  1  0.55894800  0.07404400  0.17429000  1
  Co  Co1  1  0.44105200  0.92595600  0.82571000  1
  Co  Co2  1  0.92595600  0.44105200  0.32571000  1
  Co  Co3  1  0.72596700  0.27403300  0.25000000  1
  Co  Co4  1  0.00000000  0.00000000  0.50000000  1
  Co  Co5  1  0.07404400  0.55894800  0.67429000  1
  Co  Co6  1  0.27403300  0.72596700  0.75000000  1
  Co  Co7  1  0.00000000  0.00000000  0.00000000  1
  P  P8  1  0.75927400  0.77532600  0.48535300  1
  P  P9  1  0.24072600  0.22467400  0.51464700  1
  P  P10  1  0.22467400  0.24072600  0.01464700  1
  P  P11  1  0.77532600  0.75927400  0.98535300  1
  Cl  Cl12  1  0.19028500  0.66109800  0.07406000  1
  Cl  Cl13  1  0.66109800  0.19028500  0.57406000  1
  Cl  Cl14  1  0.80971500  0.33890200  0.92594000  1
  Cl  Cl15  1  0.33890200  0.80971500  0.42594000  1
  O  O16  1  0.07952300  0.22338100  0.47580000  1
  O  O17  1  0.22338100  0.07952300  0.97580000  1
  O  O18  1  0.02836000  0.22111500  0.21237300  1
  O  O19  1  0.97164000  0.77888500  0.78762700  1
  O  O20  1  0.21628200  0.40583100  0.52984900  1
  O  O21  1  0.55105900  0.78558200  0.65717100  1
  O  O22  1  0.92047700  0.77661900  0.52420000  1
  O  O23  1  0.78558200  0.55105900  0.15717100  1
  O  O24  1  0.40583100  0.21628200  0.02984900  1
  O  O25  1  0.77661900  0.92047700  0.02420000  1
  O  O26  1  0.21441800  0.44894100  0.84282900  1
  O  O27  1  0.59416900  0.78371800  0.97015100  1
  O  O28  1  0.78371800  0.59416900  0.47015100  1
  O  O29  1  0.44894100  0.21441800  0.34282900  1
  O  O30  1  0.22111500  0.02836000  0.71237300  1
  O  O31  1  0.77888500  0.97164000  0.28762700  1
