# generated using pymatgen
data_Rb6Ta4S25
_symmetry_space_group_name_H-M   'P 1'
_cell_length_a   19.33756650
_cell_length_b   19.33756650
_cell_length_c   13.16524345
_cell_angle_alpha   80.93114873
_cell_angle_beta   80.93114873
_cell_angle_gamma   25.00755428
_symmetry_Int_Tables_number   1
_chemical_formula_structural   Rb6Ta4S25
_chemical_formula_sum   'Rb12 Ta8 S50'
_cell_volume   2053.84785363
_cell_formula_units_Z   2
loop_
 _symmetry_equiv_pos_site_id
 _symmetry_equiv_pos_as_xyz
  1  'x, y, z'
loop_
 _atom_site_type_symbol
 _atom_site_label
 _atom_site_symmetry_multiplicity
 _atom_site_fract_x
 _atom_site_fract_y
 _atom_site_fract_z
 _atom_site_occupancy
  Rb  Rb0  1  0.06069300  0.36100700  0.23556600  1
  Rb  Rb1  1  0.65150500  0.28014500  0.10551600  1
  Rb  Rb2  1  0.71985500  0.34849500  0.39448400  1
  Rb  Rb3  1  0.34642400  0.90206200  0.13561600  1
  Rb  Rb4  1  0.93930700  0.63899300  0.76443400  1
  Rb  Rb5  1  0.09793800  0.65357600  0.36438400  1
  Rb  Rb6  1  0.90206200  0.34642400  0.63561600  1
  Rb  Rb7  1  0.28014500  0.65150500  0.60551600  1
  Rb  Rb8  1  0.63899300  0.93930700  0.26443400  1
  Rb  Rb9  1  0.65357600  0.09793800  0.86438400  1
  Rb  Rb10  1  0.34849500  0.71985500  0.89448400  1
  Rb  Rb11  1  0.36100700  0.06069300  0.73556600  1
  Ta  Ta12  1  0.21620000  0.60782600  0.94227300  1
  Ta  Ta13  1  0.51542000  0.12886700  0.58776300  1
  Ta  Ta14  1  0.87113300  0.48458000  0.91223700  1
  Ta  Ta15  1  0.48458000  0.87113300  0.41223700  1
  Ta  Ta16  1  0.12886700  0.51542000  0.08776300  1
  Ta  Ta17  1  0.39217400  0.78380000  0.55772700  1
  Ta  Ta18  1  0.78380000  0.39217400  0.05772700  1
  Ta  Ta19  1  0.60782600  0.21620000  0.44227300  1
  S  S20  1  0.39356600  0.22454200  0.04349500  1
  S  S21  1  0.02627700  0.88332800  0.93530600  1
  S  S22  1  0.91682100  0.48481900  0.74530600  1
  S  S23  1  0.48581000  0.22908500  0.37447800  1
  S  S24  1  0.05360700  0.21720500  0.93732000  1
  S  S25  1  0.76987800  0.38536600  0.87613900  1
  S  S26  1  0.70289300  0.07127600  0.29861300  1
  S  S27  1  0.48481900  0.91682100  0.24530600  1
  S  S28  1  0.11667200  0.97372300  0.56469400  1
  S  S29  1  0.94639300  0.78279500  0.06268000  1
  S  S30  1  0.85780900  0.77197500  0.01427100  1
  S  S31  1  0.51419000  0.77091500  0.62552200  1
  S  S32  1  0.77197500  0.85780900  0.51427100  1
  S  S33  1  0.42269400  0.33940300  0.59603900  1
  S  S34  1  0.78279500  0.94639300  0.56268000  1
  S  S35  1  0.77545800  0.60643400  0.45650500  1
  S  S36  1  0.88332800  0.02627700  0.43530600  1
  S  S37  1  0.77091500  0.51419000  0.12552200  1
  S  S38  1  0.02607600  0.06222200  0.71353500  1
  S  S39  1  0.61463400  0.23012200  0.62386100  1
  S  S40  1  0.38536600  0.76987800  0.37613900  1
  S  S41  1  0.57730600  0.66059700  0.40396100  1
  S  S42  1  0.81251400  0.64212600  0.99239400  1
  S  S43  1  0.97392400  0.93777800  0.28646500  1
  S  S44  1  0.44350900  0.45763900  0.87002800  1
  S  S45  1  0.23012200  0.61463400  0.12386100  1
  S  S46  1  0.07127600  0.70289300  0.79861300  1
  S  S47  1  0.06222200  0.02607600  0.21353500  1
  S  S48  1  0.92872400  0.29710700  0.20138700  1
  S  S49  1  0.18748600  0.35787400  0.00760600  1
  S  S50  1  0.21720500  0.05360700  0.43732000  1
  S  S51  1  0.60643400  0.77545800  0.95650500  1
  S  S52  1  0.22908500  0.48581000  0.87447800  1
  S  S53  1  0.54236100  0.55649100  0.62997200  1
  S  S54  1  0.45763900  0.44350900  0.37002800  1
  S  S55  1  0.14219100  0.22802500  0.98572900  1
  S  S56  1  0.33940300  0.42269400  0.09603900  1
  S  S57  1  0.16249800  0.83750200  0.25000000  1
  S  S58  1  0.97372300  0.11667200  0.06469400  1
  S  S59  1  0.35787400  0.18748600  0.50760600  1
  S  S60  1  0.55649100  0.54236100  0.12997200  1
  S  S61  1  0.83750200  0.16249800  0.75000000  1
  S  S62  1  0.66059700  0.57730600  0.90396100  1
  S  S63  1  0.93777800  0.97392400  0.78646500  1
  S  S64  1  0.64212600  0.81251400  0.49239400  1
  S  S65  1  0.22802500  0.14219100  0.48572900  1
  S  S66  1  0.29710700  0.92872400  0.70138700  1
  S  S67  1  0.51518100  0.08317900  0.75469400  1
  S  S68  1  0.22454200  0.39356600  0.54349500  1
  S  S69  1  0.08317900  0.51518100  0.25469400  1
