# generated using pymatgen
data_Li4Mn5O12
_symmetry_space_group_name_H-M   'P 1'
_cell_length_a   5.83752969
_cell_length_b   5.83752969
_cell_length_c   13.02123451
_cell_angle_alpha   77.21990870
_cell_angle_beta   77.21990870
_cell_angle_gamma   89.79930017
_symmetry_Int_Tables_number   1
_chemical_formula_structural   Li4Mn5O12
_chemical_formula_sum   'Li8 Mn10 O24'
_cell_volume   421.52671111
_cell_formula_units_Z   2
loop_
 _symmetry_equiv_pos_site_id
 _symmetry_equiv_pos_as_xyz
  1  'x, y, z'
loop_
 _atom_site_type_symbol
 _atom_site_label
 _atom_site_symmetry_multiplicity
 _atom_site_fract_x
 _atom_site_fract_y
 _atom_site_fract_z
 _atom_site_occupancy
  Li  Li0  1  0.78557400  0.54025200  0.92033200  1
  Li  Li1  1  0.54025200  0.78557400  0.42033200  1
  Li  Li2  1  0.88130600  0.11869400  0.75000000  1
  Li  Li3  1  0.11869400  0.88130600  0.25000000  1
  Li  Li4  1  0.00000000  0.00000000  0.50000000  1
  Li  Li5  1  0.21442600  0.45974800  0.07966800  1
  Li  Li6  1  0.45974800  0.21442600  0.57966800  1
  Li  Li7  1  0.00000000  0.00000000  0.00000000  1
  Mn  Mn8  1  0.66904900  0.66623500  0.16493200  1
  Mn  Mn9  1  0.16675800  0.66918800  0.66368500  1
  Mn  Mn10  1  0.66623500  0.66904900  0.66493200  1
  Mn  Mn11  1  0.50000000  0.00000000  0.00000000  1
  Mn  Mn12  1  0.33081200  0.83324200  0.83631500  1
  Mn  Mn13  1  0.33095100  0.33376500  0.83506800  1
  Mn  Mn14  1  0.83324200  0.33081200  0.33631500  1
  Mn  Mn15  1  0.66918800  0.16675800  0.16368500  1
  Mn  Mn16  1  0.33376500  0.33095100  0.33506800  1
  Mn  Mn17  1  0.00000000  0.50000000  0.50000000  1
  O  O18  1  0.58796100  0.55703200  0.32415700  1
  O  O19  1  0.22587600  0.72533300  0.51350200  1
  O  O20  1  0.91672400  0.87540500  0.66884100  1
  O  O21  1  0.07904100  0.55295800  0.34148300  1
  O  O22  1  0.76331900  0.72563700  0.51357100  1
  O  O23  1  0.55703200  0.58796100  0.82415700  1
  O  O24  1  0.55295800  0.07904100  0.84148300  1
  O  O25  1  0.27436300  0.23668100  0.98642900  1
  O  O26  1  0.41420200  0.88387400  0.67379000  1
  O  O27  1  0.27466700  0.77412400  0.98649800  1
  O  O28  1  0.12459500  0.08327600  0.83115900  1
  O  O29  1  0.11612600  0.58579800  0.82621000  1
  O  O30  1  0.87540500  0.91672400  0.16884100  1
  O  O31  1  0.88387400  0.41420200  0.17379000  1
  O  O32  1  0.72533300  0.22587600  0.01350200  1
  O  O33  1  0.58579800  0.11612600  0.32621000  1
  O  O34  1  0.72563700  0.76331900  0.01357100  1
  O  O35  1  0.44704200  0.92095900  0.15851700  1
  O  O36  1  0.44296800  0.41203900  0.17584300  1
  O  O37  1  0.23668100  0.27436300  0.48642900  1
  O  O38  1  0.92095900  0.44704200  0.65851700  1
  O  O39  1  0.08327600  0.12459500  0.33115900  1
  O  O40  1  0.77412400  0.27466700  0.48649800  1
  O  O41  1  0.41203900  0.44296800  0.67584300  1
