# generated using pymatgen
data_Y12Ni6Pb
_symmetry_space_group_name_H-M   'P 1'
_cell_length_a   8.48436947
_cell_length_b   8.48436947
_cell_length_c   8.48436947
_cell_angle_alpha   109.47122063
_cell_angle_beta   109.47122063
_cell_angle_gamma   109.47122063
_symmetry_Int_Tables_number   1
_chemical_formula_structural   Y12Ni6Pb
_chemical_formula_sum   'Y12 Ni6 Pb1'
_cell_volume   470.15041907
_cell_formula_units_Z   1
loop_
 _symmetry_equiv_pos_site_id
 _symmetry_equiv_pos_as_xyz
  1  'x, y, z'
loop_
 _atom_site_type_symbol
 _atom_site_label
 _atom_site_symmetry_multiplicity
 _atom_site_fract_x
 _atom_site_fract_y
 _atom_site_fract_z
 _atom_site_occupancy
  Y  Y0  1  0.81083900  0.50786100  0.69702300  1
  Y  Y1  1  0.69702300  0.18916100  0.88618400  1
  Y  Y2  1  0.18916100  0.88618400  0.69702300  1
  Y  Y3  1  0.30297700  0.18916100  0.49213900  1
  Y  Y4  1  0.69702300  0.81083900  0.50786100  1
  Y  Y5  1  0.49213900  0.30297700  0.18916100  1
  Y  Y6  1  0.81083900  0.11381600  0.30297700  1
  Y  Y7  1  0.88618400  0.69702300  0.18916100  1
  Y  Y8  1  0.11381600  0.30297700  0.81083900  1
  Y  Y9  1  0.30297700  0.81083900  0.11381600  1
  Y  Y10  1  0.50786100  0.69702300  0.81083900  1
  Y  Y11  1  0.18916100  0.49213900  0.30297700  1
  Ni  Ni12  1  0.62201200  0.12201200  0.50000000  1
  Ni  Ni13  1  0.50000000  0.62201200  0.12201200  1
  Ni  Ni14  1  0.50000000  0.37798800  0.87798800  1
  Ni  Ni15  1  0.37798800  0.87798800  0.50000000  1
  Ni  Ni16  1  0.12201200  0.50000000  0.62201200  1
  Ni  Ni17  1  0.87798800  0.50000000  0.37798800  1
  Pb  Pb18  1  0.00000000  0.00000000  0.00000000  1
