# generated using pymatgen
data_Cs4Zr3Te16
_symmetry_space_group_name_H-M   'P 1'
_cell_length_a   19.78484900
_cell_length_b   12.21720800
_cell_length_c   17.97604476
_cell_angle_alpha   60.07015495
_cell_angle_beta   90.00000000
_cell_angle_gamma   90.00000000
_symmetry_Int_Tables_number   1
_chemical_formula_structural   Cs4Zr3Te16
_chemical_formula_sum   'Cs16 Zr12 Te64'
_cell_volume   3765.61626748
_cell_formula_units_Z   4
loop_
 _symmetry_equiv_pos_site_id
 _symmetry_equiv_pos_as_xyz
  1  'x, y, z'
loop_
 _atom_site_type_symbol
 _atom_site_label
 _atom_site_symmetry_multiplicity
 _atom_site_fract_x
 _atom_site_fract_y
 _atom_site_fract_z
 _atom_site_occupancy
  Cs  Cs0  1  0.84582200  0.83322600  0.08595400  1
  Cs  Cs1  1  0.34582200  0.16677400  0.41404600  1
  Cs  Cs2  1  0.14078000  0.30761000  0.55685300  1
  Cs  Cs3  1  0.14006000  0.74575700  0.60453300  1
  Cs  Cs4  1  0.62683700  0.26642600  0.65411000  1
  Cs  Cs5  1  0.64078000  0.69239000  0.94314700  1
  Cs  Cs6  1  0.12683700  0.73357400  0.84589000  1
  Cs  Cs7  1  0.85994000  0.25424300  0.39546700  1
  Cs  Cs8  1  0.37316300  0.73357400  0.34589000  1
  Cs  Cs9  1  0.65417800  0.83322600  0.58595400  1
  Cs  Cs10  1  0.35922000  0.30761000  0.05685300  1
  Cs  Cs11  1  0.85922000  0.69239000  0.44314700  1
  Cs  Cs12  1  0.64006000  0.25424300  0.89546700  1
  Cs  Cs13  1  0.87316300  0.26642600  0.15411000  1
  Cs  Cs14  1  0.15417800  0.16677400  0.91404600  1
  Cs  Cs15  1  0.35994000  0.74575700  0.10453300  1
  Zr  Zr16  1  0.11607800  0.89906900  0.25146700  1
  Zr  Zr17  1  0.38392200  0.89906900  0.75146700  1
  Zr  Zr18  1  0.11459500  0.23991200  0.23070800  1
  Zr  Zr19  1  0.38289100  0.58479200  0.70802200  1
  Zr  Zr20  1  0.38540500  0.23991200  0.73070800  1
  Zr  Zr21  1  0.88540500  0.76008800  0.76929200  1
  Zr  Zr22  1  0.11710900  0.58479200  0.20802200  1
  Zr  Zr23  1  0.88392200  0.10093100  0.74853300  1
  Zr  Zr24  1  0.61710900  0.41520800  0.29197800  1
  Zr  Zr25  1  0.61607800  0.10093100  0.24853300  1
  Zr  Zr26  1  0.61459500  0.76008800  0.26929200  1
  Zr  Zr27  1  0.88289100  0.41520800  0.79197800  1
  Te  Te28  1  0.05251900  0.32433600  0.34251400  1
  Te  Te29  1  0.22910700  0.42524600  0.19820600  1
  Te  Te30  1  0.32371100  0.78195200  0.54278000  1
  Te  Te31  1  0.95827900  0.00030000  0.64987200  1
  Te  Te32  1  0.54736900  0.51694300  0.39195500  1
  Te  Te33  1  0.82371100  0.21804800  0.95722000  1
  Te  Te34  1  0.46706700  0.45559100  0.27013900  1
  Te  Te35  1  0.23859700  0.97275400  0.14641700  1
  Te  Te36  1  0.23641600  0.51156200  0.31727900  1
  Te  Te37  1  0.77089300  0.57475400  0.80179400  1
  Te  Te38  1  0.77275800  0.94746000  0.73177400  1
  Te  Te39  1  0.43225300  0.85168400  0.61050900  1
  Te  Te40  1  0.65253200  0.62445400  0.45454000  1
  Te  Te41  1  0.96706700  0.54440900  0.22986100  1
  Te  Te42  1  0.72910700  0.57475400  0.30179400  1
  Te  Te43  1  0.73641600  0.48843800  0.18272100  1
  Te  Te44  1  0.03408600  0.05944800  0.77550300  1
  Te  Te45  1  0.94748100  0.67566400  0.65748600  1
  Te  Te46  1  0.15253200  0.37554600  0.04546000  1
  Te  Te47  1  0.96591400  0.94055200  0.22449700  1
  Te  Te48  1  0.31967600  0.69797400  0.91230100  1
  Te  Te49  1  0.93225300  0.14831600  0.88949100  1
  Te  Te50  1  0.84746800  0.62445400  0.95454000  1
  Te  Te51  1  0.27275800  0.05254000  0.76822600  1
  Te  Te52  1  0.18032400  0.69797400  0.41230100  1
  Te  Te53  1  0.06774700  0.85168400  0.11050900  1
  Te  Te54  1  0.53293300  0.54440900  0.72986100  1
  Te  Te55  1  0.17628900  0.78195200  0.04278000  1
  Te  Te56  1  0.93331800  0.36733000  0.65102100  1
  Te  Te57  1  0.05425400  0.16104900  0.11485600  1
  Te  Te58  1  0.76358400  0.48843800  0.68272100  1
  Te  Te59  1  0.46591400  0.05944800  0.27550300  1
  Te  Te60  1  0.26140300  0.97275400  0.64641700  1
  Te  Te61  1  0.54172100  0.00030000  0.14987200  1
  Te  Te62  1  0.04736900  0.48305700  0.10804500  1
  Te  Te63  1  0.76140300  0.02724600  0.85358300  1
  Te  Te64  1  0.03293300  0.45559100  0.77013900  1
  Te  Te65  1  0.64621800  0.89907800  0.08139000  1
  Te  Te66  1  0.56774700  0.14831600  0.38949100  1
  Te  Te67  1  0.73859700  0.02724600  0.35358300  1
  Te  Te68  1  0.34746800  0.37554600  0.54546000  1
  Te  Te69  1  0.45827900  0.99970000  0.85012800  1
  Te  Te70  1  0.14621800  0.10092200  0.41861000  1
  Te  Te71  1  0.44748100  0.32433600  0.84251400  1
  Te  Te72  1  0.35378200  0.10092200  0.91861000  1
  Te  Te73  1  0.44574600  0.16104900  0.61485600  1
  Te  Te74  1  0.45263100  0.48305700  0.60804500  1
  Te  Te75  1  0.43331800  0.63267000  0.84897900  1
  Te  Te76  1  0.94574600  0.83895100  0.88514400  1
  Te  Te77  1  0.04172100  0.99970000  0.35012800  1
  Te  Te78  1  0.22724200  0.05254000  0.26822600  1
  Te  Te79  1  0.72724200  0.94746000  0.23177400  1
  Te  Te80  1  0.06668200  0.63267000  0.34897900  1
  Te  Te81  1  0.27089300  0.42524600  0.69820600  1
  Te  Te82  1  0.56668200  0.36733000  0.15102100  1
  Te  Te83  1  0.67628900  0.21804800  0.45722000  1
  Te  Te84  1  0.26358400  0.51156200  0.81727900  1
  Te  Te85  1  0.95263100  0.51694300  0.89195500  1
  Te  Te86  1  0.55251900  0.67566400  0.15748600  1
  Te  Te87  1  0.85378200  0.89907800  0.58139000  1
  Te  Te88  1  0.81967600  0.30202600  0.58769900  1
  Te  Te89  1  0.68032400  0.30202600  0.08769900  1
  Te  Te90  1  0.53408600  0.94055200  0.72449700  1
  Te  Te91  1  0.55425400  0.83895100  0.38514400  1
