# generated using pymatgen
data_UPb(SeO4)2
_symmetry_space_group_name_H-M   'P 1'
_cell_length_a   5.88973400
_cell_length_b   11.47505700
_cell_length_c   12.19299700
_cell_angle_alpha   90.00000000
_cell_angle_beta   90.00000000
_cell_angle_gamma   90.00000000
_symmetry_Int_Tables_number   1
_chemical_formula_structural   UPb(SeO4)2
_chemical_formula_sum   'U4 Pb4 Se8 O32'
_cell_volume   824.06410906
_cell_formula_units_Z   4
loop_
 _symmetry_equiv_pos_site_id
 _symmetry_equiv_pos_as_xyz
  1  'x, y, z'
loop_
 _atom_site_type_symbol
 _atom_site_label
 _atom_site_symmetry_multiplicity
 _atom_site_fract_x
 _atom_site_fract_y
 _atom_site_fract_z
 _atom_site_occupancy
  U  U0  1  0.00026300  0.22477500  0.25098500  1
  U  U1  1  0.00026300  0.22477500  0.74901500  1
  U  U2  1  0.99973700  0.72477500  0.74901500  1
  U  U3  1  0.99973700  0.72477500  0.25098500  1
  Pb  Pb4  1  0.05056100  0.97886400  0.00000000  1
  Pb  Pb5  1  0.48600100  0.77624500  0.50000000  1
  Pb  Pb6  1  0.51399900  0.27624500  0.50000000  1
  Pb  Pb7  1  0.94943900  0.47886400  0.00000000  1
  Se  Se8  1  0.13991300  0.03075100  0.50000000  1
  Se  Se9  1  0.86008700  0.53075100  0.50000000  1
  Se  Se10  1  0.62549100  0.94989400  0.23428000  1
  Se  Se11  1  0.37450900  0.44989400  0.23428000  1
  Se  Se12  1  0.62549100  0.94989400  0.76572000  1
  Se  Se13  1  0.40158800  0.71532400  0.00000000  1
  Se  Se14  1  0.59841200  0.21532400  0.00000000  1
  Se  Se15  1  0.37450900  0.44989400  0.76572000  1
  O  O16  1  0.16242900  0.13143400  0.60665000  1
  O  O17  1  0.75073700  0.27673000  0.89057000  1
  O  O18  1  0.16242900  0.13143400  0.39335000  1
  O  O19  1  0.25515900  0.57823600  0.72018400  1
  O  O20  1  0.75073700  0.27673000  0.10943000  1
  O  O21  1  0.17267100  0.81529800  0.65712800  1
  O  O22  1  0.24926300  0.77673000  0.10943000  1
  O  O23  1  0.25515900  0.57823600  0.27981600  1
  O  O24  1  0.74484100  0.07823600  0.72018400  1
  O  O25  1  0.16951300  0.13450800  0.84377000  1
  O  O26  1  0.83757100  0.63143400  0.60665000  1
  O  O27  1  0.83048700  0.63450800  0.15623000  1
  O  O28  1  0.24926300  0.77673000  0.89057000  1
  O  O29  1  0.74484100  0.07823600  0.27981600  1
  O  O30  1  0.69027400  0.84694700  0.66488000  1
  O  O31  1  0.17267100  0.81529800  0.34287200  1
  O  O32  1  0.59030400  0.47850400  0.50000000  1
  O  O33  1  0.83757100  0.63143400  0.39335000  1
  O  O34  1  0.67818100  0.07269900  0.00000000  1
  O  O35  1  0.83556100  0.89081900  0.14791200  1
  O  O36  1  0.32181900  0.57269900  0.00000000  1
  O  O37  1  0.82732900  0.31529800  0.65712800  1
  O  O38  1  0.30972600  0.34694700  0.33512000  1
  O  O39  1  0.83556100  0.89081900  0.85208800  1
  O  O40  1  0.16443900  0.39081900  0.14791200  1
  O  O41  1  0.16443900  0.39081900  0.85208800  1
  O  O42  1  0.82732900  0.31529800  0.34287200  1
  O  O43  1  0.69027400  0.84694700  0.33512000  1
  O  O44  1  0.83048700  0.63450800  0.84377000  1
  O  O45  1  0.16951300  0.13450800  0.15623000  1
  O  O46  1  0.30972600  0.34694700  0.66488000  1
  O  O47  1  0.40969600  0.97850400  0.50000000  1
