# generated using pymatgen
data_KPb2Cl5
_symmetry_space_group_name_H-M   'P 1'
_cell_length_a   8.12587900
_cell_length_b   8.99126500
_cell_length_c   12.76613121
_cell_angle_alpha   89.41158519
_cell_angle_beta   90.00000000
_cell_angle_gamma   90.00000000
_symmetry_Int_Tables_number   1
_chemical_formula_structural   KPb2Cl5
_chemical_formula_sum   'K4 Pb8 Cl20'
_cell_volume   932.66901728
_cell_formula_units_Z   4
loop_
 _symmetry_equiv_pos_site_id
 _symmetry_equiv_pos_as_xyz
  1  'x, y, z'
loop_
 _atom_site_type_symbol
 _atom_site_label
 _atom_site_symmetry_multiplicity
 _atom_site_fract_x
 _atom_site_fract_y
 _atom_site_fract_z
 _atom_site_occupancy
  K  K0  1  0.45225700  0.51066600  0.67247400  1
  K  K1  1  0.95225700  0.48933400  0.82752600  1
  K  K2  1  0.54774300  0.48933400  0.32752600  1
  K  K3  1  0.04774300  0.51066600  0.17247400  1
  Pb  Pb4  1  0.50440000  0.01031800  0.67439800  1
  Pb  Pb5  1  0.00440000  0.98968200  0.82560200  1
  Pb  Pb6  1  0.49560000  0.98968200  0.32560200  1
  Pb  Pb7  1  0.99560000  0.01031800  0.17439800  1
  Pb  Pb8  1  0.06006000  0.25610600  0.49380200  1
  Pb  Pb9  1  0.56006000  0.74389400  0.00619800  1
  Pb  Pb10  1  0.93994000  0.74389400  0.50619800  1
  Pb  Pb11  1  0.43994000  0.25610600  0.99380200  1
  Cl  Cl12  1  0.33992800  0.96231900  0.89639200  1
  Cl  Cl13  1  0.83992800  0.03768100  0.60360800  1
  Cl  Cl14  1  0.66007200  0.03768100  0.10360800  1
  Cl  Cl15  1  0.16007200  0.96231900  0.39639200  1
  Cl  Cl16  1  0.45799800  0.21568800  0.49506200  1
  Cl  Cl17  1  0.95799800  0.78431200  0.00493800  1
  Cl  Cl18  1  0.54200200  0.78431200  0.50493800  1
  Cl  Cl19  1  0.04200200  0.21568800  0.99506200  1
  Cl  Cl20  1  0.31682400  0.53987000  0.92417000  1
  Cl  Cl21  1  0.81682400  0.46013000  0.57583000  1
  Cl  Cl22  1  0.68317600  0.46013000  0.07583000  1
  Cl  Cl23  1  0.18317600  0.53987000  0.42417000  1
  Cl  Cl24  1  0.18801800  0.23737900  0.71410700  1
  Cl  Cl25  1  0.68801800  0.76262100  0.78589300  1
  Cl  Cl26  1  0.81198200  0.76262100  0.28589300  1
  Cl  Cl27  1  0.31198200  0.23737900  0.21410700  1
  Cl  Cl28  1  0.15509500  0.76515100  0.68993000  1
  Cl  Cl29  1  0.65509500  0.23484900  0.81007000  1
  Cl  Cl30  1  0.84490500  0.23484900  0.31007000  1
  Cl  Cl31  1  0.34490500  0.76515100  0.18993000  1
