# generated using pymatgen
data_Sr9U9O34
_symmetry_space_group_name_H-M   'P 1'
_cell_length_a   7.76775900
_cell_length_b   8.73746533
_cell_length_c   12.00587587
_cell_angle_alpha   103.21374908
_cell_angle_beta   89.95190464
_cell_angle_gamma   99.67458731
_symmetry_Int_Tables_number   1
_chemical_formula_structural   Sr9U9O34
_chemical_formula_sum   'Sr9 U9 O34'
_cell_volume   781.38987877
_cell_formula_units_Z   1
loop_
 _symmetry_equiv_pos_site_id
 _symmetry_equiv_pos_as_xyz
  1  'x, y, z'
loop_
 _atom_site_type_symbol
 _atom_site_label
 _atom_site_symmetry_multiplicity
 _atom_site_fract_x
 _atom_site_fract_y
 _atom_site_fract_z
 _atom_site_occupancy
  Sr  Sr0  1  0.83394300  0.32732100  0.89275500  1
  Sr  Sr1  1  0.16549800  0.66543600  0.77553100  1
  Sr  Sr2  1  0.49770300  0.00597600  0.66512100  1
  Sr  Sr3  1  0.83501900  0.33651300  0.55686800  1
  Sr  Sr4  1  0.16418100  0.66232300  0.44634600  1
  Sr  Sr5  1  0.50033500  0.99718900  0.33563800  1
  Sr  Sr6  1  0.83358700  0.33139400  0.21642000  1
  Sr  Sr7  1  0.16405300  0.67633100  0.11256200  1
  Sr  Sr8  1  0.49932700  0.00142200  0.99914500  1
  U  U9  1  0.99228500  0.00155800  0.00383300  1
  U  U10  1  0.33172500  0.32641900  0.87994400  1
  U  U11  1  0.65996700  0.66150600  0.78462800  1
  U  U12  1  0.01152200  0.00746300  0.66687400  1
  U  U13  1  0.32741600  0.32912200  0.55356600  1
  U  U14  1  0.66100200  0.66123700  0.43492300  1
  U  U15  1  0.00128300  0.00614800  0.33202500  1
  U  U16  1  0.33019700  0.32583100  0.23010000  1
  U  U17  1  0.68124800  0.67667900  0.11313800  1
  O  O18  1  0.16027000  0.47673300  0.91524500  1
  O  O19  1  0.74489100  0.80509700  0.96467800  1
  O  O20  1  0.49018200  0.81279500  0.79752000  1
  O  O21  1  0.07307000  0.13189300  0.86351500  1
  O  O22  1  0.82014900  0.13758400  0.69135700  1
  O  O23  1  0.55668800  0.51462200  0.95440200  1
  O  O24  1  0.41490100  0.47591900  0.74299500  1
  O  O25  1  0.14766800  0.47296800  0.57941700  1
  O  O26  1  0.17744900  0.86710200  0.97072200  1
  O  O27  1  0.88545100  0.84222800  0.76796400  1
  O  O28  1  0.48964100  0.81197800  0.47301900  1
  O  O29  1  0.51225100  0.18442800  0.85858200  1
  O  O30  1  0.26422800  0.18901900  0.69358200  1
  O  O31  1  0.05858800  0.13300400  0.52024000  1
  O  O32  1  0.82146600  0.14453900  0.35329600  1
  O  O33  1  0.83593500  0.51484100  0.76618400  1
  O  O34  1  0.63597900  0.59194200  0.59845600  1
  O  O35  1  0.41208700  0.47263500  0.41579100  1
  O  O36  1  0.16353000  0.47975600  0.24409500  1
  O  O37  1  0.18849800  0.86108100  0.64257700  1
  O  O38  1  0.88486100  0.83940700  0.51345200  1
  O  O39  1  0.74518700  0.80572700  0.30271200  1
  O  O40  1  0.48616900  0.80490900  0.13407900  1
  O  O41  1  0.52131900  0.20342500  0.53263700  1
  O  O42  1  0.26125100  0.18369000  0.36738100  1
  O  O43  1  0.07459200  0.14891900  0.18536100  1
  O  O44  1  0.81020300  0.13914600  0.02600600  1
  O  O45  1  0.83609500  0.51360400  0.40521500  1
  O  O46  1  0.55677400  0.51445700  0.21844800  1
  O  O47  1  0.17094700  0.85570200  0.31852200  1
  O  O48  1  0.94093600  0.86294000  0.14239700  1
  O  O49  1  0.50876100  0.18224700  0.20342100  1
  O  O50  1  0.30151600  0.25585700  0.04247700  1
  O  O51  1  0.85817600  0.52993800  0.08817000  1
