# generated using pymatgen
data_La(FeP)2
_symmetry_space_group_name_H-M   'P 1'
_cell_length_a   6.09192326
_cell_length_b   6.09192326
_cell_length_c   6.09192326
_cell_angle_alpha   143.46903832
_cell_angle_beta   143.46903832
_cell_angle_gamma   52.62201008
_symmetry_Int_Tables_number   1
_chemical_formula_structural   La(FeP)2
_chemical_formula_sum   'La1 Fe2 P2'
_cell_volume   79.63064913
_cell_formula_units_Z   1
loop_
 _symmetry_equiv_pos_site_id
 _symmetry_equiv_pos_as_xyz
  1  'x, y, z'
loop_
 _atom_site_type_symbol
 _atom_site_label
 _atom_site_symmetry_multiplicity
 _atom_site_fract_x
 _atom_site_fract_y
 _atom_site_fract_z
 _atom_site_occupancy
  La  La0  1  0.00000000  0.00000000  0.00000000  1
  Fe  Fe1  1  0.75000000  0.25000000  0.50000000  1
  Fe  Fe2  1  0.25000000  0.75000000  0.50000000  1
  P  P3  1  0.64946400  0.64946400  0.00000000  1
  P  P4  1  0.35053600  0.35053600  0.00000000  1
