# generated using pymatgen
data_Cs2Re2Se5
_symmetry_space_group_name_H-M   'P 1'
_cell_length_a   12.95464922
_cell_length_b   12.95464922
_cell_length_c   12.95464971
_cell_angle_alpha   70.01329590
_cell_angle_beta   70.01329590
_cell_angle_gamma   70.01329851
_symmetry_Int_Tables_number   1
_chemical_formula_structural   Cs2Re2Se5
_chemical_formula_sum   'Cs12 Re12 Se30'
_cell_volume   1856.75028678
_cell_formula_units_Z   6
loop_
 _symmetry_equiv_pos_site_id
 _symmetry_equiv_pos_as_xyz
  1  'x, y, z'
loop_
 _atom_site_type_symbol
 _atom_site_label
 _atom_site_symmetry_multiplicity
 _atom_site_fract_x
 _atom_site_fract_y
 _atom_site_fract_z
 _atom_site_occupancy
  Cs  Cs0  1  0.32087200  0.12269800  0.53484300  1
  Cs  Cs1  1  0.67912800  0.87730200  0.46515700  1
  Cs  Cs2  1  0.46515700  0.67912800  0.87730200  1
  Cs  Cs3  1  0.12269800  0.53484300  0.32087200  1
  Cs  Cs4  1  0.17912800  0.96515700  0.37730200  1
  Cs  Cs5  1  0.03484300  0.62269800  0.82087200  1
  Cs  Cs6  1  0.62269800  0.82087200  0.03484300  1
  Cs  Cs7  1  0.87730200  0.46515700  0.67912800  1
  Cs  Cs8  1  0.82087200  0.03484300  0.62269800  1
  Cs  Cs9  1  0.53484300  0.32087200  0.12269800  1
  Cs  Cs10  1  0.96515700  0.37730200  0.17912800  1
  Cs  Cs11  1  0.37730200  0.17912800  0.96515700  1
  Re  Re12  1  0.42721400  0.63137800  0.55341900  1
  Re  Re13  1  0.44658100  0.57278600  0.36862200  1
  Re  Re14  1  0.57278600  0.36862200  0.44658100  1
  Re  Re15  1  0.86862200  0.07278600  0.94658100  1
  Re  Re16  1  0.92721400  0.05341900  0.13137800  1
  Re  Re17  1  0.94658100  0.86862200  0.07278600  1
  Re  Re18  1  0.36862200  0.44658100  0.57278600  1
  Re  Re19  1  0.05341900  0.13137800  0.92721400  1
  Re  Re20  1  0.63137800  0.55341900  0.42721400  1
  Re  Re21  1  0.55341900  0.42721400  0.63137800  1
  Re  Re22  1  0.13137800  0.92721400  0.05341900  1
  Re  Re23  1  0.07278600  0.94658100  0.86862200  1
  Se  Se24  1  0.68642300  0.14735500  0.87136800  1
  Se  Se25  1  0.25289700  0.64586300  0.49566200  1
  Se  Se26  1  0.14735500  0.87136800  0.68642300  1
  Se  Se27  1  0.85264500  0.12863200  0.31357700  1
  Se  Se28  1  0.60747300  0.60747300  0.60747300  1
  Se  Se29  1  0.99566200  0.14586300  0.75289700  1
  Se  Se30  1  0.49566200  0.25289700  0.64586300  1
  Se  Se31  1  0.35264500  0.81357700  0.62863200  1
  Se  Se32  1  0.00433800  0.85413700  0.24710300  1
  Se  Se33  1  0.85413700  0.24710300  0.00433800  1
  Se  Se34  1  0.14586300  0.75289700  0.99566200  1
  Se  Se35  1  0.35413700  0.50433800  0.74710300  1
  Se  Se36  1  0.81357700  0.62863200  0.35264500  1
  Se  Se37  1  0.39252700  0.39252700  0.39252700  1
  Se  Se38  1  0.24710300  0.00433800  0.85413700  1
  Se  Se39  1  0.10747300  0.10747300  0.10747300  1
  Se  Se40  1  0.64735500  0.18642300  0.37136800  1
  Se  Se41  1  0.75289700  0.99566200  0.14586300  1
  Se  Se42  1  0.37136800  0.64735500  0.18642300  1
  Se  Se43  1  0.12863200  0.31357700  0.85264500  1
  Se  Se44  1  0.18642300  0.37136800  0.64735500  1
  Se  Se45  1  0.89252700  0.89252700  0.89252700  1
  Se  Se46  1  0.62863200  0.35264500  0.81357700  1
  Se  Se47  1  0.50433800  0.74710300  0.35413700  1
  Se  Se48  1  0.74710300  0.35413700  0.50433800  1
  Se  Se49  1  0.64586300  0.49566200  0.25289700  1
  Se  Se50  1  0.25000000  0.25000000  0.25000000  1
  Se  Se51  1  0.31357700  0.85264500  0.12863200  1
  Se  Se52  1  0.87136800  0.68642300  0.14735500  1
  Se  Se53  1  0.75000000  0.75000000  0.75000000  1
