# generated using pymatgen
data_Eu(CoSi)2
_symmetry_space_group_name_H-M   'P 1'
_cell_length_a   5.75859657
_cell_length_b   5.75859657
_cell_length_c   5.75859657
_cell_angle_alpha   140.24330714
_cell_angle_beta   140.24330714
_cell_angle_gamma   57.48405720
_symmetry_Int_Tables_number   1
_chemical_formula_structural   Eu(CoSi)2
_chemical_formula_sum   'Eu1 Co2 Si2'
_cell_volume   77.43315019
_cell_formula_units_Z   1
loop_
 _symmetry_equiv_pos_site_id
 _symmetry_equiv_pos_as_xyz
  1  'x, y, z'
loop_
 _atom_site_type_symbol
 _atom_site_label
 _atom_site_symmetry_multiplicity
 _atom_site_fract_x
 _atom_site_fract_y
 _atom_site_fract_z
 _atom_site_occupancy
  Eu  Eu0  1  0.00000000  0.00000000  0.00000000  1
  Co  Co1  1  0.75000000  0.25000000  0.50000000  1
  Co  Co2  1  0.25000000  0.75000000  0.50000000  1
  Si  Si3  1  0.36519000  0.36519000  0.00000000  1
  Si  Si4  1  0.63481000  0.63481000  0.00000000  1
