# generated using pymatgen
data_KCa2Be2Al(Si2O5)6
_symmetry_space_group_name_H-M   'P 1'
_cell_length_a   10.47966448
_cell_length_b   10.47966448
_cell_length_c   14.09466300
_cell_angle_alpha   90.00000000
_cell_angle_beta   90.00000000
_cell_angle_gamma   119.96705842
_symmetry_Int_Tables_number   1
_chemical_formula_structural   KCa2Be2Al(Si2O5)6
_chemical_formula_sum   'K2 Ca4 Be4 Al2 Si24 O60'
_cell_volume   1340.98570981
_cell_formula_units_Z   2
loop_
 _symmetry_equiv_pos_site_id
 _symmetry_equiv_pos_as_xyz
  1  'x, y, z'
loop_
 _atom_site_type_symbol
 _atom_site_label
 _atom_site_symmetry_multiplicity
 _atom_site_fract_x
 _atom_site_fract_y
 _atom_site_fract_z
 _atom_site_occupancy
  K  K0  1  0.00000000  0.00000000  0.75018000  1
  K  K1  1  0.00000000  0.00000000  0.25018000  1
  Ca  Ca2  1  0.32534900  0.64992300  0.24985800  1
  Ca  Ca3  1  0.35007700  0.67465100  0.74985800  1
  Ca  Ca4  1  0.67465100  0.35007700  0.24985800  1
  Ca  Ca5  1  0.64992300  0.32534900  0.74985800  1
  Be  Be6  1  0.50000000  0.00000000  0.74935700  1
  Be  Be7  1  0.00000000  0.50000000  0.24935700  1
  Be  Be8  1  0.50000000  0.50000000  0.25030300  1
  Be  Be9  1  0.50000000  0.50000000  0.75030300  1
  Al  Al10  1  0.50000000  0.00000000  0.25032800  1
  Al  Al11  1  0.00000000  0.50000000  0.75032800  1
  Si  Si12  1  0.25949600  0.34345300  0.61159500  1
  Si  Si13  1  0.25486700  0.33774700  0.38918600  1
  Si  Si14  1  0.08212500  0.33485000  0.89194600  1
  Si  Si15  1  0.08215600  0.33476100  0.11285600  1
  Si  Si16  1  0.65654700  0.74050400  0.11159500  1
  Si  Si17  1  0.66225300  0.74513300  0.88918600  1
  Si  Si18  1  0.66515000  0.91787500  0.39194600  1
  Si  Si19  1  0.66523900  0.91784400  0.61285600  1
  Si  Si20  1  0.74566800  0.08221700  0.10779900  1
  Si  Si21  1  0.74108200  0.08331300  0.88657800  1
  Si  Si22  1  0.08221700  0.74566800  0.60779900  1
  Si  Si23  1  0.08331300  0.74108200  0.38657800  1
  Si  Si24  1  0.91778300  0.25433200  0.60779900  1
  Si  Si25  1  0.91668700  0.25891800  0.38657800  1
  Si  Si26  1  0.25433200  0.91778300  0.10779900  1
  Si  Si27  1  0.25891800  0.91668700  0.88657800  1
  Si  Si28  1  0.33485000  0.08212500  0.39194600  1
  Si  Si29  1  0.33476100  0.08215600  0.61285600  1
  Si  Si30  1  0.34345300  0.25949600  0.11159500  1
  Si  Si31  1  0.33774700  0.25486700  0.88918600  1
  Si  Si32  1  0.91784400  0.66523900  0.11285600  1
  Si  Si33  1  0.91787500  0.66515000  0.89194600  1
  Si  Si34  1  0.74050400  0.65654700  0.61159500  1
  Si  Si35  1  0.74513300  0.66225300  0.38918600  1
  O  O36  1  0.19677900  0.27379100  0.13214200  1
  O  O37  1  0.19022800  0.26853500  0.87043000  1
  O  O38  1  0.29313300  0.39009100  0.49979300  1
  O  O39  1  0.08447200  0.28886300  0.63199200  1
  O  O40  1  0.07918700  0.27656700  0.36887900  1
  O  O41  1  0.35857100  0.46904600  0.31818200  1
  O  O42  1  0.36197000  0.47685600  0.68174000  1
  O  O43  1  0.09528700  0.38611300  0.00191100  1
  O  O44  1  0.52314400  0.63803000  0.18174000  1
  O  O45  1  0.53095400  0.64142900  0.81818200  1
  O  O46  1  0.60990900  0.70686700  0.99979300  1
  O  O47  1  0.12304600  0.47523300  0.82298500  1
  O  O48  1  0.11006800  0.46754400  0.18240000  1
  O  O49  1  0.72620900  0.80322100  0.63214200  1
  O  O50  1  0.73146500  0.80977200  0.37043000  1
  O  O51  1  0.71113700  0.91552800  0.13199200  1
  O  O52  1  0.72343300  0.92081300  0.86887900  1
  O  O53  1  0.11508100  0.63863400  0.31712100  1
  O  O54  1  0.61388700  0.90471300  0.50191100  1
  O  O55  1  0.12364400  0.64741100  0.67766800  1
  O  O56  1  0.52476700  0.87695400  0.32298500  1
  O  O57  1  0.53245600  0.88993200  0.68240000  1
  O  O58  1  0.79881400  0.08341100  0.36581200  1
  O  O59  1  0.81235100  0.07956000  0.63072700  1
  O  O60  1  0.10003500  0.70879700  0.49831200  1
  O  O61  1  0.35258900  0.87635600  0.17766800  1
  O  O62  1  0.36136600  0.88491900  0.81712100  1
  O  O63  1  0.70879700  0.10003500  0.99831200  1
  O  O64  1  0.92044000  0.18764900  0.13072700  1
  O  O65  1  0.91658900  0.20118600  0.86581200  1
  O  O66  1  0.08341100  0.79881400  0.86581200  1
  O  O67  1  0.07956000  0.81235100  0.13072700  1
  O  O68  1  0.29120300  0.89996500  0.99831200  1
  O  O69  1  0.64741100  0.12364400  0.17766800  1
  O  O70  1  0.63863400  0.11508100  0.81712100  1
  O  O71  1  0.89996500  0.29120300  0.49831200  1
  O  O72  1  0.20118600  0.91658900  0.36581200  1
  O  O73  1  0.18764900  0.92044000  0.63072700  1
  O  O74  1  0.47523300  0.12304600  0.32298500  1
  O  O75  1  0.46754400  0.11006800  0.68240000  1
  O  O76  1  0.88491900  0.36136600  0.31712100  1
  O  O77  1  0.38611300  0.09528700  0.50191100  1
  O  O78  1  0.87635600  0.35258900  0.67766800  1
  O  O79  1  0.28886300  0.08447200  0.13199200  1
  O  O80  1  0.27656700  0.07918700  0.86887900  1
  O  O81  1  0.26853500  0.19022800  0.37043000  1
  O  O82  1  0.27379100  0.19677900  0.63214200  1
  O  O83  1  0.88993200  0.53245600  0.18240000  1
  O  O84  1  0.87695400  0.52476700  0.82298500  1
  O  O85  1  0.39009100  0.29313300  0.99979300  1
  O  O86  1  0.47685600  0.36197000  0.18174000  1
  O  O87  1  0.46904600  0.35857100  0.81818200  1
  O  O88  1  0.90471300  0.61388700  0.00191100  1
  O  O89  1  0.64142900  0.53095400  0.31818200  1
  O  O90  1  0.63803000  0.52314400  0.68174000  1
  O  O91  1  0.91552800  0.71113700  0.63199200  1
  O  O92  1  0.92081300  0.72343300  0.36887900  1
  O  O93  1  0.70686700  0.60990900  0.49979300  1
  O  O94  1  0.80322100  0.72620900  0.13214200  1
  O  O95  1  0.80977200  0.73146500  0.87043000  1
