# generated using pymatgen
data_Cs4MgZr3(PO4)6
_symmetry_space_group_name_H-M   'P 1'
_cell_length_a   10.45038100
_cell_length_b   10.44633000
_cell_length_c   10.45660768
_cell_angle_alpha   89.88332737
_cell_angle_beta   90.00000000
_cell_angle_gamma   90.00000000
_symmetry_Int_Tables_number   1
_chemical_formula_structural   Cs4MgZr3(PO4)6
_chemical_formula_sum   'Cs8 Mg2 Zr6 P12 O48'
_cell_volume   1141.52592466
_cell_formula_units_Z   2
loop_
 _symmetry_equiv_pos_site_id
 _symmetry_equiv_pos_as_xyz
  1  'x, y, z'
loop_
 _atom_site_type_symbol
 _atom_site_label
 _atom_site_symmetry_multiplicity
 _atom_site_fract_x
 _atom_site_fract_y
 _atom_site_fract_z
 _atom_site_occupancy
  Cs  Cs0  1  0.06597900  0.31380600  0.93487100  1
  Cs  Cs1  1  0.78972400  0.45611300  0.28450000  1
  Cs  Cs2  1  0.28972400  0.54388700  0.71550000  1
  Cs  Cs3  1  0.56597900  0.68619400  0.06512900  1
  Cs  Cs4  1  0.93022300  0.82157300  0.57068000  1
  Cs  Cs5  1  0.20993500  0.96364900  0.20341400  1
  Cs  Cs6  1  0.70993500  0.03635100  0.79658600  1
  Cs  Cs7  1  0.43022300  0.17842700  0.42932000  1
  Mg  Mg8  1  0.35593400  0.89474100  0.85886600  1
  Mg  Mg9  1  0.85593400  0.10525900  0.14113400  1
  Zr  Zr10  1  0.41389700  0.33319600  0.08594400  1
  Zr  Zr11  1  0.64079100  0.38966700  0.64374200  1
  Zr  Zr12  1  0.14079100  0.61033300  0.35625800  1
  Zr  Zr13  1  0.91389700  0.66680400  0.91405600  1
  Zr  Zr14  1  0.58720200  0.84032900  0.41173200  1
  Zr  Zr15  1  0.08720200  0.15967100  0.58826800  1
  P  P16  1  0.12268900  0.29025700  0.27172200  1
  P  P17  1  0.72974500  0.37378700  0.96021500  1
  P  P18  1  0.95760600  0.47744300  0.62553800  1
  P  P19  1  0.45760600  0.52255700  0.37446200  1
  P  P20  1  0.22974500  0.62621300  0.03978500  1
  P  P21  1  0.62268900  0.70974300  0.72827800  1
  P  P22  1  0.87523600  0.79706500  0.22825600  1
  P  P23  1  0.27267900  0.87313900  0.54666500  1
  P  P24  1  0.04499100  0.98020500  0.87935100  1
  P  P25  1  0.54499100  0.01979500  0.12064900  1
  P  P26  1  0.77267900  0.12686100  0.45333500  1
  P  P27  1  0.37523600  0.20293500  0.77174400  1
  O  O28  1  0.35764400  0.25714400  0.90965300  1
  O  O29  1  0.25446200  0.27679800  0.20094700  1
  O  O30  1  0.79737600  0.27261100  0.03875500  1
  O  O31  1  0.47741000  0.29103200  0.70406900  1
  O  O32  1  0.00562400  0.33860100  0.64228400  1
  O  O33  1  0.72881900  0.33691400  0.81513300  1
  O  O34  1  0.58829900  0.39305200  0.00506700  1
  O  O35  1  0.08696800  0.43573400  0.27292200  1
  O  O36  1  0.53841400  0.45382000  0.47863200  1
  O  O37  1  0.47575100  0.44872500  0.24728100  1
  O  O38  1  0.81540900  0.47972900  0.58468700  1
  O  O39  1  0.80031200  0.50528500  0.97313400  1
  O  O40  1  0.30031200  0.49471500  0.02686600  1
  O  O41  1  0.31540900  0.52027100  0.41531300  1
  O  O42  1  0.97575100  0.55127500  0.75271900  1
  O  O43  1  0.03841400  0.54618000  0.52136800  1
  O  O44  1  0.58696800  0.56426600  0.72707800  1
  O  O45  1  0.08829900  0.60694800  0.99493300  1
  O  O46  1  0.22881900  0.66308600  0.18486700  1
  O  O47  1  0.50562400  0.66139900  0.35771600  1
  O  O48  1  0.97741000  0.70896800  0.29593100  1
  O  O49  1  0.29737600  0.72738900  0.96124500  1
  O  O50  1  0.75446200  0.72320200  0.79905300  1
  O  O51  1  0.85764400  0.74285600  0.09034700  1
  O  O52  1  0.64252000  0.75562400  0.58735100  1
  O  O53  1  0.74678700  0.77409500  0.30213000  1
  O  O54  1  0.20448800  0.77118800  0.45932500  1
  O  O55  1  0.52156300  0.78736700  0.79672400  1
  O  O56  1  0.99296900  0.83876100  0.85729100  1
  O  O57  1  0.26898300  0.83148100  0.68502700  1
  O  O58  1  0.41067200  0.89165500  0.49260200  1
  O  O59  1  0.91774400  0.93517000  0.23233600  1
  O  O60  1  0.45902400  0.95286400  0.02377700  1
  O  O61  1  0.52701600  0.95016900  0.25550400  1
  O  O62  1  0.18579700  0.97992600  0.91550400  1
  O  O63  1  0.19931600  0.00239700  0.52396400  1
  O  O64  1  0.69931600  0.99760300  0.47603600  1
  O  O65  1  0.68579700  0.02007400  0.08449600  1
  O  O66  1  0.02701600  0.04983100  0.74449600  1
  O  O67  1  0.95902400  0.04713600  0.97622300  1
  O  O68  1  0.41774400  0.06483000  0.76766400  1
  O  O69  1  0.91067200  0.10834500  0.50739800  1
  O  O70  1  0.76898300  0.16851900  0.31497300  1
  O  O71  1  0.49296900  0.16123900  0.14270900  1
  O  O72  1  0.02156300  0.21263300  0.20327600  1
  O  O73  1  0.70448800  0.22881200  0.54067500  1
  O  O74  1  0.24678700  0.22590500  0.69787000  1
  O  O75  1  0.14252000  0.24437600  0.41264900  1
