# generated using pymatgen
data_KH(IF6)2
_symmetry_space_group_name_H-M   'P 1'
_cell_length_a   8.82688968
_cell_length_b   8.82688968
_cell_length_c   8.82688968
_cell_angle_alpha   111.54301233
_cell_angle_beta   111.54301233
_cell_angle_gamma   105.40265618
_symmetry_Int_Tables_number   1
_chemical_formula_structural   KH(IF6)2
_chemical_formula_sum   'K2 H2 I4 F24'
_cell_volume   527.43741893
_cell_formula_units_Z   2
loop_
 _symmetry_equiv_pos_site_id
 _symmetry_equiv_pos_as_xyz
  1  'x, y, z'
loop_
 _atom_site_type_symbol
 _atom_site_label
 _atom_site_symmetry_multiplicity
 _atom_site_fract_x
 _atom_site_fract_y
 _atom_site_fract_z
 _atom_site_occupancy
  K  K0  1  0.25000000  0.25000000  0.00000000  1
  K  K1  1  0.75000000  0.75000000  0.00000000  1
  H  H2  1  0.25000000  0.75000000  0.50000000  1
  H  H3  1  0.75000000  0.25000000  0.50000000  1
  I  I4  1  0.65964800  0.15964800  0.81929500  1
  I  I5  1  0.34035200  0.84035200  0.18070500  1
  I  I6  1  0.15964800  0.34035200  0.50000000  1
  I  I7  1  0.84035200  0.65964800  0.50000000  1
  F  F8  1  0.64097500  0.14097500  0.50000000  1
  F  F9  1  0.14097500  0.64097500  0.50000000  1
  F  F10  1  0.35902500  0.85902500  0.50000000  1
  F  F11  1  0.85902500  0.35902500  0.50000000  1
  F  F12  1  0.79330500  0.29330500  0.08661000  1
  F  F13  1  0.20669500  0.70669500  0.91339000  1
  F  F14  1  0.29330500  0.20669500  0.50000000  1
  F  F15  1  0.70669500  0.79330500  0.50000000  1
  F  F16  1  0.45897200  0.15495000  0.86448100  1
  F  F17  1  0.29046900  0.59449100  0.13551900  1
  F  F18  1  0.95897200  0.09449100  0.30402200  1
  F  F19  1  0.79046900  0.65495000  0.69597800  1
  F  F20  1  0.59449100  0.45897200  0.30402200  1
  F  F21  1  0.15495000  0.29046900  0.69597800  1
  F  F22  1  0.65495000  0.95897200  0.86448100  1
  F  F23  1  0.09449100  0.79046900  0.13551900  1
  F  F24  1  0.54102800  0.84505000  0.13551900  1
  F  F25  1  0.70953100  0.40550900  0.86448100  1
  F  F26  1  0.04102800  0.90550900  0.69597800  1
  F  F27  1  0.20953100  0.34505000  0.30402200  1
  F  F28  1  0.40550900  0.54102800  0.69597800  1
  F  F29  1  0.84505000  0.70953100  0.30402200  1
  F  F30  1  0.34505000  0.04102800  0.13551900  1
  F  F31  1  0.90550900  0.20953100  0.86448100  1
