# generated using pymatgen
data_Mg5(Si8Pd5)2
_symmetry_space_group_name_H-M   'P 1'
_cell_length_a   8.95330262
_cell_length_b   8.95330262
_cell_length_c   8.95330262
_cell_angle_alpha   60.00000000
_cell_angle_beta   60.00000000
_cell_angle_gamma   60.00000000
_symmetry_Int_Tables_number   1
_chemical_formula_structural   Mg5(Si8Pd5)2
_chemical_formula_sum   'Mg5 Si16 Pd10'
_cell_volume   507.49853664
_cell_formula_units_Z   1
loop_
 _symmetry_equiv_pos_site_id
 _symmetry_equiv_pos_as_xyz
  1  'x, y, z'
loop_
 _atom_site_type_symbol
 _atom_site_label
 _atom_site_symmetry_multiplicity
 _atom_site_fract_x
 _atom_site_fract_y
 _atom_site_fract_z
 _atom_site_occupancy
  Mg  Mg0  1  0.20284400  0.59905200  0.59905200  1
  Mg  Mg1  1  0.59905200  0.59905200  0.20284400  1
  Mg  Mg2  1  0.59905200  0.59905200  0.59905200  1
  Mg  Mg3  1  0.59905200  0.20284400  0.59905200  1
  Mg  Mg4  1  0.25000000  0.25000000  0.25000000  1
  Si  Si5  1  0.20465700  0.66314700  0.20465700  1
  Si  Si6  1  0.92753900  0.66314700  0.20465700  1
  Si  Si7  1  0.20465700  0.20465700  0.66314700  1
  Si  Si8  1  0.66314700  0.20465700  0.20465700  1
  Si  Si9  1  0.92753900  0.20465700  0.66314700  1
  Si  Si10  1  0.20465700  0.66314700  0.92753900  1
  Si  Si11  1  0.92753900  0.20465700  0.20465700  1
  Si  Si12  1  0.66314700  0.92753900  0.20465700  1
  Si  Si13  1  0.20465700  0.92753900  0.20465700  1
  Si  Si14  1  0.20465700  0.92753900  0.66314700  1
  Si  Si15  1  0.53244800  0.82251700  0.82251700  1
  Si  Si16  1  0.82251700  0.82251700  0.82251700  1
  Si  Si17  1  0.66314700  0.20465700  0.92753900  1
  Si  Si18  1  0.82251700  0.82251700  0.53244800  1
  Si  Si19  1  0.82251700  0.53244800  0.82251700  1
  Si  Si20  1  0.20465700  0.20465700  0.92753900  1
  Pd  Pd21  1  0.98698000  0.98698000  0.51302000  1
  Pd  Pd22  1  0.51302000  0.98698000  0.51302000  1
  Pd  Pd23  1  0.98698000  0.51302000  0.98698000  1
  Pd  Pd24  1  0.37861700  0.37861700  0.86414900  1
  Pd  Pd25  1  0.37861700  0.37861700  0.37861700  1
  Pd  Pd26  1  0.86414900  0.37861700  0.37861700  1
  Pd  Pd27  1  0.98698000  0.51302000  0.51302000  1
  Pd  Pd28  1  0.51302000  0.51302000  0.98698000  1
  Pd  Pd29  1  0.37861700  0.86414900  0.37861700  1
  Pd  Pd30  1  0.51302000  0.98698000  0.98698000  1
