# generated using pymatgen
data_Co(NiS2)2
_symmetry_space_group_name_H-M   'P 1'
_cell_length_a   6.62617161
_cell_length_b   6.62617161
_cell_length_c   6.62617161
_cell_angle_alpha   120.18071448
_cell_angle_beta   119.81403617
_cell_angle_gamma   90.00483944
_symmetry_Int_Tables_number   1
_chemical_formula_structural   Co(NiS2)2
_chemical_formula_sum   'Co2 Ni4 S8'
_cell_volume   205.72388143
_cell_formula_units_Z   2
loop_
 _symmetry_equiv_pos_site_id
 _symmetry_equiv_pos_as_xyz
  1  'x, y, z'
loop_
 _atom_site_type_symbol
 _atom_site_label
 _atom_site_symmetry_multiplicity
 _atom_site_fract_x
 _atom_site_fract_y
 _atom_site_fract_z
 _atom_site_occupancy
  Co  Co0  1  0.50000000  0.00000000  0.00000000  1
  Co  Co1  1  0.50000000  0.50000000  0.50000000  1
  Ni  Ni2  1  0.12438200  0.37438200  0.75000000  1
  Ni  Ni3  1  0.00000000  0.00000000  0.00000000  1
  Ni  Ni4  1  0.50000000  0.00000000  0.50000000  1
  Ni  Ni5  1  0.87561800  0.62561800  0.25000000  1
  S  S6  1  0.26068800  0.77627300  0.01558400  1
  S  S7  1  0.26068800  0.24510400  0.48441600  1
  S  S8  1  0.26389800  0.24242300  0.02147500  1
  S  S9  1  0.72094800  0.24242300  0.47852500  1
  S  S10  1  0.27905200  0.75757700  0.52147500  1
  S  S11  1  0.73610200  0.75757700  0.97852500  1
  S  S12  1  0.73931200  0.75489600  0.51558400  1
  S  S13  1  0.73931200  0.22372700  0.98441600  1
