# generated using pymatgen
data_CsV3O8
_symmetry_space_group_name_H-M   'P 1'
_cell_length_a   8.77301200
_cell_length_b   5.15318200
_cell_length_c   8.51047661
_cell_angle_alpha   82.22522461
_cell_angle_beta   90.00000000
_cell_angle_gamma   90.00000000
_symmetry_Int_Tables_number   1
_chemical_formula_structural   CsV3O8
_chemical_formula_sum   'Cs2 V6 O16'
_cell_volume   381.21270786
_cell_formula_units_Z   2
loop_
 _symmetry_equiv_pos_site_id
 _symmetry_equiv_pos_as_xyz
  1  'x, y, z'
loop_
 _atom_site_type_symbol
 _atom_site_label
 _atom_site_symmetry_multiplicity
 _atom_site_fract_x
 _atom_site_fract_y
 _atom_site_fract_z
 _atom_site_occupancy
  Cs  Cs0  1  0.25000000  0.06724800  0.05324500  1
  Cs  Cs1  1  0.75000000  0.93275200  0.94675500  1
  V  V2  1  0.55790400  0.43850800  0.33222900  1
  V  V3  1  0.05790400  0.56149200  0.66777100  1
  V  V4  1  0.44209600  0.56149200  0.66777100  1
  V  V5  1  0.94209600  0.43850800  0.33222900  1
  V  V6  1  0.25000000  0.08232500  0.56217300  1
  V  V7  1  0.75000000  0.91767500  0.43782700  1
  O  O8  1  0.60446900  0.11370700  0.29906600  1
  O  O9  1  0.10446900  0.88629300  0.70093400  1
  O  O10  1  0.39553100  0.88629300  0.70093400  1
  O  O11  1  0.89553100  0.11370700  0.29906600  1
  O  O12  1  0.55159000  0.43719500  0.81465400  1
  O  O13  1  0.05159000  0.56280500  0.18534600  1
  O  O14  1  0.44841000  0.56280500  0.18534600  1
  O  O15  1  0.94841000  0.43719500  0.81465400  1
  O  O16  1  0.75000000  0.08559800  0.58626800  1
  O  O17  1  0.25000000  0.91440200  0.41373200  1
  O  O18  1  0.75000000  0.57732700  0.26755400  1
  O  O19  1  0.25000000  0.42267300  0.73244600  1
  O  O20  1  0.90994900  0.67178900  0.49764400  1
  O  O21  1  0.40994900  0.32821100  0.50235600  1
  O  O22  1  0.09005100  0.32821100  0.50235600  1
  O  O23  1  0.59005100  0.67178900  0.49764400  1
