# generated using pymatgen
data_Na2TiSiO5
_symmetry_space_group_name_H-M   'P 1'
_cell_length_a   6.53525200
_cell_length_b   6.53525200
_cell_length_c   5.17473300
_cell_angle_alpha   90.00000000
_cell_angle_beta   90.00000000
_cell_angle_gamma   90.00000000
_symmetry_Int_Tables_number   1
_chemical_formula_structural   Na2TiSiO5
_chemical_formula_sum   'Na4 Ti2 Si2 O10'
_cell_volume   221.01035585
_cell_formula_units_Z   2
loop_
 _symmetry_equiv_pos_site_id
 _symmetry_equiv_pos_as_xyz
  1  'x, y, z'
loop_
 _atom_site_type_symbol
 _atom_site_label
 _atom_site_symmetry_multiplicity
 _atom_site_fract_x
 _atom_site_fract_y
 _atom_site_fract_z
 _atom_site_occupancy
  Na  Na0  1  0.25000000  0.25000000  0.50000000  1
  Na  Na1  1  0.75000000  0.25000000  0.50000000  1
  Na  Na2  1  0.25000000  0.75000000  0.50000000  1
  Na  Na3  1  0.75000000  0.75000000  0.50000000  1
  Ti  Ti4  1  0.00000000  0.50000000  0.06370400  1
  Ti  Ti5  1  0.50000000  0.00000000  0.93629600  1
  Si  Si6  1  0.00000000  0.00000000  0.00000000  1
  Si  Si7  1  0.50000000  0.50000000  0.00000000  1
  O  O8  1  0.00000000  0.50000000  0.73125200  1
  O  O9  1  0.50000000  0.00000000  0.26874800  1
  O  O10  1  0.29276400  0.50000000  0.18225100  1
  O  O11  1  0.70723600  0.50000000  0.18225100  1
  O  O12  1  0.00000000  0.79276400  0.18225100  1
  O  O13  1  0.00000000  0.20723600  0.18225100  1
  O  O14  1  0.50000000  0.29276400  0.81774900  1
  O  O15  1  0.79276400  0.00000000  0.81774900  1
  O  O16  1  0.50000000  0.70723600  0.81774900  1
  O  O17  1  0.20723600  0.00000000  0.81774900  1
