# generated using pymatgen
data_CsNb2PS10
_symmetry_space_group_name_H-M   'P 1'
_cell_length_a   7.76368400
_cell_length_b   13.17091700
_cell_length_c   14.45733536
_cell_angle_alpha   84.45988654
_cell_angle_beta   90.00000000
_cell_angle_gamma   90.00000000
_symmetry_Int_Tables_number   1
_chemical_formula_structural   CsNb2PS10
_chemical_formula_sum   'Cs4 Nb8 P4 S40'
_cell_volume   1471.42696855
_cell_formula_units_Z   4
loop_
 _symmetry_equiv_pos_site_id
 _symmetry_equiv_pos_as_xyz
  1  'x, y, z'
loop_
 _atom_site_type_symbol
 _atom_site_label
 _atom_site_symmetry_multiplicity
 _atom_site_fract_x
 _atom_site_fract_y
 _atom_site_fract_z
 _atom_site_occupancy
  Cs  Cs0  1  0.51811700  0.28146900  0.09773100  1
  Cs  Cs1  1  0.49956900  0.53702900  0.59868800  1
  Cs  Cs2  1  0.50043100  0.03702900  0.59868800  1
  Cs  Cs3  1  0.48188300  0.78146900  0.09773100  1
  Nb  Nb4  1  0.06875800  0.43084600  0.86841700  1
  Nb  Nb5  1  0.93921900  0.16398900  0.37150600  1
  Nb  Nb6  1  0.93470500  0.87340300  0.37425500  1
  Nb  Nb7  1  0.05662700  0.14036900  0.87068200  1
  Nb  Nb8  1  0.93124200  0.93084600  0.86841700  1
  Nb  Nb9  1  0.06078100  0.66398900  0.37150600  1
  Nb  Nb10  1  0.94337300  0.64036900  0.87068200  1
  Nb  Nb11  1  0.06529500  0.37340300  0.37425500  1
  P  P12  1  0.59977000  0.02540400  0.29994800  1
  P  P13  1  0.59997700  0.78577700  0.79822200  1
  P  P14  1  0.40023000  0.52540400  0.29994800  1
  P  P15  1  0.40002300  0.28577700  0.79822200  1
  S  S16  1  0.85584100  0.02987400  0.25059000  1
  S  S17  1  0.10731500  0.00075800  0.99703200  1
  S  S18  1  0.39852500  0.65528600  0.37003700  1
  S  S19  1  0.60351100  0.89293700  0.38919500  1
  S  S20  1  0.41400400  0.78408700  0.70371500  1
  S  S21  1  0.89268500  0.50075800  0.99703200  1
  S  S22  1  0.85681100  0.04654800  0.98977000  1
  S  S23  1  0.59593200  0.91466400  0.86949600  1
  S  S24  1  0.87910000  0.07908300  0.74249400  1
  S  S25  1  0.39648900  0.39293700  0.38919500  1
  S  S26  1  0.14318900  0.54654800  0.98977000  1
  S  S27  1  0.87372400  0.73103900  0.49689300  1
  S  S28  1  0.10905700  0.81110200  0.24583500  1
  S  S29  1  0.94930300  0.00573400  0.49423500  1
  S  S30  1  0.15369900  0.78606900  0.89888800  1
  S  S31  1  0.84630100  0.28606900  0.89888800  1
  S  S32  1  0.89094300  0.31110200  0.24583500  1
  S  S33  1  0.87683500  0.51954800  0.74770900  1
  S  S34  1  0.12090000  0.57908300  0.74249400  1
  S  S35  1  0.14415900  0.52987400  0.25059000  1
  S  S36  1  0.12431400  0.77687800  0.49704400  1
  S  S37  1  0.84664400  0.51478300  0.40284400  1
  S  S38  1  0.38943300  0.15277800  0.88656200  1
  S  S39  1  0.12627600  0.23103900  0.49689300  1
  S  S40  1  0.61056700  0.65277800  0.88656200  1
  S  S41  1  0.13522800  0.25181300  0.25137500  1
  S  S42  1  0.04949700  0.27239200  0.99090400  1
  S  S43  1  0.95050300  0.77239200  0.99090400  1
  S  S44  1  0.40406800  0.41466400  0.86949600  1
  S  S45  1  0.58599600  0.28408700  0.70371500  1
  S  S46  1  0.87568600  0.27687800  0.49704400  1
  S  S47  1  0.05069700  0.50573400  0.49423500  1
  S  S48  1  0.86477200  0.75181300  0.25137500  1
  S  S49  1  0.12316500  0.01954800  0.74770900  1
  S  S50  1  0.14519700  0.29587500  0.74727900  1
  S  S51  1  0.85480300  0.79587500  0.74727900  1
  S  S52  1  0.60147500  0.15528600  0.37003700  1
  S  S53  1  0.15335600  0.01478300  0.40284400  1
  S  S54  1  0.58533300  0.52676400  0.20465400  1
  S  S55  1  0.41466700  0.02676400  0.20465400  1
