# generated using pymatgen
data_Eu2Ga3Ir
_symmetry_space_group_name_H-M   'P 1'
_cell_length_a   5.69079472
_cell_length_b   5.69079472
_cell_length_c   8.74034800
_cell_angle_alpha   90.00000000
_cell_angle_beta   90.00000000
_cell_angle_gamma   120.00000834
_symmetry_Int_Tables_number   1
_chemical_formula_structural   Eu2Ga3Ir
_chemical_formula_sum   'Eu4 Ga6 Ir2'
_cell_volume   245.13490719
_cell_formula_units_Z   2
loop_
 _symmetry_equiv_pos_site_id
 _symmetry_equiv_pos_as_xyz
  1  'x, y, z'
loop_
 _atom_site_type_symbol
 _atom_site_label
 _atom_site_symmetry_multiplicity
 _atom_site_fract_x
 _atom_site_fract_y
 _atom_site_fract_z
 _atom_site_occupancy
  Eu  Eu0  1  0.33333300  0.66666700  0.45029400  1
  Eu  Eu1  1  0.66666700  0.33333300  0.95029400  1
  Eu  Eu2  1  0.33333300  0.66666700  0.04970600  1
  Eu  Eu3  1  0.66666700  0.33333300  0.54970600  1
  Ga  Ga4  1  0.83996600  0.67993200  0.25000000  1
  Ga  Ga5  1  0.83996600  0.16003400  0.25000000  1
  Ga  Ga6  1  0.16003400  0.83996600  0.75000000  1
  Ga  Ga7  1  0.32006800  0.16003400  0.25000000  1
  Ga  Ga8  1  0.67993200  0.83996600  0.75000000  1
  Ga  Ga9  1  0.16003400  0.32006800  0.75000000  1
  Ir  Ir10  1  0.00000000  0.00000000  0.00000000  1
  Ir  Ir11  1  0.00000000  0.00000000  0.50000000  1
