# generated using pymatgen
data_LiNbGeO5
_symmetry_space_group_name_H-M   'P 1'
_cell_length_a   6.79105100
_cell_length_b   7.63831400
_cell_length_c   7.91911600
_cell_angle_alpha   90.00000000
_cell_angle_beta   90.00000000
_cell_angle_gamma   90.00000000
_symmetry_Int_Tables_number   1
_chemical_formula_structural   LiNbGeO5
_chemical_formula_sum   'Li4 Nb4 Ge4 O20'
_cell_volume   410.78181002
_cell_formula_units_Z   4
loop_
 _symmetry_equiv_pos_site_id
 _symmetry_equiv_pos_as_xyz
  1  'x, y, z'
loop_
 _atom_site_type_symbol
 _atom_site_label
 _atom_site_symmetry_multiplicity
 _atom_site_fract_x
 _atom_site_fract_y
 _atom_site_fract_z
 _atom_site_occupancy
  Li  Li0  1  0.00000000  0.00000000  0.00000000  1
  Li  Li1  1  0.50000000  0.00000000  0.00000000  1
  Li  Li2  1  0.00000000  0.50000000  0.50000000  1
  Li  Li3  1  0.50000000  0.50000000  0.50000000  1
  Nb  Nb4  1  0.25000000  0.72574800  0.16338400  1
  Nb  Nb5  1  0.25000000  0.77425200  0.66338400  1
  Nb  Nb6  1  0.75000000  0.22574800  0.33661600  1
  Nb  Nb7  1  0.75000000  0.27425200  0.83661600  1
  Ge  Ge8  1  0.75000000  0.63064500  0.13075300  1
  Ge  Ge9  1  0.75000000  0.86935500  0.63075300  1
  Ge  Ge10  1  0.25000000  0.13064500  0.36924700  1
  Ge  Ge11  1  0.25000000  0.36935500  0.86924700  1
  O  O12  1  0.95922700  0.76621700  0.12445300  1
  O  O13  1  0.25000000  0.84009600  0.88501600  1
  O  O14  1  0.75000000  0.15990400  0.11498400  1
  O  O15  1  0.75000000  0.34009600  0.61498400  1
  O  O16  1  0.25000000  0.65990400  0.38501600  1
  O  O17  1  0.04077300  0.26621700  0.37554700  1
  O  O18  1  0.54077300  0.73378300  0.62445300  1
  O  O19  1  0.25000000  0.00017000  0.55504900  1
  O  O20  1  0.25000000  0.50171600  0.68569200  1
  O  O21  1  0.75000000  0.49828400  0.31430800  1
  O  O22  1  0.75000000  0.00171600  0.81430800  1
  O  O23  1  0.25000000  0.99828400  0.18569200  1
  O  O24  1  0.75000000  0.50017000  0.94495100  1
  O  O25  1  0.75000000  0.99983000  0.44495100  1
  O  O26  1  0.95922700  0.73378300  0.62445300  1
  O  O27  1  0.25000000  0.49983000  0.05504900  1
  O  O28  1  0.54077300  0.76621700  0.12445300  1
  O  O29  1  0.04077300  0.23378300  0.87554700  1
  O  O30  1  0.45922700  0.26621700  0.37554700  1
  O  O31  1  0.45922700  0.23378300  0.87554700  1
