# generated using pymatgen
data_K4(BSe)9
_symmetry_space_group_name_H-M   'P 1'
_cell_length_a   10.01924400
_cell_length_b   16.25828547
_cell_length_c   22.65691341
_cell_angle_alpha   107.27622733
_cell_angle_beta   97.07200187
_cell_angle_gamma   106.00675010
_symmetry_Int_Tables_number   1
_chemical_formula_structural   K4(BSe)9
_chemical_formula_sum   'K24 B54 Se54'
_cell_volume   3301.98926854
_cell_formula_units_Z   6
loop_
 _symmetry_equiv_pos_site_id
 _symmetry_equiv_pos_as_xyz
  1  'x, y, z'
loop_
 _atom_site_type_symbol
 _atom_site_label
 _atom_site_symmetry_multiplicity
 _atom_site_fract_x
 _atom_site_fract_y
 _atom_site_fract_z
 _atom_site_occupancy
  K  K0  1  0.30008000  0.40033800  0.14471100  1
  K  K1  1  0.85396800  0.85028500  0.71572100  1
  K  K2  1  0.81907300  0.91013200  0.36883600  1
  K  K3  1  0.34115000  0.82801600  0.62171900  1
  K  K4  1  0.44700200  0.83908300  0.00000600  1
  K  K5  1  0.21506700  0.74580100  0.80422700  1
  K  K6  1  0.79533600  0.75320500  0.14839300  1
  K  K7  1  0.82691300  0.60481700  0.51685900  1
  K  K8  1  0.58395800  0.09792900  0.83312700  1
  K  K9  1  0.75088400  0.26472700  0.16643800  1
  K  K10  1  0.80875400  0.39023200  0.99877600  1
  K  K11  1  0.64343600  0.60580100  0.85327200  1
  K  K12  1  0.48511900  0.50567300  0.99989900  1
  K  K13  1  0.71668700  0.20692600  0.37779500  1
  K  K14  1  0.15534700  0.25405700  0.85364900  1
  K  K15  1  0.30754800  0.08754600  0.48330700  1
  K  K16  1  0.13791300  0.59548700  0.00124300  1
  K  K17  1  0.17457000  0.37286100  0.44886000  1
  K  K18  1  0.41159000  0.94122800  0.19562000  1
  K  K19  1  0.45078500  0.54135400  0.63029700  1
  K  K20  1  0.57988600  0.48450500  0.31776900  1
  K  K21  1  0.13617000  0.13608300  0.28549500  1
  K  K22  1  0.72388500  0.92007600  0.55145200  1
  K  K23  1  0.26136500  0.16734500  0.68017400  1
  B  B24  1  0.10598900  0.58920900  0.26150000  1
  B  B25  1  0.02839000  0.39837500  0.31656000  1
  B  B26  1  0.16639400  0.01631900  0.83422600  1
  B  B27  1  0.14324400  0.77408800  0.33192500  1
  B  B28  1  0.11806500  0.86915900  0.49510800  1
  B  B29  1  0.80245000  0.25687000  0.60178200  1
  B  B30  1  0.98632600  0.02313300  0.93203800  1
  B  B31  1  0.45876200  0.67961600  0.49232500  1
  B  B32  1  0.01406200  0.66422000  0.29252300  1
  B  B33  1  0.90816000  0.44082700  0.73762300  1
  B  B34  1  0.83669200  0.98340700  0.16584500  1
  B  B35  1  0.05802200  0.91162100  0.00010100  1
  B  B36  1  0.09855400  0.27418300  0.99923100  1
  B  B37  1  0.80911500  0.51243400  0.17737800  1
  B  B38  1  0.99295200  0.62003500  0.66198400  1
  B  B39  1  0.05420100  0.09130800  0.06818800  1
  B  B40  1  0.71656300  0.25770300  0.66535500  1
  B  B41  1  0.98221300  0.32547200  0.63249600  1
  B  B42  1  0.72243400  0.37212400  0.70677100  1
  B  B43  1  0.63200200  0.33651000  0.82189100  1
  B  B44  1  0.81197800  0.44242000  0.66733700  1
  B  B45  1  0.67084300  0.81881400  0.83368300  1
  B  B46  1  0.84491600  0.32822500  0.73817500  1
  B  B47  1  0.94099000  0.08927000  0.99998400  1
  B  B48  1  0.87421500  0.01617200  0.04291300  1
  B  B49  1  0.94656200  0.91055600  0.93216600  1
  B  B50  1  0.25317700  0.76845400  0.39840800  1
  B  B51  1  0.34930000  0.69245900  0.36724400  1
  B  B52  1  0.19998100  0.65475400  0.39799000  1
  B  B53  1  0.01259700  0.36988400  0.71735400  1
  B  B54  1  0.98740300  0.43873500  0.67077700  1
  B  B55  1  0.83138900  0.97347100  0.95738000  1
  B  B56  1  0.96914000  0.18856100  0.50793200  1
  B  B57  1  0.21922300  0.58194600  0.32497100  1
  B  B58  1  0.85487300  0.36991900  0.60090800  1
  B  B59  1  0.32964100  0.95683300  0.33739600  1
  B  B60  1  0.06978600  0.70652600  0.37745100  1
  B  B61  1  0.01475500  0.97841500  0.06811000  1
  B  B62  1  0.62364700  0.37439400  0.50395400  1
  B  B63  1  0.69274800  0.32899000  0.62182100  1
  B  B64  1  0.31557000  0.76733300  0.32879300  1
  B  B65  1  0.12156500  0.09576900  0.00013600  1
  B  B66  1  0.18310700  0.52670800  0.83584900  1
  B  B67  1  0.87942600  0.90665900  0.00012200  1
  B  B68  1  0.16929100  0.70249600  0.26178400  1
  B  B69  1  0.29438400  0.65204100  0.28237600  1
  B  B70  1  0.89482600  0.25728100  0.67490500  1
  B  B71  1  0.89100700  0.72440300  0.00017200  1
  B  B72  1  0.16907100  0.02793300  0.04285500  1
  B  B73  1  0.05045200  0.59170800  0.33444800  1
  B  B74  1  0.12669200  0.98528600  0.95751300  1
  B  B75  1  0.33117500  0.18125200  0.16616200  1
  B  B76  1  0.34906300  0.69144000  0.16452500  1
  B  B77  1  0.71371100  0.08204600  0.68335400  1
  Se  Se78  1  0.99857500  0.54783600  0.81934800  1
  Se  Se79  1  0.08295600  0.96353100  0.55796700  1
  Se  Se80  1  0.86125400  0.80425000  0.85055200  1
  Se  Se81  1  0.95337500  0.27142100  0.30270600  1
  Se  Se82  1  0.36308000  0.07725900  0.10212100  1
  Se  Se83  1  0.91678900  0.14269500  0.68541100  1
  Se  Se84  1  0.77140600  0.15164000  0.52072500  1
  Se  Se85  1  0.13979000  0.19531200  0.15094800  1
  Se  Se86  1  0.99128100  0.48626300  0.18056100  1
  Se  Se87  1  0.20201500  0.41290100  0.77860200  1
  Se  Se88  1  0.45882400  0.88307600  0.33116500  1
  Se  Se89  1  0.81150600  0.62694200  0.24347400  1
  Se  Se90  1  0.14607100  0.39735800  0.99894100  1
  Se  Se91  1  0.83333500  0.39495600  0.51867800  1
  Se  Se92  1  0.95741300  0.75793300  0.43806600  1
  Se  Se93  1  0.22984000  0.45662700  0.31490300  1
  Se  Se94  1  0.53686900  0.70677800  0.42050400  1
  Se  Se95  1  0.12647900  0.89491000  0.33313000  1
  Se  Se96  1  0.34355100  0.61315700  0.90200000  1
  Se  Se97  1  0.56887900  0.38476700  0.75551100  1
  Se  Se98  1  0.08941200  0.79376300  0.00033400  1
  Se  Se99  1  0.90152600  0.20412200  0.99928200  1
  Se  Se100  1  0.47632500  0.26150100  0.23916000  1
  Se  Se101  1  0.12810200  0.55217000  0.66819900  1
  Se  Se102  1  0.23751500  0.02440000  0.76105800  1
  Se  Se103  1  0.75040800  0.78847800  0.00042200  1
  Se  Se104  1  0.58475600  0.70295600  0.57068500  1
  Se  Se105  1  0.01536100  0.13282400  0.42947600  1
  Se  Se106  1  0.26154300  0.97556900  0.89828300  1
  Se  Se107  1  0.44493400  0.71222500  0.09913200  1
  Se  Se108  1  0.11828500  0.28813800  0.57995400  1
  Se  Se109  1  0.17938800  0.72785100  0.18005100  1
  Se  Se110  1  0.05251500  0.73891600  0.65669500  1
  Se  Se111  1  0.63806500  0.92346500  0.89717700  1
  Se  Se112  1  0.65296300  0.96920200  0.69743800  1
  Se  Se113  1  0.31307600  0.87533400  0.48070200  1
  Se  Se114  1  0.52469800  0.40651500  0.44160500  1
  Se  Se115  1  0.79417600  0.56211800  0.66624600  1
  Se  Se116  1  0.63906200  0.42857000  0.11603700  1
  Se  Se117  1  0.91216800  0.47919800  0.33872100  1
  Se  Se118  1  0.39547500  0.08125900  0.34333900  1
  Se  Se119  1  0.24682900  0.21620400  0.99991100  1
  Se  Se120  1  0.98936800  0.04431400  0.84917700  1
  Se  Se121  1  0.74064600  0.02562700  0.10286900  1
  Se  Se122  1  0.52352000  0.31474900  0.88316100  1
  Se  Se123  1  0.24813100  0.63026700  0.47897500  1
  Se  Se124  1  0.81052600  0.30635000  0.81914800  1
  Se  Se125  1  0.76403800  0.97293400  0.23802600  1
  Se  Se126  1  0.01195300  0.95391200  0.14980000  1
  Se  Se127  1  0.52000600  0.31998400  0.56079600  1
  Se  Se128  1  0.52537800  0.73611900  0.76139800  1
  Se  Se129  1  0.42298200  0.63357200  0.22148100  1
  Se  Se130  1  0.82365800  0.60246800  0.00108900  1
  Se  Se131  1  0.57467400  0.14072300  0.66152800  1
