# generated using pymatgen
data_La4Te3N2
_symmetry_space_group_name_H-M   'P 1'
_cell_length_a   7.52503100
_cell_length_b   11.70592400
_cell_length_c   11.87123200
_cell_angle_alpha   90.00000000
_cell_angle_beta   90.00000000
_cell_angle_gamma   90.00000000
_symmetry_Int_Tables_number   1
_chemical_formula_structural   La4Te3N2
_chemical_formula_sum   'La16 Te12 N8'
_cell_volume   1045.70644820
_cell_formula_units_Z   4
loop_
 _symmetry_equiv_pos_site_id
 _symmetry_equiv_pos_as_xyz
  1  'x, y, z'
loop_
 _atom_site_type_symbol
 _atom_site_label
 _atom_site_symmetry_multiplicity
 _atom_site_fract_x
 _atom_site_fract_y
 _atom_site_fract_z
 _atom_site_occupancy
  La  La0  1  0.64720000  0.10918400  0.94985000  1
  La  La1  1  0.85280000  0.60918400  0.05015000  1
  La  La2  1  0.22412200  0.02965600  0.75000000  1
  La  La3  1  0.27587800  0.52965600  0.25000000  1
  La  La4  1  0.77587800  0.97034400  0.25000000  1
  La  La5  1  0.35280000  0.89081600  0.44985000  1
  La  La6  1  0.35280000  0.89081600  0.05015000  1
  La  La7  1  0.91079100  0.34132600  0.25000000  1
  La  La8  1  0.72412200  0.47034400  0.75000000  1
  La  La9  1  0.14720000  0.39081600  0.94985000  1
  La  La10  1  0.08920900  0.65867400  0.75000000  1
  La  La11  1  0.58920900  0.84132600  0.75000000  1
  La  La12  1  0.85280000  0.60918400  0.44985000  1
  La  La13  1  0.64720000  0.10918400  0.55015000  1
  La  La14  1  0.41079100  0.15867400  0.25000000  1
  La  La15  1  0.14720000  0.39081600  0.55015000  1
  Te  Te16  1  0.93302200  0.86445700  0.57721900  1
  Te  Te17  1  0.06697800  0.13554300  0.07721900  1
  Te  Te18  1  0.43302200  0.63554300  0.57721900  1
  Te  Te19  1  0.41837000  0.27044600  0.75000000  1
  Te  Te20  1  0.56697800  0.36445700  0.42278100  1
  Te  Te21  1  0.93302200  0.86445700  0.92278100  1
  Te  Te22  1  0.08163000  0.77044600  0.25000000  1
  Te  Te23  1  0.56697800  0.36445700  0.07721900  1
  Te  Te24  1  0.06697800  0.13554300  0.42278100  1
  Te  Te25  1  0.58163000  0.72955400  0.25000000  1
  Te  Te26  1  0.43302200  0.63554300  0.92278100  1
  Te  Te27  1  0.91837000  0.22955400  0.75000000  1
  N  N28  1  0.05452300  0.46608900  0.37822900  1
  N  N29  1  0.55452300  0.03391100  0.12177100  1
  N  N30  1  0.44547700  0.96608900  0.62177100  1
  N  N31  1  0.94547700  0.53391100  0.62177100  1
  N  N32  1  0.44547700  0.96608900  0.87822900  1
  N  N33  1  0.94547700  0.53391100  0.87822900  1
  N  N34  1  0.55452300  0.03391100  0.37822900  1
  N  N35  1  0.05452300  0.46608900  0.12177100  1
