# generated using pymatgen
data_Cs3NaPb4
_symmetry_space_group_name_H-M   'P 1'
_cell_length_a   9.63192930
_cell_length_b   9.63192930
_cell_length_c   11.36189600
_cell_angle_alpha   90.00000000
_cell_angle_beta   90.00000000
_cell_angle_gamma   134.89130426
_symmetry_Int_Tables_number   1
_chemical_formula_structural   Cs3NaPb4
_chemical_formula_sum   'Cs6 Na2 Pb8'
_cell_volume   746.76631951
_cell_formula_units_Z   2
loop_
 _symmetry_equiv_pos_site_id
 _symmetry_equiv_pos_as_xyz
  1  'x, y, z'
loop_
 _atom_site_type_symbol
 _atom_site_label
 _atom_site_symmetry_multiplicity
 _atom_site_fract_x
 _atom_site_fract_y
 _atom_site_fract_z
 _atom_site_occupancy
  Cs  Cs0  1  0.61202100  0.38797900  0.55418300  1
  Cs  Cs1  1  0.61202100  0.38797900  0.94581700  1
  Cs  Cs2  1  0.38797900  0.61202100  0.44581700  1
  Cs  Cs3  1  0.38797900  0.61202100  0.05418300  1
  Cs  Cs4  1  0.76728700  0.23271300  0.25000000  1
  Cs  Cs5  1  0.23271300  0.76728700  0.75000000  1
  Na  Na6  1  0.00000000  0.00000000  0.50000000  1
  Na  Na7  1  0.00000000  0.00000000  0.00000000  1
  Pb  Pb8  1  0.27289800  0.17727700  0.25000000  1
  Pb  Pb9  1  0.82771800  0.17228200  0.88553400  1
  Pb  Pb10  1  0.82771800  0.17228200  0.61446600  1
  Pb  Pb11  1  0.17727700  0.27289800  0.75000000  1
  Pb  Pb12  1  0.72710200  0.82272300  0.75000000  1
  Pb  Pb13  1  0.17228200  0.82771800  0.38553400  1
  Pb  Pb14  1  0.82272300  0.72710200  0.25000000  1
  Pb  Pb15  1  0.17228200  0.82771800  0.11446600  1
