# generated using pymatgen
data_Ba3MgTa2O9
_symmetry_space_group_name_H-M   'P 1'
_cell_length_a   5.84342209
_cell_length_b   5.84342209
_cell_length_c   7.17866600
_cell_angle_alpha   90.00000000
_cell_angle_beta   90.00000000
_cell_angle_gamma   120.00000101
_symmetry_Int_Tables_number   1
_chemical_formula_structural   Ba3MgTa2O9
_chemical_formula_sum   'Ba3 Mg1 Ta2 O9'
_cell_volume   212.27990795
_cell_formula_units_Z   1
loop_
 _symmetry_equiv_pos_site_id
 _symmetry_equiv_pos_as_xyz
  1  'x, y, z'
loop_
 _atom_site_type_symbol
 _atom_site_label
 _atom_site_symmetry_multiplicity
 _atom_site_fract_x
 _atom_site_fract_y
 _atom_site_fract_z
 _atom_site_occupancy
  Ba  Ba0  1  0.33333300  0.66666700  0.66412400  1
  Ba  Ba1  1  0.00000000  0.00000000  0.00000000  1
  Ba  Ba2  1  0.66666700  0.33333300  0.33587600  1
  Mg  Mg3  1  0.00000000  0.00000000  0.50000000  1
  Ta  Ta4  1  0.33333300  0.66666700  0.17675200  1
  Ta  Ta5  1  0.66666700  0.33333300  0.82324800  1
  O  O6  1  0.82790600  0.17209400  0.67542400  1
  O  O7  1  0.82790600  0.65581200  0.67542400  1
  O  O8  1  0.34418800  0.17209400  0.67542400  1
  O  O9  1  0.65581200  0.82790600  0.32457600  1
  O  O10  1  0.17209400  0.34418800  0.32457600  1
  O  O11  1  0.17209400  0.82790600  0.32457600  1
  O  O12  1  0.50000000  0.00000000  0.00000000  1
  O  O13  1  0.00000000  0.50000000  0.00000000  1
  O  O14  1  0.50000000  0.50000000  0.00000000  1
