# generated using pymatgen
data_Na2ZrSi4O11
_symmetry_space_group_name_H-M   'P 1'
_cell_length_a   7.58702904
_cell_length_b   7.58702904
_cell_length_c   8.69353770
_cell_angle_alpha   82.28980708
_cell_angle_beta   82.28980708
_cell_angle_gamma   84.95804168
_symmetry_Int_Tables_number   1
_chemical_formula_structural   Na2ZrSi4O11
_chemical_formula_sum   'Na4 Zr2 Si8 O22'
_cell_volume   490.17271576
_cell_formula_units_Z   2
loop_
 _symmetry_equiv_pos_site_id
 _symmetry_equiv_pos_as_xyz
  1  'x, y, z'
loop_
 _atom_site_type_symbol
 _atom_site_label
 _atom_site_symmetry_multiplicity
 _atom_site_fract_x
 _atom_site_fract_y
 _atom_site_fract_z
 _atom_site_occupancy
  Na  Na0  1  0.92437500  0.07562500  0.25000000  1
  Na  Na1  1  0.07562500  0.92437500  0.75000000  1
  Na  Na2  1  0.60581900  0.39418100  0.25000000  1
  Na  Na3  1  0.39418100  0.60581900  0.75000000  1
  Zr  Zr4  1  0.50000000  0.00000000  0.50000000  1
  Zr  Zr5  1  0.00000000  0.50000000  0.00000000  1
  Si  Si6  1  0.80795800  0.66350600  0.63927300  1
  Si  Si7  1  0.19204200  0.33649400  0.36072700  1
  Si  Si8  1  0.66350600  0.80795800  0.13927300  1
  Si  Si9  1  0.26739100  0.83304600  0.07308300  1
  Si  Si10  1  0.16695400  0.73260900  0.42691700  1
  Si  Si11  1  0.73260900  0.16695400  0.92691700  1
  Si  Si12  1  0.83304600  0.26739100  0.57308300  1
  Si  Si13  1  0.33649400  0.19204200  0.86072700  1
  O  O14  1  0.37226900  0.20581700  0.35466900  1
  O  O15  1  0.79418300  0.62773100  0.14533100  1
  O  O16  1  0.62773100  0.79418300  0.64533100  1
  O  O17  1  0.20581700  0.37226900  0.85466900  1
  O  O18  1  0.37279700  0.10407600  0.69891200  1
  O  O19  1  0.89592400  0.62720300  0.80108800  1
  O  O20  1  0.62720300  0.89592400  0.30108800  1
  O  O21  1  0.10407600  0.37279700  0.19891200  1
  O  O22  1  0.28665400  0.82364300  0.53091300  1
  O  O23  1  0.17635700  0.71334600  0.96908700  1
  O  O24  1  0.71334600  0.17635700  0.46908700  1
  O  O25  1  0.82364300  0.28665400  0.03091300  1
  O  O26  1  0.47386400  0.75606600  0.08615100  1
  O  O27  1  0.24393400  0.52613600  0.41384900  1
  O  O28  1  0.84070400  0.15929600  0.75000000  1
  O  O29  1  0.15929600  0.84070400  0.25000000  1
  O  O30  1  0.04128300  0.24639900  0.49629900  1
  O  O31  1  0.75360100  0.95871700  0.00370100  1
  O  O32  1  0.95871700  0.75360100  0.50370100  1
  O  O33  1  0.24639900  0.04128300  0.99629900  1
  O  O34  1  0.75606600  0.47386400  0.58615100  1
  O  O35  1  0.52613600  0.24393400  0.91384900  1
