# generated using pymatgen
data_Mo3S7Cl4
_symmetry_space_group_name_H-M   'P 1'
_cell_length_a   12.35868200
_cell_length_b   9.58697100
_cell_length_c   14.36060086
_cell_angle_alpha   57.51388915
_cell_angle_beta   90.00000000
_cell_angle_gamma   90.00000000
_symmetry_Int_Tables_number   1
_chemical_formula_structural   Mo3S7Cl4
_chemical_formula_sum   'Mo12 S28 Cl16'
_cell_volume   1435.23304857
_cell_formula_units_Z   4
loop_
 _symmetry_equiv_pos_site_id
 _symmetry_equiv_pos_as_xyz
  1  'x, y, z'
loop_
 _atom_site_type_symbol
 _atom_site_label
 _atom_site_symmetry_multiplicity
 _atom_site_fract_x
 _atom_site_fract_y
 _atom_site_fract_z
 _atom_site_occupancy
  Mo  Mo0  1  0.74550500  0.12049900  0.29370800  1
  Mo  Mo1  1  0.38068500  0.64170000  0.21747300  1
  Mo  Mo2  1  0.16017100  0.60024200  0.22289300  1
  Mo  Mo3  1  0.66017100  0.39975800  0.27710700  1
  Mo  Mo4  1  0.88068500  0.35830000  0.28252700  1
  Mo  Mo5  1  0.11931500  0.64170000  0.71747300  1
  Mo  Mo6  1  0.33982900  0.60024200  0.72289300  1
  Mo  Mo7  1  0.24550500  0.87950100  0.20629200  1
  Mo  Mo8  1  0.61931500  0.35830000  0.78252700  1
  Mo  Mo9  1  0.83982900  0.39975800  0.77710700  1
  Mo  Mo10  1  0.25449500  0.87950100  0.70629200  1
  Mo  Mo11  1  0.75449500  0.12049900  0.79370800  1
  S  S12  1  0.23554300  0.60237900  0.85995100  1
  S  S13  1  0.04725600  0.82115900  0.21807400  1
  S  S14  1  0.62166000  0.07094200  0.93075800  1
  S  S15  1  0.28089900  0.59182800  0.09453400  1
  S  S16  1  0.05260400  0.89685600  0.70733900  1
  S  S17  1  0.45274400  0.82115900  0.71807400  1
  S  S18  1  0.87834000  0.07094200  0.43075800  1
  S  S19  1  0.70742500  0.61472500  0.75139600  1
  S  S20  1  0.55260400  0.10314400  0.79266100  1
  S  S21  1  0.62253200  0.11992800  0.42399400  1
  S  S22  1  0.26445700  0.60237900  0.35995100  1
  S  S23  1  0.29257500  0.38527500  0.24860400  1
  S  S24  1  0.12253200  0.88007200  0.07600600  1
  S  S25  1  0.73554300  0.39762100  0.64004900  1
  S  S26  1  0.37834000  0.92905800  0.06924200  1
  S  S27  1  0.21910100  0.59182800  0.59453400  1
  S  S28  1  0.87746800  0.11992800  0.92399400  1
  S  S29  1  0.12166000  0.92905800  0.56924200  1
  S  S30  1  0.71910100  0.40817200  0.90546600  1
  S  S31  1  0.54725600  0.17884100  0.28192600  1
  S  S32  1  0.78089900  0.40817200  0.40546600  1
  S  S33  1  0.94739600  0.10314400  0.29266100  1
  S  S34  1  0.79257500  0.61472500  0.25139600  1
  S  S35  1  0.44739600  0.89685600  0.20733900  1
  S  S36  1  0.37746800  0.88007200  0.57600600  1
  S  S37  1  0.95274400  0.17884100  0.78192600  1
  S  S38  1  0.76445700  0.39762100  0.14004900  1
  S  S39  1  0.20742500  0.38527500  0.74860400  1
  Cl  Cl40  1  0.95182200  0.61673200  0.61890500  1
  Cl  Cl41  1  0.76363600  0.06618500  0.64188300  1
  Cl  Cl42  1  0.54817800  0.61673200  0.11890500  1
  Cl  Cl43  1  0.78415000  0.82038500  0.90445600  1
  Cl  Cl44  1  0.71585000  0.82038500  0.40445600  1
  Cl  Cl45  1  0.98790700  0.47299200  0.87019600  1
  Cl  Cl46  1  0.28415000  0.17961500  0.59554400  1
  Cl  Cl47  1  0.51209300  0.47299200  0.37019600  1
  Cl  Cl48  1  0.01209300  0.52700800  0.12980400  1
  Cl  Cl49  1  0.04817800  0.38326800  0.38109500  1
  Cl  Cl50  1  0.73636400  0.06618500  0.14188300  1
  Cl  Cl51  1  0.26363600  0.93381500  0.85811700  1
  Cl  Cl52  1  0.21585000  0.17961500  0.09554400  1
  Cl  Cl53  1  0.48790700  0.52700800  0.62980400  1
  Cl  Cl54  1  0.45182200  0.38326800  0.88109500  1
  Cl  Cl55  1  0.23636400  0.93381500  0.35811700  1
