# generated using pymatgen
data_Eu4Ir
_symmetry_space_group_name_H-M   'P 1'
_cell_length_a   7.73208169
_cell_length_b   7.73208169
_cell_length_c   7.73208169
_cell_angle_alpha   107.34109344
_cell_angle_beta   107.34109344
_cell_angle_gamma   113.82101543
_symmetry_Int_Tables_number   1
_chemical_formula_structural   Eu4Ir
_chemical_formula_sum   'Eu8 Ir2'
_cell_volume   354.29994821
_cell_formula_units_Z   2
loop_
 _symmetry_equiv_pos_site_id
 _symmetry_equiv_pos_as_xyz
  1  'x, y, z'
loop_
 _atom_site_type_symbol
 _atom_site_label
 _atom_site_symmetry_multiplicity
 _atom_site_fract_x
 _atom_site_fract_y
 _atom_site_fract_z
 _atom_site_occupancy
  Eu  Eu0  1  0.82012100  0.01465400  0.19453300  1
  Eu  Eu1  1  0.42987900  0.12441100  0.69453300  1
  Eu  Eu2  1  0.87558900  0.57012100  0.30546700  1
  Eu  Eu3  1  0.82012100  0.62558900  0.80546700  1
  Eu  Eu4  1  0.37441100  0.17987900  0.19453300  1
  Eu  Eu5  1  0.42987900  0.73534600  0.30546700  1
  Eu  Eu6  1  0.26465400  0.57012100  0.69453300  1
  Eu  Eu7  1  0.98534600  0.17987900  0.80546700  1
  Ir  Ir8  1  0.50000000  0.50000000  0.00000000  1
  Ir  Ir9  1  0.75000000  0.25000000  0.50000000  1
