# generated using pymatgen
data_HoH3
_symmetry_space_group_name_H-M   'P 1'
_cell_length_a   6.27829975
_cell_length_b   6.27829975
_cell_length_c   6.54672400
_cell_angle_alpha   90.00000000
_cell_angle_beta   90.00000000
_cell_angle_gamma   119.99999733
_symmetry_Int_Tables_number   1
_chemical_formula_structural   HoH3
_chemical_formula_sum   'Ho6 H18'
_cell_volume   223.48005445
_cell_formula_units_Z   6
loop_
 _symmetry_equiv_pos_site_id
 _symmetry_equiv_pos_as_xyz
  1  'x, y, z'
loop_
 _atom_site_type_symbol
 _atom_site_label
 _atom_site_symmetry_multiplicity
 _atom_site_fract_x
 _atom_site_fract_y
 _atom_site_fract_z
 _atom_site_occupancy
  Ho  Ho0  1  0.66334000  0.00000000  0.75000000  1
  Ho  Ho1  1  0.33666000  0.33666000  0.75000000  1
  Ho  Ho2  1  0.00000000  0.66334000  0.75000000  1
  Ho  Ho3  1  0.66334000  0.66334000  0.25000000  1
  Ho  Ho4  1  0.00000000  0.33666000  0.25000000  1
  Ho  Ho5  1  0.33666000  0.00000000  0.25000000  1
  H  H6  1  0.32106000  0.97199800  0.90777600  1
  H  H7  1  0.65093900  0.67894000  0.90777600  1
  H  H8  1  0.02800200  0.34906100  0.90777600  1
  H  H9  1  0.32106000  0.34906100  0.40777600  1
  H  H10  1  0.02800200  0.67894000  0.40777600  1
  H  H11  1  0.65093900  0.97199800  0.40777600  1
  H  H12  1  0.67894000  0.02800200  0.09222400  1
  H  H13  1  0.34906100  0.32106000  0.09222400  1
  H  H14  1  0.97199800  0.65093900  0.09222400  1
  H  H15  1  0.67894000  0.65093900  0.59222400  1
  H  H16  1  0.97199800  0.32106000  0.59222400  1
  H  H17  1  0.34906100  0.02800200  0.59222400  1
  H  H18  1  0.00000000  0.00000000  0.75000000  1
  H  H19  1  0.00000000  0.00000000  0.25000000  1
  H  H20  1  0.66666700  0.33333300  0.81891000  1
  H  H21  1  0.66666700  0.33333300  0.31891000  1
  H  H22  1  0.33333300  0.66666700  0.18109000  1
  H  H23  1  0.33333300  0.66666700  0.68109000  1
