# generated using pymatgen
data_BaCa4(CoN2)2
_symmetry_space_group_name_H-M   'P 1'
_cell_length_a   8.37600700
_cell_length_b   8.37600700
_cell_length_c   12.10942000
_cell_angle_alpha   90.00000000
_cell_angle_beta   90.00000000
_cell_angle_gamma   90.00000000
_symmetry_Int_Tables_number   1
_chemical_formula_structural   BaCa4(CoN2)2
_chemical_formula_sum   'Ba4 Ca16 Co8 N16'
_cell_volume   849.56655208
_cell_formula_units_Z   4
loop_
 _symmetry_equiv_pos_site_id
 _symmetry_equiv_pos_as_xyz
  1  'x, y, z'
loop_
 _atom_site_type_symbol
 _atom_site_label
 _atom_site_symmetry_multiplicity
 _atom_site_fract_x
 _atom_site_fract_y
 _atom_site_fract_z
 _atom_site_occupancy
  Ba  Ba0  1  0.00000000  0.50000000  0.34219900  1
  Ba  Ba1  1  0.50000000  0.00000000  0.65780100  1
  Ba  Ba2  1  0.00000000  0.50000000  0.84219900  1
  Ba  Ba3  1  0.50000000  0.00000000  0.15780100  1
  Ca  Ca4  1  0.11940400  0.83378100  0.09554100  1
  Ca  Ca5  1  0.38059600  0.33378100  0.40445900  1
  Ca  Ca6  1  0.33378100  0.61940400  0.59554100  1
  Ca  Ca7  1  0.38059600  0.66621900  0.90445900  1
  Ca  Ca8  1  0.16621900  0.88059600  0.40445900  1
  Ca  Ca9  1  0.11940400  0.16621900  0.59554100  1
  Ca  Ca10  1  0.83378100  0.88059600  0.90445900  1
  Ca  Ca11  1  0.83378100  0.11940400  0.40445900  1
  Ca  Ca12  1  0.33378100  0.38059600  0.09554100  1
  Ca  Ca13  1  0.61940400  0.33378100  0.90445900  1
  Ca  Ca14  1  0.66621900  0.38059600  0.59554100  1
  Ca  Ca15  1  0.66621900  0.61940400  0.09554100  1
  Ca  Ca16  1  0.16621900  0.11940400  0.90445900  1
  Ca  Ca17  1  0.61940400  0.66621900  0.40445900  1
  Ca  Ca18  1  0.88059600  0.16621900  0.09554100  1
  Ca  Ca19  1  0.88059600  0.83378100  0.59554100  1
  Co  Co20  1  0.65613200  0.34386800  0.25000000  1
  Co  Co21  1  0.15613200  0.84386800  0.75000000  1
  Co  Co22  1  0.34386800  0.34386800  0.75000000  1
  Co  Co23  1  0.84386800  0.15613200  0.75000000  1
  Co  Co24  1  0.15613200  0.15613200  0.25000000  1
  Co  Co25  1  0.84386800  0.84386800  0.25000000  1
  Co  Co26  1  0.34386800  0.65613200  0.25000000  1
  Co  Co27  1  0.65613200  0.65613200  0.75000000  1
  N  N28  1  0.12273000  0.18118500  0.39504700  1
  N  N29  1  0.87727000  0.18118500  0.89504700  1
  N  N30  1  0.18118500  0.12273000  0.10495300  1
  N  N31  1  0.87727000  0.81881500  0.39504700  1
  N  N32  1  0.81881500  0.12273000  0.60495300  1
  N  N33  1  0.31881500  0.37727000  0.89504700  1
  N  N34  1  0.62273000  0.68118500  0.60495300  1
  N  N35  1  0.37727000  0.68118500  0.10495300  1
  N  N36  1  0.62273000  0.31881500  0.10495300  1
  N  N37  1  0.37727000  0.31881500  0.60495300  1
  N  N38  1  0.12273000  0.81881500  0.89504700  1
  N  N39  1  0.31881500  0.62273000  0.39504700  1
  N  N40  1  0.68118500  0.62273000  0.89504700  1
  N  N41  1  0.68118500  0.37727000  0.39504700  1
  N  N42  1  0.81881500  0.87727000  0.10495300  1
  N  N43  1  0.18118500  0.87727000  0.60495300  1
