# generated using pymatgen
data_TiZnH12(OF)6
_symmetry_space_group_name_H-M   'P 1'
_cell_length_a   6.52220492
_cell_length_b   6.52220492
_cell_length_c   6.52220570
_cell_angle_alpha   95.56394999
_cell_angle_beta   95.56394999
_cell_angle_gamma   95.56395338
_symmetry_Int_Tables_number   1
_chemical_formula_structural   TiZnH12(OF)6
_chemical_formula_sum   'Ti1 Zn1 H12 O6 F6'
_cell_volume   273.25222434
_cell_formula_units_Z   1
loop_
 _symmetry_equiv_pos_site_id
 _symmetry_equiv_pos_as_xyz
  1  'x, y, z'
loop_
 _atom_site_type_symbol
 _atom_site_label
 _atom_site_symmetry_multiplicity
 _atom_site_fract_x
 _atom_site_fract_y
 _atom_site_fract_z
 _atom_site_occupancy
  Ti  Ti0  1  0.50000000  0.50000000  0.50000000  1
  Zn  Zn1  1  0.00000000  0.00000000  0.00000000  1
  H  H2  1  0.21197800  0.04490900  0.39364300  1
  H  H3  1  0.82971400  0.19633900  0.68010000  1
  H  H4  1  0.31990000  0.17028600  0.80366100  1
  H  H5  1  0.39364300  0.21197800  0.04490900  1
  H  H6  1  0.80366100  0.31990000  0.17028600  1
  H  H7  1  0.04490900  0.39364300  0.21197800  1
  H  H8  1  0.95509100  0.60635700  0.78802200  1
  H  H9  1  0.19633900  0.68010000  0.82971400  1
  H  H10  1  0.60635700  0.78802200  0.95509100  1
  H  H11  1  0.68010000  0.82971400  0.19633900  1
  H  H12  1  0.17028600  0.80366100  0.31990000  1
  H  H13  1  0.78802200  0.95509100  0.60635700  1
  O  O14  1  0.87563500  0.06075000  0.70320800  1
  O  O15  1  0.29679200  0.12436500  0.93925000  1
  O  O16  1  0.93925000  0.29679200  0.12436500  1
  O  O17  1  0.06075000  0.70320800  0.87563500  1
  O  O18  1  0.70320800  0.87563500  0.06075000  1
  O  O19  1  0.12436500  0.93925000  0.29679200  1
  F  F20  1  0.36564800  0.24505800  0.55884800  1
  F  F21  1  0.55884800  0.36564800  0.24505800  1
  F  F22  1  0.75494200  0.44115200  0.63435200  1
  F  F23  1  0.24505800  0.55884800  0.36564800  1
  F  F24  1  0.44115200  0.63435200  0.75494200  1
  F  F25  1  0.63435200  0.75494200  0.44115200  1
