# generated using pymatgen
data_V2GaSn2
_symmetry_space_group_name_H-M   'P 1'
_cell_length_a   9.83975677
_cell_length_b   9.83975677
_cell_length_c   6.75201400
_cell_angle_alpha   90.00000000
_cell_angle_beta   90.00000000
_cell_angle_gamma   146.87921291
_symmetry_Int_Tables_number   1
_chemical_formula_structural   V2GaSn2
_chemical_formula_sum   'V8 Ga4 Sn8'
_cell_volume   357.20489575
_cell_formula_units_Z   4
loop_
 _symmetry_equiv_pos_site_id
 _symmetry_equiv_pos_as_xyz
  1  'x, y, z'
loop_
 _atom_site_type_symbol
 _atom_site_label
 _atom_site_symmetry_multiplicity
 _atom_site_fract_x
 _atom_site_fract_y
 _atom_site_fract_z
 _atom_site_occupancy
  V  V0  1  0.57391800  0.42608200  0.47178400  1
  V  V1  1  0.42608200  0.57391800  0.52821600  1
  V  V2  1  0.07391800  0.92608200  0.02821600  1
  V  V3  1  0.90883500  0.59116500  0.75000000  1
  V  V4  1  0.40883500  0.09116500  0.75000000  1
  V  V5  1  0.59116500  0.90883500  0.25000000  1
  V  V6  1  0.92608200  0.07391800  0.97178400  1
  V  V7  1  0.09116500  0.40883500  0.25000000  1
  Ga  Ga8  1  0.76814500  0.73185500  0.75000000  1
  Ga  Ga9  1  0.73185500  0.76814500  0.25000000  1
  Ga  Ga10  1  0.23185500  0.26814500  0.25000000  1
  Ga  Ga11  1  0.26814500  0.23185500  0.75000000  1
  Sn  Sn12  1  0.72172800  0.27827200  0.42228400  1
  Sn  Sn13  1  0.38865200  0.61134800  0.92300400  1
  Sn  Sn14  1  0.27827200  0.72172800  0.57771600  1
  Sn  Sn15  1  0.22172800  0.77827200  0.07771600  1
  Sn  Sn16  1  0.77827200  0.22172800  0.92228400  1
  Sn  Sn17  1  0.88865200  0.11134800  0.57699600  1
  Sn  Sn18  1  0.61134800  0.38865200  0.07699600  1
  Sn  Sn19  1  0.11134800  0.88865200  0.42300400  1
