# generated using pymatgen
data_Cs2CrO4
_symmetry_space_group_name_H-M   'P 1'
_cell_length_a   6.42972519
_cell_length_b   8.58260503
_cell_length_c   11.45241236
_cell_angle_alpha   90.00851877
_cell_angle_beta   89.97236177
_cell_angle_gamma   90.00297570
_symmetry_Int_Tables_number   1
_chemical_formula_structural   Cs2CrO4
_chemical_formula_sum   'Cs8 Cr4 O16'
_cell_volume   631.98745736
_cell_formula_units_Z   4
loop_
 _symmetry_equiv_pos_site_id
 _symmetry_equiv_pos_as_xyz
  1  'x, y, z'
loop_
 _atom_site_type_symbol
 _atom_site_label
 _atom_site_symmetry_multiplicity
 _atom_site_fract_x
 _atom_site_fract_y
 _atom_site_fract_z
 _atom_site_occupancy
  Cs  Cs0  1  0.25016700  0.51147400  0.69568300  1
  Cs  Cs1  1  0.75009600  0.98850300  0.19560300  1
  Cs  Cs2  1  0.75004900  0.48872100  0.30433000  1
  Cs  Cs3  1  0.25015100  0.01139900  0.80437500  1
  Cs  Cs4  1  0.75002700  0.67060800  0.91350200  1
  Cs  Cs5  1  0.25012500  0.32944100  0.08649900  1
  Cs  Cs6  1  0.75005700  0.17075100  0.58647200  1
  Cs  Cs7  1  0.25009900  0.82949700  0.41358100  1
  Cr  Cr8  1  0.75009900  0.73353700  0.58011900  1
  Cr  Cr9  1  0.24978100  0.26679000  0.41985300  1
  Cr  Cr10  1  0.74986600  0.23327400  0.92001600  1
  Cr  Cr11  1  0.25001700  0.76626700  0.08004100  1
  O  O12  1  0.75000000  0.53963200  0.58467700  1
  O  O13  1  0.24986100  0.46078000  0.41533900  1
  O  O14  1  0.24997400  0.96010000  0.08462000  1
  O  O15  1  0.75000500  0.03933800  0.91537100  1
  O  O16  1  0.75011500  0.79350700  0.44091500  1
  O  O17  1  0.25012700  0.70636800  0.94085300  1
  O  O18  1  0.24982100  0.20674100  0.55901800  1
  O  O19  1  0.74999100  0.29333400  0.05914800  1
  O  O20  1  0.03698300  0.69826800  0.14635200  1
  O  O21  1  0.53708300  0.30137900  0.85362700  1
  O  O22  1  0.96280900  0.30128200  0.85366500  1
  O  O23  1  0.03682600  0.19880300  0.35353500  1
  O  O24  1  0.46262300  0.19882100  0.35350300  1
  O  O25  1  0.46301800  0.69830700  0.14639300  1
  O  O26  1  0.96302800  0.80150400  0.64643100  1
  O  O27  1  0.53719800  0.80157400  0.64648000  1
