# generated using pymatgen
data_Lu(BO2)3
_symmetry_space_group_name_H-M   'P 1'
_cell_length_a   7.37937200
_cell_length_b   12.18230800
_cell_length_c   15.84999200
_cell_angle_alpha   90.00000000
_cell_angle_beta   90.00000000
_cell_angle_gamma   90.00000000
_symmetry_Int_Tables_number   1
_chemical_formula_structural   Lu(BO2)3
_chemical_formula_sum   'Lu16 B48 O96'
_cell_volume   1424.87913424
_cell_formula_units_Z   16
loop_
 _symmetry_equiv_pos_site_id
 _symmetry_equiv_pos_as_xyz
  1  'x, y, z'
loop_
 _atom_site_type_symbol
 _atom_site_label
 _atom_site_symmetry_multiplicity
 _atom_site_fract_x
 _atom_site_fract_y
 _atom_site_fract_z
 _atom_site_occupancy
  Lu  Lu0  1  0.25000000  0.91132200  0.54872900  1
  Lu  Lu1  1  0.75000000  0.41132200  0.95127100  1
  Lu  Lu2  1  0.75000000  0.06331600  0.82653200  1
  Lu  Lu3  1  0.25000000  0.51036700  0.37897800  1
  Lu  Lu4  1  0.75000000  0.08867800  0.45127100  1
  Lu  Lu5  1  0.25000000  0.58867800  0.04872900  1
  Lu  Lu6  1  0.25000000  0.23667500  0.37167100  1
  Lu  Lu7  1  0.75000000  0.48963300  0.62102200  1
  Lu  Lu8  1  0.75000000  0.76332500  0.62832900  1
  Lu  Lu9  1  0.25000000  0.98963300  0.87897800  1
  Lu  Lu10  1  0.25000000  0.56331600  0.67346800  1
  Lu  Lu11  1  0.75000000  0.73667500  0.12832900  1
  Lu  Lu12  1  0.25000000  0.93668400  0.17346800  1
  Lu  Lu13  1  0.25000000  0.26332500  0.87167100  1
  Lu  Lu14  1  0.75000000  0.43668400  0.32653200  1
  Lu  Lu15  1  0.75000000  0.01036700  0.12102200  1
  B  B16  1  0.57623900  0.64215300  0.39025900  1
  B  B17  1  0.57012600  0.81568600  0.28196900  1
  B  B18  1  0.42376100  0.14215300  0.10974100  1
  B  B19  1  0.92987400  0.81568600  0.28196900  1
  B  B20  1  0.42109900  0.51614000  0.84890500  1
  B  B21  1  0.07623900  0.35784700  0.60974100  1
  B  B22  1  0.42655600  0.15403000  0.55559900  1
  B  B23  1  0.92655600  0.65403000  0.94440100  1
  B  B24  1  0.07012600  0.31568600  0.21803100  1
  B  B25  1  0.94104300  0.17551600  0.96680600  1
  B  B26  1  0.07890100  0.98386000  0.34890500  1
  B  B27  1  0.07012600  0.18431400  0.71803100  1
  B  B28  1  0.92109900  0.01614000  0.65109500  1
  B  B29  1  0.43151400  0.87158500  0.74102800  1
  B  B30  1  0.92655600  0.84597000  0.44440100  1
  B  B31  1  0.57890100  0.01614000  0.65109500  1
  B  B32  1  0.42987400  0.31568600  0.21803100  1
  B  B33  1  0.42376100  0.35784700  0.60974100  1
  B  B34  1  0.42655600  0.34597000  0.05559900  1
  B  B35  1  0.92376100  0.64215300  0.39025900  1
  B  B36  1  0.56848600  0.12841500  0.25897200  1
  B  B37  1  0.55895700  0.32448400  0.46680600  1
  B  B38  1  0.42109900  0.98386000  0.34890500  1
  B  B39  1  0.07344400  0.15403000  0.55559900  1
  B  B40  1  0.57344400  0.84597000  0.44440100  1
  B  B41  1  0.57344400  0.65403000  0.94440100  1
  B  B42  1  0.07890100  0.51614000  0.84890500  1
  B  B43  1  0.06848600  0.62841500  0.24102800  1
  B  B44  1  0.05895700  0.67551600  0.53319400  1
  B  B45  1  0.92109900  0.48386000  0.15109500  1
  B  B46  1  0.44104300  0.67551600  0.53319400  1
  B  B47  1  0.42987400  0.18431400  0.71803100  1
  B  B48  1  0.43151400  0.62841500  0.24102800  1
  B  B49  1  0.44104300  0.82448400  0.03319400  1
  B  B50  1  0.93151400  0.37158500  0.75897200  1
  B  B51  1  0.57890100  0.48386000  0.15109500  1
  B  B52  1  0.07344400  0.34597000  0.05559900  1
  B  B53  1  0.57623900  0.85784700  0.89025900  1
  B  B54  1  0.06848600  0.87158500  0.74102800  1
  B  B55  1  0.94104300  0.32448400  0.46680600  1
  B  B56  1  0.92987400  0.68431400  0.78196900  1
  B  B57  1  0.07623900  0.14215300  0.10974100  1
  B  B58  1  0.57012600  0.68431400  0.78196900  1
  B  B59  1  0.55895700  0.17551600  0.96680600  1
  B  B60  1  0.93151400  0.12841500  0.25897200  1
  B  B61  1  0.92376100  0.85784700  0.89025900  1
  B  B62  1  0.56848600  0.37158500  0.75897200  1
  B  B63  1  0.05895700  0.82448400  0.03319400  1
  O  O64  1  0.04515900  0.38082800  0.40271800  1
  O  O65  1  0.92608900  0.76538800  0.37116100  1
  O  O66  1  0.45484100  0.38082800  0.40271800  1
  O  O67  1  0.47601800  0.26960700  0.77808700  1
  O  O68  1  0.52624700  0.78913800  0.52384900  1
  O  O69  1  0.93266800  0.12118500  0.04842500  1
  O  O70  1  0.06279800  0.56935300  0.93246500  1
  O  O71  1  0.56733200  0.12118500  0.04842500  1
  O  O72  1  0.42608900  0.26538800  0.12883900  1
  O  O73  1  0.47375300  0.21086200  0.47615100  1
  O  O74  1  0.53514500  0.57578900  0.31393800  1
  O  O75  1  0.25000000  0.45521000  0.84314800  1
  O  O76  1  0.06733200  0.62118500  0.45157500  1
  O  O77  1  0.43130800  0.60037600  0.78185400  1
  O  O78  1  0.25000000  0.39660800  0.57770200  1
  O  O79  1  0.52398200  0.73039300  0.22191300  1
  O  O80  1  0.02398200  0.26960700  0.77808700  1
  O  O81  1  0.97375300  0.71086200  0.02384900  1
  O  O82  1  0.93130800  0.10037600  0.71814600  1
  O  O83  1  0.03514500  0.07578900  0.18606200  1
  O  O84  1  0.07391100  0.23461200  0.62883900  1
  O  O85  1  0.97601800  0.76960700  0.72191300  1
  O  O86  1  0.43266800  0.62118500  0.45157500  1
  O  O87  1  0.56279800  0.43064700  0.06753500  1
  O  O88  1  0.06869200  0.60037600  0.78185400  1
  O  O89  1  0.75000000  0.90077200  0.45206500  1
  O  O90  1  0.06279800  0.93064700  0.43246500  1
  O  O91  1  0.47375300  0.28913800  0.97615100  1
  O  O92  1  0.75000000  0.36048000  0.72391300  1
  O  O93  1  0.42608900  0.23461200  0.62883900  1
  O  O94  1  0.04515900  0.11917200  0.90271800  1
  O  O95  1  0.75000000  0.64052900  0.75437400  1
  O  O96  1  0.52398200  0.76960700  0.72191300  1
  O  O97  1  0.57391100  0.73461200  0.87116100  1
  O  O98  1  0.25000000  0.04479000  0.34314800  1
  O  O99  1  0.95484100  0.61917200  0.59728200  1
  O  O100  1  0.93720200  0.06935300  0.56753500  1
  O  O101  1  0.93266800  0.37881500  0.54842500  1
  O  O102  1  0.56814700  0.06413600  0.33766100  1
  O  O103  1  0.25000000  0.10339200  0.07770200  1
  O  O104  1  0.06814700  0.56413600  0.16233900  1
  O  O105  1  0.56869200  0.39962400  0.21814600  1
  O  O106  1  0.03514500  0.42421100  0.68606200  1
  O  O107  1  0.02624700  0.21086200  0.47615100  1
  O  O108  1  0.25000000  0.09922800  0.54793500  1
  O  O109  1  0.93185300  0.06413600  0.33766100  1
  O  O110  1  0.96485500  0.92421100  0.81393800  1
  O  O111  1  0.06869200  0.89962400  0.28185400  1
  O  O112  1  0.45484100  0.11917200  0.90271800  1
  O  O113  1  0.95484100  0.88082800  0.09728200  1
  O  O114  1  0.56279800  0.06935300  0.56753500  1
  O  O115  1  0.75000000  0.30503100  0.43179700  1
  O  O116  1  0.43185300  0.93586400  0.66233900  1
  O  O117  1  0.06814700  0.93586400  0.66233900  1
  O  O118  1  0.97601800  0.73039300  0.22191300  1
  O  O119  1  0.02624700  0.28913800  0.97615100  1
  O  O120  1  0.93185300  0.43586400  0.83766100  1
  O  O121  1  0.25000000  0.63952000  0.27608700  1
  O  O122  1  0.75000000  0.13952000  0.22391300  1
  O  O123  1  0.93130800  0.39962400  0.21814600  1
  O  O124  1  0.54515900  0.61917200  0.59728200  1
  O  O125  1  0.25000000  0.69496900  0.56820300  1
  O  O126  1  0.56814700  0.43586400  0.83766100  1
  O  O127  1  0.96485500  0.57578900  0.31393800  1
  O  O128  1  0.75000000  0.54479000  0.15685200  1
  O  O129  1  0.25000000  0.14052900  0.74562600  1
  O  O130  1  0.75000000  0.60339200  0.42229800  1
  O  O131  1  0.53514500  0.92421100  0.81393800  1
  O  O132  1  0.46485500  0.42421100  0.68606200  1
  O  O133  1  0.43720200  0.93064700  0.43246500  1
  O  O134  1  0.25000000  0.40077200  0.04793500  1
  O  O135  1  0.56869200  0.10037600  0.71814600  1
  O  O136  1  0.02398200  0.23039300  0.27808700  1
  O  O137  1  0.47601800  0.23039300  0.27808700  1
  O  O138  1  0.92608900  0.73461200  0.87116100  1
  O  O139  1  0.75000000  0.85947100  0.25437400  1
  O  O140  1  0.43720200  0.56935300  0.93246500  1
  O  O141  1  0.56733200  0.37881500  0.54842500  1
  O  O142  1  0.25000000  0.80503100  0.06820300  1
  O  O143  1  0.43185300  0.56413600  0.16233900  1
  O  O144  1  0.43266800  0.87881500  0.95157500  1
  O  O145  1  0.52624700  0.71086200  0.02384900  1
  O  O146  1  0.57391100  0.76538800  0.37116100  1
  O  O147  1  0.75000000  0.19496900  0.93179700  1
  O  O148  1  0.75000000  0.59922800  0.95206500  1
  O  O149  1  0.54515900  0.88082800  0.09728200  1
  O  O150  1  0.07391100  0.26538800  0.12883900  1
  O  O151  1  0.06733200  0.87881500  0.95157500  1
  O  O152  1  0.75000000  0.95521000  0.65685200  1
  O  O153  1  0.93720200  0.43064700  0.06753500  1
  O  O154  1  0.25000000  0.35947100  0.24562600  1
  O  O155  1  0.75000000  0.89660800  0.92229800  1
  O  O156  1  0.46485500  0.07578900  0.18606200  1
  O  O157  1  0.97375300  0.78913800  0.52384900  1
  O  O158  1  0.25000000  0.86048000  0.77608700  1
  O  O159  1  0.43130800  0.89962400  0.28185400  1
