# generated using pymatgen
data_TlFe(MoO4)2
_symmetry_space_group_name_H-M   'P 1'
_cell_length_a   5.78875400
_cell_length_b   8.95242300
_cell_length_c   15.12194800
_cell_angle_alpha   90.00000000
_cell_angle_beta   90.00000000
_cell_angle_gamma   90.00000000
_symmetry_Int_Tables_number   1
_chemical_formula_structural   TlFe(MoO4)2
_chemical_formula_sum   'Tl4 Fe4 Mo8 O32'
_cell_volume   783.67037363
_cell_formula_units_Z   4
loop_
 _symmetry_equiv_pos_site_id
 _symmetry_equiv_pos_as_xyz
  1  'x, y, z'
loop_
 _atom_site_type_symbol
 _atom_site_label
 _atom_site_symmetry_multiplicity
 _atom_site_fract_x
 _atom_site_fract_y
 _atom_site_fract_z
 _atom_site_occupancy
  Tl  Tl0  1  0.75000000  0.43785200  0.87921400  1
  Tl  Tl1  1  0.25000000  0.56214800  0.12078600  1
  Tl  Tl2  1  0.75000000  0.06214800  0.37921400  1
  Tl  Tl3  1  0.25000000  0.93785200  0.62078600  1
  Fe  Fe4  1  0.25000000  0.68989400  0.38159900  1
  Fe  Fe5  1  0.25000000  0.81010600  0.88159900  1
  Fe  Fe6  1  0.75000000  0.31010600  0.61840100  1
  Fe  Fe7  1  0.75000000  0.18989400  0.11840100  1
  Mo  Mo8  1  0.25000000  0.99757500  0.21757500  1
  Mo  Mo9  1  0.25000000  0.29609200  0.46827200  1
  Mo  Mo10  1  0.25000000  0.50242500  0.71757500  1
  Mo  Mo11  1  0.75000000  0.79609200  0.03172800  1
  Mo  Mo12  1  0.25000000  0.20390800  0.96827200  1
  Mo  Mo13  1  0.75000000  0.70390800  0.53172800  1
  Mo  Mo14  1  0.75000000  0.00242500  0.78242500  1
  Mo  Mo15  1  0.75000000  0.49757500  0.28242500  1
  O  O16  1  0.75000000  0.50808300  0.55271900  1
  O  O17  1  0.50101800  0.26314400  0.03458100  1
  O  O18  1  0.00101800  0.73685600  0.96541900  1
  O  O19  1  0.75000000  0.38672500  0.17922300  1
  O  O20  1  0.98998500  0.39416200  0.70362700  1
  O  O21  1  0.25000000  0.00808300  0.94728100  1
  O  O22  1  0.98998500  0.10583800  0.20362700  1
  O  O23  1  0.75000000  0.11327500  0.67922300  1
  O  O24  1  0.51001500  0.39416200  0.70362700  1
  O  O25  1  0.48998500  0.89416200  0.79637300  1
  O  O26  1  0.25000000  0.88672500  0.32077700  1
  O  O27  1  0.75000000  0.13600800  0.86739800  1
  O  O28  1  0.99898200  0.23685600  0.53458100  1
  O  O29  1  0.75000000  0.36399200  0.36739800  1
  O  O30  1  0.25000000  0.61327500  0.82077700  1
  O  O31  1  0.51001500  0.10583800  0.20362700  1
  O  O32  1  0.75000000  0.99191700  0.05271900  1
  O  O33  1  0.49898200  0.76314400  0.46541900  1
  O  O34  1  0.00101800  0.76314400  0.46541900  1
  O  O35  1  0.25000000  0.49191700  0.44728100  1
  O  O36  1  0.49898200  0.73685600  0.96541900  1
  O  O37  1  0.25000000  0.86399200  0.13260200  1
  O  O38  1  0.48998500  0.60583800  0.29637300  1
  O  O39  1  0.25000000  0.19691500  0.36827100  1
  O  O40  1  0.50101800  0.23685600  0.53458100  1
  O  O41  1  0.99898200  0.26314400  0.03458100  1
  O  O42  1  0.75000000  0.80308500  0.63172900  1
  O  O43  1  0.25000000  0.30308500  0.86827100  1
  O  O44  1  0.01001500  0.60583800  0.29637300  1
  O  O45  1  0.75000000  0.69691500  0.13172900  1
  O  O46  1  0.25000000  0.63600800  0.63260200  1
  O  O47  1  0.01001500  0.89416200  0.79637300  1
