# generated using pymatgen
data_MgPS3
_symmetry_space_group_name_H-M   'P 1'
_cell_length_a   6.10743467
_cell_length_b   6.10743467
_cell_length_c   7.25098599
_cell_angle_alpha   81.96824430
_cell_angle_beta   81.96824430
_cell_angle_gamma   119.98692099
_symmetry_Int_Tables_number   1
_chemical_formula_structural   MgPS3
_chemical_formula_sum   'Mg2 P2 S6'
_cell_volume   224.93362301
_cell_formula_units_Z   2
loop_
 _symmetry_equiv_pos_site_id
 _symmetry_equiv_pos_as_xyz
  1  'x, y, z'
loop_
 _atom_site_type_symbol
 _atom_site_label
 _atom_site_symmetry_multiplicity
 _atom_site_fract_x
 _atom_site_fract_y
 _atom_site_fract_z
 _atom_site_occupancy
  Mg  Mg0  1  0.66699000  0.33301000  0.00000000  1
  Mg  Mg1  1  0.33301000  0.66699000  0.00000000  1
  P  P2  1  0.05289100  0.05289100  0.84133000  1
  P  P3  1  0.94710900  0.94710900  0.15867000  1
  S  S4  1  0.75495900  0.75495900  0.76462000  1
  S  S5  1  0.24504100  0.24504100  0.23538000  1
  S  S6  1  0.07826100  0.40136200  0.76431400  1
  S  S7  1  0.40136200  0.07826100  0.76431400  1
  S  S8  1  0.92173900  0.59863800  0.23568600  1
  S  S9  1  0.59863800  0.92173900  0.23568600  1
