# generated using pymatgen
data_Na7In4P9O32
_symmetry_space_group_name_H-M   'P 1'
_cell_length_a   14.49174800
_cell_length_b   14.49174800
_cell_length_c   6.70941300
_cell_angle_alpha   90.00000000
_cell_angle_beta   90.00000000
_cell_angle_gamma   90.00000000
_symmetry_Int_Tables_number   1
_chemical_formula_structural   Na7In4P9O32
_chemical_formula_sum   'Na14 In8 P18 O64'
_cell_volume   1409.04892392
_cell_formula_units_Z   2
loop_
 _symmetry_equiv_pos_site_id
 _symmetry_equiv_pos_as_xyz
  1  'x, y, z'
loop_
 _atom_site_type_symbol
 _atom_site_label
 _atom_site_symmetry_multiplicity
 _atom_site_fract_x
 _atom_site_fract_y
 _atom_site_fract_z
 _atom_site_occupancy
  Na  Na0  1  0.59084400  0.24099300  0.63584600  1
  Na  Na1  1  0.40915600  0.75900700  0.63584600  1
  Na  Na2  1  0.24099300  0.40915600  0.36415400  1
  Na  Na3  1  0.75900700  0.59084400  0.36415400  1
  Na  Na4  1  0.74099300  0.09084400  0.13584600  1
  Na  Na5  1  0.90915600  0.74099300  0.86415400  1
  Na  Na6  1  0.09084400  0.25900700  0.86415400  1
  Na  Na7  1  0.25900700  0.90915600  0.13584600  1
  Na  Na8  1  0.00000000  0.50000000  0.13356400  1
  Na  Na9  1  0.50000000  0.00000000  0.86643600  1
  Na  Na10  1  0.50000000  0.00000000  0.36643600  1
  Na  Na11  1  0.00000000  0.50000000  0.63356400  1
  Na  Na12  1  0.00000000  0.00000000  0.00000000  1
  Na  Na13  1  0.50000000  0.50000000  0.50000000  1
  In  In14  1  0.87949800  0.19586500  0.61176700  1
  In  In15  1  0.12050200  0.80413500  0.61176700  1
  In  In16  1  0.19586500  0.12050200  0.38823300  1
  In  In17  1  0.80413500  0.87949800  0.38823300  1
  In  In18  1  0.69586500  0.37949800  0.11176700  1
  In  In19  1  0.62050200  0.69586500  0.88823300  1
  In  In20  1  0.37949800  0.30413500  0.88823300  1
  In  In21  1  0.30413500  0.62050200  0.11176700  1
  P  P22  1  0.74843500  0.39520600  0.62646100  1
  P  P23  1  0.25156500  0.60479400  0.62646100  1
  P  P24  1  0.39520600  0.25156500  0.37353900  1
  P  P25  1  0.60479400  0.74843500  0.37353900  1
  P  P26  1  0.89520600  0.24843500  0.12646100  1
  P  P27  1  0.75156500  0.89520600  0.87353900  1
  P  P28  1  0.24843500  0.10479400  0.87353900  1
  P  P29  1  0.10479400  0.75156500  0.12646100  1
  P  P30  1  0.80451800  0.55961800  0.87870100  1
  P  P31  1  0.19548200  0.44038200  0.87870100  1
  P  P32  1  0.55961800  0.19548200  0.12129900  1
  P  P33  1  0.44038200  0.80451800  0.12129900  1
  P  P34  1  0.05961800  0.30451800  0.37870100  1
  P  P35  1  0.69548200  0.05961800  0.62129900  1
  P  P36  1  0.30451800  0.94038200  0.62129900  1
  P  P37  1  0.94038200  0.69548200  0.37870100  1
  P  P38  1  0.00000000  0.00000000  0.50000000  1
  P  P39  1  0.50000000  0.50000000  0.00000000  1
  O  O40  1  0.83846900  0.34172700  0.60957400  1
  O  O41  1  0.16153100  0.65827300  0.60957400  1
  O  O42  1  0.34172700  0.16153100  0.39042600  1
  O  O43  1  0.65827300  0.83846900  0.39042600  1
  O  O44  1  0.84172700  0.33846900  0.10957400  1
  O  O45  1  0.66153100  0.84172700  0.89042600  1
  O  O46  1  0.33846900  0.15827300  0.89042600  1
  O  O47  1  0.15827300  0.66153100  0.10957400  1
  O  O48  1  0.69463600  0.40780100  0.43174400  1
  O  O49  1  0.30536400  0.59219900  0.43174400  1
  O  O50  1  0.40780100  0.30536400  0.56825600  1
  O  O51  1  0.59219900  0.69463600  0.56825600  1
  O  O52  1  0.90780100  0.19463600  0.93174400  1
  O  O53  1  0.80536400  0.90780100  0.06825600  1
  O  O54  1  0.19463600  0.09219900  0.06825600  1
  O  O55  1  0.09219900  0.80536400  0.93174400  1
  O  O56  1  0.68283800  0.36060000  0.78982900  1
  O  O57  1  0.31716200  0.63940000  0.78982900  1
  O  O58  1  0.36060000  0.31716200  0.21017100  1
  O  O59  1  0.63940000  0.68283800  0.21017100  1
  O  O60  1  0.86060000  0.18283800  0.28982900  1
  O  O61  1  0.81716200  0.86060000  0.71017100  1
  O  O62  1  0.18283800  0.13940000  0.71017100  1
  O  O63  1  0.13940000  0.81716200  0.28982900  1
  O  O64  1  0.77659500  0.50178100  0.67774200  1
  O  O65  1  0.76251100  0.65593500  0.83874600  1
  O  O66  1  0.22340500  0.49821900  0.67774200  1
  O  O67  1  0.49821900  0.77659500  0.32225800  1
  O  O68  1  0.00178100  0.27659500  0.17774200  1
  O  O69  1  0.72340500  0.00178100  0.82225800  1
  O  O70  1  0.27659500  0.99821900  0.82225800  1
  O  O71  1  0.99821900  0.72340500  0.17774200  1
  O  O72  1  0.75979600  0.51334000  0.05969700  1
  O  O73  1  0.24020400  0.48666000  0.05969700  1
  O  O74  1  0.51334000  0.24020400  0.94030300  1
  O  O75  1  0.48666000  0.75979600  0.94030300  1
  O  O76  1  0.01334000  0.25979600  0.55969700  1
  O  O77  1  0.74020400  0.01334000  0.44030300  1
  O  O78  1  0.25979600  0.98666000  0.44030300  1
  O  O79  1  0.98666000  0.74020400  0.55969700  1
  O  O80  1  0.43786700  0.55767700  0.14296900  1
  O  O81  1  0.44232300  0.43786700  0.85703100  1
  O  O82  1  0.55767700  0.56213300  0.85703100  1
  O  O83  1  0.56213300  0.44232300  0.14296900  1
  O  O84  1  0.93786700  0.94232300  0.35703100  1
  O  O85  1  0.06213300  0.05767700  0.35703100  1
  O  O86  1  0.05767700  0.93786700  0.64296900  1
  O  O87  1  0.94232300  0.06213300  0.64296900  1
  O  O88  1  0.93397600  0.59129800  0.38501400  1
  O  O89  1  0.40870200  0.93397600  0.61498600  1
  O  O90  1  0.59129800  0.06602400  0.61498600  1
  O  O91  1  0.06602400  0.40870200  0.38501400  1
  O  O92  1  0.43397600  0.90870200  0.11498600  1
  O  O93  1  0.56602400  0.09129800  0.11498600  1
  O  O94  1  0.09129800  0.43397600  0.88501400  1
  O  O95  1  0.90870200  0.56602400  0.88501400  1
  O  O96  1  0.84406500  0.73748900  0.33874600  1
  O  O97  1  0.26251100  0.84406500  0.66125400  1
  O  O98  1  0.73748900  0.15593500  0.66125400  1
  O  O99  1  0.15593500  0.26251100  0.33874600  1
  O  O100  1  0.34406500  0.76251100  0.16125400  1
  O  O101  1  0.65593500  0.23748900  0.16125400  1
  O  O102  1  0.23748900  0.34406500  0.83874600  1
  O  O103  1  0.50178100  0.22340500  0.32225800  1
