# generated using pymatgen
data_Sr19In8N7
_symmetry_space_group_name_H-M   'P 1'
_cell_length_a   11.14832754
_cell_length_b   11.14832754
_cell_length_c   11.14832754
_cell_angle_alpha   60.00000000
_cell_angle_beta   60.00000000
_cell_angle_gamma   60.00000000
_symmetry_Int_Tables_number   1
_chemical_formula_structural   Sr19In8N7
_chemical_formula_sum   'Sr19 In8 N7'
_cell_volume   979.74749424
_cell_formula_units_Z   1
loop_
 _symmetry_equiv_pos_site_id
 _symmetry_equiv_pos_as_xyz
  1  'x, y, z'
loop_
 _atom_site_type_symbol
 _atom_site_label
 _atom_site_symmetry_multiplicity
 _atom_site_fract_x
 _atom_site_fract_y
 _atom_site_fract_z
 _atom_site_occupancy
  Sr  Sr0  1  0.16689900  0.83310100  0.16689900  1
  Sr  Sr1  1  0.82954800  0.50000000  0.17045200  1
  Sr  Sr2  1  0.82954800  0.50000000  0.50000000  1
  Sr  Sr3  1  0.83310100  0.16689900  0.16689900  1
  Sr  Sr4  1  0.82954800  0.17045200  0.50000000  1
  Sr  Sr5  1  0.83310100  0.16689900  0.83310100  1
  Sr  Sr6  1  0.17045200  0.50000000  0.82954800  1
  Sr  Sr7  1  0.50000000  0.50000000  0.82954800  1
  Sr  Sr8  1  0.16689900  0.16689900  0.83310100  1
  Sr  Sr9  1  0.50000000  0.50000000  0.17045200  1
  Sr  Sr10  1  0.50000000  0.17045200  0.50000000  1
  Sr  Sr11  1  0.50000000  0.82954800  0.50000000  1
  Sr  Sr12  1  0.17045200  0.82954800  0.50000000  1
  Sr  Sr13  1  0.17045200  0.50000000  0.50000000  1
  Sr  Sr14  1  0.50000000  0.50000000  0.50000000  1
  Sr  Sr15  1  0.16689900  0.83310100  0.83310100  1
  Sr  Sr16  1  0.50000000  0.17045200  0.82954800  1
  Sr  Sr17  1  0.50000000  0.82954800  0.17045200  1
  Sr  Sr18  1  0.83310100  0.83310100  0.16689900  1
  In  In19  1  0.17827100  0.17827100  0.46518600  1
  In  In20  1  0.82172900  0.82172900  0.53481400  1
  In  In21  1  0.82172900  0.53481400  0.82172900  1
  In  In22  1  0.17827100  0.46518600  0.17827100  1
  In  In23  1  0.17827100  0.17827100  0.17827100  1
  In  In24  1  0.46518600  0.17827100  0.17827100  1
  In  In25  1  0.82172900  0.82172900  0.82172900  1
  In  In26  1  0.53481400  0.82172900  0.82172900  1
  N  N27  1  0.32626900  0.32626900  0.67373100  1
  N  N28  1  0.67373100  0.67373100  0.32626900  1
  N  N29  1  0.67373100  0.32626900  0.67373100  1
  N  N30  1  0.32626900  0.67373100  0.32626900  1
  N  N31  1  0.67373100  0.32626900  0.32626900  1
  N  N32  1  0.32626900  0.67373100  0.67373100  1
  N  N33  1  0.00000000  0.00000000  0.00000000  1
