# generated using pymatgen
data_BH4O2F3
_symmetry_space_group_name_H-M   'P 1'
_cell_length_a   7.43387000
_cell_length_b   5.64356300
_cell_length_c   8.77295044
_cell_angle_alpha   89.94928710
_cell_angle_beta   90.00000000
_cell_angle_gamma   90.00000000
_symmetry_Int_Tables_number   1
_chemical_formula_structural   BH4O2F3
_chemical_formula_sum   'B4 H16 O8 F12'
_cell_volume   368.05595197
_cell_formula_units_Z   4
loop_
 _symmetry_equiv_pos_site_id
 _symmetry_equiv_pos_as_xyz
  1  'x, y, z'
loop_
 _atom_site_type_symbol
 _atom_site_label
 _atom_site_symmetry_multiplicity
 _atom_site_fract_x
 _atom_site_fract_y
 _atom_site_fract_z
 _atom_site_occupancy
  B  B0  1  0.69187600  0.74636300  0.92016100  1
  B  B1  1  0.19187600  0.25363700  0.57983900  1
  B  B2  1  0.30812400  0.25363700  0.07983900  1
  B  B3  1  0.80812400  0.74636300  0.42016100  1
  H  H4  1  0.78683400  0.40264900  0.00638900  1
  H  H5  1  0.28683400  0.59735100  0.49361100  1
  H  H6  1  0.21316600  0.59735100  0.99361100  1
  H  H7  1  0.71316600  0.40264900  0.50638900  1
  H  H8  1  0.74478500  0.40059900  0.81647400  1
  H  H9  1  0.24478500  0.59940100  0.68352600  1
  H  H10  1  0.25521500  0.59940100  0.18352600  1
  H  H11  1  0.75521500  0.40059900  0.31647400  1
  H  H12  1  0.72508800  0.11591300  0.16252700  1
  H  H13  1  0.22508800  0.88408700  0.33747300  1
  H  H14  1  0.27491200  0.88408700  0.83747300  1
  H  H15  1  0.77491200  0.11591300  0.66252700  1
  H  H16  1  0.93106500  0.17789200  0.17082300  1
  H  H17  1  0.43106500  0.82210800  0.32917700  1
  H  H18  1  0.06893500  0.82210800  0.82917700  1
  H  H19  1  0.56893500  0.17789200  0.67082300  1
  O  O20  1  0.77681600  0.50022800  0.90907000  1
  O  O21  1  0.27681600  0.49977200  0.59093000  1
  O  O22  1  0.22318400  0.49977200  0.09093000  1
  O  O23  1  0.72318400  0.50022800  0.40907000  1
  O  O24  1  0.81032800  0.24965600  0.16563300  1
  O  O25  1  0.31032800  0.75034400  0.33436700  1
  O  O26  1  0.18967200  0.75034400  0.83436700  1
  O  O27  1  0.68967200  0.24965600  0.66563300  1
  F  F28  1  0.56369900  0.76784700  0.80465800  1
  F  F29  1  0.06369900  0.23215300  0.69534200  1
  F  F30  1  0.43630100  0.23215300  0.19534200  1
  F  F31  1  0.93630100  0.76784700  0.30465800  1
  F  F32  1  0.61619900  0.77170400  0.06512500  1
  F  F33  1  0.11619900  0.22829600  0.43487500  1
  F  F34  1  0.38380100  0.22829600  0.93487500  1
  F  F35  1  0.88380100  0.77170400  0.56512500  1
  F  F36  1  0.83191600  0.91357800  0.89924400  1
  F  F37  1  0.33191600  0.08642200  0.60075600  1
  F  F38  1  0.16808400  0.08642200  0.10075600  1
  F  F39  1  0.66808400  0.91357800  0.39924400  1
