# generated using pymatgen
data_Ba6In5N
_symmetry_space_group_name_H-M   'P 1'
_cell_length_a   15.68126387
_cell_length_b   15.68126387
_cell_length_c   15.68126355
_cell_angle_alpha   30.77187744
_cell_angle_beta   30.77187744
_cell_angle_gamma   30.77187611
_symmetry_Int_Tables_number   1
_chemical_formula_structural   Ba6In5N
_chemical_formula_sum   'Ba12 In10 N2'
_cell_volume   895.09674749
_cell_formula_units_Z   2
loop_
 _symmetry_equiv_pos_site_id
 _symmetry_equiv_pos_as_xyz
  1  'x, y, z'
loop_
 _atom_site_type_symbol
 _atom_site_label
 _atom_site_symmetry_multiplicity
 _atom_site_fract_x
 _atom_site_fract_y
 _atom_site_fract_z
 _atom_site_occupancy
  Ba  Ba0  1  0.63437000  0.21861400  0.75184500  1
  Ba  Ba1  1  0.28138600  0.86563000  0.74815500  1
  Ba  Ba2  1  0.86563000  0.74815500  0.28138600  1
  Ba  Ba3  1  0.71861400  0.13437000  0.25184500  1
  Ba  Ba4  1  0.13437000  0.25184500  0.71861400  1
  Ba  Ba5  1  0.25184500  0.71861400  0.13437000  1
  Ba  Ba6  1  0.78138600  0.24815500  0.36563000  1
  Ba  Ba7  1  0.75184500  0.63437000  0.21861400  1
  Ba  Ba8  1  0.36563000  0.78138600  0.24815500  1
  Ba  Ba9  1  0.21861400  0.75184500  0.63437000  1
  Ba  Ba10  1  0.24815500  0.36563000  0.78138600  1
  Ba  Ba11  1  0.74815500  0.28138600  0.86563000  1
  In  In12  1  0.53368100  0.96631900  0.75000000  1
  In  In13  1  0.19327200  0.19327200  0.19327200  1
  In  In14  1  0.80672800  0.80672800  0.80672800  1
  In  In15  1  0.75000000  0.53368100  0.96631900  1
  In  In16  1  0.96631900  0.75000000  0.53368100  1
  In  In17  1  0.69327200  0.69327200  0.69327200  1
  In  In18  1  0.46631900  0.03368100  0.25000000  1
  In  In19  1  0.03368100  0.25000000  0.46631900  1
  In  In20  1  0.25000000  0.46631900  0.03368100  1
  In  In21  1  0.30672800  0.30672800  0.30672800  1
  N  N22  1  0.00000000  0.00000000  0.00000000  1
  N  N23  1  0.50000000  0.50000000  0.50000000  1
