# generated using pymatgen
data_SiI4
_symmetry_space_group_name_H-M   'P 1'
_cell_length_a   13.02125900
_cell_length_b   13.02125900
_cell_length_c   13.02125900
_cell_angle_alpha   90.00000000
_cell_angle_beta   90.00000000
_cell_angle_gamma   90.00000000
_symmetry_Int_Tables_number   1
_chemical_formula_structural   SiI4
_chemical_formula_sum   'Si8 I32'
_cell_volume   2207.79594847
_cell_formula_units_Z   8
loop_
 _symmetry_equiv_pos_site_id
 _symmetry_equiv_pos_as_xyz
  1  'x, y, z'
loop_
 _atom_site_type_symbol
 _atom_site_label
 _atom_site_symmetry_multiplicity
 _atom_site_fract_x
 _atom_site_fract_y
 _atom_site_fract_z
 _atom_site_occupancy
  Si  Si0  1  0.37218900  0.62781100  0.12781100  1
  Si  Si1  1  0.12781100  0.12781100  0.12781100  1
  Si  Si2  1  0.87218900  0.62781100  0.37218900  1
  Si  Si3  1  0.12781100  0.37218900  0.62781100  1
  Si  Si4  1  0.62781100  0.12781100  0.37218900  1
  Si  Si5  1  0.37218900  0.87218900  0.62781100  1
  Si  Si6  1  0.87218900  0.87218900  0.87218900  1
  Si  Si7  1  0.62781100  0.37218900  0.87218900  1
  I  I8  1  0.98449300  0.73747500  0.47669600  1
  I  I9  1  0.02330400  0.48449300  0.73747500  1
  I  I10  1  0.73652000  0.23652000  0.26348000  1
  I  I11  1  0.76252500  0.52330400  0.48449300  1
  I  I12  1  0.26252500  0.52330400  0.01550700  1
  I  I13  1  0.01550700  0.26252500  0.52330400  1
  I  I14  1  0.47669600  0.98449300  0.73747500  1
  I  I15  1  0.23652000  0.26348000  0.73652000  1
  I  I16  1  0.76252500  0.97669600  0.98449300  1
  I  I17  1  0.73747500  0.02330400  0.48449300  1
  I  I18  1  0.26348000  0.76348000  0.73652000  1
  I  I19  1  0.23747500  0.47669600  0.51550700  1
  I  I20  1  0.52330400  0.48449300  0.76252500  1
  I  I21  1  0.47669600  0.51550700  0.23747500  1
  I  I22  1  0.23652000  0.23652000  0.23652000  1
  I  I23  1  0.98449300  0.76252500  0.97669600  1
  I  I24  1  0.26252500  0.97669600  0.51550700  1
  I  I25  1  0.73652000  0.26348000  0.76348000  1
  I  I26  1  0.51550700  0.23747500  0.47669600  1
  I  I27  1  0.01550700  0.23747500  0.02330400  1
  I  I28  1  0.23747500  0.02330400  0.01550700  1
  I  I29  1  0.26348000  0.73652000  0.23652000  1
  I  I30  1  0.51550700  0.26252500  0.97669600  1
  I  I31  1  0.73747500  0.47669600  0.98449300  1
  I  I32  1  0.97669600  0.98449300  0.76252500  1
  I  I33  1  0.48449300  0.76252500  0.52330400  1
  I  I34  1  0.76348000  0.73652000  0.26348000  1
  I  I35  1  0.52330400  0.01550700  0.26252500  1
  I  I36  1  0.76348000  0.76348000  0.76348000  1
  I  I37  1  0.02330400  0.01550700  0.23747500  1
  I  I38  1  0.97669600  0.51550700  0.26252500  1
  I  I39  1  0.48449300  0.73747500  0.02330400  1
