# generated using pymatgen
data_Y5Bi3
_symmetry_space_group_name_H-M   'P 1'
_cell_length_a   8.28359600
_cell_length_b   9.52144200
_cell_length_c   12.12373200
_cell_angle_alpha   90.00000000
_cell_angle_beta   90.00000000
_cell_angle_gamma   90.00000000
_symmetry_Int_Tables_number   1
_chemical_formula_structural   Y5Bi3
_chemical_formula_sum   'Y20 Bi12'
_cell_volume   956.22030933
_cell_formula_units_Z   4
loop_
 _symmetry_equiv_pos_site_id
 _symmetry_equiv_pos_as_xyz
  1  'x, y, z'
loop_
 _atom_site_type_symbol
 _atom_site_label
 _atom_site_symmetry_multiplicity
 _atom_site_fract_x
 _atom_site_fract_y
 _atom_site_fract_z
 _atom_site_occupancy
  Y  Y0  1  0.02663400  0.75000000  0.98912600  1
  Y  Y1  1  0.52663400  0.75000000  0.51087400  1
  Y  Y2  1  0.97336600  0.25000000  0.01087400  1
  Y  Y3  1  0.47336600  0.25000000  0.48912600  1
  Y  Y4  1  0.18607500  0.75000000  0.71898800  1
  Y  Y5  1  0.68607500  0.75000000  0.78101200  1
  Y  Y6  1  0.81392500  0.25000000  0.28101200  1
  Y  Y7  1  0.31392500  0.25000000  0.21898800  1
  Y  Y8  1  0.30628000  0.43718100  0.93978400  1
  Y  Y9  1  0.80628000  0.06281900  0.56021600  1
  Y  Y10  1  0.69372000  0.93718100  0.06021600  1
  Y  Y11  1  0.19372000  0.56281900  0.43978400  1
  Y  Y12  1  0.69372000  0.56281900  0.06021600  1
  Y  Y13  1  0.19372000  0.93718100  0.43978400  1
  Y  Y14  1  0.30628000  0.06281900  0.93978400  1
  Y  Y15  1  0.80628000  0.43718100  0.56021600  1
  Y  Y16  1  0.35392000  0.75000000  0.21502700  1
  Y  Y17  1  0.85392000  0.75000000  0.28497300  1
  Y  Y18  1  0.64608000  0.25000000  0.78497300  1
  Y  Y19  1  0.14608000  0.25000000  0.71502700  1
  Bi  Bi20  1  0.43378500  0.00362900  0.67397500  1
  Bi  Bi21  1  0.93378500  0.49637100  0.82602500  1
  Bi  Bi22  1  0.56621500  0.50362900  0.32602500  1
  Bi  Bi23  1  0.06621500  0.99637100  0.17397500  1
  Bi  Bi24  1  0.56621500  0.99637100  0.32602500  1
  Bi  Bi25  1  0.06621500  0.50362900  0.17397500  1
  Bi  Bi26  1  0.43378500  0.49637100  0.67397500  1
  Bi  Bi27  1  0.93378500  0.00362900  0.82602500  1
  Bi  Bi28  1  0.41022800  0.75000000  0.95809800  1
  Bi  Bi29  1  0.91022800  0.75000000  0.54190200  1
  Bi  Bi30  1  0.58977200  0.25000000  0.04190200  1
  Bi  Bi31  1  0.08977200  0.25000000  0.45809800  1
