# generated using pymatgen
data_Pr27Se40
_symmetry_space_group_name_H-M   'P 1'
_cell_length_a   7.80314800
_cell_length_b   12.74825460
_cell_length_c   19.64546630
_cell_angle_alpha   108.92935955
_cell_angle_beta   97.65621861
_cell_angle_gamma   89.84674970
_symmetry_Int_Tables_number   1
_chemical_formula_structural   Pr27Se40
_chemical_formula_sum   'Pr27 Se40'
_cell_volume   1830.38087007
_cell_formula_units_Z   1
loop_
 _symmetry_equiv_pos_site_id
 _symmetry_equiv_pos_as_xyz
  1  'x, y, z'
loop_
 _atom_site_type_symbol
 _atom_site_label
 _atom_site_symmetry_multiplicity
 _atom_site_fract_x
 _atom_site_fract_y
 _atom_site_fract_z
 _atom_site_occupancy
  Pr  Pr0  1  0.65258900  0.47435200  0.19921800  1
  Pr  Pr1  1  0.92248500  0.32443200  0.02337800  1
  Pr  Pr2  1  0.05152100  0.06921300  0.39563400  1
  Pr  Pr3  1  0.15428200  0.21844300  0.20023100  1
  Pr  Pr4  1  0.27755200  0.60388500  0.07343100  1
  Pr  Pr5  1  0.42645200  0.20372500  0.02261400  1
  Pr  Pr6  1  0.54551500  0.82528000  0.39614200  1
  Pr  Pr7  1  0.85034800  0.28041500  0.80318900  1
  Pr  Pr8  1  0.71652400  0.53032000  0.43029800  1
  Pr  Pr9  1  0.66387300  0.19234400  0.27462400  1
  Pr  Pr10  1  0.82605600  0.80555600  0.22470000  1
  Pr  Pr11  1  0.77360300  0.97221100  0.07489100  1
  Pr  Pr12  1  0.94982700  0.42571500  0.60243600  1
  Pr  Pr13  1  0.25438100  0.87683200  0.00628400  1
  Pr  Pr14  1  0.12738000  0.12565100  0.62676800  1
  Pr  Pr15  1  0.07878500  0.79852200  0.47784000  1
  Pr  Pr16  1  0.23220500  0.40655000  0.42915100  1
  Pr  Pr17  1  0.17706900  0.57642600  0.27456200  1
  Pr  Pr18  1  0.35061000  0.03152600  0.80065100  1
  Pr  Pr19  1  0.52306300  0.72206400  0.81990900  1
  Pr  Pr20  1  0.47166500  0.40474600  0.67764400  1
  Pr  Pr21  1  0.57801300  0.17790400  0.47458600  1
  Pr  Pr22  1  0.62027300  0.99255200  0.62453000  1
  Pr  Pr23  1  0.74088100  0.62138800  0.99567900  1
  Pr  Pr24  1  0.87869600  0.00142100  0.87600200  1
  Pr  Pr25  1  0.97445000  0.77040100  0.67176200  1
  Pr  Pr26  1  0.03029600  0.59169500  0.82397700  1
  Se  Se27  1  0.56318000  0.43870800  0.03354600  1
  Se  Se28  1  0.76275700  0.23969900  0.12965400  1
  Se  Se29  1  0.93218000  0.57278700  0.14169200  1
  Se  Se30  1  0.95103100  0.04301500  0.22961100  1
  Se  Se31  1  0.05816600  0.08975000  0.03177900  1
  Se  Se32  1  0.32748400  0.17761000  0.34353500  1
  Se  Se33  1  0.25639200  0.38753900  0.13013100  1
  Se  Se34  1  0.35819800  0.63965200  0.42651700  1
  Se  Se35  1  0.43352700  0.07035000  0.13608000  1
  Se  Se36  1  0.46308800  0.68344800  0.22828100  1
  Se  Se37  1  0.55553000  0.79654000  0.09830100  1
  Se  Se38  1  0.75585400  0.23888100  0.62919700  1
  Se  Se39  1  0.73256000  0.76996200  0.53560500  1
  Se  Se40  1  0.66451100  0.99338200  0.33243300  1
  Se  Se41  1  0.82887700  0.66943100  0.34067300  1
  Se  Se42  1  0.95618900  0.04278800  0.73021500  1
  Se  Se43  1  0.86439200  0.28808300  0.42858800  1
  Se  Se44  1  0.95367500  0.39947600  0.30007900  1
  Se  Se45  1  0.12807800  0.36442800  0.73644800  1
  Se  Se46  1  0.04994500  0.58663300  0.52858400  1
  Se  Se47  1  0.16221100  0.84131100  0.82848500  1
  Se  Se48  1  0.04083500  0.79825100  0.09892500  1
  Se  Se49  1  0.22945100  0.26923700  0.54001700  1
  Se  Se50  1  0.15930800  0.83575500  0.33178700  1
  Se  Se51  1  0.35930700  0.64852500  0.93050300  1
  Se  Se52  1  0.25894400  0.89527800  0.63222500  1
  Se  Se53  1  0.35244900  0.00083800  0.49979300  1
  Se  Se54  1  0.52767800  0.97053100  0.94096300  1
  Se  Se55  1  0.46511700  0.18606100  0.72624700  1
  Se  Se56  1  0.45268500  0.39931300  0.29932900  1
  Se  Se57  1  0.56393900  0.43555200  0.53200600  1
  Se  Se58  1  0.63429700  0.87606800  0.74461600  1
  Se  Se59  1  0.66292800  0.49397800  0.83026400  1
  Se  Se60  1  0.75784200  0.59977000  0.70207600  1
  Se  Se61  1  0.85891700  0.78979600  0.92751200  1
  Se  Se62  1  0.85460500  0.00177600  0.50055100  1
  Se  Se63  1  0.02541700  0.47275300  0.94332900  1
  Se  Se64  1  0.14252600  0.19853200  0.90030300  1
  Se  Se65  1  0.24193600  0.59904500  0.69948300  1
  Se  Se66  1  0.65560300  0.19689700  0.90050800  1
