# generated using pymatgen
data_CsY10(C2I9)2
_symmetry_space_group_name_H-M   'P 1'
_cell_length_a   11.32906300
_cell_length_b   11.38462126
_cell_length_c   11.50267123
_cell_angle_alpha   113.26472220
_cell_angle_beta   87.18823971
_cell_angle_gamma   119.32967970
_symmetry_Int_Tables_number   1
_chemical_formula_structural   CsY10(C2I9)2
_chemical_formula_sum   'Cs1 Y10 C4 I18'
_cell_volume   1168.76506895
_cell_formula_units_Z   1
loop_
 _symmetry_equiv_pos_site_id
 _symmetry_equiv_pos_as_xyz
  1  'x, y, z'
loop_
 _atom_site_type_symbol
 _atom_site_label
 _atom_site_symmetry_multiplicity
 _atom_site_fract_x
 _atom_site_fract_y
 _atom_site_fract_z
 _atom_site_occupancy
  Cs  Cs0  1  0.50000000  0.00000000  0.50000000  1
  Y  Y1  1  0.67531900  0.72358200  0.71022100  1
  Y  Y2  1  0.27753600  0.35314900  0.01530900  1
  Y  Y3  1  0.09259600  0.39307000  0.29200300  1
  Y  Y4  1  0.96497000  0.03772000  0.32372500  1
  Y  Y5  1  0.90740400  0.60693000  0.70799700  1
  Y  Y6  1  0.10622000  0.94414900  0.00070900  1
  Y  Y7  1  0.03503000  0.96228000  0.67627500  1
  Y  Y8  1  0.32468100  0.27641800  0.28977900  1
  Y  Y9  1  0.72246400  0.64685100  0.98469100  1
  Y  Y10  1  0.89378000  0.05585100  0.99929100  1
  C  C11  1  0.15172400  0.22029100  0.12130100  1
  C  C12  1  0.84827600  0.77970900  0.87869900  1
  C  C13  1  0.92285500  0.85470000  0.80287100  1
  C  C14  1  0.07714500  0.14530000  0.19712900  1
  I  I15  1  0.44680400  0.52914800  0.83152300  1
  I  I16  1  0.38780400  0.03943700  0.15867100  1
  I  I17  1  0.77496900  0.85575200  0.49894500  1
  I  I18  1  0.83402200  0.31222600  0.15348900  1
  I  I19  1  0.55319600  0.47085200  0.16847700  1
  I  I20  1  0.22503100  0.14424800  0.50105500  1
  I  I21  1  0.31894500  0.09549200  0.82949300  1
  I  I22  1  0.68105500  0.90450800  0.17050700  1
  I  I23  1  0.97728100  0.75461100  0.17058800  1
  I  I24  1  0.93281300  0.29940900  0.50299600  1
  I  I25  1  0.02271900  0.24538900  0.82941200  1
  I  I26  1  0.06718700  0.70059100  0.49700400  1
  I  I27  1  0.26197700  0.62529800  0.18272100  1
  I  I28  1  0.73802300  0.37470200  0.81727900  1
  I  I29  1  0.64165400  0.43246200  0.49886100  1
  I  I30  1  0.16597800  0.68777400  0.84651100  1
  I  I31  1  0.61219600  0.96056300  0.84132900  1
  I  I32  1  0.35834600  0.56753800  0.50113900  1
