# generated using pymatgen
data_Rb3Ta5O14
_symmetry_space_group_name_H-M   'P 1'
_cell_length_a   7.45541500
_cell_length_b   14.93442300
_cell_length_c   25.64832100
_cell_angle_alpha   90.00000000
_cell_angle_beta   90.00000000
_cell_angle_gamma   90.00000000
_symmetry_Int_Tables_number   1
_chemical_formula_structural   Rb3Ta5O14
_chemical_formula_sum   'Rb24 Ta40 O112'
_cell_volume   2855.74359632
_cell_formula_units_Z   8
loop_
 _symmetry_equiv_pos_site_id
 _symmetry_equiv_pos_as_xyz
  1  'x, y, z'
loop_
 _atom_site_type_symbol
 _atom_site_label
 _atom_site_symmetry_multiplicity
 _atom_site_fract_x
 _atom_site_fract_y
 _atom_site_fract_z
 _atom_site_occupancy
  Rb  Rb0  1  0.27241100  0.01324300  0.48063500  1
  Rb  Rb1  1  0.87047500  0.00282400  0.38188900  1
  Rb  Rb2  1  0.22758900  0.51324300  0.98063500  1
  Rb  Rb3  1  0.37689400  0.75000000  0.20602800  1
  Rb  Rb4  1  0.27241100  0.48675700  0.48063500  1
  Rb  Rb5  1  0.72758900  0.98675700  0.51936500  1
  Rb  Rb6  1  0.12310600  0.25000000  0.70602800  1
  Rb  Rb7  1  0.37047500  0.00282400  0.11811100  1
  Rb  Rb8  1  0.65157600  0.75000000  0.79254600  1
  Rb  Rb9  1  0.72758900  0.51324300  0.51936500  1
  Rb  Rb10  1  0.37047500  0.49717600  0.11811100  1
  Rb  Rb11  1  0.87689400  0.75000000  0.29397200  1
  Rb  Rb12  1  0.87047500  0.49717600  0.38188900  1
  Rb  Rb13  1  0.84842400  0.25000000  0.29254600  1
  Rb  Rb14  1  0.22758900  0.98675700  0.98063500  1
  Rb  Rb15  1  0.62952500  0.99717600  0.88188900  1
  Rb  Rb16  1  0.77241100  0.01324300  0.01936500  1
  Rb  Rb17  1  0.77241100  0.48675700  0.01936500  1
  Rb  Rb18  1  0.12952500  0.99717600  0.61811100  1
  Rb  Rb19  1  0.12952500  0.50282400  0.61811100  1
  Rb  Rb20  1  0.34842400  0.25000000  0.20745400  1
  Rb  Rb21  1  0.62310600  0.25000000  0.79397200  1
  Rb  Rb22  1  0.62952500  0.50282400  0.88188900  1
  Rb  Rb23  1  0.15157600  0.75000000  0.70745400  1
  Ta  Ta24  1  0.37026200  0.61929500  0.35642900  1
  Ta  Ta25  1  0.91680600  0.25000000  0.93863400  1
  Ta  Ta26  1  0.41680600  0.25000000  0.56136600  1
  Ta  Ta27  1  0.89286300  0.75000000  0.94501000  1
  Ta  Ta28  1  0.41010100  0.75000000  0.94467100  1
  Ta  Ta29  1  0.62912300  0.62313700  0.65297900  1
  Ta  Ta30  1  0.08319400  0.75000000  0.06136600  1
  Ta  Ta31  1  0.39286300  0.75000000  0.55499000  1
  Ta  Ta32  1  0.12973800  0.11929500  0.85642900  1
  Ta  Ta33  1  0.91010100  0.75000000  0.55532900  1
  Ta  Ta34  1  0.87026200  0.61929500  0.14357100  1
  Ta  Ta35  1  0.14256400  0.51082800  0.24442700  1
  Ta  Ta36  1  0.56488100  0.75000000  0.05640800  1
  Ta  Ta37  1  0.87026200  0.88070500  0.14357100  1
  Ta  Ta38  1  0.14256400  0.98917200  0.24442700  1
  Ta  Ta39  1  0.43511900  0.25000000  0.94359200  1
  Ta  Ta40  1  0.08989900  0.25000000  0.44467100  1
  Ta  Ta41  1  0.06488100  0.75000000  0.44359200  1
  Ta  Ta42  1  0.85743600  0.01082800  0.75557300  1
  Ta  Ta43  1  0.62973800  0.11929500  0.64357100  1
  Ta  Ta44  1  0.12912300  0.87686300  0.84702100  1
  Ta  Ta45  1  0.93511900  0.25000000  0.55640800  1
  Ta  Ta46  1  0.35743600  0.01082800  0.74442700  1
  Ta  Ta47  1  0.87087700  0.37686300  0.15297900  1
  Ta  Ta48  1  0.37087700  0.37686300  0.34702100  1
  Ta  Ta49  1  0.12912300  0.62313700  0.84702100  1
  Ta  Ta50  1  0.87087700  0.12313700  0.15297900  1
  Ta  Ta51  1  0.10713700  0.25000000  0.05499000  1
  Ta  Ta52  1  0.64256400  0.51082800  0.25557300  1
  Ta  Ta53  1  0.60713700  0.25000000  0.44501000  1
  Ta  Ta54  1  0.12973800  0.38070500  0.85642900  1
  Ta  Ta55  1  0.37087700  0.12313700  0.34702100  1
  Ta  Ta56  1  0.64256400  0.98917200  0.25557300  1
  Ta  Ta57  1  0.37026200  0.88070500  0.35642900  1
  Ta  Ta58  1  0.58989900  0.25000000  0.05532900  1
  Ta  Ta59  1  0.62973800  0.38070500  0.64357100  1
  Ta  Ta60  1  0.58319400  0.75000000  0.43863400  1
  Ta  Ta61  1  0.35743600  0.48917200  0.74442700  1
  Ta  Ta62  1  0.62912300  0.87686300  0.65297900  1
  Ta  Ta63  1  0.85743600  0.48917200  0.75557300  1
  O  O64  1  0.71378500  0.60877100  0.20368300  1
  O  O65  1  0.98752900  0.83809800  0.49917600  1
  O  O66  1  0.17725600  0.34408800  0.39961200  1
  O  O67  1  0.85053900  0.25000000  0.01395100  1
  O  O68  1  0.90817900  0.25000000  0.17071800  1
  O  O69  1  0.41911500  0.40157900  0.69029900  1
  O  O70  1  0.14946100  0.75000000  0.98604900  1
  O  O71  1  0.65626700  0.65403900  0.10010600  1
  O  O72  1  0.46543600  0.37475800  0.57541200  1
  O  O73  1  0.70546300  0.09421200  0.20655100  1
  O  O74  1  0.48752900  0.83809800  0.00082400  1
  O  O75  1  0.34771500  0.00180800  0.37749900  1
  O  O76  1  0.79453700  0.59421200  0.70655100  1
  O  O77  1  0.04419200  0.14175700  0.08601600  1
  O  O78  1  0.91911500  0.09842100  0.80970100  1
  O  O79  1  0.84373300  0.34596100  0.60010600  1
  O  O80  1  0.45580800  0.64175700  0.58601600  1
  O  O81  1  0.15626700  0.65403900  0.39989400  1
  O  O82  1  0.58336100  0.08432900  0.30762400  1
  O  O83  1  0.01247100  0.33809800  0.50082400  1
  O  O84  1  0.58088500  0.90157900  0.30970100  1
  O  O85  1  0.21378500  0.89122900  0.29631700  1
  O  O86  1  0.28621500  0.39122900  0.79631700  1
  O  O87  1  0.67598200  0.25000000  0.91214200  1
  O  O88  1  0.67633200  0.25000000  0.51856800  1
  O  O89  1  0.84771500  0.49819200  0.12250100  1
  O  O90  1  0.08336100  0.41567100  0.19237600  1
  O  O91  1  0.34373300  0.15403900  0.89989400  1
  O  O92  1  0.82401800  0.75000000  0.41214200  1
  O  O93  1  0.09844700  0.01112600  0.72498300  1
  O  O94  1  0.44918300  0.75000000  0.36239100  1
  O  O95  1  0.48752900  0.66190200  0.00082400  1
  O  O96  1  0.96543600  0.37475800  0.92458800  1
  O  O97  1  0.59844700  0.01112600  0.77501700  1
  O  O98  1  0.96543600  0.12524200  0.92458800  1
  O  O99  1  0.09844700  0.48887400  0.72498300  1
  O  O100  1  0.71378500  0.89122900  0.20368300  1
  O  O101  1  0.90155300  0.51112600  0.27501700  1
  O  O102  1  0.82366800  0.75000000  0.01856800  1
  O  O103  1  0.84771500  0.00180800  0.12250100  1
  O  O104  1  0.91911500  0.40157900  0.80970100  1
  O  O105  1  0.82274400  0.65591200  0.60038800  1
  O  O106  1  0.20546300  0.40578800  0.29344900  1
  O  O107  1  0.08088500  0.59842100  0.19029900  1
  O  O108  1  0.08088500  0.90157900  0.19029900  1
  O  O109  1  0.84744200  0.25000000  0.41594500  1
  O  O110  1  0.46543600  0.12524200  0.57541200  1
  O  O111  1  0.40155300  0.98887400  0.22498300  1
  O  O112  1  0.29453700  0.59421200  0.79344900  1
  O  O113  1  0.91663900  0.91567100  0.80762400  1
  O  O114  1  0.78621500  0.39122900  0.70368300  1
  O  O115  1  0.32366800  0.75000000  0.48143200  1
  O  O116  1  0.17598200  0.25000000  0.58785800  1
  O  O117  1  0.34744200  0.25000000  0.08405500  1
  O  O118  1  0.41911500  0.09842100  0.69029900  1
  O  O119  1  0.08336100  0.08432900  0.19237600  1
  O  O120  1  0.58088500  0.59842100  0.30970100  1
  O  O121  1  0.32401800  0.75000000  0.08785800  1
  O  O122  1  0.64946100  0.75000000  0.51395100  1
  O  O123  1  0.84373300  0.15403900  0.60010600  1
  O  O124  1  0.41663900  0.58432900  0.69237600  1
  O  O125  1  0.15255800  0.75000000  0.58405500  1
  O  O126  1  0.94918300  0.75000000  0.13760900  1
  O  O127  1  0.51247100  0.16190200  0.99917600  1
  O  O128  1  0.91663900  0.58432900  0.80762400  1
  O  O129  1  0.05081700  0.25000000  0.86239100  1
  O  O130  1  0.59182100  0.75000000  0.67071800  1
  O  O131  1  0.58336100  0.41567100  0.30762400  1
  O  O132  1  0.53456400  0.87475800  0.42458800  1
  O  O133  1  0.40155300  0.51112600  0.22498300  1
  O  O134  1  0.35053900  0.25000000  0.48604900  1
  O  O135  1  0.95580800  0.85824300  0.91398400  1
  O  O136  1  0.95580800  0.64175700  0.91398400  1
  O  O137  1  0.67725600  0.34408800  0.10038800  1
  O  O138  1  0.90155300  0.98887400  0.27501700  1
  O  O139  1  0.32274400  0.84408800  0.89961200  1
  O  O140  1  0.70546300  0.40578800  0.20655100  1
  O  O141  1  0.28621500  0.10877100  0.79631700  1
  O  O142  1  0.21378500  0.60877100  0.29631700  1
  O  O143  1  0.79453700  0.90578800  0.70655100  1
  O  O144  1  0.40817900  0.25000000  0.32928200  1
  O  O145  1  0.41663900  0.91567100  0.69237600  1
  O  O146  1  0.01247100  0.16190200  0.50082400  1
  O  O147  1  0.29453700  0.90578800  0.79344900  1
  O  O148  1  0.51247100  0.33809800  0.99917600  1
  O  O149  1  0.03456400  0.62524200  0.07541200  1
  O  O150  1  0.82274400  0.84408800  0.60038800  1
  O  O151  1  0.15626700  0.84596100  0.39989400  1
  O  O152  1  0.32274400  0.65591200  0.89961200  1
  O  O153  1  0.09182100  0.75000000  0.82928200  1
  O  O154  1  0.98752900  0.66190200  0.49917600  1
  O  O155  1  0.67725600  0.15591200  0.10038800  1
  O  O156  1  0.04419200  0.35824300  0.08601600  1
  O  O157  1  0.65255800  0.75000000  0.91594500  1
  O  O158  1  0.34373300  0.34596100  0.89989400  1
  O  O159  1  0.17725600  0.15591200  0.39961200  1
  O  O160  1  0.65228500  0.50180800  0.62250100  1
  O  O161  1  0.55081700  0.25000000  0.63760900  1
  O  O162  1  0.65228500  0.99819200  0.62250100  1
  O  O163  1  0.15228500  0.99819200  0.87749900  1
  O  O164  1  0.34771500  0.49819200  0.37749900  1
  O  O165  1  0.15228500  0.50180800  0.87749900  1
  O  O166  1  0.03456400  0.87475800  0.07541200  1
  O  O167  1  0.54419200  0.35824300  0.41398400  1
  O  O168  1  0.20546300  0.09421200  0.29344900  1
  O  O169  1  0.78621500  0.10877100  0.70368300  1
  O  O170  1  0.45580800  0.85824300  0.58601600  1
  O  O171  1  0.17633200  0.25000000  0.98143200  1
  O  O172  1  0.65626700  0.84596100  0.10010600  1
  O  O173  1  0.54419200  0.14175700  0.41398400  1
  O  O174  1  0.59844700  0.48887400  0.77501700  1
  O  O175  1  0.53456400  0.62524200  0.42458800  1
