# generated using pymatgen
data_K2CdH4(SeO5)2
_symmetry_space_group_name_H-M   'P 1'
_cell_length_a   6.70858600
_cell_length_b   7.69968953
_cell_length_c   11.59073646
_cell_angle_alpha   72.15109725
_cell_angle_beta   74.46356278
_cell_angle_gamma   70.04296130
_symmetry_Int_Tables_number   1
_chemical_formula_structural   K2CdH4(SeO5)2
_chemical_formula_sum   'K4 Cd2 H8 Se4 O20'
_cell_volume   526.67796902
_cell_formula_units_Z   2
loop_
 _symmetry_equiv_pos_site_id
 _symmetry_equiv_pos_as_xyz
  1  'x, y, z'
loop_
 _atom_site_type_symbol
 _atom_site_label
 _atom_site_symmetry_multiplicity
 _atom_site_fract_x
 _atom_site_fract_y
 _atom_site_fract_z
 _atom_site_occupancy
  K  K0  1  0.79798600  0.74779500  0.40111900  1
  K  K1  1  0.20201400  0.25220500  0.59888100  1
  K  K2  1  0.72975400  0.26671300  0.07871900  1
  K  K3  1  0.27024600  0.73328700  0.92128100  1
  Cd  Cd4  1  0.75159600  0.97358200  0.74869600  1
  Cd  Cd5  1  0.24840400  0.02641800  0.25130400  1
  H  H6  1  0.69840200  0.36087500  0.65703200  1
  H  H7  1  0.30159800  0.63912500  0.34296800  1
  H  H8  1  0.66303500  0.31139600  0.80170000  1
  H  H9  1  0.33696500  0.68860400  0.19830000  1
  H  H10  1  0.64734000  0.66570000  0.70723500  1
  H  H11  1  0.35266000  0.33430000  0.29276500  1
  H  H12  1  0.83122300  0.58466000  0.79170900  1
  H  H13  1  0.16877700  0.41534000  0.20829100  1
  Se  Se14  1  0.73748900  0.76528400  0.08410400  1
  Se  Se15  1  0.26251100  0.23471600  0.91589600  1
  Se  Se16  1  0.73892300  0.23125200  0.42464000  1
  Se  Se17  1  0.26107700  0.76874800  0.57536000  1
  O  O18  1  0.95500300  0.60309400  0.13130200  1
  O  O19  1  0.04499700  0.39690600  0.86869800  1
  O  O20  1  0.56061600  0.66335600  0.07406300  1
  O  O21  1  0.43938400  0.33664400  0.92593700  1
  O  O22  1  0.81912000  0.90512900  0.94795200  1
  O  O23  1  0.18088000  0.09487100  0.05204800  1
  O  O24  1  0.62107900  0.90663100  0.18482200  1
  O  O25  1  0.37892100  0.09336900  0.81517800  1
  O  O26  1  0.87873000  0.34921700  0.45364400  1
  O  O27  1  0.12127000  0.65078300  0.54635600  1
  O  O28  1  0.50518800  0.37504200  0.38384600  1
  O  O29  1  0.49481200  0.62495800  0.61615400  1
  O  O30  1  0.68036600  0.06077000  0.54934400  1
  O  O31  1  0.31963400  0.93923000  0.45065600  1
  O  O32  1  0.87768800  0.12071500  0.30929200  1
  O  O33  1  0.12231200  0.87928500  0.69070800  1
  O  O34  1  0.77012800  0.28002900  0.72716600  1
  O  O35  1  0.22987200  0.71997100  0.27283400  1
  O  O36  1  0.69529600  0.68361400  0.77607600  1
  O  O37  1  0.30470400  0.31638600  0.22392400  1
