# generated using pymatgen
data_Ba8Zr3(SbO6)4
_symmetry_space_group_name_H-M   'P 1'
_cell_length_a   10.31500841
_cell_length_b   10.31500841
_cell_length_c   10.31500841
_cell_angle_alpha   131.99198479
_cell_angle_beta   131.99198479
_cell_angle_gamma   70.24168634
_symmetry_Int_Tables_number   1
_chemical_formula_structural   Ba8Zr3(SbO6)4
_chemical_formula_sum   'Ba8 Zr3 Sb4 O24'
_cell_volume   594.22853027
_cell_formula_units_Z   1
loop_
 _symmetry_equiv_pos_site_id
 _symmetry_equiv_pos_as_xyz
  1  'x, y, z'
loop_
 _atom_site_type_symbol
 _atom_site_label
 _atom_site_symmetry_multiplicity
 _atom_site_fract_x
 _atom_site_fract_y
 _atom_site_fract_z
 _atom_site_occupancy
  Ba  Ba0  1  0.35164100  0.35164100  0.46688700  1
  Ba  Ba1  1  0.35164100  0.88475500  0.00000000  1
  Ba  Ba2  1  0.64835900  0.11524500  0.00000000  1
  Ba  Ba3  1  0.64835900  0.64835900  0.53311300  1
  Ba  Ba4  1  0.88475500  0.88475500  0.53311300  1
  Ba  Ba5  1  0.11524500  0.64835900  0.00000000  1
  Ba  Ba6  1  0.11524500  0.11524500  0.46688700  1
  Ba  Ba7  1  0.88475500  0.35164100  0.00000000  1
  Zr  Zr8  1  0.25000000  0.75000000  0.50000000  1
  Zr  Zr9  1  0.75000000  0.25000000  0.50000000  1
  Zr  Zr10  1  0.50000000  0.50000000  0.00000000  1
  Sb  Sb11  1  0.25639100  0.25639100  0.00000000  1
  Sb  Sb12  1  0.74360900  0.74360900  0.00000000  1
  Sb  Sb13  1  0.00000000  0.50000000  0.50000000  1
  Sb  Sb14  1  0.50000000  0.00000000  0.50000000  1
  O  O15  1  0.75237300  0.50000000  0.25237300  1
  O  O16  1  0.00000000  0.72940300  0.72940300  1
  O  O17  1  0.50000000  0.75237300  0.25237300  1
  O  O18  1  0.50000000  0.24762700  0.74762700  1
  O  O19  1  0.37611300  0.87611300  0.50000000  1
  O  O20  1  0.72940300  0.00000000  0.72940300  1
  O  O21  1  0.00000000  0.27059700  0.27059700  1
  O  O22  1  0.25459900  0.50051700  0.24591800  1
  O  O23  1  0.24762700  0.50000000  0.74762700  1
  O  O24  1  0.14102400  0.14102400  0.00000000  1
  O  O25  1  0.27059700  0.00000000  0.27059700  1
  O  O26  1  0.99131900  0.74540100  0.24591800  1
  O  O27  1  0.49948300  0.74540100  0.75408200  1
  O  O28  1  0.62588300  0.62588300  0.00000000  1
  O  O29  1  0.00868100  0.25459900  0.75408200  1
  O  O30  1  0.85897600  0.85897600  0.00000000  1
  O  O31  1  0.74540100  0.99131900  0.24591800  1
  O  O32  1  0.50051700  0.25459900  0.24591800  1
  O  O33  1  0.37411700  0.37411700  0.00000000  1
  O  O34  1  0.25459900  0.00868100  0.75408200  1
  O  O35  1  0.74540100  0.49948300  0.75408200  1
  O  O36  1  0.12388700  0.62388700  0.50000000  1
  O  O37  1  0.62388700  0.12388700  0.50000000  1
  O  O38  1  0.87611300  0.37611300  0.50000000  1
