# generated using pymatgen
data_YPb2
_symmetry_space_group_name_H-M   'P 1'
_cell_length_a   8.74966506
_cell_length_b   8.74966506
_cell_length_c   4.56512700
_cell_angle_alpha   90.00000000
_cell_angle_beta   90.00000000
_cell_angle_gamma   149.26680397
_symmetry_Int_Tables_number   1
_chemical_formula_structural   YPb2
_chemical_formula_sum   'Y2 Pb4'
_cell_volume   178.60412163
_cell_formula_units_Z   2
loop_
 _symmetry_equiv_pos_site_id
 _symmetry_equiv_pos_as_xyz
  1  'x, y, z'
loop_
 _atom_site_type_symbol
 _atom_site_label
 _atom_site_symmetry_multiplicity
 _atom_site_fract_x
 _atom_site_fract_y
 _atom_site_fract_z
 _atom_site_occupancy
  Y  Y0  1  0.09670700  0.90329300  0.25000000  1
  Y  Y1  1  0.90329300  0.09670700  0.75000000  1
  Pb  Pb2  1  0.56938900  0.43061100  0.75000000  1
  Pb  Pb3  1  0.43061100  0.56938900  0.25000000  1
  Pb  Pb4  1  0.25051200  0.74948800  0.75000000  1
  Pb  Pb5  1  0.74948800  0.25051200  0.25000000  1
