# generated using pymatgen
data_K4Eu(PS4)2
_symmetry_space_group_name_H-M   'P 1'
_cell_length_a   8.90850709
_cell_length_b   9.83888919
_cell_length_c   11.36089003
_cell_angle_alpha   115.60468028
_cell_angle_beta   113.14531446
_cell_angle_gamma   90.12888849
_symmetry_Int_Tables_number   1
_chemical_formula_structural   K4Eu(PS4)2
_chemical_formula_sum   'K8 Eu2 P4 S16'
_cell_volume   807.72989841
_cell_formula_units_Z   2
loop_
 _symmetry_equiv_pos_site_id
 _symmetry_equiv_pos_as_xyz
  1  'x, y, z'
loop_
 _atom_site_type_symbol
 _atom_site_label
 _atom_site_symmetry_multiplicity
 _atom_site_fract_x
 _atom_site_fract_y
 _atom_site_fract_z
 _atom_site_occupancy
  K  K0  1  0.79717600  0.91618300  0.83350600  1
  K  K1  1  0.74200900  0.99152100  0.48663400  1
  K  K2  1  0.21196300  0.08430900  0.16925100  1
  K  K3  1  0.26130000  0.51140600  0.51696700  1
  K  K4  1  0.95744300  0.58034600  0.16143700  1
  K  K5  1  0.25835500  0.01065100  0.51932400  1
  K  K6  1  0.74264500  0.49560200  0.48503300  1
  K  K7  1  0.04007200  0.41329600  0.83035900  1
  Eu  Eu8  1  0.49896200  0.74683100  0.99801800  1
  Eu  Eu9  1  0.50339800  0.25096500  0.00028600  1
  P  P10  1  0.83335900  0.12846000  0.25498400  1
  P  P11  1  0.16744200  0.87225500  0.74319800  1
  P  P12  1  0.42301100  0.62765400  0.25805000  1
  P  P13  1  0.57366000  0.36903900  0.74050900  1
  S  S14  1  0.36889000  0.39299800  0.78671400  1
  S  S15  1  0.28143900  0.41082500  0.16041000  1
  S  S16  1  0.87825600  0.24937900  0.15903700  1
  S  S17  1  0.28335400  0.74741900  0.16029300  1
  S  S18  1  0.12588200  0.75212800  0.84103700  1
  S  S19  1  0.62904800  0.60496600  0.21344300  1
  S  S20  1  0.50601800  0.25833600  0.52309700  1
  S  S21  1  0.41920800  0.89637300  0.79235800  1
  S  S22  1  0.71209800  0.24928200  0.83899700  1
  S  S23  1  0.01742900  0.76336500  0.52514700  1
  S  S24  1  0.87654100  0.91074600  0.15876400  1
  S  S25  1  0.58187400  0.10287500  0.20659600  1
  S  S26  1  0.12351900  0.08938900  0.83721800  1
  S  S27  1  0.71402600  0.58617500  0.83561700  1
  S  S28  1  0.49429100  0.73852400  0.47655900  1
  S  S29  1  0.98126000  0.23887100  0.47306500  1
