# generated using pymatgen
data_Yb2Pt2Pb
_symmetry_space_group_name_H-M   'P 1'
_cell_length_a   7.72471600
_cell_length_b   7.72471600
_cell_length_c   7.52375500
_cell_angle_alpha   90.00000000
_cell_angle_beta   90.00000000
_cell_angle_gamma   90.00000000
_symmetry_Int_Tables_number   1
_chemical_formula_structural   Yb2Pt2Pb
_chemical_formula_sum   'Yb8 Pt8 Pb4'
_cell_volume   448.95176985
_cell_formula_units_Z   4
loop_
 _symmetry_equiv_pos_site_id
 _symmetry_equiv_pos_as_xyz
  1  'x, y, z'
loop_
 _atom_site_type_symbol
 _atom_site_label
 _atom_site_symmetry_multiplicity
 _atom_site_fract_x
 _atom_site_fract_y
 _atom_site_fract_z
 _atom_site_occupancy
  Yb  Yb0  1  0.67471400  0.67471400  0.00000000  1
  Yb  Yb1  1  0.34333600  0.34333600  0.50000000  1
  Yb  Yb2  1  0.82528600  0.17471400  0.50000000  1
  Yb  Yb3  1  0.65666400  0.65666400  0.50000000  1
  Yb  Yb4  1  0.32528600  0.32528600  0.00000000  1
  Yb  Yb5  1  0.17471400  0.82528600  0.50000000  1
  Yb  Yb6  1  0.84333600  0.15666400  0.00000000  1
  Yb  Yb7  1  0.15666400  0.84333600  0.00000000  1
  Pt  Pt8  1  0.86862300  0.86862300  0.73286600  1
  Pt  Pt9  1  0.13137700  0.13137700  0.73286600  1
  Pt  Pt10  1  0.63137700  0.36862300  0.76713400  1
  Pt  Pt11  1  0.63137700  0.36862300  0.23286600  1
  Pt  Pt12  1  0.36862300  0.63137700  0.23286600  1
  Pt  Pt13  1  0.13137700  0.13137700  0.26713400  1
  Pt  Pt14  1  0.86862300  0.86862300  0.26713400  1
  Pt  Pt15  1  0.36862300  0.63137700  0.76713400  1
  Pb  Pb16  1  0.50000000  0.00000000  0.75000000  1
  Pb  Pb17  1  0.50000000  0.00000000  0.25000000  1
  Pb  Pb18  1  0.00000000  0.50000000  0.75000000  1
  Pb  Pb19  1  0.00000000  0.50000000  0.25000000  1
