# generated using pymatgen
data_Nd(BO2)3
_symmetry_space_group_name_H-M   'P 1'
_cell_length_a   7.54788600
_cell_length_b   12.56618100
_cell_length_c   16.34830900
_cell_angle_alpha   90.00000000
_cell_angle_beta   90.00000000
_cell_angle_gamma   90.00000000
_symmetry_Int_Tables_number   1
_chemical_formula_structural   Nd(BO2)3
_chemical_formula_sum   'Nd16 B48 O96'
_cell_volume   1550.60607373
_cell_formula_units_Z   16
loop_
 _symmetry_equiv_pos_site_id
 _symmetry_equiv_pos_as_xyz
  1  'x, y, z'
loop_
 _atom_site_type_symbol
 _atom_site_label
 _atom_site_symmetry_multiplicity
 _atom_site_fract_x
 _atom_site_fract_y
 _atom_site_fract_z
 _atom_site_occupancy
  Nd  Nd0  1  0.75000000  0.06973400  0.82963100  1
  Nd  Nd1  1  0.25000000  0.22317700  0.37391400  1
  Nd  Nd2  1  0.75000000  0.41393600  0.95275300  1
  Nd  Nd3  1  0.75000000  0.77682300  0.62608600  1
  Nd  Nd4  1  0.25000000  0.91393600  0.54724700  1
  Nd  Nd5  1  0.25000000  0.93026600  0.17036900  1
  Nd  Nd6  1  0.75000000  0.00496000  0.12036400  1
  Nd  Nd7  1  0.25000000  0.27682300  0.87391400  1
  Nd  Nd8  1  0.25000000  0.99504000  0.87963600  1
  Nd  Nd9  1  0.75000000  0.49504000  0.62036400  1
  Nd  Nd10  1  0.75000000  0.08606400  0.45275300  1
  Nd  Nd11  1  0.75000000  0.72317700  0.12608600  1
  Nd  Nd12  1  0.25000000  0.50496000  0.37963600  1
  Nd  Nd13  1  0.25000000  0.56973400  0.67036900  1
  Nd  Nd14  1  0.75000000  0.43026600  0.32963100  1
  Nd  Nd15  1  0.25000000  0.58606400  0.04724700  1
  B  B16  1  0.42682400  0.34445200  0.05952400  1
  B  B17  1  0.93784700  0.18067800  0.97202500  1
  B  B18  1  0.57773100  0.64576000  0.38914900  1
  B  B19  1  0.42893600  0.18722500  0.71700800  1
  B  B20  1  0.42682400  0.15554800  0.55952400  1
  B  B21  1  0.43784700  0.68067800  0.52797500  1
  B  B22  1  0.06215300  0.81932200  0.02797500  1
  B  B23  1  0.06215300  0.68067800  0.52797500  1
  B  B24  1  0.57317600  0.84445200  0.44047600  1
  B  B25  1  0.42565800  0.51888500  0.84475600  1
  B  B26  1  0.57434200  0.48111500  0.15524400  1
  B  B27  1  0.07317600  0.34445200  0.05952400  1
  B  B28  1  0.56215300  0.31932200  0.47202500  1
  B  B29  1  0.93155500  0.37000600  0.75658000  1
  B  B30  1  0.92893600  0.81277500  0.28299200  1
  B  B31  1  0.07106400  0.31277500  0.21700800  1
  B  B32  1  0.07317600  0.15554800  0.55952400  1
  B  B33  1  0.42226900  0.35424000  0.61085100  1
  B  B34  1  0.42893600  0.31277500  0.21700800  1
  B  B35  1  0.06844500  0.87000600  0.74342000  1
  B  B36  1  0.07773100  0.14576000  0.11085100  1
  B  B37  1  0.56844500  0.12999400  0.25658000  1
  B  B38  1  0.56215300  0.18067800  0.97202500  1
  B  B39  1  0.43155500  0.62999400  0.24342000  1
  B  B40  1  0.57317600  0.65554800  0.94047600  1
  B  B41  1  0.92682400  0.65554800  0.94047600  1
  B  B42  1  0.43784700  0.81932200  0.02797500  1
  B  B43  1  0.06844500  0.62999400  0.24342000  1
  B  B44  1  0.57773100  0.85424000  0.88914900  1
  B  B45  1  0.92893600  0.68722500  0.78299200  1
  B  B46  1  0.42565800  0.98111500  0.34475600  1
  B  B47  1  0.93784700  0.31932200  0.47202500  1
  B  B48  1  0.42226900  0.14576000  0.11085100  1
  B  B49  1  0.92565800  0.01888500  0.65524400  1
  B  B50  1  0.92682400  0.84445200  0.44047600  1
  B  B51  1  0.57106400  0.81277500  0.28299200  1
  B  B52  1  0.92565800  0.48111500  0.15524400  1
  B  B53  1  0.07773100  0.35424000  0.61085100  1
  B  B54  1  0.07434200  0.51888500  0.84475600  1
  B  B55  1  0.92226900  0.85424000  0.88914900  1
  B  B56  1  0.07106400  0.18722500  0.71700800  1
  B  B57  1  0.56844500  0.37000600  0.75658000  1
  B  B58  1  0.57434200  0.01888500  0.65524400  1
  B  B59  1  0.92226900  0.64576000  0.38914900  1
  B  B60  1  0.07434200  0.98111500  0.34475600  1
  B  B61  1  0.57106400  0.68722500  0.78299200  1
  B  B62  1  0.93155500  0.12999400  0.25658000  1
  B  B63  1  0.43155500  0.87000600  0.74342000  1
  O  O64  1  0.05767500  0.56755800  0.16683000  1
  O  O65  1  0.57262600  0.73408400  0.86999400  1
  O  O66  1  0.75000000  0.84957600  0.25521700  1
  O  O67  1  0.55580600  0.10058300  0.71830900  1
  O  O68  1  0.48487700  0.29180700  0.98307100  1
  O  O69  1  0.25000000  0.69818500  0.55918800  1
  O  O70  1  0.25000000  0.86385900  0.77416100  1
  O  O71  1  0.57262600  0.76591600  0.36999400  1
  O  O72  1  0.01284100  0.26823600  0.77469800  1
  O  O73  1  0.45067700  0.56639900  0.92682600  1
  O  O74  1  0.51284100  0.76823600  0.72530200  1
  O  O75  1  0.06074900  0.87499700  0.94980900  1
  O  O76  1  0.75000000  0.96737200  0.66150600  1
  O  O77  1  0.55767500  0.06755800  0.33317000  1
  O  O78  1  0.98715900  0.76823600  0.72530200  1
  O  O79  1  0.03497000  0.08151800  0.18508700  1
  O  O80  1  0.75000000  0.36385900  0.72583900  1
  O  O81  1  0.93925100  0.12500300  0.05019100  1
  O  O82  1  0.46503000  0.08151800  0.18508700  1
  O  O83  1  0.55580600  0.39941700  0.21830900  1
  O  O84  1  0.43925100  0.62500300  0.44980900  1
  O  O85  1  0.75000000  0.61073000  0.42007300  1
  O  O86  1  0.53497000  0.58151800  0.31491300  1
  O  O87  1  0.01284100  0.23176400  0.27469800  1
  O  O88  1  0.75000000  0.53262800  0.16150600  1
  O  O89  1  0.46362800  0.12804200  0.90722700  1
  O  O90  1  0.94419400  0.39941700  0.21830900  1
  O  O91  1  0.01512300  0.20819300  0.48307100  1
  O  O92  1  0.98487700  0.70819300  0.01692900  1
  O  O93  1  0.07262600  0.23408400  0.63000600  1
  O  O94  1  0.25000000  0.03262800  0.33849400  1
  O  O95  1  0.42737400  0.23408400  0.63000600  1
  O  O96  1  0.98715900  0.73176400  0.22530200  1
  O  O97  1  0.44419400  0.60058300  0.78169100  1
  O  O98  1  0.25000000  0.38927000  0.57992700  1
  O  O99  1  0.54932300  0.06639900  0.57317400  1
  O  O100  1  0.96362800  0.87195800  0.09277300  1
  O  O101  1  0.56074900  0.37499700  0.55019100  1
  O  O102  1  0.25000000  0.63614100  0.27416100  1
  O  O103  1  0.46503000  0.41848200  0.68508700  1
  O  O104  1  0.42737400  0.26591600  0.13000600  1
  O  O105  1  0.54932300  0.43360100  0.07317400  1
  O  O106  1  0.25000000  0.10878900  0.54714800  1
  O  O107  1  0.51284100  0.73176400  0.22530200  1
  O  O108  1  0.03637200  0.12804200  0.90722700  1
  O  O109  1  0.55767500  0.43244200  0.83317000  1
  O  O110  1  0.04932300  0.93360100  0.42682600  1
  O  O111  1  0.04932300  0.56639900  0.92682600  1
  O  O112  1  0.94419400  0.10058300  0.71830900  1
  O  O113  1  0.53637200  0.62804200  0.59277300  1
  O  O114  1  0.75000000  0.65042400  0.75521700  1
  O  O115  1  0.05580600  0.60058300  0.78169100  1
  O  O116  1  0.96503000  0.91848200  0.81491300  1
  O  O117  1  0.53637200  0.87195800  0.09277300  1
  O  O118  1  0.25000000  0.80181500  0.05918800  1
  O  O119  1  0.93925100  0.37499700  0.55019100  1
  O  O120  1  0.96362800  0.62804200  0.59277300  1
  O  O121  1  0.25000000  0.34957600  0.24478300  1
  O  O122  1  0.05580600  0.89941700  0.28169100  1
  O  O123  1  0.48715900  0.26823600  0.77469800  1
  O  O124  1  0.95067700  0.06639900  0.57317400  1
  O  O125  1  0.25000000  0.11073000  0.07992700  1
  O  O126  1  0.96503000  0.58151800  0.31491300  1
  O  O127  1  0.25000000  0.46737200  0.83849400  1
  O  O128  1  0.07262600  0.26591600  0.13000600  1
  O  O129  1  0.75000000  0.88927000  0.92007300  1
  O  O130  1  0.51512300  0.70819300  0.01692900  1
  O  O131  1  0.01512300  0.29180700  0.98307100  1
  O  O132  1  0.75000000  0.19818500  0.94081200  1
  O  O133  1  0.25000000  0.15042400  0.74478300  1
  O  O134  1  0.05767500  0.93244200  0.66683000  1
  O  O135  1  0.94232500  0.43244200  0.83317000  1
  O  O136  1  0.06074900  0.62500300  0.44980900  1
  O  O137  1  0.75000000  0.30181500  0.44081200  1
  O  O138  1  0.94232500  0.06755800  0.33317000  1
  O  O139  1  0.48487700  0.20819300  0.48307100  1
  O  O140  1  0.44232500  0.93244200  0.66683000  1
  O  O141  1  0.98487700  0.79180700  0.51692900  1
  O  O142  1  0.51512300  0.79180700  0.51692900  1
  O  O143  1  0.75000000  0.60878900  0.95285200  1
  O  O144  1  0.43925100  0.87499700  0.94980900  1
  O  O145  1  0.92737400  0.76591600  0.36999400  1
  O  O146  1  0.44419400  0.89941700  0.28169100  1
  O  O147  1  0.03497000  0.41848200  0.68508700  1
  O  O148  1  0.03637200  0.37195800  0.40722700  1
  O  O149  1  0.53497000  0.91848200  0.81491300  1
  O  O150  1  0.45067700  0.93360100  0.42682600  1
  O  O151  1  0.75000000  0.89121100  0.45285200  1
  O  O152  1  0.56074900  0.12500300  0.05019100  1
  O  O153  1  0.92737400  0.73408400  0.86999400  1
  O  O154  1  0.75000000  0.13614100  0.22583900  1
  O  O155  1  0.44232500  0.56755800  0.16683000  1
  O  O156  1  0.25000000  0.39121100  0.04714800  1
  O  O157  1  0.95067700  0.43360100  0.07317400  1
  O  O158  1  0.48715900  0.23176400  0.27469800  1
  O  O159  1  0.46362800  0.37195800  0.40722700  1
