# generated using pymatgen
data_Pr5Ga3
_symmetry_space_group_name_H-M   'P 1'
_cell_length_a   7.97173900
_cell_length_b   7.97173900
_cell_length_c   14.71838200
_cell_angle_alpha   90.00000000
_cell_angle_beta   90.00000000
_cell_angle_gamma   90.00000000
_symmetry_Int_Tables_number   1
_chemical_formula_structural   Pr5Ga3
_chemical_formula_sum   'Pr20 Ga12'
_cell_volume   935.33290424
_cell_formula_units_Z   4
loop_
 _symmetry_equiv_pos_site_id
 _symmetry_equiv_pos_as_xyz
  1  'x, y, z'
loop_
 _atom_site_type_symbol
 _atom_site_label
 _atom_site_symmetry_multiplicity
 _atom_site_fract_x
 _atom_site_fract_y
 _atom_site_fract_z
 _atom_site_occupancy
  Pr  Pr0  1  0.81551800  0.84040600  0.60304300  1
  Pr  Pr1  1  0.18448200  0.84040600  0.10304300  1
  Pr  Pr2  1  0.15959400  0.81551800  0.39695700  1
  Pr  Pr3  1  0.00000000  0.50000000  0.71956000  1
  Pr  Pr4  1  0.84040600  0.18448200  0.39695700  1
  Pr  Pr5  1  0.68448200  0.65959400  0.39695700  1
  Pr  Pr6  1  0.65959400  0.31551800  0.60304300  1
  Pr  Pr7  1  0.34040600  0.68448200  0.60304300  1
  Pr  Pr8  1  0.00000000  0.50000000  0.21956000  1
  Pr  Pr9  1  0.65959400  0.68448200  0.10304300  1
  Pr  Pr10  1  0.68448200  0.34040600  0.89695700  1
  Pr  Pr11  1  0.84040600  0.81551800  0.89695700  1
  Pr  Pr12  1  0.31551800  0.34040600  0.39695700  1
  Pr  Pr13  1  0.18448200  0.15959400  0.60304300  1
  Pr  Pr14  1  0.81551800  0.15959400  0.10304300  1
  Pr  Pr15  1  0.31551800  0.65959400  0.89695700  1
  Pr  Pr16  1  0.34040600  0.31551800  0.10304300  1
  Pr  Pr17  1  0.50000000  0.00000000  0.28044000  1
  Pr  Pr18  1  0.15959400  0.18448200  0.89695700  1
  Pr  Pr19  1  0.50000000  0.00000000  0.78044000  1
  Ga  Ga20  1  0.61857000  0.38143000  0.25000000  1
  Ga  Ga21  1  0.11857000  0.88143000  0.75000000  1
  Ga  Ga22  1  0.38143000  0.38143000  0.75000000  1
  Ga  Ga23  1  0.38143000  0.61857000  0.25000000  1
  Ga  Ga24  1  0.88143000  0.88143000  0.25000000  1
  Ga  Ga25  1  0.61857000  0.61857000  0.75000000  1
  Ga  Ga26  1  0.00000000  0.50000000  0.50350600  1
  Ga  Ga27  1  0.88143000  0.11857000  0.75000000  1
  Ga  Ga28  1  0.50000000  0.00000000  0.49649400  1
  Ga  Ga29  1  0.50000000  0.00000000  0.99649400  1
  Ga  Ga30  1  0.11857000  0.11857000  0.25000000  1
  Ga  Ga31  1  0.00000000  0.50000000  0.00350600  1
