# generated using pymatgen
data_Ba5(Ga3H)2
_symmetry_space_group_name_H-M   'P 1'
_cell_length_a   7.80747862
_cell_length_b   7.80747862
_cell_length_c   14.46809800
_cell_angle_alpha   90.00000000
_cell_angle_beta   90.00000000
_cell_angle_gamma   120.00000523
_symmetry_Int_Tables_number   1
_chemical_formula_structural   Ba5(Ga3H)2
_chemical_formula_sum   'Ba10 Ga12 H4'
_cell_volume   763.77186727
_cell_formula_units_Z   2
loop_
 _symmetry_equiv_pos_site_id
 _symmetry_equiv_pos_as_xyz
  1  'x, y, z'
loop_
 _atom_site_type_symbol
 _atom_site_label
 _atom_site_symmetry_multiplicity
 _atom_site_fract_x
 _atom_site_fract_y
 _atom_site_fract_z
 _atom_site_occupancy
  Ba  Ba0  1  0.69083700  0.02284100  0.76308400  1
  Ba  Ba1  1  0.97715900  0.66799600  0.76308400  1
  Ba  Ba2  1  0.33200400  0.30916300  0.76308400  1
  Ba  Ba3  1  0.97715900  0.30916300  0.26308400  1
  Ba  Ba4  1  0.33200400  0.02284100  0.26308400  1
  Ba  Ba5  1  0.69083700  0.66799600  0.26308400  1
  Ba  Ba6  1  0.66666700  0.33333300  0.53088600  1
  Ba  Ba7  1  0.66666700  0.33333300  0.03088600  1
  Ba  Ba8  1  0.00000000  0.00000000  0.49838600  1
  Ba  Ba9  1  0.00000000  0.00000000  0.99838600  1
  Ga  Ga10  1  0.14145100  0.45888300  0.58940900  1
  Ga  Ga11  1  0.54111700  0.68256800  0.58940900  1
  Ga  Ga12  1  0.31743200  0.85854900  0.58940900  1
  Ga  Ga13  1  0.54111700  0.85854900  0.08940900  1
  Ga  Ga14  1  0.31743200  0.45888300  0.08940900  1
  Ga  Ga15  1  0.14145100  0.68256800  0.08940900  1
  Ga  Ga16  1  0.12560500  0.47382600  0.93400500  1
  Ga  Ga17  1  0.52617400  0.65177900  0.93400500  1
  Ga  Ga18  1  0.34822100  0.87439500  0.93400500  1
  Ga  Ga19  1  0.52617400  0.87439500  0.43400500  1
  Ga  Ga20  1  0.34822100  0.47382600  0.43400500  1
  Ga  Ga21  1  0.12560500  0.65177900  0.43400500  1
  H  H22  1  0.00000000  0.00000000  0.81636700  1
  H  H23  1  0.00000000  0.00000000  0.31636700  1
  H  H24  1  0.66666700  0.33333300  0.71870400  1
  H  H25  1  0.66666700  0.33333300  0.21870400  1
