# generated using pymatgen
data_Cs7NbIn3As5
_symmetry_space_group_name_H-M   'P 1'
_cell_length_a   8.96862000
_cell_length_b   9.87055107
_cell_length_c   15.02003446
_cell_angle_alpha   85.51296631
_cell_angle_beta   85.77991615
_cell_angle_gamma   86.50966384
_symmetry_Int_Tables_number   1
_chemical_formula_structural   Cs7NbIn3As5
_chemical_formula_sum   'Cs14 Nb2 In6 As10'
_cell_volume   1319.94920732
_cell_formula_units_Z   2
loop_
 _symmetry_equiv_pos_site_id
 _symmetry_equiv_pos_as_xyz
  1  'x, y, z'
loop_
 _atom_site_type_symbol
 _atom_site_label
 _atom_site_symmetry_multiplicity
 _atom_site_fract_x
 _atom_site_fract_y
 _atom_site_fract_z
 _atom_site_occupancy
  Cs  Cs0  1  0.81775300  0.37094300  0.63916400  1
  Cs  Cs1  1  0.81073500  0.81591000  0.12685600  1
  Cs  Cs2  1  0.24320400  0.00746200  0.46684000  1
  Cs  Cs3  1  0.26899200  0.25327100  0.25278600  1
  Cs  Cs4  1  0.74404600  0.50375100  0.97323400  1
  Cs  Cs5  1  0.25595400  0.49624900  0.02676600  1
  Cs  Cs6  1  0.69282100  0.07947400  0.88571800  1
  Cs  Cs7  1  0.75679600  0.99253800  0.53316000  1
  Cs  Cs8  1  0.73100800  0.74672900  0.74721400  1
  Cs  Cs9  1  0.30512700  0.33563600  0.60199500  1
  Cs  Cs10  1  0.18224700  0.62905700  0.36083600  1
  Cs  Cs11  1  0.18926500  0.18409000  0.87314400  1
  Cs  Cs12  1  0.30717900  0.92052600  0.11428200  1
  Cs  Cs13  1  0.69487300  0.66436400  0.39800500  1
  Nb  Nb14  1  0.35368400  0.60469800  0.77203800  1
  Nb  Nb15  1  0.64631600  0.39530200  0.22796200  1
  In  In16  1  0.06873400  0.80932900  0.86669100  1
  In  In17  1  0.93126600  0.19067100  0.13330900  1
  In  In18  1  0.36635700  0.94730100  0.70473600  1
  In  In19  1  0.09406000  0.72245200  0.62514700  1
  In  In20  1  0.90594000  0.27754800  0.37485300  1
  In  In21  1  0.63364300  0.05269900  0.29526400  1
  As  As22  1  0.91570900  0.45178500  0.21230900  1
  As  As23  1  0.61635400  0.20485700  0.12493700  1
  As  As24  1  0.08429100  0.54821500  0.78769100  1
  As  As25  1  0.58870500  0.29821500  0.38859400  1
  As  As26  1  0.41129500  0.70178500  0.61140600  1
  As  As27  1  0.04242300  0.99058800  0.70210600  1
  As  As28  1  0.51140600  0.40148700  0.80792500  1
  As  As29  1  0.48859400  0.59851300  0.19207500  1
  As  As30  1  0.38364600  0.79514300  0.87506300  1
  As  As31  1  0.95757700  0.00941200  0.29789400  1
