# generated using pymatgen
data_Yb2Ge4Ru3
_symmetry_space_group_name_H-M   'P 1'
_cell_length_a   10.45297379
_cell_length_b   10.45297379
_cell_length_c   14.07127102
_cell_angle_alpha   53.11872239
_cell_angle_beta   53.11872239
_cell_angle_gamma   30.81349587
_symmetry_Int_Tables_number   1
_chemical_formula_structural   Yb2Ge4Ru3
_chemical_formula_sum   'Yb8 Ge16 Ru12'
_cell_volume   616.35155534
_cell_formula_units_Z   4
loop_
 _symmetry_equiv_pos_site_id
 _symmetry_equiv_pos_as_xyz
  1  'x, y, z'
loop_
 _atom_site_type_symbol
 _atom_site_label
 _atom_site_symmetry_multiplicity
 _atom_site_fract_x
 _atom_site_fract_y
 _atom_site_fract_z
 _atom_site_occupancy
  Yb  Yb0  1  0.29911900  0.56382700  0.64202300  1
  Yb  Yb1  1  0.71665600  0.96048500  0.85375600  1
  Yb  Yb2  1  0.28334400  0.03951500  0.14624400  1
  Yb  Yb3  1  0.43617300  0.70088100  0.85797700  1
  Yb  Yb4  1  0.03951500  0.28334400  0.64624400  1
  Yb  Yb5  1  0.56382700  0.29911900  0.14202300  1
  Yb  Yb6  1  0.96048500  0.71665600  0.35375600  1
  Yb  Yb7  1  0.70088100  0.43617300  0.35797700  1
  Ge  Ge8  1  0.03796000  0.74370400  0.09961100  1
  Ge  Ge9  1  0.61012700  0.86239900  0.60122200  1
  Ge  Ge10  1  0.96204000  0.25629600  0.90038900  1
  Ge  Ge11  1  0.38043100  0.61956900  0.25000000  1
  Ge  Ge12  1  0.38987300  0.13760100  0.39877800  1
  Ge  Ge13  1  0.56632000  0.09470000  0.06535900  1
  Ge  Ge14  1  0.13760100  0.38987300  0.89877800  1
  Ge  Ge15  1  0.25629600  0.96204000  0.40038900  1
  Ge  Ge16  1  0.09470000  0.56632000  0.56535900  1
  Ge  Ge17  1  0.43368000  0.90530000  0.93464100  1
  Ge  Ge18  1  0.13064400  0.86935600  0.75000000  1
  Ge  Ge19  1  0.74370400  0.03796000  0.59961100  1
  Ge  Ge20  1  0.86935600  0.13064400  0.25000000  1
  Ge  Ge21  1  0.61956900  0.38043100  0.75000000  1
  Ge  Ge22  1  0.90530000  0.43368000  0.43464100  1
  Ge  Ge23  1  0.86239900  0.61012700  0.10122200  1
  Ru  Ru24  1  0.13859700  0.89872600  0.08831700  1
  Ru  Ru25  1  0.15153800  0.36661800  0.22375900  1
  Ru  Ru26  1  0.36661800  0.15153800  0.72375900  1
  Ru  Ru27  1  0.84846200  0.63338200  0.77624100  1
  Ru  Ru28  1  0.50652100  0.24297300  0.43832500  1
  Ru  Ru29  1  0.86140300  0.10127400  0.91168300  1
  Ru  Ru30  1  0.63338200  0.84846200  0.27624100  1
  Ru  Ru31  1  0.24297300  0.50652100  0.93832500  1
  Ru  Ru32  1  0.75702700  0.49347900  0.06167500  1
  Ru  Ru33  1  0.10127400  0.86140300  0.41168300  1
  Ru  Ru34  1  0.89872600  0.13859700  0.58831700  1
  Ru  Ru35  1  0.49347900  0.75702700  0.56167500  1
