# generated using pymatgen
data_TlIn(MoO4)2
_symmetry_space_group_name_H-M   'P 1'
_cell_length_a   6.00829400
_cell_length_b   9.00103100
_cell_length_c   15.19631400
_cell_angle_alpha   90.00000000
_cell_angle_beta   90.00000000
_cell_angle_gamma   90.00000000
_symmetry_Int_Tables_number   1
_chemical_formula_structural   TlIn(MoO4)2
_chemical_formula_sum   'Tl4 In4 Mo8 O32'
_cell_volume   821.82943440
_cell_formula_units_Z   4
loop_
 _symmetry_equiv_pos_site_id
 _symmetry_equiv_pos_as_xyz
  1  'x, y, z'
loop_
 _atom_site_type_symbol
 _atom_site_label
 _atom_site_symmetry_multiplicity
 _atom_site_fract_x
 _atom_site_fract_y
 _atom_site_fract_z
 _atom_site_occupancy
  Tl  Tl0  1  0.75000000  0.94642500  0.87308100  1
  Tl  Tl1  1  0.25000000  0.44642500  0.62691900  1
  Tl  Tl2  1  0.75000000  0.55357500  0.37308100  1
  Tl  Tl3  1  0.25000000  0.05357500  0.12691900  1
  In  In4  1  0.25000000  0.30300900  0.89232300  1
  In  In5  1  0.75000000  0.80300900  0.60767700  1
  In  In6  1  0.75000000  0.69699100  0.10767700  1
  In  In7  1  0.25000000  0.19699100  0.39232300  1
  Mo  Mo8  1  0.75000000  0.21105100  0.53824600  1
  Mo  Mo9  1  0.25000000  0.49883200  0.21754200  1
  Mo  Mo10  1  0.25000000  0.71105100  0.96175400  1
  Mo  Mo11  1  0.75000000  0.99883200  0.28245800  1
  Mo  Mo12  1  0.75000000  0.28894900  0.03824600  1
  Mo  Mo13  1  0.75000000  0.50116800  0.78245800  1
  Mo  Mo14  1  0.25000000  0.78894900  0.46175400  1
  Mo  Mo15  1  0.25000000  0.00116800  0.71754200  1
  O  O16  1  0.50143000  0.60600600  0.19749300  1
  O  O17  1  0.75000000  0.59068900  0.67445300  1
  O  O18  1  0.25000000  0.35426000  0.14128000  1
  O  O19  1  0.49857000  0.10600600  0.30250700  1
  O  O20  1  0.75000000  0.85426000  0.35872000  1
  O  O21  1  0.25000000  0.98783300  0.46259600  1
  O  O22  1  0.00576000  0.71590700  0.51912200  1
  O  O23  1  0.75000000  0.48783300  0.03740400  1
  O  O24  1  0.25000000  0.51216700  0.96259600  1
  O  O25  1  0.99424000  0.28409300  0.48087800  1
  O  O26  1  0.00143000  0.10600600  0.30250700  1
  O  O27  1  0.00576000  0.78409300  0.01912200  1
  O  O28  1  0.75000000  0.64574000  0.85872000  1
  O  O29  1  0.50143000  0.89399400  0.69749300  1
  O  O30  1  0.25000000  0.09068900  0.82554700  1
  O  O31  1  0.75000000  0.90931100  0.17445300  1
  O  O32  1  0.99424000  0.21590700  0.98087800  1
  O  O33  1  0.25000000  0.71990500  0.35396400  1
  O  O34  1  0.49424000  0.78409300  0.01912200  1
  O  O35  1  0.25000000  0.14574000  0.64128000  1
  O  O36  1  0.49857000  0.39399400  0.80250700  1
  O  O37  1  0.00143000  0.39399400  0.80250700  1
  O  O38  1  0.75000000  0.28009500  0.64603600  1
  O  O39  1  0.99857000  0.89399400  0.69749300  1
  O  O40  1  0.75000000  0.21990500  0.14603600  1
  O  O41  1  0.75000000  0.01216700  0.53740400  1
  O  O42  1  0.50576000  0.28409300  0.48087800  1
  O  O43  1  0.25000000  0.78009500  0.85396400  1
  O  O44  1  0.25000000  0.40931100  0.32554700  1
  O  O45  1  0.99857000  0.60600600  0.19749300  1
  O  O46  1  0.49424000  0.71590700  0.51912200  1
  O  O47  1  0.50576000  0.21590700  0.98087800  1
