# generated using pymatgen
data_H7ClO3
_symmetry_space_group_name_H-M   'P 1'
_cell_length_a   6.41121042
_cell_length_b   6.41121042
_cell_length_c   6.78989888
_cell_angle_alpha   70.74928569
_cell_angle_beta   70.74928569
_cell_angle_gamma   107.23131530
_symmetry_Int_Tables_number   1
_chemical_formula_structural   H7ClO3
_chemical_formula_sum   'H14 Cl2 O6'
_cell_volume   221.59730313
_cell_formula_units_Z   2
loop_
 _symmetry_equiv_pos_site_id
 _symmetry_equiv_pos_as_xyz
  1  'x, y, z'
loop_
 _atom_site_type_symbol
 _atom_site_label
 _atom_site_symmetry_multiplicity
 _atom_site_fract_x
 _atom_site_fract_y
 _atom_site_fract_z
 _atom_site_occupancy
  H  H0  1  0.79276400  0.82070900  0.55124200  1
  H  H1  1  0.67069500  0.91653400  0.39700900  1
  H  H2  1  0.82070900  0.79276400  0.05124200  1
  H  H3  1  0.91653400  0.67069500  0.89700900  1
  H  H4  1  0.18454200  0.30757200  0.75612800  1
  H  H5  1  0.46879900  0.53949100  0.61718200  1
  H  H6  1  0.53949100  0.46879900  0.11718200  1
  H  H7  1  0.30757200  0.18454200  0.25612800  1
  H  H8  1  0.49985400  0.94606700  0.74121900  1
  H  H9  1  0.41380200  0.22138200  0.72453500  1
  H  H10  1  0.57977600  0.07506400  0.88636700  1
  H  H11  1  0.94606700  0.49985400  0.24121900  1
  H  H12  1  0.22138200  0.41380200  0.22453500  1
  H  H13  1  0.07506400  0.57977600  0.38636700  1
  Cl  Cl14  1  0.13056200  0.83283800  0.51796200  1
  Cl  Cl15  1  0.83283800  0.13056200  0.01796200  1
  O  O16  1  0.62895500  0.80453200  0.56118700  1
  O  O17  1  0.80453200  0.62895500  0.06118700  1
  O  O18  1  0.36308900  0.36595500  0.64282300  1
  O  O19  1  0.36595500  0.36308900  0.14282300  1
  O  O20  1  0.45097900  0.02873500  0.83624700  1
  O  O21  1  0.02873500  0.45097900  0.33624700  1
