# generated using pymatgen
data_NaCa2V3(CoO6)2
_symmetry_space_group_name_H-M   'P 1'
_cell_length_a   10.87736625
_cell_length_b   10.87736625
_cell_length_c   10.87736625
_cell_angle_alpha   109.35183260
_cell_angle_beta   109.35183260
_cell_angle_gamma   109.71026148
_symmetry_Int_Tables_number   1
_chemical_formula_structural   NaCa2V3(CoO6)2
_chemical_formula_sum   'Na4 Ca8 V12 Co8 O48'
_cell_volume   990.70348801
_cell_formula_units_Z   4
loop_
 _symmetry_equiv_pos_site_id
 _symmetry_equiv_pos_as_xyz
  1  'x, y, z'
loop_
 _atom_site_type_symbol
 _atom_site_label
 _atom_site_symmetry_multiplicity
 _atom_site_fract_x
 _atom_site_fract_y
 _atom_site_fract_z
 _atom_site_occupancy
  Na  Na0  1  0.50000000  0.00000000  0.50000000  1
  Na  Na1  1  0.25000000  0.25000000  0.00000000  1
  Na  Na2  1  0.00000000  0.50000000  0.50000000  1
  Na  Na3  1  0.75000000  0.75000000  0.00000000  1
  Ca  Ca4  1  0.99800200  0.12500000  0.37300200  1
  Ca  Ca5  1  0.37500000  0.00199800  0.12699800  1
  Ca  Ca6  1  0.49800200  0.12500000  0.87300200  1
  Ca  Ca7  1  0.37500000  0.50199800  0.62699800  1
  Ca  Ca8  1  0.75199800  0.62500000  0.62699800  1
  Ca  Ca9  1  0.87500000  0.24800200  0.87300200  1
  Ca  Ca10  1  0.87500000  0.74800200  0.37300200  1
  Ca  Ca11  1  0.25199800  0.62500000  0.12699800  1
  V  V12  1  0.00000000  0.00000000  0.00000000  1
  V  V13  1  0.87500000  0.99935600  0.62435600  1
  V  V14  1  0.24935600  0.12500000  0.62435600  1
  V  V15  1  0.74935600  0.12500000  0.12435600  1
  V  V16  1  0.37500000  0.25064400  0.37564400  1
  V  V17  1  0.75000000  0.25000000  0.50000000  1
  V  V18  1  0.50000000  0.50000000  0.00000000  1
  V  V19  1  0.00064400  0.62500000  0.87564400  1
  V  V20  1  0.87500000  0.49935600  0.12435600  1
  V  V21  1  0.50064400  0.62500000  0.37564400  1
  V  V22  1  0.37500000  0.75064400  0.87564400  1
  V  V23  1  0.25000000  0.75000000  0.50000000  1
  Co  Co24  1  0.12500000  0.87500000  0.75000000  1
  Co  Co25  1  0.62500000  0.87500000  0.75000000  1
  Co  Co26  1  0.62500000  0.37500000  0.75000000  1
  Co  Co27  1  0.12500000  0.37500000  0.75000000  1
  Co  Co28  1  0.62500000  0.37500000  0.25000000  1
  Co  Co29  1  0.12500000  0.37500000  0.25000000  1
  Co  Co30  1  0.12500000  0.87500000  0.25000000  1
  Co  Co31  1  0.62500000  0.87500000  0.25000000  1
  O  O32  1  0.74182800  0.98062700  0.16392800  1
  O  O33  1  0.13965800  0.98859500  0.95719100  1
  O  O34  1  0.33290200  0.89277700  0.87100000  1
  O  O35  1  0.01140500  0.96859600  0.15106300  1
  O  O36  1  0.83290200  0.96190200  0.44012500  1
  O  O37  1  0.10722300  0.97822300  0.44012500  1
  O  O38  1  0.32790000  0.06669800  0.33607200  1
  O  O39  1  0.22822300  0.28809800  0.37100000  1
  O  O40  1  0.42210000  0.25817200  0.23879800  1
  O  O41  1  0.60722300  0.16709800  0.12900000  1
  O  O42  1  0.43246700  0.88965800  0.65106300  1
  O  O43  1  0.01937300  0.18330200  0.76120200  1
  O  O44  1  0.61034200  0.06753300  0.34893700  1
  O  O45  1  0.24182800  0.07790000  0.76120200  1
  O  O46  1  0.21190200  0.27177700  0.62900000  1
  O  O47  1  0.43330200  0.17210000  0.66392800  1
  O  O48  1  0.03140400  0.18246700  0.04280900  1
  O  O49  1  0.73062700  0.99182800  0.66392800  1
  O  O50  1  0.93330200  0.26937300  0.26120200  1
  O  O51  1  0.52177700  0.39277700  0.55987500  1
  O  O52  1  0.73859500  0.38965800  0.45719100  1
  O  O53  1  0.71859600  0.26140500  0.65106300  1
  O  O54  1  0.71190200  0.08290200  0.94012500  1
  O  O55  1  0.31753300  0.46859600  0.95719100  1
  O  O56  1  0.93246700  0.28140400  0.54280900  1
  O  O57  1  0.53809800  0.66709800  0.55987500  1
  O  O58  1  0.53140400  0.48859500  0.84893700  1
  O  O59  1  0.51140500  0.36034200  0.04280900  1
  O  O60  1  0.72822300  0.35722300  0.94012500  1
  O  O61  1  0.31669800  0.48062700  0.23879800  1
  O  O62  1  0.51937300  0.75817200  0.83607200  1
  O  O63  1  0.21859600  0.56753300  0.45719100  1
  O  O64  1  0.81669800  0.57790000  0.83607200  1
  O  O65  1  0.03809800  0.47822300  0.87100000  1
  O  O66  1  0.00817200  0.67210000  0.73879800  1
  O  O67  1  0.63965800  0.68246700  0.15106300  1
  O  O68  1  0.23062700  0.56669800  0.73879800  1
  O  O69  1  0.81753300  0.86034200  0.84893700  1
  O  O70  1  0.64277700  0.58290200  0.37100000  1
  O  O71  1  0.82790000  0.49182800  0.26120200  1
  O  O72  1  0.02177700  0.46190200  0.12900000  1
  O  O73  1  0.92210000  0.68330200  0.16392800  1
  O  O74  1  0.14277700  0.77177700  0.05987500  1
  O  O75  1  0.41709800  0.78809800  0.05987500  1
  O  O76  1  0.23859500  0.78140400  0.34893700  1
  O  O77  1  0.91709800  0.85722300  0.62900000  1
  O  O78  1  0.11034200  0.76140500  0.54280900  1
  O  O79  1  0.50817200  0.76937300  0.33607200  1
