# generated using pymatgen
data_Er2Ga10Os3
_symmetry_space_group_name_H-M   'P 1'
_cell_length_a   8.90865100
_cell_length_b   8.90865100
_cell_length_c   6.40628400
_cell_angle_alpha   90.00000000
_cell_angle_beta   90.00000000
_cell_angle_gamma   90.00000000
_symmetry_Int_Tables_number   1
_chemical_formula_structural   Er2Ga10Os3
_chemical_formula_sum   'Er4 Ga20 Os6'
_cell_volume   508.42872466
_cell_formula_units_Z   2
loop_
 _symmetry_equiv_pos_site_id
 _symmetry_equiv_pos_as_xyz
  1  'x, y, z'
loop_
 _atom_site_type_symbol
 _atom_site_label
 _atom_site_symmetry_multiplicity
 _atom_site_fract_x
 _atom_site_fract_y
 _atom_site_fract_z
 _atom_site_occupancy
  Er  Er0  1  0.68263200  0.18263200  0.00000000  1
  Er  Er1  1  0.31736800  0.81736800  0.00000000  1
  Er  Er2  1  0.81736800  0.68263200  0.00000000  1
  Er  Er3  1  0.18263200  0.31736800  0.00000000  1
  Ga  Ga4  1  0.93870000  0.20678300  0.29262400  1
  Ga  Ga5  1  0.70678300  0.43870000  0.29262400  1
  Ga  Ga6  1  0.50000000  0.00000000  0.28376200  1
  Ga  Ga7  1  0.56130000  0.70678300  0.70737600  1
  Ga  Ga8  1  0.29321700  0.56130000  0.70737600  1
  Ga  Ga9  1  0.79321700  0.93870000  0.29262400  1
  Ga  Ga10  1  0.93870000  0.20678300  0.70737600  1
  Ga  Ga11  1  0.29321700  0.56130000  0.29262400  1
  Ga  Ga12  1  0.06130000  0.79321700  0.29262400  1
  Ga  Ga13  1  0.70678300  0.43870000  0.70737600  1
  Ga  Ga14  1  0.43870000  0.29321700  0.70737600  1
  Ga  Ga15  1  0.06130000  0.79321700  0.70737600  1
  Ga  Ga16  1  0.20678300  0.06130000  0.70737600  1
  Ga  Ga17  1  0.79321700  0.93870000  0.70737600  1
  Ga  Ga18  1  0.20678300  0.06130000  0.29262400  1
  Ga  Ga19  1  0.00000000  0.50000000  0.71623800  1
  Ga  Ga20  1  0.00000000  0.50000000  0.28376200  1
  Ga  Ga21  1  0.56130000  0.70678300  0.29262400  1
  Ga  Ga22  1  0.43870000  0.29321700  0.29262400  1
  Ga  Ga23  1  0.50000000  0.00000000  0.71623800  1
  Os  Os24  1  0.67869800  0.17869800  0.50000000  1
  Os  Os25  1  0.82130200  0.67869800  0.50000000  1
  Os  Os26  1  0.17869800  0.32130200  0.50000000  1
  Os  Os27  1  0.00000000  0.00000000  0.00000000  1
  Os  Os28  1  0.32130200  0.82130200  0.50000000  1
  Os  Os29  1  0.50000000  0.50000000  0.00000000  1
