# generated using pymatgen
data_CsRe3(S2Br)2
_symmetry_space_group_name_H-M   'P 1'
_cell_length_a   18.92505100
_cell_length_b   6.47086800
_cell_length_c   10.14817408
_cell_angle_alpha   65.75251661
_cell_angle_beta   90.00000000
_cell_angle_gamma   90.00000000
_symmetry_Int_Tables_number   1
_chemical_formula_structural   CsRe3(S2Br)2
_chemical_formula_sum   'Cs4 Re12 S16 Br8'
_cell_volume   1133.12444471
_cell_formula_units_Z   4
loop_
 _symmetry_equiv_pos_site_id
 _symmetry_equiv_pos_as_xyz
  1  'x, y, z'
loop_
 _atom_site_type_symbol
 _atom_site_label
 _atom_site_symmetry_multiplicity
 _atom_site_fract_x
 _atom_site_fract_y
 _atom_site_fract_z
 _atom_site_occupancy
  Cs  Cs0  1  0.69007400  0.05029400  0.94144100  1
  Cs  Cs1  1  0.19007400  0.94970600  0.55855900  1
  Cs  Cs2  1  0.80992600  0.05029400  0.44144100  1
  Cs  Cs3  1  0.30992600  0.94970600  0.05855900  1
  Re  Re4  1  0.49417100  0.78047400  0.42806800  1
  Re  Re5  1  0.05777600  0.82552800  0.15507800  1
  Re  Re6  1  0.50582900  0.21952600  0.57193200  1
  Re  Re7  1  0.58038400  0.85992200  0.60458900  1
  Re  Re8  1  0.91961600  0.85992200  0.10458900  1
  Re  Re9  1  0.00582900  0.78047400  0.92806800  1
  Re  Re10  1  0.08038400  0.14007800  0.89541100  1
  Re  Re11  1  0.44222400  0.82552800  0.65507800  1
  Re  Re12  1  0.41961600  0.14007800  0.39541100  1
  Re  Re13  1  0.99417100  0.21952600  0.07193200  1
  Re  Re14  1  0.55777600  0.17447200  0.34492200  1
  Re  Re15  1  0.94222400  0.17447200  0.84492200  1
  S  S16  1  0.36911300  0.76719500  0.47766900  1
  S  S17  1  0.11982200  0.17056900  0.11354100  1
  S  S18  1  0.63088700  0.23280500  0.52233100  1
  S  S19  1  0.02569600  0.08510800  0.69506400  1
  S  S20  1  0.51626900  0.50338500  0.68408000  1
  S  S21  1  0.86911300  0.23280500  0.02233100  1
  S  S22  1  0.52569600  0.91489200  0.80493600  1
  S  S23  1  0.13088700  0.76719500  0.97766900  1
  S  S24  1  0.47430400  0.08510800  0.19506400  1
  S  S25  1  0.61982200  0.82943100  0.38645900  1
  S  S26  1  0.97430400  0.91489200  0.30493600  1
  S  S27  1  0.48373100  0.49661500  0.31592000  1
  S  S28  1  0.88017800  0.82943100  0.88645900  1
  S  S29  1  0.98373100  0.50338500  0.18408000  1
  S  S30  1  0.01626900  0.49661500  0.81592000  1
  S  S31  1  0.38017800  0.17056900  0.61354100  1
  Br  Br32  1  0.36108800  0.59256800  0.86776200  1
  Br  Br33  1  0.63891200  0.40743200  0.13223800  1
  Br  Br34  1  0.86108800  0.40743200  0.63223800  1
  Br  Br35  1  0.69588400  0.68052900  0.74186300  1
  Br  Br36  1  0.80411600  0.68052900  0.24186300  1
  Br  Br37  1  0.19588400  0.31947100  0.75813700  1
  Br  Br38  1  0.30411600  0.31947100  0.25813700  1
  Br  Br39  1  0.13891200  0.59256800  0.36776200  1
