# generated using pymatgen
data_Ta8Pb6O25
_symmetry_space_group_name_H-M   'P 1'
_cell_length_a   7.55087566
_cell_length_b   7.55087566
_cell_length_c   10.61819548
_cell_angle_alpha   89.92665774
_cell_angle_beta   89.92665774
_cell_angle_gamma   90.27951071
_symmetry_Int_Tables_number   1
_chemical_formula_structural   Ta8Pb6O25
_chemical_formula_sum   'Ta8 Pb6 O25'
_cell_volume   605.39589430
_cell_formula_units_Z   1
loop_
 _symmetry_equiv_pos_site_id
 _symmetry_equiv_pos_as_xyz
  1  'x, y, z'
loop_
 _atom_site_type_symbol
 _atom_site_label
 _atom_site_symmetry_multiplicity
 _atom_site_fract_x
 _atom_site_fract_y
 _atom_site_fract_z
 _atom_site_occupancy
  Ta  Ta0  1  0.74985000  0.99810200  0.12617400  1
  Ta  Ta1  1  0.49337600  0.24854800  0.37699400  1
  Ta  Ta2  1  0.24763700  0.99635500  0.12683000  1
  Ta  Ta3  1  0.24821700  0.50408500  0.62320600  1
  Ta  Ta4  1  0.00189800  0.25015000  0.87382600  1
  Ta  Ta5  1  0.00364500  0.75236300  0.87317000  1
  Ta  Ta6  1  0.75145200  0.50662400  0.62300600  1
  Ta  Ta7  1  0.49591500  0.75178300  0.37679400  1
  Pb  Pb8  1  0.99080600  0.23105700  0.39211000  1
  Pb  Pb9  1  0.76894300  0.00919400  0.60789000  1
  Pb  Pb10  1  0.75014600  0.50025200  0.13318200  1
  Pb  Pb11  1  0.49974800  0.24985400  0.86681800  1
  Pb  Pb12  1  0.49529900  0.75127400  0.86834500  1
  Pb  Pb13  1  0.24872600  0.50470100  0.13165500  1
  O  O14  1  0.31006700  0.31660200  0.49604200  1
  O  O15  1  0.99972500  0.00806500  0.18395000  1
  O  O16  1  0.99193500  0.00027500  0.81605000  1
  O  O17  1  0.81155500  0.31182900  0.74942000  1
  O  O18  1  0.80751400  0.19248600  0.00000000  1
  O  O19  1  0.80958300  0.80856700  0.99965900  1
  O  O20  1  0.68376200  0.31623800  0.50000000  1
  O  O21  1  0.50206000  0.49753500  0.69407900  1
  O  O22  1  0.49874900  0.00242500  0.05699500  1
  O  O23  1  0.50246500  0.49794000  0.30592100  1
  O  O24  1  0.50027600  0.49972400  0.00000000  1
  O  O25  1  0.31341900  0.18705700  0.24883300  1
  O  O26  1  0.31475000  0.81146100  0.24753600  1
  O  O27  1  0.31963800  0.68036200  0.50000000  1
  O  O28  1  0.19143300  0.19041700  0.00034100  1
  O  O29  1  0.19184600  0.31670500  0.75495400  1
  O  O30  1  0.18991400  0.81008600  0.00000000  1
  O  O31  1  0.00012700  0.49030300  0.56469100  1
  O  O32  1  0.99757500  0.50125100  0.94300500  1
  O  O33  1  0.81294300  0.68658100  0.75116700  1
  O  O34  1  0.68817100  0.18844500  0.25058000  1
  O  O35  1  0.68329500  0.80815400  0.24504600  1
  O  O36  1  0.68339800  0.68993300  0.50395800  1
  O  O37  1  0.50969700  0.99987300  0.43530900  1
  O  O38  1  0.18853900  0.68525000  0.75246400  1
