# generated using pymatgen
data_NaPr9Si6(SO12)2
_symmetry_space_group_name_H-M   'P 1'
_cell_length_a   6.96104100
_cell_length_b   9.96180000
_cell_length_c   19.92708783
_cell_angle_alpha   60.00750944
_cell_angle_beta   90.00000000
_cell_angle_gamma   90.00000000
_symmetry_Int_Tables_number   1
_chemical_formula_structural   NaPr9Si6(SO12)2
_chemical_formula_sum   'Na2 Pr18 Si12 S4 O48'
_cell_volume   1196.79381133
_cell_formula_units_Z   2
loop_
 _symmetry_equiv_pos_site_id
 _symmetry_equiv_pos_as_xyz
  1  'x, y, z'
loop_
 _atom_site_type_symbol
 _atom_site_label
 _atom_site_symmetry_multiplicity
 _atom_site_fract_x
 _atom_site_fract_y
 _atom_site_fract_z
 _atom_site_occupancy
  Na  Na0  1  0.25604000  0.66637500  0.33348000  1
  Na  Na1  1  0.74396000  0.66637500  0.83348000  1
  Pr  Pr2  1  0.49298000  0.75106200  0.12417500  1
  Pr  Pr3  1  0.24645000  0.33499000  0.16680400  1
  Pr  Pr4  1  0.74946200  0.33212400  0.16638700  1
  Pr  Pr5  1  0.49687700  0.00103400  0.37563700  1
  Pr  Pr6  1  0.50702000  0.75106200  0.62417500  1
  Pr  Pr7  1  0.00169000  0.76093300  0.49378500  1
  Pr  Pr8  1  0.50346500  0.24755800  0.00056000  1
  Pr  Pr9  1  0.99990800  0.98788500  0.12586200  1
  Pr  Pr10  1  0.74484900  0.66697400  0.33321900  1
  Pr  Pr11  1  0.25053800  0.33212400  0.66638700  1
  Pr  Pr12  1  0.75355000  0.33499000  0.66680400  1
  Pr  Pr13  1  0.50312300  0.00103400  0.87563700  1
  Pr  Pr14  1  0.99831000  0.76093300  0.99378500  1
  Pr  Pr15  1  0.49653500  0.24755800  0.50056000  1
  Pr  Pr16  1  0.00440000  0.25201500  0.38029300  1
  Pr  Pr17  1  0.00009200  0.98788500  0.62586200  1
  Pr  Pr18  1  0.25515100  0.66697400  0.83321900  1
  Pr  Pr19  1  0.99560000  0.25201500  0.88029300  1
  Si  Si20  1  0.50401200  0.37490000  0.29698700  1
  Si  Si21  1  0.49841200  0.59392400  0.01551500  1
  Si  Si22  1  0.99754500  0.96799100  0.30814000  1
  Si  Si23  1  0.50055900  0.03087500  0.18753600  1
  Si  Si24  1  0.49598800  0.37490000  0.79698700  1
  Si  Si25  1  0.50158800  0.59392400  0.51551500  1
  Si  Si26  1  0.99662100  0.41582900  0.48382200  1
  Si  Si27  1  0.99504000  0.61650800  0.20788500  1
  Si  Si28  1  0.00245500  0.96799100  0.80814000  1
  Si  Si29  1  0.49944100  0.03087500  0.68753600  1
  Si  Si30  1  0.00337900  0.41582900  0.98382200  1
  Si  Si31  1  0.00496000  0.61650800  0.70788500  1
  S  S32  1  0.25759300  0.99338300  0.50445100  1
  S  S33  1  0.24926400  0.00610500  0.99582500  1
  S  S34  1  0.74240700  0.99338300  0.00445100  1
  S  S35  1  0.75073600  0.00610500  0.49582500  1
  O  O36  1  0.30904500  0.63770400  0.05154500  1
  O  O37  1  0.68943600  0.63660500  0.05085200  1
  O  O38  1  0.99483500  0.49456900  0.17508000  1
  O  O39  1  0.49619700  0.47229000  0.20038600  1
  O  O40  1  0.69410600  0.26119500  0.31607100  1
  O  O41  1  0.31420700  0.25916900  0.32143800  1
  O  O42  1  0.49764800  0.40053100  0.06345500  1
  O  O43  1  0.99801200  0.15543400  0.24697600  1
  O  O44  1  0.00529800  0.34986300  0.07761500  1
  O  O45  1  0.49162500  0.12686300  0.23614400  1
  O  O46  1  0.80358900  0.90445900  0.36326800  1
  O  O47  1  0.17379800  0.92291100  0.37043000  1
  O  O48  1  0.31370300  0.09805700  0.12823800  1
  O  O49  1  0.69324200  0.10578600  0.13198300  1
  O  O50  1  0.31056400  0.63660500  0.55085200  1
  O  O51  1  0.69095500  0.63770400  0.55154500  1
  O  O52  1  0.00516500  0.49456900  0.67508000  1
  O  O53  1  0.50380300  0.47229000  0.70038600  1
  O  O54  1  0.00243400  0.87054900  0.26194600  1
  O  O55  1  0.50551500  0.67630800  0.42214500  1
  O  O56  1  0.50534700  0.84418700  0.23988800  1
  O  O57  1  0.68579300  0.25916900  0.82143800  1
  O  O58  1  0.30589400  0.26119500  0.81607100  1
  O  O59  1  0.00033200  0.60565900  0.43536900  1
  O  O60  1  0.50235200  0.40053100  0.56345500  1
  O  O61  1  0.17140000  0.74108000  0.16814600  1
  O  O62  1  0.80126400  0.72659300  0.18495000  1
  O  O63  1  0.00198800  0.15543400  0.74697600  1
  O  O64  1  0.99470200  0.34986300  0.57761500  1
  O  O65  1  0.50837500  0.12686300  0.73614400  1
  O  O66  1  0.00203700  0.52397200  0.30274200  1
  O  O67  1  0.50794100  0.47959600  0.33797500  1
  O  O68  1  0.80452300  0.36774000  0.45178700  1
  O  O69  1  0.17522300  0.33840900  0.46121300  1
  O  O70  1  0.82620200  0.92291100  0.87043000  1
  O  O71  1  0.19641100  0.90445900  0.86326800  1
  O  O72  1  0.68629700  0.09805700  0.62823800  1
  O  O73  1  0.30675800  0.10578600  0.63198300  1
  O  O74  1  0.99756600  0.87054900  0.76194600  1
  O  O75  1  0.49448500  0.67630800  0.92214500  1
  O  O76  1  0.49465300  0.84418700  0.73988800  1
  O  O77  1  0.99966800  0.60565900  0.93536900  1
  O  O78  1  0.19873600  0.72659300  0.68495000  1
  O  O79  1  0.82860000  0.74108000  0.66814600  1
  O  O80  1  0.99796300  0.52397200  0.80274200  1
  O  O81  1  0.49205900  0.47959600  0.83797500  1
  O  O82  1  0.19547700  0.36774000  0.95178700  1
  O  O83  1  0.82477700  0.33840900  0.96121300  1
