# generated using pymatgen
data_RbCa(H2N)3
_symmetry_space_group_name_H-M   'P 1'
_cell_length_a   7.05899984
_cell_length_b   7.05899984
_cell_length_c   6.67904466
_cell_angle_alpha   79.39460581
_cell_angle_beta   79.39460581
_cell_angle_gamma   116.95462998
_symmetry_Int_Tables_number   1
_chemical_formula_structural   RbCa(H2N)3
_chemical_formula_sum   'Rb2 Ca2 H12 N6'
_cell_volume   277.67105835
_cell_formula_units_Z   2
loop_
 _symmetry_equiv_pos_site_id
 _symmetry_equiv_pos_as_xyz
  1  'x, y, z'
loop_
 _atom_site_type_symbol
 _atom_site_label
 _atom_site_symmetry_multiplicity
 _atom_site_fract_x
 _atom_site_fract_y
 _atom_site_fract_z
 _atom_site_occupancy
  Rb  Rb0  1  0.28917400  0.71082600  0.75000000  1
  Rb  Rb1  1  0.71082600  0.28917400  0.25000000  1
  Ca  Ca2  1  0.00000000  0.00000000  0.50000000  1
  Ca  Ca3  1  0.00000000  0.00000000  0.00000000  1
  H  H4  1  0.09684700  0.68530000  0.33564100  1
  H  H5  1  0.31470000  0.90315300  0.16435900  1
  H  H6  1  0.90315300  0.31470000  0.66435900  1
  H  H7  1  0.68530000  0.09684700  0.83564100  1
  H  H8  1  0.19725100  0.46473900  0.19817900  1
  H  H9  1  0.53526100  0.80274900  0.30182100  1
  H  H10  1  0.80274900  0.53526100  0.80182100  1
  H  H11  1  0.46473900  0.19725100  0.69817900  1
  H  H12  1  0.67585900  0.65726500  0.88696900  1
  H  H13  1  0.34273500  0.32414100  0.61303100  1
  H  H14  1  0.32414100  0.34273500  0.11303100  1
  H  H15  1  0.65726500  0.67585900  0.38696900  1
  N  N16  1  0.84702000  0.15298000  0.75000000  1
  N  N17  1  0.15298000  0.84702000  0.25000000  1
  N  N18  1  0.16577500  0.31783500  0.16528300  1
  N  N19  1  0.68216500  0.83422500  0.33471700  1
  N  N20  1  0.83422500  0.68216500  0.83471700  1
  N  N21  1  0.31783500  0.16577500  0.66528300  1
