# generated using pymatgen
data_Ba2PrRuO6
_symmetry_space_group_name_H-M   'P 1'
_cell_length_a   6.07697962
_cell_length_b   6.07697962
_cell_length_c   6.12725577
_cell_angle_alpha   60.00554275
_cell_angle_beta   60.00554275
_cell_angle_gamma   59.97041579
_symmetry_Int_Tables_number   1
_chemical_formula_structural   Ba2PrRuO6
_chemical_formula_sum   'Ba2 Pr1 Ru1 O6'
_cell_volume   159.98001738
_cell_formula_units_Z   1
loop_
 _symmetry_equiv_pos_site_id
 _symmetry_equiv_pos_as_xyz
  1  'x, y, z'
loop_
 _atom_site_type_symbol
 _atom_site_label
 _atom_site_symmetry_multiplicity
 _atom_site_fract_x
 _atom_site_fract_y
 _atom_site_fract_z
 _atom_site_occupancy
  Ba  Ba0  1  0.74823200  0.74823200  0.25485800  1
  Ba  Ba1  1  0.25176800  0.25176800  0.74514200  1
  Pr  Pr2  1  0.50000000  0.50000000  0.00000000  1
  Ru  Ru3  1  0.00000000  0.00000000  0.50000000  1
  O  O4  1  0.22847100  0.22847100  0.22244000  1
  O  O5  1  0.77152900  0.77152900  0.77756000  1
  O  O6  1  0.25669500  0.79532400  0.70157200  1
  O  O7  1  0.20467600  0.74330500  0.29842800  1
  O  O8  1  0.74330500  0.20467600  0.29842800  1
  O  O9  1  0.79532400  0.25669500  0.70157200  1
