# generated using pymatgen
data_NaCa2Mg2(AsO4)3
_symmetry_space_group_name_H-M   'P 1'
_cell_length_a   10.84603246
_cell_length_b   10.84603246
_cell_length_c   10.84603246
_cell_angle_alpha   109.48114205
_cell_angle_beta   109.48114205
_cell_angle_gamma   109.45137962
_symmetry_Int_Tables_number   1
_chemical_formula_structural   NaCa2Mg2(AsO4)3
_chemical_formula_sum   'Na4 Ca8 Mg8 As12 O48'
_cell_volume   982.17928395
_cell_formula_units_Z   4
loop_
 _symmetry_equiv_pos_site_id
 _symmetry_equiv_pos_as_xyz
  1  'x, y, z'
loop_
 _atom_site_type_symbol
 _atom_site_label
 _atom_site_symmetry_multiplicity
 _atom_site_fract_x
 _atom_site_fract_y
 _atom_site_fract_z
 _atom_site_occupancy
  Na  Na0  1  0.75000000  0.75000000  0.00000000  1
  Na  Na1  1  0.50000000  0.00000000  0.50000000  1
  Na  Na2  1  0.25000000  0.25000000  0.00000000  1
  Na  Na3  1  0.00000000  0.50000000  0.50000000  1
  Ca  Ca4  1  0.12500000  0.75230700  0.12730700  1
  Ca  Ca5  1  0.00230700  0.87500000  0.62730700  1
  Ca  Ca6  1  0.12500000  0.25230700  0.62730700  1
  Ca  Ca7  1  0.50230700  0.87500000  0.12730700  1
  Ca  Ca8  1  0.62500000  0.99769300  0.87269300  1
  Ca  Ca9  1  0.24769300  0.37500000  0.37269300  1
  Ca  Ca10  1  0.62500000  0.49769300  0.37269300  1
  Ca  Ca11  1  0.74769300  0.37500000  0.87269300  1
  Mg  Mg12  1  0.37500000  0.62500000  0.75000000  1
  Mg  Mg13  1  0.87500000  0.12500000  0.25000000  1
  Mg  Mg14  1  0.87500000  0.12500000  0.75000000  1
  Mg  Mg15  1  0.37500000  0.12500000  0.25000000  1
  Mg  Mg16  1  0.37500000  0.12500000  0.75000000  1
  Mg  Mg17  1  0.87500000  0.62500000  0.25000000  1
  Mg  Mg18  1  0.37500000  0.62500000  0.25000000  1
  Mg  Mg19  1  0.87500000  0.62500000  0.75000000  1
  As  As20  1  0.25000000  0.75000000  0.50000000  1
  As  As21  1  0.62500000  0.74985600  0.62485600  1
  As  As22  1  0.25014400  0.87500000  0.87514400  1
  As  As23  1  0.75014400  0.87500000  0.37514400  1
  As  As24  1  0.12500000  0.00014400  0.37514400  1
  As  As25  1  0.00000000  0.00000000  0.00000000  1
  As  As26  1  0.75000000  0.25000000  0.50000000  1
  As  As27  1  0.99985600  0.37500000  0.12485600  1
  As  As28  1  0.62500000  0.24985600  0.12485600  1
  As  As29  1  0.49985600  0.37500000  0.62485600  1
  As  As30  1  0.12500000  0.50014400  0.87514400  1
  As  As31  1  0.50000000  0.50000000  0.00000000  1
  O  O32  1  0.06867600  0.73132400  0.73856000  1
  O  O33  1  0.28109200  0.73990300  0.35094300  1
  O  O34  1  0.26938900  0.64088600  0.05762800  1
  O  O35  1  0.06985100  0.71890800  0.45881100  1
  O  O36  1  0.76938900  0.71176200  0.62850400  1
  O  O37  1  0.78823800  0.73061100  0.37149600  1
  O  O38  1  0.98132400  0.81867600  0.23856000  1
  O  O39  1  0.16674200  0.03823800  0.55762800  1
  O  O40  1  0.28823800  0.91674200  0.05762800  1
  O  O41  1  0.26867600  0.00723700  0.33735200  1
  O  O42  1  0.48990300  0.63896000  0.95881100  1
  O  O43  1  0.66988400  0.93132400  0.66264800  1
  O  O44  1  0.96890800  0.81985100  0.95881100  1
  O  O45  1  0.56867600  0.83011600  0.33735200  1
  O  O46  1  0.89088600  0.01938900  0.55762800  1
  O  O47  1  0.38896000  0.93014900  0.64905700  1
  O  O48  1  0.75723700  0.91988400  0.23856000  1
  O  O49  1  0.58011600  0.74276300  0.76144000  1
  O  O50  1  0.08325800  0.14088600  0.37149600  1
  O  O51  1  0.25723700  0.01867600  0.83735200  1
  O  O52  1  0.18014900  0.13896000  0.14905700  1
  O  O53  1  0.86104000  0.01009700  0.04118900  1
  O  O54  1  0.35911400  0.41674200  0.62850400  1
  O  O55  1  0.98990300  0.03109200  0.85094300  1
  O  O56  1  0.76009700  0.21890800  0.64905700  1
  O  O57  1  0.39088600  0.83325800  0.87149600  1
  O  O58  1  0.88896000  0.23990300  0.45881100  1
  O  O59  1  0.56985100  0.11104000  0.35094300  1
  O  O60  1  0.49276300  0.23132400  0.66264800  1
  O  O61  1  0.66674200  0.10911400  0.12850400  1
  O  O62  1  0.16988400  0.50723700  0.73856000  1
  O  O63  1  0.99276300  0.33011600  0.26144000  1
  O  O64  1  0.36104000  0.31985100  0.85094300  1
  O  O65  1  0.85911400  0.23061100  0.94237200  1
  O  O66  1  0.18132400  0.41988400  0.16264800  1
  O  O67  1  0.78109200  0.43014900  0.54118900  1
  O  O68  1  0.08011600  0.31867600  0.83735200  1
  O  O69  1  0.26009700  0.61104000  0.54118900  1
  O  O70  1  0.48132400  0.24276300  0.16264800  1
  O  O71  1  0.46176200  0.33325800  0.44237200  1
  O  O72  1  0.58325800  0.21176200  0.94237200  1
  O  O73  1  0.76867600  0.43132400  0.26144000  1
  O  O74  1  0.96176200  0.51938900  0.12850400  1
  O  O75  1  0.98061100  0.53823800  0.87149600  1
  O  O76  1  0.68014900  0.53109200  0.04118900  1
  O  O77  1  0.46890800  0.51009700  0.14905700  1
  O  O78  1  0.48061100  0.60911400  0.44237200  1
  O  O79  1  0.68132400  0.51867600  0.76144000  1
