# generated using pymatgen
data_Lu2Si5Ru3
_symmetry_space_group_name_H-M   'P 1'
_cell_length_a   10.67770300
_cell_length_b   10.67770300
_cell_length_c   5.56071600
_cell_angle_alpha   90.00000000
_cell_angle_beta   90.00000000
_cell_angle_gamma   90.00000000
_symmetry_Int_Tables_number   1
_chemical_formula_structural   Lu2Si5Ru3
_chemical_formula_sum   'Lu8 Si20 Ru12'
_cell_volume   633.99581149
_cell_formula_units_Z   4
loop_
 _symmetry_equiv_pos_site_id
 _symmetry_equiv_pos_as_xyz
  1  'x, y, z'
loop_
 _atom_site_type_symbol
 _atom_site_label
 _atom_site_symmetry_multiplicity
 _atom_site_fract_x
 _atom_site_fract_y
 _atom_site_fract_z
 _atom_site_occupancy
  Lu  Lu0  1  0.92931100  0.23654700  0.00000000  1
  Lu  Lu1  1  0.73654700  0.42931100  0.50000000  1
  Lu  Lu2  1  0.76345300  0.92931100  0.00000000  1
  Lu  Lu3  1  0.42931100  0.26345300  0.50000000  1
  Lu  Lu4  1  0.23654700  0.07068900  0.00000000  1
  Lu  Lu5  1  0.57068900  0.73654700  0.50000000  1
  Lu  Lu6  1  0.26345300  0.57068900  0.50000000  1
  Lu  Lu7  1  0.07068900  0.76345300  0.00000000  1
  Si  Si8  1  0.67464500  0.17464500  0.75000000  1
  Si  Si9  1  0.17464500  0.32535500  0.25000000  1
  Si  Si10  1  0.32535500  0.82535500  0.25000000  1
  Si  Si11  1  0.81921600  0.47392700  0.00000000  1
  Si  Si12  1  0.31921600  0.02607300  0.50000000  1
  Si  Si13  1  0.50000000  0.50000000  0.74355800  1
  Si  Si14  1  0.52607300  0.81921600  0.00000000  1
  Si  Si15  1  0.50000000  0.50000000  0.25644200  1
  Si  Si16  1  0.68078400  0.97392700  0.50000000  1
  Si  Si17  1  0.17464500  0.32535500  0.75000000  1
  Si  Si18  1  0.97392700  0.31921600  0.50000000  1
  Si  Si19  1  0.18078400  0.52607300  0.00000000  1
  Si  Si20  1  0.47392700  0.18078400  0.00000000  1
  Si  Si21  1  0.00000000  0.00000000  0.24355800  1
  Si  Si22  1  0.82535500  0.67464500  0.25000000  1
  Si  Si23  1  0.02607300  0.68078400  0.50000000  1
  Si  Si24  1  0.82535500  0.67464500  0.75000000  1
  Si  Si25  1  0.00000000  0.00000000  0.75644200  1
  Si  Si26  1  0.32535500  0.82535500  0.75000000  1
  Si  Si27  1  0.67464500  0.17464500  0.25000000  1
  Ru  Ru28  1  0.62515900  0.35595500  0.00000000  1
  Ru  Ru29  1  0.12515900  0.14404500  0.50000000  1
  Ru  Ru30  1  0.85595500  0.12515900  0.50000000  1
  Ru  Ru31  1  0.37484100  0.64404500  0.00000000  1
  Ru  Ru32  1  0.50000000  0.00000000  0.75000000  1
  Ru  Ru33  1  0.64404500  0.62515900  0.00000000  1
  Ru  Ru34  1  0.50000000  0.00000000  0.25000000  1
  Ru  Ru35  1  0.35595500  0.37484100  0.00000000  1
  Ru  Ru36  1  0.87484100  0.85595500  0.50000000  1
  Ru  Ru37  1  0.00000000  0.50000000  0.75000000  1
  Ru  Ru38  1  0.14404500  0.87484100  0.50000000  1
  Ru  Ru39  1  0.00000000  0.50000000  0.25000000  1
