# generated using pymatgen
data_Re3S4Br
_symmetry_space_group_name_H-M   'P 1'
_cell_length_a   11.66683800
_cell_length_b   6.45647800
_cell_length_c   11.08743989
_cell_angle_alpha   64.91554124
_cell_angle_beta   90.00000000
_cell_angle_gamma   90.00000000
_symmetry_Int_Tables_number   1
_chemical_formula_structural   Re3S4Br
_chemical_formula_sum   'Re12 S16 Br4'
_cell_volume   756.40908134
_cell_formula_units_Z   4
loop_
 _symmetry_equiv_pos_site_id
 _symmetry_equiv_pos_as_xyz
  1  'x, y, z'
loop_
 _atom_site_type_symbol
 _atom_site_label
 _atom_site_symmetry_multiplicity
 _atom_site_fract_x
 _atom_site_fract_y
 _atom_site_fract_z
 _atom_site_occupancy
  Re  Re0  1  0.52410400  0.31119100  0.43682900  1
  Re  Re1  1  0.44088400  0.04191600  0.33538700  1
  Re  Re2  1  0.35290300  0.03604700  0.55354300  1
  Re  Re3  1  0.47589600  0.68880900  0.56317100  1
  Re  Re4  1  0.02410400  0.68880900  0.06317100  1
  Re  Re5  1  0.97589600  0.31119100  0.93682900  1
  Re  Re6  1  0.55911600  0.95808400  0.66461300  1
  Re  Re7  1  0.05911600  0.04191600  0.83538700  1
  Re  Re8  1  0.64709700  0.96395300  0.44645700  1
  Re  Re9  1  0.94088400  0.95808400  0.16461300  1
  Re  Re10  1  0.85290300  0.96395300  0.94645700  1
  Re  Re11  1  0.14709700  0.03604700  0.05354300  1
  S  S12  1  0.66400700  0.64175300  0.66173900  1
  S  S13  1  0.56386700  0.73282400  0.34448300  1
  S  S14  1  0.93613300  0.73282400  0.84448300  1
  S  S15  1  0.29010400  0.78414300  0.45910100  1
  S  S16  1  0.79010400  0.21585700  0.04089900  1
  S  S17  1  0.89794200  0.29449600  0.74130800  1
  S  S18  1  0.10205800  0.70550400  0.25869200  1
  S  S19  1  0.70989600  0.21585700  0.54089900  1
  S  S20  1  0.06386700  0.26717600  0.15551700  1
  S  S21  1  0.43613300  0.26717600  0.65551700  1
  S  S22  1  0.39794200  0.70550400  0.75869200  1
  S  S23  1  0.33599300  0.35824700  0.33826100  1
  S  S24  1  0.16400700  0.35824700  0.83826100  1
  S  S25  1  0.60205800  0.29449600  0.24130800  1
  S  S26  1  0.83599300  0.64175300  0.16173900  1
  S  S27  1  0.20989600  0.78414300  0.95910100  1
  Br  Br28  1  0.63531700  0.89119100  0.90247500  1
  Br  Br29  1  0.86468300  0.89119100  0.40247500  1
  Br  Br30  1  0.36468300  0.10880900  0.09752500  1
  Br  Br31  1  0.13531700  0.10880900  0.59752500  1
