# generated using pymatgen
data_RbPuP2S7
_symmetry_space_group_name_H-M   'P 1'
_cell_length_a   12.54223500
_cell_length_b   9.09407900
_cell_length_c   9.95103161
_cell_angle_alpha   89.40165864
_cell_angle_beta   90.00000000
_cell_angle_gamma   90.00000000
_symmetry_Int_Tables_number   1
_chemical_formula_structural   RbPuP2S7
_chemical_formula_sum   'Rb4 Pu4 P8 S28'
_cell_volume   1134.95353085
_cell_formula_units_Z   4
loop_
 _symmetry_equiv_pos_site_id
 _symmetry_equiv_pos_as_xyz
  1  'x, y, z'
loop_
 _atom_site_type_symbol
 _atom_site_label
 _atom_site_symmetry_multiplicity
 _atom_site_fract_x
 _atom_site_fract_y
 _atom_site_fract_z
 _atom_site_occupancy
  Rb  Rb0  1  0.19518200  0.63290200  0.89395700  1
  Rb  Rb1  1  0.80481800  0.36709800  0.10604300  1
  Rb  Rb2  1  0.30481800  0.13290200  0.89395700  1
  Rb  Rb3  1  0.69518200  0.86709800  0.10604300  1
  Pu  Pu4  1  0.64075200  0.10715000  0.63985200  1
  Pu  Pu5  1  0.14075200  0.39285000  0.36014800  1
  Pu  Pu6  1  0.35924800  0.89285000  0.36014800  1
  Pu  Pu7  1  0.85924800  0.60715000  0.63985200  1
  P  P8  1  0.46487100  0.80291700  0.68187900  1
  P  P9  1  0.96487100  0.69708300  0.31812100  1
  P  P10  1  0.10393400  0.02425600  0.23030800  1
  P  P11  1  0.53512900  0.19708300  0.31812100  1
  P  P12  1  0.39606600  0.52425600  0.23030800  1
  P  P13  1  0.89606600  0.97574400  0.76969200  1
  P  P14  1  0.60393400  0.47574400  0.76969200  1
  P  P15  1  0.03512900  0.30291700  0.68187900  1
  S  S16  1  0.94305700  0.32632400  0.51415400  1
  S  S17  1  0.19025200  0.35422400  0.64227500  1
  S  S18  1  0.30974800  0.85422400  0.64227500  1
  S  S19  1  0.32816300  0.57632000  0.41038600  1
  S  S20  1  0.17183700  0.07632000  0.41038600  1
  S  S21  1  0.05042000  0.07667300  0.74492100  1
  S  S22  1  0.55945900  0.28649600  0.86241900  1
  S  S23  1  0.29024600  0.38869200  0.14014800  1
  S  S24  1  0.52737900  0.93057200  0.82805000  1
  S  S25  1  0.05694300  0.67367600  0.48584600  1
  S  S26  1  0.94054100  0.78649600  0.86241900  1
  S  S27  1  0.44054100  0.71350400  0.13758100  1
  S  S28  1  0.55694300  0.82632400  0.51415400  1
  S  S29  1  0.79024600  0.11130800  0.85985200  1
  S  S30  1  0.55042000  0.42332700  0.25507900  1
  S  S31  1  0.05945900  0.21350400  0.13758100  1
  S  S32  1  0.80974800  0.64577600  0.35772500  1
  S  S33  1  0.20975400  0.88869200  0.14014800  1
  S  S34  1  0.67183700  0.42368000  0.58961400  1
  S  S35  1  0.70975400  0.61130800  0.85985200  1
  S  S36  1  0.82816300  0.92368000  0.58961400  1
  S  S37  1  0.69025200  0.14577600  0.35772500  1
  S  S38  1  0.02737900  0.56942800  0.17195000  1
  S  S39  1  0.44958000  0.57667300  0.74492100  1
  S  S40  1  0.47262100  0.06942800  0.17195000  1
  S  S41  1  0.44305700  0.17367600  0.48584600  1
  S  S42  1  0.94958000  0.92332700  0.25507900  1
  S  S43  1  0.97262100  0.43057200  0.82805000  1
