# generated using pymatgen
data_FeH2SO5
_symmetry_space_group_name_H-M   'P 1'
_cell_length_a   6.97304938
_cell_length_b   7.83239600
_cell_length_c   8.04361642
_cell_angle_alpha   60.86722519
_cell_angle_beta   89.01456546
_cell_angle_gamma   90.00211579
_symmetry_Int_Tables_number   1
_chemical_formula_structural   FeH2SO5
_chemical_formula_sum   'Fe4 H8 S4 O20'
_cell_volume   383.65797188
_cell_formula_units_Z   4
loop_
 _symmetry_equiv_pos_site_id
 _symmetry_equiv_pos_as_xyz
  1  'x, y, z'
loop_
 _atom_site_type_symbol
 _atom_site_label
 _atom_site_symmetry_multiplicity
 _atom_site_fract_x
 _atom_site_fract_y
 _atom_site_fract_z
 _atom_site_occupancy
  Fe  Fe0  1  0.75012400  0.75105900  0.49970800  1
  Fe  Fe1  1  0.49975000  0.00074600  0.00016500  1
  Fe  Fe2  1  0.24980500  0.24941300  0.50038700  1
  Fe  Fe3  1  0.00003400  0.49944700  0.99976600  1
  H  H4  1  0.76469600  0.81732500  0.79141100  1
  H  H5  1  0.26609200  0.31869000  0.79074500  1
  H  H6  1  0.98409200  0.85941000  0.70924100  1
  H  H7  1  0.48550900  0.35881000  0.70857300  1
  H  H8  1  0.73431900  0.68226700  0.20846600  1
  H  H9  1  0.23491000  0.18154100  0.20936500  1
  H  H10  1  0.51557400  0.64070800  0.29151700  1
  H  H11  1  0.01498400  0.14084200  0.29070900  1
  S  S12  1  0.87515900  0.28560900  0.75044600  1
  S  S13  1  0.37496800  0.78601200  0.74965300  1
  S  S14  1  0.62490100  0.21532900  0.24995900  1
  S  S15  1  0.12493900  0.71307000  0.24995300  1
  O  O16  1  0.87468100  0.76482300  0.74984800  1
  O  O17  1  0.37551500  0.26475300  0.75010800  1
  O  O18  1  0.62493200  0.73538800  0.24999700  1
  O  O19  1  0.12492800  0.23484600  0.25003100  1
  O  O20  1  0.28125400  0.60443600  0.89555200  1
  O  O21  1  0.78065300  0.10554800  0.89828300  1
  O  O22  1  0.46949900  0.75382800  0.60175500  1
  O  O23  1  0.96889200  0.24994100  0.60452300  1
  O  O24  1  0.21919500  0.89383700  0.10313300  1
  O  O25  1  0.71846300  0.39630800  0.10270200  1
  O  O26  1  0.03067700  0.74695500  0.39682000  1
  O  O27  1  0.53133200  0.24908600  0.39721800  1
  O  O28  1  0.72713200  0.44322900  0.66021200  1
  O  O29  1  0.22579200  0.94295200  0.66110100  1
  O  O30  1  0.02442100  0.35395700  0.83897000  1
  O  O31  1  0.52308800  0.85341300  0.83982700  1
  O  O32  1  0.77367800  0.05813600  0.33900100  1
  O  O33  1  0.27361700  0.55588500  0.33934100  1
  O  O34  1  0.47612800  0.14716300  0.16092600  1
  O  O35  1  0.97626400  0.64524100  0.16058500  1
