# generated using pymatgen
data_Na3Mg(BO2)5
_symmetry_space_group_name_H-M   'P 1'
_cell_length_a   7.90472700
_cell_length_b   12.38776900
_cell_length_c   18.32573800
_cell_angle_alpha   90.00000000
_cell_angle_beta   90.00000000
_cell_angle_gamma   90.00000000
_symmetry_Int_Tables_number   1
_chemical_formula_structural   Na3Mg(BO2)5
_chemical_formula_sum   'Na24 Mg8 B40 O80'
_cell_volume   1794.49167183
_cell_formula_units_Z   8
loop_
 _symmetry_equiv_pos_site_id
 _symmetry_equiv_pos_as_xyz
  1  'x, y, z'
loop_
 _atom_site_type_symbol
 _atom_site_label
 _atom_site_symmetry_multiplicity
 _atom_site_fract_x
 _atom_site_fract_y
 _atom_site_fract_z
 _atom_site_occupancy
  Na  Na0  1  0.16980800  0.91537000  0.42011500  1
  Na  Na1  1  0.69049900  0.64777100  0.25325000  1
  Na  Na2  1  0.16980800  0.58463000  0.92011500  1
  Na  Na3  1  0.83019200  0.41537000  0.07988500  1
  Na  Na4  1  0.33019200  0.41537000  0.42011500  1
  Na  Na5  1  0.83019200  0.08463000  0.57988500  1
  Na  Na6  1  0.70860800  0.57251500  0.93221100  1
  Na  Na7  1  0.79139200  0.07251500  0.93221100  1
  Na  Na8  1  0.79139200  0.42748500  0.43221100  1
  Na  Na9  1  0.80950100  0.35222900  0.75325000  1
  Na  Na10  1  0.30950100  0.14777100  0.24675000  1
  Na  Na11  1  0.19049900  0.85222900  0.74675000  1
  Na  Na12  1  0.29139200  0.42748500  0.06778900  1
  Na  Na13  1  0.80950100  0.14777100  0.25325000  1
  Na  Na14  1  0.20860800  0.92748500  0.06778900  1
  Na  Na15  1  0.66980800  0.58463000  0.57988500  1
  Na  Na16  1  0.69049900  0.85222900  0.75325000  1
  Na  Na17  1  0.29139200  0.07251500  0.56778900  1
  Na  Na18  1  0.66980800  0.91537000  0.07988500  1
  Na  Na19  1  0.33019200  0.08463000  0.92011500  1
  Na  Na20  1  0.30950100  0.35222900  0.74675000  1
  Na  Na21  1  0.19049900  0.64777100  0.24675000  1
  Na  Na22  1  0.70860800  0.92748500  0.43221100  1
  Na  Na23  1  0.20860800  0.57251500  0.56778900  1
  Mg  Mg24  1  0.91594200  0.82179800  0.90222200  1
  Mg  Mg25  1  0.41594200  0.82179800  0.59777800  1
  Mg  Mg26  1  0.08405800  0.17820200  0.09777800  1
  Mg  Mg27  1  0.41594200  0.67820200  0.09777800  1
  Mg  Mg28  1  0.91594200  0.67820200  0.40222200  1
  Mg  Mg29  1  0.58405800  0.32179800  0.90222200  1
  Mg  Mg30  1  0.58405800  0.17820200  0.40222200  1
  Mg  Mg31  1  0.08405800  0.32179800  0.59777800  1
  B  B32  1  0.23176300  0.17298800  0.42749800  1
  B  B33  1  0.07852600  0.65342900  0.07341000  1
  B  B34  1  0.48827800  0.47561600  0.19596900  1
  B  B35  1  0.55441700  0.34969400  0.29602900  1
  B  B36  1  0.55441700  0.15030600  0.79602900  1
  B  B37  1  0.05441700  0.15030600  0.70397100  1
  B  B38  1  0.01172200  0.97561600  0.19596900  1
  B  B39  1  0.94558300  0.84969400  0.29602900  1
  B  B40  1  0.55940700  0.28252600  0.16393100  1
  B  B41  1  0.73176300  0.32701200  0.57250200  1
  B  B42  1  0.55940700  0.21747400  0.66393100  1
  B  B43  1  0.42147400  0.34657100  0.57341000  1
  B  B44  1  0.98827800  0.02438400  0.80403100  1
  B  B45  1  0.26823700  0.67298800  0.42749800  1
  B  B46  1  0.44558300  0.65030600  0.70397100  1
  B  B47  1  0.07852600  0.84657100  0.57341000  1
  B  B48  1  0.73176300  0.17298800  0.07250200  1
  B  B49  1  0.51172200  0.97561600  0.30403100  1
  B  B50  1  0.92147400  0.34657100  0.92659000  1
  B  B51  1  0.51172200  0.52438400  0.80403100  1
  B  B52  1  0.57852600  0.84657100  0.92659000  1
  B  B53  1  0.44059300  0.71747400  0.83606900  1
  B  B54  1  0.05441700  0.34969400  0.20397100  1
  B  B55  1  0.23176300  0.32701200  0.92749800  1
  B  B56  1  0.94059300  0.71747400  0.66393100  1
  B  B57  1  0.98827800  0.47561600  0.30403100  1
  B  B58  1  0.76823700  0.67298800  0.07250200  1
  B  B59  1  0.42147400  0.15342900  0.07341000  1
  B  B60  1  0.94558300  0.65030600  0.79602900  1
  B  B61  1  0.92147400  0.15342900  0.42659000  1
  B  B62  1  0.57852600  0.65342900  0.42659000  1
  B  B63  1  0.94059300  0.78252600  0.16393100  1
  B  B64  1  0.26823700  0.82701200  0.92749800  1
  B  B65  1  0.44059300  0.78252600  0.33606900  1
  B  B66  1  0.48827800  0.02438400  0.69596900  1
  B  B67  1  0.44558300  0.84969400  0.20397100  1
  B  B68  1  0.01172200  0.52438400  0.69596900  1
  B  B69  1  0.76823700  0.82701200  0.57250200  1
  B  B70  1  0.05940700  0.28252600  0.33606900  1
  B  B71  1  0.05940700  0.21747400  0.83606900  1
  O  O72  1  0.53744400  0.39821600  0.14468400  1
  O  O73  1  0.71992100  0.25731200  0.63193400  1
  O  O74  1  0.62082700  0.85150200  0.54079500  1
  O  O75  1  0.37917300  0.35150200  0.95920500  1
  O  O76  1  0.06828300  0.23145600  0.75617600  1
  O  O77  1  0.58590000  0.71930700  0.36512900  1
  O  O78  1  0.72164000  0.61634200  0.45784200  1
  O  O79  1  0.08161900  0.37643500  0.95439100  1
  O  O80  1  0.08161900  0.12356500  0.45439100  1
  O  O81  1  0.91410000  0.21930700  0.36512900  1
  O  O82  1  0.12082700  0.64849800  0.45920500  1
  O  O83  1  0.27836000  0.38365800  0.54215800  1
  O  O84  1  0.91838100  0.62356500  0.04560900  1
  O  O85  1  0.28007900  0.74268800  0.36806600  1
  O  O86  1  0.43171700  0.73145600  0.75617600  1
  O  O87  1  0.57656600  0.33156400  0.36787800  1
  O  O88  1  0.51013600  0.45403700  0.27137700  1
  O  O89  1  0.21992100  0.24268800  0.36806600  1
  O  O90  1  0.57446600  0.42863600  0.82355700  1
  O  O91  1  0.56828300  0.23145600  0.74382400  1
  O  O92  1  0.77836000  0.11634200  0.45784200  1
  O  O93  1  0.48986400  0.95403700  0.22862300  1
  O  O94  1  0.41410000  0.21930700  0.13487100  1
  O  O95  1  0.42553400  0.92863600  0.67644300  1
  O  O96  1  0.62082700  0.64849800  0.04079500  1
  O  O97  1  0.22164000  0.61634200  0.04215800  1
  O  O98  1  0.93171700  0.73145600  0.74382400  1
  O  O99  1  0.87917300  0.35150200  0.54079500  1
  O  O100  1  0.92553400  0.92863600  0.82355700  1
  O  O101  1  0.43171700  0.76854400  0.25617600  1
  O  O102  1  0.12082700  0.85150200  0.95920500  1
  O  O103  1  0.57656600  0.16843600  0.86787800  1
  O  O104  1  0.03744400  0.10178400  0.85531600  1
  O  O105  1  0.98986400  0.54596300  0.77137700  1
  O  O106  1  0.01013600  0.04596300  0.72862300  1
  O  O107  1  0.27836000  0.11634200  0.04215800  1
  O  O108  1  0.22164000  0.88365800  0.54215800  1
  O  O109  1  0.93171700  0.76854400  0.24382400  1
  O  O110  1  0.08590000  0.78069300  0.63487100  1
  O  O111  1  0.96255600  0.89821600  0.14468400  1
  O  O112  1  0.08590000  0.71930700  0.13487100  1
  O  O113  1  0.01013600  0.45403700  0.22862300  1
  O  O114  1  0.51013600  0.04596300  0.77137700  1
  O  O115  1  0.07446600  0.07136400  0.17644300  1
  O  O116  1  0.06828300  0.26854400  0.25617600  1
  O  O117  1  0.46255600  0.60178400  0.85531600  1
  O  O118  1  0.92343400  0.66843600  0.86787800  1
  O  O119  1  0.58590000  0.78069300  0.86512900  1
  O  O120  1  0.07446600  0.42863600  0.67644300  1
  O  O121  1  0.42343400  0.83156400  0.13212200  1
  O  O122  1  0.53744400  0.10178400  0.64468400  1
  O  O123  1  0.07656600  0.16843600  0.63212200  1
  O  O124  1  0.42553400  0.57136400  0.17644300  1
  O  O125  1  0.92343400  0.83156400  0.36787800  1
  O  O126  1  0.72164000  0.88365800  0.95784200  1
  O  O127  1  0.21992100  0.25731200  0.86806600  1
  O  O128  1  0.56828300  0.26854400  0.24382400  1
  O  O129  1  0.58161900  0.12356500  0.04560900  1
  O  O130  1  0.37917300  0.14849800  0.45920500  1
  O  O131  1  0.03744400  0.39821600  0.35531600  1
  O  O132  1  0.78007900  0.74268800  0.13193400  1
  O  O133  1  0.57446600  0.07136400  0.32355700  1
  O  O134  1  0.78007900  0.75731200  0.63193400  1
  O  O135  1  0.07656600  0.33156400  0.13212200  1
  O  O136  1  0.58161900  0.37643500  0.54560900  1
  O  O137  1  0.87917300  0.14849800  0.04079500  1
  O  O138  1  0.41838100  0.87643500  0.95439100  1
  O  O139  1  0.42343400  0.66843600  0.63212200  1
  O  O140  1  0.77836000  0.38365800  0.95784200  1
  O  O141  1  0.46255600  0.89821600  0.35531600  1
  O  O142  1  0.71992100  0.24268800  0.13193400  1
  O  O143  1  0.41410000  0.28069300  0.63487100  1
  O  O144  1  0.48986400  0.54596300  0.72862300  1
  O  O145  1  0.92553400  0.57136400  0.32355700  1
  O  O146  1  0.91838100  0.87643500  0.54560900  1
  O  O147  1  0.91410000  0.28069300  0.86512900  1
  O  O148  1  0.96255600  0.60178400  0.64468400  1
  O  O149  1  0.98986400  0.95403700  0.27137700  1
  O  O150  1  0.41838100  0.62356500  0.45439100  1
  O  O151  1  0.28007900  0.75731200  0.86806600  1
