# generated using pymatgen
data_AgHgAsS3
_symmetry_space_group_name_H-M   'P 1'
_cell_length_a   6.68711715
_cell_length_b   6.68711715
_cell_length_c   7.92357049
_cell_angle_alpha   78.48617309
_cell_angle_beta   78.48617309
_cell_angle_gamma   118.96904154
_symmetry_Int_Tables_number   1
_chemical_formula_structural   AgHgAsS3
_chemical_formula_sum   'Ag2 Hg2 As2 S6'
_cell_volume   285.03482306
_cell_formula_units_Z   2
loop_
 _symmetry_equiv_pos_site_id
 _symmetry_equiv_pos_as_xyz
  1  'x, y, z'
loop_
 _atom_site_type_symbol
 _atom_site_label
 _atom_site_symmetry_multiplicity
 _atom_site_fract_x
 _atom_site_fract_y
 _atom_site_fract_z
 _atom_site_occupancy
  Ag  Ag0  1  0.03626700  0.97552700  0.24432500  1
  Ag  Ag1  1  0.97552700  0.03626700  0.74432500  1
  Hg  Hg2  1  0.72978700  0.34132900  0.20522300  1
  Hg  Hg3  1  0.34132900  0.72978700  0.70522300  1
  As  As4  1  0.38642100  0.66311200  0.21004400  1
  As  As5  1  0.66311200  0.38642100  0.71004400  1
  S  S6  1  0.77088300  0.00813400  0.06344400  1
  S  S7  1  0.00813400  0.77088300  0.56344400  1
  S  S8  1  0.74145800  0.18387300  0.52576800  1
  S  S9  1  0.40628700  0.43812200  0.58359600  1
  S  S10  1  0.43812200  0.40628700  0.08359600  1
  S  S11  1  0.18387300  0.74145800  0.02576800  1
