# generated using pymatgen
data_Pr2Ta3(SeO4)2
_symmetry_space_group_name_H-M   'P 1'
_cell_length_a   7.68280500
_cell_length_b   10.00224800
_cell_length_c   12.01726200
_cell_angle_alpha   90.00000000
_cell_angle_beta   90.00000000
_cell_angle_gamma   90.00000000
_symmetry_Int_Tables_number   1
_chemical_formula_structural   Pr2Ta3(SeO4)2
_chemical_formula_sum   'Pr8 Ta12 Se8 O32'
_cell_volume   923.47035528
_cell_formula_units_Z   4
loop_
 _symmetry_equiv_pos_site_id
 _symmetry_equiv_pos_as_xyz
  1  'x, y, z'
loop_
 _atom_site_type_symbol
 _atom_site_label
 _atom_site_symmetry_multiplicity
 _atom_site_fract_x
 _atom_site_fract_y
 _atom_site_fract_z
 _atom_site_occupancy
  Pr  Pr0  1  0.00000000  0.78983700  0.65684300  1
  Pr  Pr1  1  0.50000000  0.71016300  0.15684300  1
  Pr  Pr2  1  0.50000000  0.28983700  0.84315700  1
  Pr  Pr3  1  0.00000000  0.72732700  0.14899800  1
  Pr  Pr4  1  0.00000000  0.27267300  0.85100200  1
  Pr  Pr5  1  0.50000000  0.22732700  0.35100200  1
  Pr  Pr6  1  0.00000000  0.21016300  0.34315700  1
  Pr  Pr7  1  0.50000000  0.77267300  0.64899800  1
  Ta  Ta8  1  0.24974700  0.13590400  0.58342600  1
  Ta  Ta9  1  0.24974700  0.86409600  0.41657400  1
  Ta  Ta10  1  0.25025300  0.63590400  0.91657400  1
  Ta  Ta11  1  0.25025300  0.36409600  0.08342600  1
  Ta  Ta12  1  0.74974700  0.63590400  0.91657400  1
  Ta  Ta13  1  0.75025300  0.13590400  0.58342600  1
  Ta  Ta14  1  0.75025300  0.86409600  0.41657400  1
  Ta  Ta15  1  0.28549700  0.00000000  0.00000000  1
  Ta  Ta16  1  0.21450300  0.50000000  0.50000000  1
  Ta  Ta17  1  0.71450300  0.00000000  0.00000000  1
  Ta  Ta18  1  0.78549700  0.50000000  0.50000000  1
  Ta  Ta19  1  0.74974700  0.36409600  0.08342600  1
  Se  Se20  1  0.50000000  0.98023900  0.83672300  1
  Se  Se21  1  0.50000000  0.01976100  0.16327700  1
  Se  Se22  1  0.00000000  0.48023900  0.66327700  1
  Se  Se23  1  0.00000000  0.51976100  0.33672300  1
  Se  Se24  1  0.50000000  0.47665600  0.63830100  1
  Se  Se25  1  0.50000000  0.52334400  0.36169900  1
  Se  Se26  1  0.00000000  0.97665600  0.86169900  1
  Se  Se27  1  0.00000000  0.02334400  0.13830100  1
  O  O28  1  0.50000000  0.36459000  0.05147000  1
  O  O29  1  0.50000000  0.63541000  0.94853000  1
  O  O30  1  0.00000000  0.86459000  0.44853000  1
  O  O31  1  0.00000000  0.13541000  0.55147000  1
  O  O32  1  0.50000000  0.15027400  0.54891500  1
  O  O33  1  0.50000000  0.84972600  0.45108500  1
  O  O34  1  0.00000000  0.65027400  0.95108500  1
  O  O35  1  0.00000000  0.34972600  0.04891500  1
  O  O36  1  0.75179500  0.78757800  0.27600600  1
  O  O37  1  0.75179500  0.21242200  0.72399400  1
  O  O38  1  0.74820500  0.28757800  0.22399400  1
  O  O39  1  0.74820500  0.71242200  0.77600600  1
  O  O40  1  0.24820500  0.21242200  0.72399400  1
  O  O41  1  0.24820500  0.78757800  0.27600600  1
  O  O42  1  0.26482000  0.19715100  0.97537300  1
  O  O43  1  0.25179500  0.71242200  0.77600600  1
  O  O44  1  0.75419500  0.55613800  0.10290400  1
  O  O45  1  0.75419500  0.44386200  0.89709600  1
  O  O46  1  0.74580500  0.05613800  0.39709600  1
  O  O47  1  0.74580500  0.94386200  0.60290400  1
  O  O48  1  0.24580500  0.44386200  0.89709600  1
  O  O49  1  0.24580500  0.55613800  0.10290400  1
  O  O50  1  0.25419500  0.94386200  0.60290400  1
  O  O51  1  0.25419500  0.05613800  0.39709600  1
  O  O52  1  0.73518000  0.80284900  0.02462700  1
  O  O53  1  0.73518000  0.19715100  0.97537300  1
  O  O54  1  0.76482000  0.30284900  0.47537300  1
  O  O55  1  0.76482000  0.69715100  0.52462700  1
  O  O56  1  0.23518000  0.30284900  0.47537300  1
  O  O57  1  0.23518000  0.69715100  0.52462700  1
  O  O58  1  0.26482000  0.80284900  0.02462700  1
  O  O59  1  0.25179500  0.28757800  0.22399400  1
