# generated using pymatgen
data_SrMgH4
_symmetry_space_group_name_H-M   'P 1'
_cell_length_a   7.05472864
_cell_length_b   7.05472864
_cell_length_c   5.61371700
_cell_angle_alpha   90.00000000
_cell_angle_beta   90.00000000
_cell_angle_gamma   147.45236564
_symmetry_Int_Tables_number   1
_chemical_formula_structural   SrMgH4
_chemical_formula_sum   'Sr2 Mg2 H8'
_cell_volume   150.31208544
_cell_formula_units_Z   2
loop_
 _symmetry_equiv_pos_site_id
 _symmetry_equiv_pos_as_xyz
  1  'x, y, z'
loop_
 _atom_site_type_symbol
 _atom_site_label
 _atom_site_symmetry_multiplicity
 _atom_site_fract_x
 _atom_site_fract_y
 _atom_site_fract_z
 _atom_site_occupancy
  Sr  Sr0  1  0.15131300  0.84868700  0.24434100  1
  Sr  Sr1  1  0.84868700  0.15131300  0.74434100  1
  Mg  Mg2  1  0.41515800  0.58484200  0.29009400  1
  Mg  Mg3  1  0.58484200  0.41515800  0.79009400  1
  H  H4  1  0.33430900  0.66569100  0.01333300  1
  H  H5  1  0.66569100  0.33430900  0.51333300  1
  H  H6  1  0.29970400  0.70029600  0.49160800  1
  H  H7  1  0.70029600  0.29970400  0.99160800  1
  H  H8  1  0.07460600  0.92539400  0.82675900  1
  H  H9  1  0.92539400  0.07460600  0.32675900  1
  H  H10  1  0.53860500  0.46139500  0.13286500  1
  H  H11  1  0.46139500  0.53860500  0.63286500  1
