# generated using pymatgen
data_Li3H4Rh
_symmetry_space_group_name_H-M   'P 1'
_cell_length_a   4.88678766
_cell_length_b   4.88678766
_cell_length_c   8.84649700
_cell_angle_alpha   90.00000000
_cell_angle_beta   90.00000000
_cell_angle_gamma   134.57668757
_symmetry_Int_Tables_number   1
_chemical_formula_structural   Li3H4Rh
_chemical_formula_sum   'Li6 H8 Rh2'
_cell_volume   150.48331006
_cell_formula_units_Z   2
loop_
 _symmetry_equiv_pos_site_id
 _symmetry_equiv_pos_as_xyz
  1  'x, y, z'
loop_
 _atom_site_type_symbol
 _atom_site_label
 _atom_site_symmetry_multiplicity
 _atom_site_fract_x
 _atom_site_fract_y
 _atom_site_fract_z
 _atom_site_occupancy
  Li  Li0  1  0.16539800  0.83460200  0.42963800  1
  Li  Li1  1  0.83460200  0.16539800  0.57036200  1
  Li  Li2  1  0.16539800  0.83460200  0.07036200  1
  Li  Li3  1  0.83460200  0.16539800  0.92963800  1
  Li  Li4  1  0.48757000  0.51243000  0.25000000  1
  Li  Li5  1  0.51243000  0.48757000  0.75000000  1
  H  H6  1  0.93244700  0.06755300  0.12317100  1
  H  H7  1  0.06755300  0.93244700  0.87682900  1
  H  H8  1  0.93244700  0.06755300  0.37682900  1
  H  H9  1  0.06755300  0.93244700  0.62317100  1
  H  H10  1  0.66432400  0.33567600  0.38683700  1
  H  H11  1  0.33567600  0.66432400  0.61316300  1
  H  H12  1  0.66432400  0.33567600  0.11316300  1
  H  H13  1  0.33567600  0.66432400  0.88683700  1
  Rh  Rh14  1  0.79416300  0.20583700  0.25000000  1
  Rh  Rh15  1  0.20583700  0.79416300  0.75000000  1
