# generated using pymatgen
data_Cs5GeAs3
_symmetry_space_group_name_H-M   'P 1'
_cell_length_a   6.12250800
_cell_length_b   14.91493300
_cell_length_c   16.31664800
_cell_angle_alpha   90.00000000
_cell_angle_beta   90.00000000
_cell_angle_gamma   90.00000000
_symmetry_Int_Tables_number   1
_chemical_formula_structural   Cs5GeAs3
_chemical_formula_sum   'Cs20 Ge4 As12'
_cell_volume   1489.98402681
_cell_formula_units_Z   4
loop_
 _symmetry_equiv_pos_site_id
 _symmetry_equiv_pos_as_xyz
  1  'x, y, z'
loop_
 _atom_site_type_symbol
 _atom_site_label
 _atom_site_symmetry_multiplicity
 _atom_site_fract_x
 _atom_site_fract_y
 _atom_site_fract_z
 _atom_site_occupancy
  Cs  Cs0  1  0.75000000  0.14562000  0.54752300  1
  Cs  Cs1  1  0.25000000  0.77791200  0.70603500  1
  Cs  Cs2  1  0.25000000  0.05100400  0.65459200  1
  Cs  Cs3  1  0.25000000  0.06469300  0.94922400  1
  Cs  Cs4  1  0.75000000  0.94899600  0.34540800  1
  Cs  Cs5  1  0.25000000  0.61910600  0.31387400  1
  Cs  Cs6  1  0.75000000  0.43530700  0.44922400  1
  Cs  Cs7  1  0.75000000  0.64562000  0.95247700  1
  Cs  Cs8  1  0.25000000  0.56469300  0.55077600  1
  Cs  Cs9  1  0.25000000  0.35438000  0.04752300  1
  Cs  Cs10  1  0.25000000  0.55100400  0.84540800  1
  Cs  Cs11  1  0.75000000  0.22208800  0.29396500  1
  Cs  Cs12  1  0.75000000  0.88089400  0.81387400  1
  Cs  Cs13  1  0.75000000  0.44899600  0.15459200  1
  Cs  Cs14  1  0.25000000  0.85438000  0.45247700  1
  Cs  Cs15  1  0.25000000  0.27791200  0.79396500  1
  Cs  Cs16  1  0.75000000  0.38089400  0.68612600  1
  Cs  Cs17  1  0.25000000  0.11910600  0.18612600  1
  Cs  Cs18  1  0.75000000  0.93530700  0.05077600  1
  Cs  Cs19  1  0.75000000  0.72208800  0.20603500  1
  Ge  Ge20  1  0.25000000  0.76082100  0.06850600  1
  Ge  Ge21  1  0.75000000  0.23917900  0.93149400  1
  Ge  Ge22  1  0.75000000  0.73917900  0.56850600  1
  Ge  Ge23  1  0.25000000  0.26082100  0.43149400  1
  As  As24  1  0.75000000  0.39876500  0.91145900  1
  As  As25  1  0.75000000  0.63402600  0.68132600  1
  As  As26  1  0.25000000  0.60123500  0.08854100  1
  As  As27  1  0.25000000  0.10123500  0.41145900  1
  As  As28  1  0.25000000  0.81000900  0.92832600  1
  As  As29  1  0.25000000  0.86597400  0.18132600  1
  As  As30  1  0.75000000  0.18999100  0.07167400  1
  As  As31  1  0.75000000  0.89876500  0.58854100  1
  As  As32  1  0.75000000  0.13402600  0.81867400  1
  As  As33  1  0.25000000  0.31000900  0.57167400  1
  As  As34  1  0.25000000  0.36597400  0.31867400  1
  As  As35  1  0.75000000  0.68999100  0.42832600  1
