# generated using pymatgen
data_K2MnSnSe4
_symmetry_space_group_name_H-M   'P 1'
_cell_length_a   10.74336400
_cell_length_b   10.74336400
_cell_length_c   8.42011500
_cell_angle_alpha   90.00000000
_cell_angle_beta   90.00000000
_cell_angle_gamma   90.00000000
_symmetry_Int_Tables_number   1
_chemical_formula_structural   K2MnSnSe4
_chemical_formula_sum   'K8 Mn4 Sn4 Se16'
_cell_volume   971.84857899
_cell_formula_units_Z   4
loop_
 _symmetry_equiv_pos_site_id
 _symmetry_equiv_pos_as_xyz
  1  'x, y, z'
loop_
 _atom_site_type_symbol
 _atom_site_label
 _atom_site_symmetry_multiplicity
 _atom_site_fract_x
 _atom_site_fract_y
 _atom_site_fract_z
 _atom_site_occupancy
  K  K0  1  0.25282200  0.75282200  0.75000000  1
  K  K1  1  0.50000000  0.50000000  0.50000000  1
  K  K2  1  0.00000000  0.00000000  0.00000000  1
  K  K3  1  0.74717800  0.24717800  0.75000000  1
  K  K4  1  0.00000000  0.50000000  0.25000000  1
  K  K5  1  0.50000000  0.00000000  0.75000000  1
  K  K6  1  0.24717800  0.25282200  0.25000000  1
  K  K7  1  0.75282200  0.74717800  0.25000000  1
  Mn  Mn8  1  0.50000000  0.50000000  0.00000000  1
  Mn  Mn9  1  0.00000000  0.00000000  0.50000000  1
  Mn  Mn10  1  0.00000000  0.50000000  0.75000000  1
  Mn  Mn11  1  0.50000000  0.00000000  0.25000000  1
  Sn  Sn12  1  0.27843500  0.77843500  0.25000000  1
  Sn  Sn13  1  0.72156500  0.22156500  0.25000000  1
  Sn  Sn14  1  0.22156500  0.27843500  0.75000000  1
  Sn  Sn15  1  0.77843500  0.72156500  0.75000000  1
  Se  Se16  1  0.28820500  0.56542200  0.10688200  1
  Se  Se17  1  0.97139300  0.69523200  0.92925400  1
  Se  Se18  1  0.47139300  0.80476800  0.42925400  1
  Se  Se19  1  0.71179500  0.43457800  0.10688200  1
  Se  Se20  1  0.02860700  0.30476800  0.92925400  1
  Se  Se21  1  0.69523200  0.02860700  0.07074600  1
  Se  Se22  1  0.52860700  0.19523200  0.42925400  1
  Se  Se23  1  0.80476800  0.52860700  0.57074600  1
  Se  Se24  1  0.21179500  0.06542200  0.60688200  1
  Se  Se25  1  0.78820500  0.93457800  0.60688200  1
  Se  Se26  1  0.19523200  0.47139300  0.57074600  1
  Se  Se27  1  0.56542200  0.71179500  0.89311800  1
  Se  Se28  1  0.43457800  0.28820500  0.89311800  1
  Se  Se29  1  0.93457800  0.21179500  0.39311800  1
  Se  Se30  1  0.30476800  0.97139300  0.07074600  1
  Se  Se31  1  0.06542200  0.78820500  0.39311800  1
