# generated using pymatgen
data_PrIn2Cl5
_symmetry_space_group_name_H-M   'P 1'
_cell_length_a   8.23356100
_cell_length_b   8.89603000
_cell_length_c   13.00881800
_cell_angle_alpha   90.00000000
_cell_angle_beta   90.00000000
_cell_angle_gamma   90.00000000
_symmetry_Int_Tables_number   1
_chemical_formula_structural   PrIn2Cl5
_chemical_formula_sum   'Pr4 In8 Cl20'
_cell_volume   952.84395689
_cell_formula_units_Z   4
loop_
 _symmetry_equiv_pos_site_id
 _symmetry_equiv_pos_as_xyz
  1  'x, y, z'
loop_
 _atom_site_type_symbol
 _atom_site_label
 _atom_site_symmetry_multiplicity
 _atom_site_fract_x
 _atom_site_fract_y
 _atom_site_fract_z
 _atom_site_occupancy
  Pr  Pr0  1  0.92541100  0.75000000  0.50591900  1
  Pr  Pr1  1  0.57458900  0.75000000  0.00591900  1
  Pr  Pr2  1  0.07458900  0.25000000  0.49408100  1
  Pr  Pr3  1  0.42541100  0.25000000  0.99408100  1
  In  In4  1  0.94237900  0.00872400  0.83028900  1
  In  In5  1  0.05762100  0.99127600  0.16971100  1
  In  In6  1  0.55762100  0.49127600  0.33028900  1
  In  In7  1  0.05762100  0.50872400  0.16971100  1
  In  In8  1  0.94237900  0.49127600  0.83028900  1
  In  In9  1  0.44237900  0.50872400  0.66971100  1
  In  In10  1  0.55762100  0.00872400  0.33028900  1
  In  In11  1  0.44237900  0.99127600  0.66971100  1
  Cl  Cl12  1  0.58061600  0.75000000  0.50688500  1
  Cl  Cl13  1  0.16816900  0.95586800  0.42930500  1
  Cl  Cl14  1  0.83183100  0.04413200  0.57069500  1
  Cl  Cl15  1  0.33183100  0.54413200  0.92930500  1
  Cl  Cl16  1  0.16816900  0.54413200  0.42930500  1
  Cl  Cl17  1  0.34573500  0.25000000  0.20474800  1
  Cl  Cl18  1  0.33183100  0.95586800  0.92930500  1
  Cl  Cl19  1  0.83183100  0.45586800  0.57069500  1
  Cl  Cl20  1  0.39179600  0.75000000  0.18719600  1
  Cl  Cl21  1  0.66816900  0.04413200  0.07069500  1
  Cl  Cl22  1  0.15426500  0.25000000  0.70474800  1
  Cl  Cl23  1  0.60820400  0.25000000  0.81280400  1
  Cl  Cl24  1  0.41938400  0.25000000  0.49311500  1
  Cl  Cl25  1  0.10820400  0.75000000  0.68719600  1
  Cl  Cl26  1  0.66816900  0.45586800  0.07069500  1
  Cl  Cl27  1  0.08061600  0.25000000  0.99311500  1
  Cl  Cl28  1  0.91938400  0.75000000  0.00688500  1
  Cl  Cl29  1  0.84573500  0.75000000  0.29525200  1
  Cl  Cl30  1  0.65426500  0.75000000  0.79525200  1
  Cl  Cl31  1  0.89179600  0.25000000  0.31280400  1
