# generated using pymatgen
data_RbTeHOF4
_symmetry_space_group_name_H-M   'P 1'
_cell_length_a   8.43051685
_cell_length_b   8.43051685
_cell_length_c   14.07560884
_cell_angle_alpha   85.88649037
_cell_angle_beta   85.88649037
_cell_angle_gamma   34.38217601
_symmetry_Int_Tables_number   1
_chemical_formula_structural   RbTeHOF4
_chemical_formula_sum   'Rb4 Te4 H4 O4 F16'
_cell_volume   563.34382220
_cell_formula_units_Z   4
loop_
 _symmetry_equiv_pos_site_id
 _symmetry_equiv_pos_as_xyz
  1  'x, y, z'
loop_
 _atom_site_type_symbol
 _atom_site_label
 _atom_site_symmetry_multiplicity
 _atom_site_fract_x
 _atom_site_fract_y
 _atom_site_fract_z
 _atom_site_occupancy
  Rb  Rb0  1  0.16810600  0.35955500  0.48697000  1
  Rb  Rb1  1  0.35955500  0.16810600  0.98697000  1
  Rb  Rb2  1  0.47550900  0.64019500  0.25046700  1
  Rb  Rb3  1  0.64019500  0.47550900  0.75046700  1
  Te  Te4  1  0.98066600  0.02267700  0.50342300  1
  Te  Te5  1  0.02267700  0.98066600  0.00342300  1
  Te  Te6  1  0.80227100  0.83623900  0.24557000  1
  Te  Te7  1  0.83623900  0.80227100  0.74557000  1
  H  H8  1  0.10513100  0.35003900  0.24568400  1
  H  H9  1  0.35003900  0.10513100  0.74568400  1
  H  H10  1  0.72149100  0.46540700  0.99350900  1
  H  H11  1  0.46540700  0.72149100  0.49350900  1
  O  O12  1  0.91171900  0.52740700  0.27251200  1
  O  O13  1  0.52740700  0.91171900  0.77251200  1
  O  O14  1  0.28415200  0.91843600  0.46962100  1
  O  O15  1  0.91843600  0.28415200  0.96962100  1
  F  F16  1  0.42479500  0.03461800  0.21586900  1
  F  F17  1  0.03461800  0.42479500  0.71586900  1
  F  F18  1  0.69114800  0.91349200  0.38625500  1
  F  F19  1  0.91349200  0.69114800  0.88625500  1
  F  F20  1  0.93903200  0.69200100  0.10918500  1
  F  F21  1  0.69200100  0.93903200  0.60918500  1
  F  F22  1  0.20033300  0.56045500  0.27740100  1
  F  F23  1  0.56045500  0.20033300  0.77740100  1
  F  F24  1  0.91949000  0.10339100  0.14208100  1
  F  F25  1  0.10339100  0.91949000  0.64208100  1
  F  F26  1  0.27216700  0.61171900  0.48895900  1
  F  F27  1  0.61171900  0.27216700  0.98895900  1
  F  F28  1  0.91181700  0.10833800  0.36073000  1
  F  F29  1  0.10833800  0.91181700  0.86073000  1
  F  F30  1  0.40561700  0.77458700  0.03276400  1
  F  F31  1  0.77458700  0.40561700  0.53276400  1
