# generated using pymatgen
data_Na4VS3O13
_symmetry_space_group_name_H-M   'P 1'
_cell_length_a   16.18412700
_cell_length_b   8.74741000
_cell_length_c   15.67976000
_cell_angle_alpha   89.99935322
_cell_angle_beta   90.00000000
_cell_angle_gamma   90.00000000
_symmetry_Int_Tables_number   1
_chemical_formula_structural   Na4VS3O13
_chemical_formula_sum   'Na32 V8 S24 O104'
_cell_volume   2219.77099097
_cell_formula_units_Z   8
loop_
 _symmetry_equiv_pos_site_id
 _symmetry_equiv_pos_as_xyz
  1  'x, y, z'
loop_
 _atom_site_type_symbol
 _atom_site_label
 _atom_site_symmetry_multiplicity
 _atom_site_fract_x
 _atom_site_fract_y
 _atom_site_fract_z
 _atom_site_occupancy
  Na  Na0  1  0.08715500  0.35282200  0.24518600  1
  Na  Na1  1  0.28054500  0.31618500  0.46790700  1
  Na  Na2  1  0.21728300  0.67761300  0.81143900  1
  Na  Na3  1  0.71637200  0.81389900  0.81984500  1
  Na  Na4  1  0.92117300  0.21174800  0.72814300  1
  Na  Na5  1  0.57882700  0.21174800  0.22814300  1
  Na  Na6  1  0.95186000  0.30624200  0.99021000  1
  Na  Na7  1  0.71728300  0.32238700  0.68856100  1
  Na  Na8  1  0.57010800  0.83507100  0.00877100  1
  Na  Na9  1  0.07882700  0.78825200  0.27185700  1
  Na  Na10  1  0.21637200  0.18610100  0.68015500  1
  Na  Na11  1  0.58715500  0.64717800  0.25481400  1
  Na  Na12  1  0.78362800  0.81389900  0.31984500  1
  Na  Na13  1  0.91284500  0.64717800  0.75481400  1
  Na  Na14  1  0.72104600  0.14693800  0.96965800  1
  Na  Na15  1  0.42117300  0.78825200  0.77185700  1
  Na  Na16  1  0.07010800  0.16492900  0.49122900  1
  Na  Na17  1  0.28362800  0.18610100  0.18015500  1
  Na  Na18  1  0.45186000  0.69375800  0.50979000  1
  Na  Na19  1  0.71945500  0.68381500  0.53209300  1
  Na  Na20  1  0.54814000  0.30624200  0.49021000  1
  Na  Na21  1  0.78054500  0.68381500  0.03209300  1
  Na  Na22  1  0.42989200  0.16492900  0.99122900  1
  Na  Na23  1  0.92989200  0.83507100  0.50877100  1
  Na  Na24  1  0.41284500  0.35282200  0.74518600  1
  Na  Na25  1  0.27895400  0.85306200  0.03034200  1
  Na  Na26  1  0.04814000  0.69375800  0.00979000  1
  Na  Na27  1  0.77895400  0.14693800  0.46965800  1
  Na  Na28  1  0.28271700  0.67761300  0.31143900  1
  Na  Na29  1  0.22104600  0.85306200  0.53034200  1
  Na  Na30  1  0.21945500  0.31618500  0.96790700  1
  Na  Na31  1  0.78271700  0.32238700  0.18856100  1
  V  V32  1  0.07885400  0.02702500  0.86894000  1
  V  V33  1  0.57448000  0.47306400  0.86084600  1
  V  V34  1  0.92114600  0.97297500  0.13106000  1
  V  V35  1  0.57885400  0.97297500  0.63106000  1
  V  V36  1  0.42114600  0.02702500  0.36894000  1
  V  V37  1  0.42552000  0.52693600  0.13915400  1
  V  V38  1  0.92552000  0.47306400  0.36084600  1
  V  V39  1  0.07448000  0.52693600  0.63915400  1
  S  S40  1  0.54711700  0.06203500  0.84006100  1
  S  S41  1  0.60145100  0.90815300  0.42539900  1
  S  S42  1  0.22109800  0.05457700  0.34091400  1
  S  S43  1  0.72109800  0.94542300  0.15908600  1
  S  S44  1  0.27902700  0.56138400  0.63459400  1
  S  S45  1  0.77902700  0.43861600  0.86540600  1
  S  S46  1  0.95288300  0.06203500  0.34006100  1
  S  S47  1  0.42443200  0.42722500  0.33910100  1
  S  S48  1  0.22097300  0.56138400  0.13459400  1
  S  S49  1  0.39854900  0.09184700  0.57460100  1
  S  S50  1  0.89854900  0.90815300  0.92539900  1
  S  S51  1  0.61258000  0.46034500  0.06140300  1
  S  S52  1  0.77890200  0.94542300  0.65908600  1
  S  S53  1  0.04711700  0.93796500  0.65993900  1
  S  S54  1  0.45288300  0.93796500  0.15993900  1
  S  S55  1  0.57556800  0.57277500  0.66089900  1
  S  S56  1  0.10145100  0.09184700  0.07460100  1
  S  S57  1  0.07556800  0.42722500  0.83910100  1
  S  S58  1  0.92443200  0.57277500  0.16089900  1
  S  S59  1  0.72097300  0.43861600  0.36540600  1
  S  S60  1  0.11258000  0.53965500  0.43859700  1
  S  S61  1  0.27890200  0.05457700  0.84091400  1
  S  S62  1  0.88742000  0.46034500  0.56140300  1
  S  S63  1  0.38742000  0.53965500  0.93859700  1
  O  O64  1  0.72457600  0.60137900  0.38893500  1
  O  O65  1  0.32760300  0.58323700  0.71414200  1
  O  O66  1  0.10231100  0.13825200  0.97988100  1
  O  O67  1  0.32610100  0.17001000  0.79412400  1
  O  O68  1  0.95736700  0.72937700  0.17988900  1
  O  O69  1  0.52706400  0.22916000  0.84431700  1
  O  O70  1  0.82760300  0.41676300  0.78585800  1
  O  O71  1  0.60359700  0.65146200  0.87021800  1
  O  O72  1  0.56739000  0.39908600  0.98381000  1
  O  O73  1  0.95720700  0.04228300  0.91436200  1
  O  O74  1  0.39768900  0.13825200  0.47988100  1
  O  O75  1  0.45736700  0.27062300  0.32011100  1
  O  O76  1  0.96968900  0.00872200  0.25002400  1
  O  O77  1  0.29404300  0.89977300  0.80759100  1
  O  O78  1  0.57014400  0.77565300  0.37969200  1
  O  O79  1  0.44950800  0.53379500  0.86576200  1
  O  O80  1  0.68754000  0.34507400  0.43586000  1
  O  O81  1  0.82610100  0.82999000  0.70587600  1
  O  O82  1  0.86641100  0.03239500  0.36499800  1
  O  O83  1  0.67725200  0.35076800  0.08413500  1
  O  O84  1  0.13358900  0.96760500  0.63500200  1
  O  O85  1  0.81211000  0.90485800  0.17758300  1
  O  O86  1  0.31511200  0.04266100  0.59745000  1
  O  O87  1  0.48958900  0.97652600  0.89630600  1
  O  O88  1  0.18754000  0.65492600  0.06414000  1
  O  O89  1  0.70595700  0.10022700  0.19240900  1
  O  O90  1  0.20700800  0.06335600  0.43450900  1
  O  O91  1  0.46968900  0.99127800  0.24997600  1
  O  O92  1  0.07014400  0.22434700  0.12030800  1
  O  O93  1  0.01041100  0.97652600  0.39630600  1
  O  O94  1  0.97293600  0.22916000  0.34431700  1
  O  O95  1  0.17725200  0.64923200  0.41586500  1
  O  O96  1  0.45052100  0.53313600  0.26673000  1
  O  O97  1  0.83353600  0.57090800  0.15626200  1
  O  O98  1  0.03716600  0.48477000  0.91771600  1
  O  O99  1  0.42985600  0.22434700  0.62030800  1
  O  O100  1  0.82274800  0.35076800  0.58413500  1
  O  O101  1  0.35657800  0.38526800  0.95388000  1
  O  O102  1  0.47293600  0.77084000  0.15568300  1
  O  O103  1  0.18488800  0.04266100  0.09745000  1
  O  O104  1  0.04279300  0.95771700  0.08563800  1
  O  O105  1  0.03031100  0.99127800  0.74997600  1
  O  O106  1  0.31246000  0.65492600  0.56414000  1
  O  O107  1  0.51041100  0.02347400  0.10369400  1
  O  O108  1  0.39640300  0.34853800  0.12978200  1
  O  O109  1  0.04947900  0.53313600  0.76673000  1
  O  O110  1  0.16646400  0.42909200  0.84373800  1
  O  O111  1  0.60748100  0.14677700  0.60414700  1
  O  O112  1  0.27542400  0.39862100  0.61106500  1
  O  O113  1  0.10748100  0.85322300  0.89585300  1
  O  O114  1  0.89251900  0.14677700  0.10414700  1
  O  O115  1  0.54263300  0.72937700  0.67988900  1
  O  O116  1  0.31211000  0.09514200  0.32241700  1
  O  O117  1  0.81511200  0.95733900  0.90255000  1
  O  O118  1  0.54947900  0.46686400  0.73327000  1
  O  O119  1  0.77542400  0.60137900  0.88893500  1
  O  O120  1  0.79299200  0.93664400  0.56549100  1
  O  O121  1  0.81246000  0.34507400  0.93586000  1
  O  O122  1  0.22457600  0.39862100  0.11106500  1
  O  O123  1  0.29299200  0.06335600  0.93450900  1
  O  O124  1  0.89640300  0.65146200  0.37021800  1
  O  O125  1  0.06739000  0.60091400  0.51619000  1
  O  O126  1  0.89768900  0.86174800  0.02011900  1
  O  O127  1  0.43261000  0.60091400  0.01619000  1
  O  O128  1  0.64342200  0.61473200  0.04612000  1
  O  O129  1  0.94950800  0.46620500  0.63423800  1
  O  O130  1  0.80921400  0.38018600  0.34558800  1
  O  O131  1  0.98958900  0.02347400  0.60369400  1
  O  O132  1  0.33353600  0.42909200  0.34373800  1
  O  O133  1  0.32274800  0.64923200  0.91586500  1
  O  O134  1  0.46283400  0.48477000  0.41771600  1
  O  O135  1  0.85657800  0.61473200  0.54612000  1
  O  O136  1  0.68488800  0.95733900  0.40255000  1
  O  O137  1  0.14342200  0.38526800  0.45388000  1
  O  O138  1  0.02706400  0.77084000  0.65568300  1
  O  O139  1  0.36641100  0.96760500  0.13500200  1
  O  O140  1  0.54279300  0.04228300  0.41436200  1
  O  O141  1  0.67389900  0.82999000  0.20587600  1
  O  O142  1  0.45720700  0.95771700  0.58563800  1
  O  O143  1  0.20595700  0.89977300  0.30759100  1
  O  O144  1  0.05049200  0.53379500  0.36576200  1
  O  O145  1  0.63358900  0.03239500  0.86499800  1
  O  O146  1  0.79404300  0.10022700  0.69240900  1
  O  O147  1  0.30921400  0.61981400  0.15441200  1
  O  O148  1  0.19078600  0.61981400  0.65441200  1
  O  O149  1  0.95052100  0.46686400  0.23327000  1
  O  O150  1  0.92985600  0.77565300  0.87969200  1
  O  O151  1  0.04263300  0.27062300  0.82011100  1
  O  O152  1  0.53716600  0.51523000  0.58228400  1
  O  O153  1  0.66646400  0.57090800  0.65626200  1
  O  O154  1  0.96283400  0.51523000  0.08228400  1
  O  O155  1  0.70700800  0.93664400  0.06549100  1
  O  O156  1  0.67239700  0.41676300  0.28585800  1
  O  O157  1  0.60231100  0.86174800  0.52011900  1
  O  O158  1  0.17389900  0.17001000  0.29412400  1
  O  O159  1  0.93261000  0.39908600  0.48381000  1
  O  O160  1  0.55049200  0.46620500  0.13423800  1
  O  O161  1  0.69078600  0.38018600  0.84558800  1
  O  O162  1  0.53031100  0.00872200  0.75002400  1
  O  O163  1  0.39251900  0.85322300  0.39585300  1
  O  O164  1  0.68789000  0.90485800  0.67758300  1
  O  O165  1  0.18789000  0.09514200  0.82241700  1
  O  O166  1  0.17239700  0.58323700  0.21414200  1
  O  O167  1  0.10359700  0.34853800  0.62978200  1
