# generated using pymatgen
data_K7Th6F31
_symmetry_space_group_name_H-M   'P 1'
_cell_length_a   9.64349770
_cell_length_b   9.64349770
_cell_length_c   9.64349785
_cell_angle_alpha   107.29487818
_cell_angle_beta   107.29487818
_cell_angle_gamma   107.29487854
_symmetry_Int_Tables_number   1
_chemical_formula_structural   K7Th6F31
_chemical_formula_sum   'K7 Th6 F31'
_cell_volume   740.78768535
_cell_formula_units_Z   1
loop_
 _symmetry_equiv_pos_site_id
 _symmetry_equiv_pos_as_xyz
  1  'x, y, z'
loop_
 _atom_site_type_symbol
 _atom_site_label
 _atom_site_symmetry_multiplicity
 _atom_site_fract_x
 _atom_site_fract_y
 _atom_site_fract_z
 _atom_site_occupancy
  K  K0  1  0.81357900  0.42200200  0.27790400  1
  K  K1  1  0.72212800  0.18591200  0.57615500  1
  K  K2  1  0.57615500  0.72212800  0.18591200  1
  K  K3  1  0.49979000  0.49979000  0.49979000  1
  K  K4  1  0.42200200  0.27790400  0.81357900  1
  K  K5  1  0.27790400  0.81357900  0.42200200  1
  K  K6  1  0.18591200  0.57615500  0.72212800  1
  Th  Th7  1  0.96141500  0.87592900  0.63254700  1
  Th  Th8  1  0.87592900  0.63254700  0.96141500  1
  Th  Th9  1  0.35986600  0.03972800  0.12403300  1
  Th  Th10  1  0.63254700  0.96141500  0.87592900  1
  Th  Th11  1  0.12403300  0.35986700  0.03972800  1
  Th  Th12  1  0.03972800  0.12403300  0.35986600  1
  F  F13  1  0.78616000  0.04687200  0.15653300  1
  F  F14  1  0.94760700  0.29637400  0.47406000  1
  F  F15  1  0.95246800  0.84131700  0.21226900  1
  F  F16  1  0.98021100  0.44839400  0.85306200  1
  F  F17  1  0.70134000  0.52377200  0.05274300  1
  F  F18  1  0.54925900  0.14738500  0.01952700  1
  F  F19  1  0.84131700  0.21226900  0.95246800  1
  F  F20  1  0.90326100  0.69210200  0.74627500  1
  F  F21  1  0.85306200  0.98021100  0.44839400  1
  F  F22  1  0.73953600  0.66577900  0.42851100  1
  F  F23  1  0.56989800  0.25938400  0.33296500  1
  F  F24  1  0.66577900  0.42851100  0.73953600  1
  F  F25  1  0.52377200  0.05274300  0.70134000  1
  F  F26  1  0.74627500  0.90326100  0.69210200  1
  F  F27  1  0.32201300  0.26433800  0.10000900  1
  F  F28  1  0.69210200  0.74627500  0.90326100  1
  F  F29  1  0.26433800  0.10000900  0.32201300  1
  F  F30  1  0.47406000  0.94760700  0.29637400  1
  F  F31  1  0.33296500  0.56989800  0.25938400  1
  F  F32  1  0.02559300  0.02559300  0.02559300  1
  F  F33  1  0.42851100  0.73953600  0.66577900  1
  F  F34  1  0.25938400  0.33296500  0.56989800  1
  F  F35  1  0.14738500  0.01952700  0.54925900  1
  F  F36  1  0.10000900  0.32201300  0.26433800  1
  F  F37  1  0.15653300  0.78616000  0.04687200  1
  F  F38  1  0.44839400  0.85306200  0.98021100  1
  F  F39  1  0.29637400  0.47406000  0.94760700  1
  F  F40  1  0.01952700  0.54925900  0.14738500  1
  F  F41  1  0.04687200  0.15653300  0.78616000  1
  F  F42  1  0.05274300  0.70134000  0.52377200  1
  F  F43  1  0.21226900  0.95246800  0.84131700  1
