# generated using pymatgen
data_K2FeH2OF5
_symmetry_space_group_name_H-M   'P 1'
_cell_length_a   6.40240665
_cell_length_b   6.40326314
_cell_length_c   15.89758599
_cell_angle_alpha   84.83164991
_cell_angle_beta   95.12775834
_cell_angle_gamma   102.34540542
_symmetry_Int_Tables_number   1
_chemical_formula_structural   K2FeH2OF5
_chemical_formula_sum   'K8 Fe4 H8 O4 F20'
_cell_volume   632.43415144
_cell_formula_units_Z   4
loop_
 _symmetry_equiv_pos_site_id
 _symmetry_equiv_pos_as_xyz
  1  'x, y, z'
loop_
 _atom_site_type_symbol
 _atom_site_label
 _atom_site_symmetry_multiplicity
 _atom_site_fract_x
 _atom_site_fract_y
 _atom_site_fract_z
 _atom_site_occupancy
  K  K0  1  0.29842900  0.70386400  0.48136700  1
  K  K1  1  0.29837500  0.70377900  0.98146100  1
  K  K2  1  0.70391100  0.29866200  0.26859300  1
  K  K3  1  0.70377800  0.29862300  0.76857900  1
  K  K4  1  0.70159900  0.29617400  0.01860200  1
  K  K5  1  0.70155900  0.29632100  0.51851900  1
  K  K6  1  0.29609500  0.70138600  0.23140200  1
  K  K7  1  0.29596700  0.70130600  0.73141300  1
  Fe  Fe8  1  0.79682000  0.79708100  0.87505100  1
  Fe  Fe9  1  0.20321200  0.20281600  0.62492100  1
  Fe  Fe10  1  0.79681100  0.79712300  0.37496100  1
  Fe  Fe11  1  0.20339500  0.20282300  0.12508100  1
  H  H12  1  0.09632600  0.15102200  0.42298400  1
  H  H13  1  0.09642600  0.15098000  0.92301200  1
  H  H14  1  0.15088300  0.09651600  0.32703000  1
  H  H15  1  0.15073100  0.09652000  0.82702400  1
  H  H16  1  0.90360100  0.84912200  0.07702600  1
  H  H17  1  0.90338000  0.84899200  0.57697400  1
  H  H18  1  0.84910700  0.90355700  0.17299300  1
  H  H19  1  0.84914500  0.90363400  0.67294500  1
  O  O20  1  0.05506800  0.05550500  0.37499300  1
  O  O21  1  0.05503800  0.05554600  0.87499500  1
  O  O22  1  0.94499700  0.94451800  0.12505200  1
  O  O23  1  0.94487000  0.94448600  0.62499400  1
  F  F24  1  0.55451600  0.55462000  0.37495600  1
  F  F25  1  0.55446400  0.55449400  0.87505400  1
  F  F26  1  0.44568000  0.44543500  0.12513100  1
  F  F27  1  0.44549300  0.44543300  0.62489400  1
  F  F28  1  0.87095400  0.72222500  0.49559600  1
  F  F29  1  0.87097400  0.72226000  0.99566100  1
  F  F30  1  0.72213400  0.87181100  0.25430000  1
  F  F31  1  0.72199100  0.87147200  0.75448000  1
  F  F32  1  0.12913500  0.27774800  0.00445000  1
  F  F33  1  0.12901000  0.27776000  0.50432300  1
  F  F34  1  0.27799300  0.12823200  0.24572700  1
  F  F35  1  0.27793800  0.12843800  0.74550000  1
  F  F36  1  0.98678700  0.62208400  0.34359800  1
  F  F37  1  0.98681100  0.62195100  0.84368200  1
  F  F38  1  0.62167300  0.98710900  0.40626900  1
  F  F39  1  0.62173700  0.98694700  0.90639400  1
  F  F40  1  0.01322200  0.37791000  0.15639800  1
  F  F41  1  0.01311800  0.37789300  0.65629000  1
  F  F42  1  0.37853300  0.01282400  0.09374400  1
  F  F43  1  0.37831100  0.01299600  0.59358200  1
