# generated using pymatgen
data_Ca3(InAs2)2
_symmetry_space_group_name_H-M   'P 1'
_cell_length_a   4.46104600
_cell_length_b   6.87577400
_cell_length_c   16.77995700
_cell_angle_alpha   90.00000000
_cell_angle_beta   90.00000000
_cell_angle_gamma   90.00000000
_symmetry_Int_Tables_number   1
_chemical_formula_structural   Ca3(InAs2)2
_chemical_formula_sum   'Ca6 In4 As8'
_cell_volume   514.69403905
_cell_formula_units_Z   2
loop_
 _symmetry_equiv_pos_site_id
 _symmetry_equiv_pos_as_xyz
  1  'x, y, z'
loop_
 _atom_site_type_symbol
 _atom_site_label
 _atom_site_symmetry_multiplicity
 _atom_site_fract_x
 _atom_site_fract_y
 _atom_site_fract_z
 _atom_site_occupancy
  Ca  Ca0  1  0.00000000  0.27567400  0.80363000  1
  Ca  Ca1  1  0.50000000  0.77567400  0.69637000  1
  Ca  Ca2  1  0.00000000  0.72432600  0.19637000  1
  Ca  Ca3  1  0.50000000  0.22432600  0.30363000  1
  Ca  Ca4  1  0.00000000  0.00000000  0.00000000  1
  Ca  Ca5  1  0.50000000  0.50000000  0.50000000  1
  In  In6  1  0.00000000  0.85993500  0.41170800  1
  In  In7  1  0.50000000  0.35993500  0.08829200  1
  In  In8  1  0.00000000  0.14006500  0.58829200  1
  In  In9  1  0.50000000  0.64006500  0.91170800  1
  As  As10  1  0.50000000  0.24022100  0.92890600  1
  As  As11  1  0.50000000  0.75977900  0.07109400  1
  As  As12  1  0.00000000  0.22849100  0.17265800  1
  As  As13  1  0.00000000  0.25977900  0.42890600  1
  As  As14  1  0.50000000  0.72849100  0.32734200  1
  As  As15  1  0.00000000  0.77150900  0.82734200  1
  As  As16  1  0.00000000  0.74022100  0.57109400  1
  As  As17  1  0.50000000  0.27150900  0.67265800  1
