# generated using pymatgen
data_K2Nb6Ag(PO8)3
_symmetry_space_group_name_H-M   'P 1'
_cell_length_a   8.57769396
_cell_length_b   8.57769396
_cell_length_c   8.64329970
_cell_angle_alpha   75.41295263
_cell_angle_beta   75.41295263
_cell_angle_gamma   104.38378746
_symmetry_Int_Tables_number   1
_chemical_formula_structural   K2Nb6Ag(PO8)3
_chemical_formula_sum   'K2 Nb6 Ag1 P3 O24'
_cell_volume   561.62360187
_cell_formula_units_Z   1
loop_
 _symmetry_equiv_pos_site_id
 _symmetry_equiv_pos_as_xyz
  1  'x, y, z'
loop_
 _atom_site_type_symbol
 _atom_site_label
 _atom_site_symmetry_multiplicity
 _atom_site_fract_x
 _atom_site_fract_y
 _atom_site_fract_z
 _atom_site_occupancy
  K  K0  1  0.16999700  0.47677400  0.22023800  1
  K  K1  1  0.52322600  0.83000300  0.77976200  1
  Nb  Nb2  1  0.15172500  0.03449800  0.64864100  1
  Nb  Nb3  1  0.35465500  0.15474600  0.96146200  1
  Nb  Nb4  1  0.84525400  0.64534500  0.03853800  1
  Nb  Nb5  1  0.03676700  0.35185200  0.84557400  1
  Nb  Nb6  1  0.96550200  0.84827500  0.35135900  1
  Nb  Nb7  1  0.64814800  0.96323300  0.15442600  1
  Ag  Ag8  1  0.50351900  0.49648100  0.50000000  1
  P  P9  1  0.49775000  0.26863600  0.26838200  1
  P  P10  1  0.73136400  0.50225000  0.73161800  1
  P  P11  1  0.27022400  0.72977600  0.50000000  1
  O  O12  1  0.49751100  0.02087100  0.02232400  1
  O  O13  1  0.15278400  0.00184800  0.15379700  1
  O  O14  1  0.57477900  0.12518600  0.28291800  1
  O  O15  1  0.84658400  0.15341600  0.00000000  1
  O  O16  1  0.31240300  0.06745400  0.79241300  1
  O  O17  1  0.41626700  0.28948300  0.12782000  1
  O  O18  1  0.35832200  0.23593100  0.43957300  1
  O  O19  1  0.63999100  0.44048900  0.23188000  1
  O  O20  1  0.07643800  0.21286000  0.68791800  1
  O  O21  1  0.87481400  0.42522100  0.71708200  1
  O  O22  1  0.55951100  0.36000900  0.76812000  1
  O  O23  1  0.21029700  0.31594600  0.93168700  1
  O  O24  1  0.97912900  0.50248900  0.97767600  1
  O  O25  1  0.93254600  0.68759700  0.20758700  1
  O  O26  1  0.76406900  0.64167800  0.56042700  1
  O  O27  1  0.71051700  0.58373300  0.87218000  1
  O  O28  1  0.68405400  0.78970300  0.06831300  1
  O  O29  1  0.23689400  0.55964400  0.64182100  1
  O  O30  1  0.44035600  0.76310600  0.35817900  1
  O  O31  1  0.12793800  0.71043300  0.42077500  1
  O  O32  1  0.78714000  0.92356200  0.31208200  1
  O  O33  1  0.28956700  0.87206200  0.57922500  1
  O  O34  1  0.99815200  0.84721600  0.84620300  1
  O  O35  1  0.02580700  0.97419300  0.50000000  1
