# generated using pymatgen
data_RbMo3Br7
_symmetry_space_group_name_H-M   'P 1'
_cell_length_a   12.92837576
_cell_length_b   12.92837576
_cell_length_c   10.46652471
_cell_angle_alpha   68.80383992
_cell_angle_beta   68.80383992
_cell_angle_gamma   72.56020529
_symmetry_Int_Tables_number   1
_chemical_formula_structural   RbMo3Br7
_chemical_formula_sum   'Rb4 Mo12 Br28'
_cell_volume   1491.70251243
_cell_formula_units_Z   4
loop_
 _symmetry_equiv_pos_site_id
 _symmetry_equiv_pos_as_xyz
  1  'x, y, z'
loop_
 _atom_site_type_symbol
 _atom_site_label
 _atom_site_symmetry_multiplicity
 _atom_site_fract_x
 _atom_site_fract_y
 _atom_site_fract_z
 _atom_site_occupancy
  Rb  Rb0  1  0.57641000  0.42329600  0.24977600  1
  Rb  Rb1  1  0.98077600  0.02450800  0.49162300  1
  Rb  Rb2  1  0.42329600  0.57641000  0.74977600  1
  Rb  Rb3  1  0.02450800  0.98077600  0.99162300  1
  Mo  Mo4  1  0.34326300  0.05200600  0.05466900  1
  Mo  Mo5  1  0.51585500  0.06513500  0.12408800  1
  Mo  Mo6  1  0.13431300  0.51679400  0.35212100  1
  Mo  Mo7  1  0.48362500  0.86529500  0.14911500  1
  Mo  Mo8  1  0.05200600  0.34326300  0.55466900  1
  Mo  Mo9  1  0.06513500  0.51585500  0.62408800  1
  Mo  Mo10  1  0.93431600  0.48425800  0.37719100  1
  Mo  Mo11  1  0.94798400  0.65684400  0.44566000  1
  Mo  Mo12  1  0.51679400  0.13431300  0.85212100  1
  Mo  Mo13  1  0.86529500  0.48362500  0.64911500  1
  Mo  Mo14  1  0.48425800  0.93431600  0.87719100  1
  Mo  Mo15  1  0.65684400  0.94798400  0.94566000  1
  Br  Br16  1  0.11925200  0.12722600  0.12870000  1
  Br  Br17  1  0.37744400  0.25073700  0.02885100  1
  Br  Br18  1  0.01691700  0.65621300  0.17681800  1
  Br  Br19  1  0.32379500  0.53792600  0.13965500  1
  Br  Br20  1  0.12000100  0.34574000  0.28583200  1
  Br  Br21  1  0.31210500  0.85253100  0.07787400  1
  Br  Br22  1  0.53873600  0.15248800  0.29997400  1
  Br  Br23  1  0.84679900  0.45964600  0.20245300  1
  Br  Br24  1  0.12722600  0.11925200  0.62870000  1
  Br  Br25  1  0.14652000  0.68775800  0.42396500  1
  Br  Br26  1  0.25073700  0.37744400  0.52885100  1
  Br  Br27  1  0.65500600  0.87967900  0.21398300  1
  Br  Br28  1  0.46216400  0.67586900  0.36170900  1
  Br  Br29  1  0.34281900  0.98289100  0.32338000  1
  Br  Br30  1  0.65621300  0.01691700  0.67681800  1
  Br  Br31  1  0.53792600  0.32379500  0.63965500  1
  Br  Br32  1  0.34574000  0.12000100  0.78583200  1
  Br  Br33  1  0.74873200  0.62267900  0.47250100  1
  Br  Br34  1  0.85253100  0.31210500  0.57787400  1
  Br  Br35  1  0.87651100  0.88121700  0.36176300  1
  Br  Br36  1  0.15248800  0.53873600  0.79997400  1
  Br  Br37  1  0.45964600  0.84679900  0.70245300  1
  Br  Br38  1  0.68775800  0.14652000  0.92396500  1
  Br  Br39  1  0.87967900  0.65500600  0.71398300  1
  Br  Br40  1  0.67586900  0.46216400  0.86170900  1
  Br  Br41  1  0.98289100  0.34281900  0.82338000  1
  Br  Br42  1  0.62267900  0.74873200  0.97250100  1
  Br  Br43  1  0.88121700  0.87651100  0.86176300  1
