# generated using pymatgen
data_GaAg(PSe3)2
_symmetry_space_group_name_H-M   'P 1'
_cell_length_a   7.72230900
_cell_length_b   12.33811000
_cell_length_c   23.04663100
_cell_angle_alpha   90.00000000
_cell_angle_beta   90.00000000
_cell_angle_gamma   90.00000000
_symmetry_Int_Tables_number   1
_chemical_formula_structural   GaAg(PSe3)2
_chemical_formula_sum   'Ga8 Ag8 P16 Se48'
_cell_volume   2195.85299257
_cell_formula_units_Z   8
loop_
 _symmetry_equiv_pos_site_id
 _symmetry_equiv_pos_as_xyz
  1  'x, y, z'
loop_
 _atom_site_type_symbol
 _atom_site_label
 _atom_site_symmetry_multiplicity
 _atom_site_fract_x
 _atom_site_fract_y
 _atom_site_fract_z
 _atom_site_occupancy
  Ga  Ga0  1  0.72941700  0.86439300  0.34219000  1
  Ga  Ga1  1  0.77058300  0.13560700  0.84219000  1
  Ga  Ga2  1  0.27058300  0.13560700  0.65781000  1
  Ga  Ga3  1  0.22941700  0.86439300  0.15781000  1
  Ga  Ga4  1  0.22941700  0.63560700  0.65781000  1
  Ga  Ga5  1  0.27058300  0.36439300  0.15781000  1
  Ga  Ga6  1  0.72941700  0.63560700  0.84219000  1
  Ga  Ga7  1  0.77058300  0.36439300  0.34219000  1
  Ag  Ag8  1  0.84253200  0.89956300  0.51645200  1
  Ag  Ag9  1  0.65746800  0.39956300  0.51645200  1
  Ag  Ag10  1  0.84253200  0.60043700  0.01645200  1
  Ag  Ag11  1  0.34253200  0.60043700  0.48354800  1
  Ag  Ag12  1  0.15746800  0.39956300  0.98354800  1
  Ag  Ag13  1  0.65746800  0.10043700  0.01645200  1
  Ag  Ag14  1  0.34253200  0.89956300  0.98354800  1
  Ag  Ag15  1  0.15746800  0.10043700  0.48354800  1
  P  P16  1  0.54503400  0.90122600  0.84334700  1
  P  P17  1  0.75825400  0.87010700  0.91248800  1
  P  P18  1  0.75825400  0.62989300  0.41248800  1
  P  P19  1  0.24174600  0.37010700  0.58751200  1
  P  P20  1  0.04503400  0.90122600  0.65665300  1
  P  P21  1  0.45496600  0.40122600  0.65665300  1
  P  P22  1  0.95496600  0.40122600  0.84334700  1
  P  P23  1  0.74174600  0.37010700  0.91248800  1
  P  P24  1  0.04503400  0.59877400  0.15665300  1
  P  P25  1  0.25825400  0.62989300  0.08751200  1
  P  P26  1  0.25825400  0.87010700  0.58751200  1
  P  P27  1  0.95496600  0.09877400  0.34334700  1
  P  P28  1  0.54503400  0.59877400  0.34334700  1
  P  P29  1  0.74174600  0.12989300  0.41248800  1
  P  P30  1  0.45496600  0.09877400  0.15665300  1
  P  P31  1  0.24174600  0.12989300  0.08751200  1
  Se  Se32  1  0.37066700  0.03644400  0.56923100  1
  Se  Se33  1  0.54418300  0.26681800  0.86794300  1
  Se  Se34  1  0.67365300  0.48905700  0.61999500  1
  Se  Se35  1  0.81395300  0.00578600  0.27397200  1
  Se  Se36  1  0.62933300  0.53644400  0.93076900  1
  Se  Se37  1  0.65102900  0.69610200  0.49279400  1
  Se  Se38  1  0.12933300  0.53644400  0.56923100  1
  Se  Se39  1  0.02509200  0.26298300  0.30856500  1
  Se  Se40  1  0.12933300  0.96355600  0.06923100  1
  Se  Se41  1  0.81395300  0.49421400  0.77397200  1
  Se  Se42  1  0.32634700  0.98905700  0.88000500  1
  Se  Se43  1  0.65102900  0.80389800  0.99279400  1
  Se  Se44  1  0.18604700  0.99421400  0.72602800  1
  Se  Se45  1  0.87066700  0.46355600  0.43076900  1
  Se  Se46  1  0.52509200  0.23701700  0.69143500  1
  Se  Se47  1  0.02509200  0.23701700  0.80856500  1
  Se  Se48  1  0.31395300  0.49421400  0.72602800  1
  Se  Se49  1  0.34897100  0.30389800  0.50720600  1
  Se  Se50  1  0.45581700  0.73318200  0.13205700  1
  Se  Se51  1  0.87066700  0.03644400  0.93076900  1
  Se  Se52  1  0.84897100  0.30389800  0.99279400  1
  Se  Se53  1  0.95581700  0.73318200  0.36794300  1
  Se  Se54  1  0.37066700  0.46355600  0.06923100  1
  Se  Se55  1  0.04418300  0.26681800  0.63205700  1
  Se  Se56  1  0.52509200  0.26298300  0.19143500  1
  Se  Se57  1  0.68604700  0.50578600  0.27397200  1
  Se  Se58  1  0.62933300  0.96355600  0.43076900  1
  Se  Se59  1  0.54418300  0.23318200  0.36794300  1
  Se  Se60  1  0.31395300  0.00578600  0.22602800  1
  Se  Se61  1  0.15102900  0.80389800  0.50720600  1
  Se  Se62  1  0.17365300  0.01094300  0.38000500  1
  Se  Se63  1  0.97490800  0.73701700  0.69143500  1
  Se  Se64  1  0.34897100  0.19610200  0.00720600  1
  Se  Se65  1  0.82634700  0.98905700  0.61999500  1
  Se  Se66  1  0.84897100  0.19610200  0.49279400  1
  Se  Se67  1  0.67365300  0.01094300  0.11999500  1
  Se  Se68  1  0.95581700  0.76681800  0.86794300  1
  Se  Se69  1  0.47490800  0.73701700  0.80856500  1
  Se  Se70  1  0.18604700  0.50578600  0.22602800  1
  Se  Se71  1  0.97490800  0.76298300  0.19143500  1
  Se  Se72  1  0.04418300  0.23318200  0.13205700  1
  Se  Se73  1  0.32634700  0.51094300  0.38000500  1
  Se  Se74  1  0.15102900  0.69610200  0.00720600  1
  Se  Se75  1  0.45581700  0.76681800  0.63205700  1
  Se  Se76  1  0.68604700  0.99421400  0.77397200  1
  Se  Se77  1  0.17365300  0.48905700  0.88000500  1
  Se  Se78  1  0.47490800  0.76298300  0.30856500  1
  Se  Se79  1  0.82634700  0.51094300  0.11999500  1
