# generated using pymatgen
data_Tb4InIr
_symmetry_space_group_name_H-M   'P 1'
_cell_length_a   9.71208901
_cell_length_b   9.71208901
_cell_length_c   9.71208901
_cell_angle_alpha   60.00000000
_cell_angle_beta   60.00000000
_cell_angle_gamma   60.00000000
_symmetry_Int_Tables_number   1
_chemical_formula_structural   Tb4InIr
_chemical_formula_sum   'Tb16 In4 Ir4'
_cell_volume   647.77318250
_cell_formula_units_Z   4
loop_
 _symmetry_equiv_pos_site_id
 _symmetry_equiv_pos_as_xyz
  1  'x, y, z'
loop_
 _atom_site_type_symbol
 _atom_site_label
 _atom_site_symmetry_multiplicity
 _atom_site_fract_x
 _atom_site_fract_y
 _atom_site_fract_z
 _atom_site_occupancy
  Tb  Tb0  1  0.09901000  0.70297000  0.09901000  1
  Tb  Tb1  1  0.94143000  0.94143000  0.55857000  1
  Tb  Tb2  1  0.94143000  0.55857000  0.94143000  1
  Tb  Tb3  1  0.31019800  0.68980200  0.31019800  1
  Tb  Tb4  1  0.94143000  0.55857000  0.55857000  1
  Tb  Tb5  1  0.31019800  0.31019800  0.68980200  1
  Tb  Tb6  1  0.09901000  0.09901000  0.09901000  1
  Tb  Tb7  1  0.55857000  0.55857000  0.94143000  1
  Tb  Tb8  1  0.09901000  0.09901000  0.70297000  1
  Tb  Tb9  1  0.68980200  0.31019800  0.68980200  1
  Tb  Tb10  1  0.68980200  0.68980200  0.31019800  1
  Tb  Tb11  1  0.68980200  0.31019800  0.31019800  1
  Tb  Tb12  1  0.31019800  0.68980200  0.68980200  1
  Tb  Tb13  1  0.55857000  0.94143000  0.55857000  1
  Tb  Tb14  1  0.70297000  0.09901000  0.09901000  1
  Tb  Tb15  1  0.55857000  0.94143000  0.94143000  1
  In  In16  1  0.33257600  0.33257600  0.33257600  1
  In  In17  1  0.00227100  0.33257600  0.33257600  1
  In  In18  1  0.33257600  0.00227100  0.33257600  1
  In  In19  1  0.33257600  0.33257600  0.00227100  1
  Ir  Ir20  1  0.89125200  0.89125200  0.89125200  1
  Ir  Ir21  1  0.89125200  0.89125200  0.32624400  1
  Ir  Ir22  1  0.32624400  0.89125200  0.89125200  1
  Ir  Ir23  1  0.89125200  0.32624400  0.89125200  1
