# generated using pymatgen
data_Ba(Ge3Pt)4
_symmetry_space_group_name_H-M   'P 1'
_cell_length_a   7.64508347
_cell_length_b   7.64508347
_cell_length_c   7.64508347
_cell_angle_alpha   109.47122063
_cell_angle_beta   109.47122063
_cell_angle_gamma   109.47122063
_symmetry_Int_Tables_number   1
_chemical_formula_structural   Ba(Ge3Pt)4
_chemical_formula_sum   'Ba1 Ge12 Pt4'
_cell_volume   343.97335612
_cell_formula_units_Z   1
loop_
 _symmetry_equiv_pos_site_id
 _symmetry_equiv_pos_as_xyz
  1  'x, y, z'
loop_
 _atom_site_type_symbol
 _atom_site_label
 _atom_site_symmetry_multiplicity
 _atom_site_fract_x
 _atom_site_fract_y
 _atom_site_fract_z
 _atom_site_occupancy
  Ba  Ba0  1  0.00000000  0.00000000  0.00000000  1
  Ge  Ge1  1  0.84719200  0.64328600  0.49047700  1
  Ge  Ge2  1  0.35671400  0.50952300  0.15280800  1
  Ge  Ge3  1  0.20390600  0.84719200  0.35671400  1
  Ge  Ge4  1  0.15280800  0.64328600  0.79609400  1
  Ge  Ge5  1  0.64328600  0.79609400  0.15280800  1
  Ge  Ge6  1  0.49047700  0.84719200  0.64328600  1
  Ge  Ge7  1  0.15280800  0.35671400  0.50952300  1
  Ge  Ge8  1  0.50952300  0.15280800  0.35671400  1
  Ge  Ge9  1  0.84719200  0.35671400  0.20390600  1
  Ge  Ge10  1  0.64328600  0.49047700  0.84719200  1
  Ge  Ge11  1  0.35671400  0.20390600  0.84719200  1
  Ge  Ge12  1  0.79609400  0.15280800  0.64328600  1
  Pt  Pt13  1  0.00000000  0.00000000  0.50000000  1
  Pt  Pt14  1  0.50000000  0.50000000  0.50000000  1
  Pt  Pt15  1  0.00000000  0.50000000  0.00000000  1
  Pt  Pt16  1  0.50000000  0.00000000  0.00000000  1
