# generated using pymatgen
data_CuAs2Pb8Cl5O9
_symmetry_space_group_name_H-M   'P 1'
_cell_length_a   12.22513459
_cell_length_b   12.22513459
_cell_length_c   7.70858124
_cell_angle_alpha   81.05351132
_cell_angle_beta   81.05351132
_cell_angle_gamma   112.21025411
_symmetry_Int_Tables_number   1
_chemical_formula_structural   CuAs2Pb8Cl5O9
_chemical_formula_sum   'Cu2 As4 Pb16 Cl10 O18'
_cell_volume   1024.28694904
_cell_formula_units_Z   2
loop_
 _symmetry_equiv_pos_site_id
 _symmetry_equiv_pos_as_xyz
  1  'x, y, z'
loop_
 _atom_site_type_symbol
 _atom_site_label
 _atom_site_symmetry_multiplicity
 _atom_site_fract_x
 _atom_site_fract_y
 _atom_site_fract_z
 _atom_site_occupancy
  Cu  Cu0  1  0.57616400  0.42383600  0.50000000  1
  Cu  Cu1  1  0.42383600  0.57616400  0.50000000  1
  As  As2  1  0.44253100  0.21269900  0.58499400  1
  As  As3  1  0.78730100  0.55746900  0.41500600  1
  As  As4  1  0.55746900  0.78730100  0.41500600  1
  As  As5  1  0.21269900  0.44253100  0.58499400  1
  Pb  Pb6  1  0.74649400  0.55333700  0.92148100  1
  Pb  Pb7  1  0.14397900  0.14397900  0.42367800  1
  Pb  Pb8  1  0.65742200  0.05429500  0.57734200  1
  Pb  Pb9  1  0.64424800  0.05567300  0.07228000  1
  Pb  Pb10  1  0.25350600  0.44666300  0.07851900  1
  Pb  Pb11  1  0.85602100  0.85602100  0.57632200  1
  Pb  Pb12  1  0.85523100  0.85523100  0.07041300  1
  Pb  Pb13  1  0.44666300  0.25350600  0.07851900  1
  Pb  Pb14  1  0.55333700  0.74649400  0.92148100  1
  Pb  Pb15  1  0.05567300  0.64424800  0.07228000  1
  Pb  Pb16  1  0.14476900  0.14476900  0.92958700  1
  Pb  Pb17  1  0.34257800  0.94570500  0.42265800  1
  Pb  Pb18  1  0.94570500  0.34257800  0.42265800  1
  Pb  Pb19  1  0.94432700  0.35575200  0.92772000  1
  Pb  Pb20  1  0.35575200  0.94432700  0.92772000  1
  Pb  Pb21  1  0.05429500  0.65742200  0.57734200  1
  Cl  Cl22  1  0.70280200  0.28409400  0.76501000  1
  Cl  Cl23  1  0.28409400  0.70280200  0.76501000  1
  Cl  Cl24  1  0.09619000  0.89841600  0.75284400  1
  Cl  Cl25  1  0.29719800  0.71590600  0.23499000  1
  Cl  Cl26  1  0.71590600  0.29719800  0.23499000  1
  Cl  Cl27  1  0.49774100  0.49774100  0.26081500  1
  Cl  Cl28  1  0.50225900  0.50225900  0.73918500  1
  Cl  Cl29  1  0.90381000  0.10158400  0.24715600  1
  Cl  Cl30  1  0.10158400  0.90381000  0.24715600  1
  Cl  Cl31  1  0.89841600  0.09619000  0.75284400  1
  O  O32  1  0.24077200  0.24077200  0.12959400  1
  O  O33  1  0.17200300  0.34668200  0.80640700  1
  O  O34  1  0.46882200  0.07555800  0.60786000  1
  O  O35  1  0.82782800  0.65318600  0.57190200  1
  O  O36  1  0.06015300  0.44431800  0.12821900  1
  O  O37  1  0.07555800  0.46882200  0.60786000  1
  O  O38  1  0.44431800  0.06015300  0.12821900  1
  O  O39  1  0.17217200  0.34681400  0.42809800  1
  O  O40  1  0.92444200  0.53117800  0.39214000  1
  O  O41  1  0.34681400  0.17217200  0.42809800  1
  O  O42  1  0.34668200  0.17200300  0.80640700  1
  O  O43  1  0.53117800  0.92444200  0.39214000  1
  O  O44  1  0.55568200  0.93984700  0.87178100  1
  O  O45  1  0.82799700  0.65331800  0.19359300  1
  O  O46  1  0.75922800  0.75922800  0.87040600  1
  O  O47  1  0.65318600  0.82782800  0.57190200  1
  O  O48  1  0.93984700  0.55568200  0.87178100  1
  O  O49  1  0.65331800  0.82799700  0.19359300  1
