# generated using pymatgen
data_Mg2CoH5
_symmetry_space_group_name_H-M   'P 1'
_cell_length_a   4.45143500
_cell_length_b   4.45143500
_cell_length_c   6.54665200
_cell_angle_alpha   90.00000000
_cell_angle_beta   90.00000000
_cell_angle_gamma   90.00000000
_symmetry_Int_Tables_number   1
_chemical_formula_structural   Mg2CoH5
_chemical_formula_sum   'Mg4 Co2 H10'
_cell_volume   129.72370028
_cell_formula_units_Z   2
loop_
 _symmetry_equiv_pos_site_id
 _symmetry_equiv_pos_as_xyz
  1  'x, y, z'
loop_
 _atom_site_type_symbol
 _atom_site_label
 _atom_site_symmetry_multiplicity
 _atom_site_fract_x
 _atom_site_fract_y
 _atom_site_fract_z
 _atom_site_occupancy
  Mg  Mg0  1  0.00000000  0.00000000  0.00000000  1
  Mg  Mg1  1  0.50000000  0.50000000  0.00000000  1
  Mg  Mg2  1  0.00000000  0.00000000  0.50000000  1
  Mg  Mg3  1  0.50000000  0.50000000  0.50000000  1
  Co  Co4  1  0.00000000  0.50000000  0.74314400  1
  Co  Co5  1  0.50000000  0.00000000  0.25685600  1
  H  H6  1  0.00000000  0.50000000  0.50373600  1
  H  H7  1  0.50000000  0.00000000  0.49626400  1
  H  H8  1  0.24103100  0.74103100  0.77401800  1
  H  H9  1  0.75896900  0.74103100  0.77401800  1
  H  H10  1  0.24103100  0.25896900  0.77401800  1
  H  H11  1  0.75896900  0.25896900  0.77401800  1
  H  H12  1  0.25896900  0.75896900  0.22598200  1
  H  H13  1  0.74103100  0.75896900  0.22598200  1
  H  H14  1  0.25896900  0.24103100  0.22598200  1
  H  H15  1  0.74103100  0.24103100  0.22598200  1
