# generated using pymatgen
data_CsFeSiO4
_symmetry_space_group_name_H-M   'P 1'
_cell_length_a   5.64098500
_cell_length_b   9.19422800
_cell_length_c   9.83903100
_cell_angle_alpha   90.00000000
_cell_angle_beta   90.00000000
_cell_angle_gamma   90.00000000
_symmetry_Int_Tables_number   1
_chemical_formula_structural   CsFeSiO4
_chemical_formula_sum   'Cs4 Fe4 Si4 O16'
_cell_volume   510.29644529
_cell_formula_units_Z   4
loop_
 _symmetry_equiv_pos_site_id
 _symmetry_equiv_pos_as_xyz
  1  'x, y, z'
loop_
 _atom_site_type_symbol
 _atom_site_label
 _atom_site_symmetry_multiplicity
 _atom_site_fract_x
 _atom_site_fract_y
 _atom_site_fract_z
 _atom_site_occupancy
  Cs  Cs0  1  0.49617200  0.00058300  0.30178700  1
  Cs  Cs1  1  0.99617200  0.99941700  0.69821300  1
  Cs  Cs2  1  0.99617200  0.49941700  0.80178700  1
  Cs  Cs3  1  0.49617200  0.50058300  0.19821300  1
  Fe  Fe4  1  0.98036400  0.81870900  0.08583200  1
  Fe  Fe5  1  0.48036400  0.18129100  0.91416800  1
  Fe  Fe6  1  0.48036400  0.68129100  0.58583200  1
  Fe  Fe7  1  0.98036400  0.31870900  0.41416800  1
  Si  Si8  1  0.98055000  0.69844600  0.41913300  1
  Si  Si9  1  0.48055000  0.30155400  0.58086700  1
  Si  Si10  1  0.48055000  0.80155400  0.91913300  1
  Si  Si11  1  0.98055000  0.19844600  0.08086700  1
  O  O12  1  0.98137400  0.52098800  0.41553900  1
  O  O13  1  0.48137400  0.47901200  0.58446100  1
  O  O14  1  0.48137400  0.97901200  0.91553900  1
  O  O15  1  0.98137400  0.02098800  0.08446100  1
  O  O16  1  0.76986600  0.75903300  0.52106900  1
  O  O17  1  0.26986600  0.24096700  0.47893100  1
  O  O18  1  0.26986600  0.74096700  0.02106900  1
  O  O19  1  0.76986600  0.25903300  0.97893100  1
  O  O20  1  0.23642600  0.76128500  0.47496500  1
  O  O21  1  0.73642600  0.23871500  0.52503500  1
  O  O22  1  0.73642600  0.73871500  0.97496500  1
  O  O23  1  0.23642600  0.26128500  0.02503500  1
  O  O24  1  0.92724700  0.76012400  0.26602600  1
  O  O25  1  0.42724700  0.23987600  0.73397400  1
  O  O26  1  0.42724700  0.73987600  0.76602600  1
  O  O27  1  0.92724700  0.26012400  0.23397400  1
