# generated using pymatgen
data_K3Ta2AsSe11
_symmetry_space_group_name_H-M   'P 1'
_cell_length_a   10.10557414
_cell_length_b   10.10557414
_cell_length_c   10.10023698
_cell_angle_alpha   82.58597382
_cell_angle_beta   82.58597382
_cell_angle_gamma   82.23674746
_symmetry_Int_Tables_number   1
_chemical_formula_structural   K3Ta2AsSe11
_chemical_formula_sum   'K6 Ta4 As2 Se22'
_cell_volume   1006.90524061
_cell_formula_units_Z   2
loop_
 _symmetry_equiv_pos_site_id
 _symmetry_equiv_pos_as_xyz
  1  'x, y, z'
loop_
 _atom_site_type_symbol
 _atom_site_label
 _atom_site_symmetry_multiplicity
 _atom_site_fract_x
 _atom_site_fract_y
 _atom_site_fract_z
 _atom_site_occupancy
  K  K0  1  0.66574400  0.80031300  0.91722300  1
  K  K1  1  0.43297300  0.27027400  0.16550400  1
  K  K2  1  0.80031300  0.66574400  0.41722300  1
  K  K3  1  0.90072800  0.05416200  0.25313600  1
  K  K4  1  0.27027400  0.43297300  0.66550400  1
  K  K5  1  0.05416200  0.90072800  0.75313600  1
  Ta  Ta6  1  0.82610500  0.40969400  0.83064100  1
  Ta  Ta7  1  0.70671900  0.16044500  0.64600100  1
  Ta  Ta8  1  0.40969400  0.82610500  0.33064000  1
  Ta  Ta9  1  0.16044500  0.70671900  0.14600100  1
  As  As10  1  0.04643300  0.34908000  0.09811200  1
  As  As11  1  0.34908000  0.04643300  0.59811200  1
  Se  Se12  1  0.20124200  0.50613300  0.99299200  1
  Se  Se13  1  0.81544000  0.31303000  0.43776400  1
  Se  Se14  1  0.63933600  0.44329700  0.66794500  1
  Se  Se15  1  0.94096000  0.78486600  0.08892500  1
  Se  Se16  1  0.78486600  0.94096000  0.58892500  1
  Se  Se17  1  0.44073200  0.81438300  0.58760300  1
  Se  Se18  1  0.59766200  0.94026200  0.24518500  1
  Se  Se19  1  0.94365500  0.25921100  0.62716100  1
  Se  Se20  1  0.25921100  0.94365500  0.12716100  1
  Se  Se21  1  0.31303000  0.81544000  0.93776400  1
  Se  Se22  1  0.81438300  0.44073200  0.08760300  1
  Se  Se23  1  0.57353000  0.49427800  0.89326300  1
  Se  Se24  1  0.22596500  0.03427900  0.40394100  1
  Se  Se25  1  0.03427900  0.22596500  0.90394100  1
  Se  Se26  1  0.14185300  0.73898600  0.40319400  1
  Se  Se27  1  0.13328100  0.51649000  0.34340100  1
  Se  Se28  1  0.44329700  0.63933600  0.16794500  1
  Se  Se29  1  0.51649000  0.13328100  0.84340100  1
  Se  Se30  1  0.50613300  0.20124200  0.49299200  1
  Se  Se31  1  0.94026200  0.59766200  0.74518500  1
  Se  Se32  1  0.73898600  0.14185300  0.90319400  1
  Se  Se33  1  0.49427800  0.57353000  0.39326300  1
