# generated using pymatgen
data_La5C2Cl9
_symmetry_space_group_name_H-M   'P 1'
_cell_length_a   8.70404200
_cell_length_b   8.75529572
_cell_length_c   12.02764196
_cell_angle_alpha   84.99139713
_cell_angle_beta   85.67443853
_cell_angle_gamma   61.35250819
_symmetry_Int_Tables_number   1
_chemical_formula_structural   La5C2Cl9
_chemical_formula_sum   'La10 C4 Cl18'
_cell_volume   800.71886360
_cell_formula_units_Z   2
loop_
 _symmetry_equiv_pos_site_id
 _symmetry_equiv_pos_as_xyz
  1  'x, y, z'
loop_
 _atom_site_type_symbol
 _atom_site_label
 _atom_site_symmetry_multiplicity
 _atom_site_fract_x
 _atom_site_fract_y
 _atom_site_fract_z
 _atom_site_occupancy
  La  La0  1  0.87355500  0.73189800  0.72956600  1
  La  La1  1  0.12644500  0.26810200  0.27043400  1
  La  La2  1  0.20620100  0.68061600  0.49267700  1
  La  La3  1  0.38876000  0.40186900  0.78189700  1
  La  La4  1  0.79379900  0.31938400  0.50732300  1
  La  La5  1  0.89585600  0.29731900  0.99317000  1
  La  La6  1  0.61124000  0.59813100  0.21810300  1
  La  La7  1  0.76742500  0.08136800  0.25665700  1
  La  La8  1  0.23257500  0.91863200  0.74334300  1
  La  La9  1  0.10414400  0.70268100  0.00683000  1
  C  C10  1  0.85611600  0.30509200  0.18804900  1
  C  C11  1  0.82644200  0.31473700  0.31088200  1
  C  C12  1  0.17355800  0.68526300  0.68911800  1
  C  C13  1  0.14388400  0.69490800  0.81195100  1
  Cl  Cl14  1  0.48790100  0.98661700  0.23044100  1
  Cl  Cl15  1  0.51209900  0.01338300  0.76955900  1
  Cl  Cl16  1  0.77950100  0.04029500  0.02085100  1
  Cl  Cl17  1  0.54111700  0.67684000  0.44963000  1
  Cl  Cl18  1  0.45888300  0.32316000  0.55037000  1
  Cl  Cl19  1  0.22049900  0.95970500  0.97914900  1
  Cl  Cl20  1  0.39137600  0.41709100  0.27476600  1
  Cl  Cl21  1  0.08057400  0.33745400  0.76868900  1
  Cl  Cl22  1  0.17329800  0.05303700  0.50603900  1
  Cl  Cl23  1  0.50000000  0.50000000  0.00000000  1
  Cl  Cl24  1  0.84063300  0.12800700  0.74352400  1
  Cl  Cl25  1  0.15936700  0.87199300  0.25647600  1
  Cl  Cl26  1  0.82670200  0.94696300  0.49396100  1
  Cl  Cl27  1  0.60862400  0.58290900  0.72523400  1
  Cl  Cl28  1  0.78414800  0.66912900  0.96907100  1
  Cl  Cl29  1  0.00000000  0.50000000  0.50000000  1
  Cl  Cl30  1  0.91942600  0.66254600  0.23131100  1
  Cl  Cl31  1  0.21585200  0.33087100  0.03092900  1
