# generated using pymatgen
data_Cs3V4Te2ClO14
_symmetry_space_group_name_H-M   'P 1'
_cell_length_a   5.57968600
_cell_length_b   6.94085600
_cell_length_c   24.44350500
_cell_angle_alpha   90.00000000
_cell_angle_beta   90.00000000
_cell_angle_gamma   90.00000000
_symmetry_Int_Tables_number   1
_chemical_formula_structural   Cs3V4Te2ClO14
_chemical_formula_sum   'Cs6 V8 Te4 Cl2 O28'
_cell_volume   946.64310086
_cell_formula_units_Z   2
loop_
 _symmetry_equiv_pos_site_id
 _symmetry_equiv_pos_as_xyz
  1  'x, y, z'
loop_
 _atom_site_type_symbol
 _atom_site_label
 _atom_site_symmetry_multiplicity
 _atom_site_fract_x
 _atom_site_fract_y
 _atom_site_fract_z
 _atom_site_occupancy
  Cs  Cs0  1  0.00000000  0.50000000  0.50000000  1
  Cs  Cs1  1  0.50000000  0.15297500  0.77065100  1
  Cs  Cs2  1  0.00000000  0.65297500  0.72934900  1
  Cs  Cs3  1  0.00000000  0.34702500  0.27065100  1
  Cs  Cs4  1  0.50000000  0.84702500  0.22934900  1
  Cs  Cs5  1  0.50000000  0.00000000  0.00000000  1
  V  V6  1  0.00000000  0.13055600  0.63717300  1
  V  V7  1  0.50000000  0.36944400  0.13717300  1
  V  V8  1  0.00000000  0.06348500  0.11596400  1
  V  V9  1  0.50000000  0.43651500  0.61596400  1
  V  V10  1  0.00000000  0.86944400  0.36282700  1
  V  V11  1  0.50000000  0.63055600  0.86282700  1
  V  V12  1  0.50000000  0.56348500  0.38403600  1
  V  V13  1  0.00000000  0.93651500  0.88403600  1
  Te  Te14  1  0.50000000  0.07245300  0.41594600  1
  Te  Te15  1  0.50000000  0.92754700  0.58405400  1
  Te  Te16  1  0.00000000  0.57245300  0.08405400  1
  Te  Te17  1  0.00000000  0.42754700  0.91594600  1
  Cl  Cl18  1  0.00000000  0.00000000  0.50000000  1
  Cl  Cl19  1  0.50000000  0.50000000  0.00000000  1
  O  O20  1  0.25156200  0.79440000  0.89843100  1
  O  O21  1  0.00000000  0.85060700  0.06950700  1
  O  O22  1  0.00000000  0.14939300  0.93049300  1
  O  O23  1  0.24843800  0.29440000  0.60156900  1
  O  O24  1  0.25156200  0.20560000  0.10156900  1
  O  O25  1  0.50000000  0.50222200  0.31890300  1
  O  O26  1  0.75156200  0.70560000  0.39843100  1
  O  O27  1  0.24381400  0.08120300  0.36536800  1
  O  O28  1  0.75156200  0.29440000  0.60156900  1
  O  O29  1  0.00000000  0.79906700  0.29819300  1
  O  O30  1  0.74843800  0.20560000  0.10156900  1
  O  O31  1  0.75618600  0.91879700  0.63463200  1
  O  O32  1  0.74381400  0.41879700  0.86536800  1
  O  O33  1  0.50000000  0.49777800  0.68109700  1
  O  O34  1  0.50000000  0.35060700  0.43049300  1
  O  O35  1  0.74381400  0.58120300  0.13463200  1
  O  O36  1  0.24843800  0.70560000  0.39843100  1
  O  O37  1  0.50000000  0.70093300  0.79819300  1
  O  O38  1  0.25618600  0.58120300  0.13463200  1
  O  O39  1  0.00000000  0.20093300  0.70180700  1
  O  O40  1  0.25618600  0.41879700  0.86536800  1
  O  O41  1  0.00000000  0.99777800  0.81890300  1
  O  O42  1  0.74843800  0.79440000  0.89843100  1
  O  O43  1  0.75618600  0.08120300  0.36536800  1
  O  O44  1  0.50000000  0.29906700  0.20180700  1
  O  O45  1  0.00000000  0.00222200  0.18109700  1
  O  O46  1  0.24381400  0.91879700  0.63463200  1
  O  O47  1  0.50000000  0.64939300  0.56950700  1
