# generated using pymatgen
data_KMn4(PO4)3
_symmetry_space_group_name_H-M   'P 1'
_cell_length_a   6.64476200
_cell_length_b   10.21018200
_cell_length_c   16.31597700
_cell_angle_alpha   90.00000000
_cell_angle_beta   90.00000000
_cell_angle_gamma   90.00000000
_symmetry_Int_Tables_number   1
_chemical_formula_structural   KMn4(PO4)3
_chemical_formula_sum   'K4 Mn16 P12 O48'
_cell_volume   1106.94488593
_cell_formula_units_Z   4
loop_
 _symmetry_equiv_pos_site_id
 _symmetry_equiv_pos_as_xyz
  1  'x, y, z'
loop_
 _atom_site_type_symbol
 _atom_site_label
 _atom_site_symmetry_multiplicity
 _atom_site_fract_x
 _atom_site_fract_y
 _atom_site_fract_z
 _atom_site_occupancy
  K  K0  1  0.25000000  0.25118900  0.78587800  1
  K  K1  1  0.75000000  0.24881100  0.28587800  1
  K  K2  1  0.25000000  0.75118900  0.71412200  1
  K  K3  1  0.75000000  0.74881100  0.21412200  1
  Mn  Mn4  1  0.50207900  0.25248900  0.55301600  1
  Mn  Mn5  1  0.00207900  0.24751100  0.05301600  1
  Mn  Mn6  1  0.99792100  0.25248900  0.55301600  1
  Mn  Mn7  1  0.49792100  0.74751100  0.44698400  1
  Mn  Mn8  1  0.25000000  0.93463800  0.12678500  1
  Mn  Mn9  1  0.75000000  0.06536200  0.87321500  1
  Mn  Mn10  1  0.25000000  0.43463800  0.37321500  1
  Mn  Mn11  1  0.75000000  0.56536200  0.62678500  1
  Mn  Mn12  1  0.25000000  0.54323200  0.13061900  1
  Mn  Mn13  1  0.75000000  0.45676800  0.86938100  1
  Mn  Mn14  1  0.25000000  0.04323200  0.36938100  1
  Mn  Mn15  1  0.75000000  0.95676800  0.63061900  1
  Mn  Mn16  1  0.00207900  0.74751100  0.44698400  1
  Mn  Mn17  1  0.99792100  0.75248900  0.94698400  1
  Mn  Mn18  1  0.49792100  0.24751100  0.05301600  1
  Mn  Mn19  1  0.50207900  0.75248900  0.94698400  1
  P  P20  1  0.25000000  0.70665900  0.27595800  1
  P  P21  1  0.75000000  0.29334100  0.72404200  1
  P  P22  1  0.25000000  0.20665900  0.22404200  1
  P  P23  1  0.75000000  0.79334100  0.77595800  1
  P  P24  1  0.25000000  0.54199900  0.55520900  1
  P  P25  1  0.75000000  0.45800100  0.44479100  1
  P  P26  1  0.25000000  0.04199900  0.94479100  1
  P  P27  1  0.75000000  0.52829000  0.05978200  1
  P  P28  1  0.75000000  0.95800100  0.05520900  1
  P  P29  1  0.75000000  0.02829000  0.44021800  1
  P  P30  1  0.25000000  0.47171000  0.94021800  1
  P  P31  1  0.25000000  0.97171000  0.55978200  1
  O  O32  1  0.25000000  0.55317900  0.26772700  1
  O  O33  1  0.75000000  0.44682100  0.73227300  1
  O  O34  1  0.25000000  0.05317900  0.23227300  1
  O  O35  1  0.75000000  0.94682100  0.76772700  1
  O  O36  1  0.55970800  0.24401900  0.67873300  1
  O  O37  1  0.05970800  0.75598100  0.32126700  1
  O  O38  1  0.94029200  0.74401900  0.82126700  1
  O  O39  1  0.44029200  0.25598100  0.17873300  1
  O  O40  1  0.44029200  0.75598100  0.32126700  1
  O  O41  1  0.94029200  0.24401900  0.67873300  1
  O  O42  1  0.05970800  0.25598100  0.17873300  1
  O  O43  1  0.55970800  0.74401900  0.82126700  1
  O  O44  1  0.25000000  0.74993100  0.18439100  1
  O  O45  1  0.75000000  0.25006900  0.81560900  1
  O  O46  1  0.25000000  0.24993100  0.31560900  1
  O  O47  1  0.75000000  0.75006900  0.68439100  1
  O  O48  1  0.55980800  0.41014500  0.40129400  1
  O  O49  1  0.05980800  0.58985500  0.59870600  1
  O  O50  1  0.94019200  0.91014500  0.09870600  1
  O  O51  1  0.56013100  0.06103300  0.39142000  1
  O  O52  1  0.44019200  0.08985500  0.90129400  1
  O  O53  1  0.94019200  0.41014500  0.40129400  1
  O  O54  1  0.05980800  0.08985500  0.90129400  1
  O  O55  1  0.55980800  0.91014500  0.09870600  1
  O  O56  1  0.25000000  0.60412400  0.46531500  1
  O  O57  1  0.75000000  0.39587600  0.53468500  1
  O  O58  1  0.25000000  0.10412400  0.03468500  1
  O  O59  1  0.75000000  0.89587600  0.96531500  1
  O  O60  1  0.25000000  0.88903800  0.95651500  1
  O  O61  1  0.75000000  0.11096200  0.04348500  1
  O  O62  1  0.25000000  0.38903800  0.54348500  1
  O  O63  1  0.75000000  0.61096200  0.45651500  1
  O  O64  1  0.75000000  0.61075600  0.97645800  1
  O  O65  1  0.25000000  0.38924400  0.02354200  1
  O  O66  1  0.75000000  0.11075600  0.52354200  1
  O  O67  1  0.25000000  0.88924400  0.47645800  1
  O  O68  1  0.75000000  0.87950200  0.46743300  1
  O  O69  1  0.25000000  0.12049800  0.53256700  1
  O  O70  1  0.75000000  0.37950200  0.03256700  1
  O  O71  1  0.25000000  0.62049800  0.96743300  1
  O  O72  1  0.56013100  0.56103300  0.10858000  1
  O  O73  1  0.06013100  0.43896700  0.89142000  1
  O  O74  1  0.93986900  0.06103300  0.39142000  1
  O  O75  1  0.43986900  0.93896700  0.60858000  1
  O  O76  1  0.43986900  0.43896700  0.89142000  1
  O  O77  1  0.93986900  0.56103300  0.10858000  1
  O  O78  1  0.06013100  0.93896700  0.60858000  1
  O  O79  1  0.44019200  0.58985500  0.59870600  1
