# generated using pymatgen
data_Zr4In5Co2
_symmetry_space_group_name_H-M   'P 1'
_cell_length_a   3.30616300
_cell_length_b   7.54971400
_cell_length_c   9.10430468
_cell_angle_alpha   85.10212667
_cell_angle_beta   90.00000000
_cell_angle_gamma   90.00000000
_symmetry_Int_Tables_number   1
_chemical_formula_structural   Zr4In5Co2
_chemical_formula_sum   'Zr4 In5 Co2'
_cell_volume   226.41896496
_cell_formula_units_Z   1
loop_
 _symmetry_equiv_pos_site_id
 _symmetry_equiv_pos_as_xyz
  1  'x, y, z'
loop_
 _atom_site_type_symbol
 _atom_site_label
 _atom_site_symmetry_multiplicity
 _atom_site_fract_x
 _atom_site_fract_y
 _atom_site_fract_z
 _atom_site_occupancy
  Zr  Zr0  1  0.50000000  0.79936000  0.43994200  1
  Zr  Zr1  1  0.50000000  0.18149700  0.15834800  1
  Zr  Zr2  1  0.50000000  0.20064000  0.56005800  1
  Zr  Zr3  1  0.50000000  0.81850300  0.84165200  1
  In  In4  1  0.00000000  0.54224900  0.66847000  1
  In  In5  1  0.00000000  0.15824300  0.85759800  1
  In  In6  1  0.00000000  0.50000000  0.00000000  1
  In  In7  1  0.00000000  0.84175700  0.14240200  1
  In  In8  1  0.00000000  0.45775100  0.33153000  1
  Co  Co9  1  0.00000000  0.07593300  0.36616300  1
  Co  Co10  1  0.00000000  0.92406700  0.63383700  1
