# generated using pymatgen
data_CeP5O14
_symmetry_space_group_name_H-M   'P 1'
_cell_length_a   8.94657900
_cell_length_b   9.22317500
_cell_length_c   13.27491600
_cell_angle_alpha   90.00000000
_cell_angle_beta   90.00000000
_cell_angle_gamma   90.00000000
_symmetry_Int_Tables_number   1
_chemical_formula_structural   CeP5O14
_chemical_formula_sum   'Ce4 P20 O56'
_cell_volume   1095.39116019
_cell_formula_units_Z   4
loop_
 _symmetry_equiv_pos_site_id
 _symmetry_equiv_pos_as_xyz
  1  'x, y, z'
loop_
 _atom_site_type_symbol
 _atom_site_label
 _atom_site_symmetry_multiplicity
 _atom_site_fract_x
 _atom_site_fract_y
 _atom_site_fract_z
 _atom_site_occupancy
  Ce  Ce0  1  0.77693400  0.18890500  0.00000000  1
  Ce  Ce1  1  0.77693400  0.31109500  0.50000000  1
  Ce  Ce2  1  0.22306600  0.81109500  0.00000000  1
  Ce  Ce3  1  0.22306600  0.68890500  0.50000000  1
  P  P4  1  0.18695800  0.25282100  0.50000000  1
  P  P5  1  0.81304200  0.74717900  0.50000000  1
  P  P6  1  0.73569000  0.95023800  0.66320500  1
  P  P7  1  0.50000000  0.50000000  0.67613300  1
  P  P8  1  0.18695800  0.24717900  0.00000000  1
  P  P9  1  0.26431000  0.04976200  0.66320500  1
  P  P10  1  0.00000000  0.00000000  0.79389800  1
  P  P11  1  0.73569000  0.54976200  0.16320500  1
  P  P12  1  0.50000000  0.50000000  0.32386700  1
  P  P13  1  0.26431000  0.45023800  0.16320500  1
  P  P14  1  0.81304200  0.75282100  0.00000000  1
  P  P15  1  0.00000000  0.50000000  0.29389800  1
  P  P16  1  0.26431000  0.45023800  0.83679500  1
  P  P17  1  0.00000000  0.50000000  0.70610200  1
  P  P18  1  0.50000000  0.00000000  0.17613300  1
  P  P19  1  0.73569000  0.95023800  0.33679500  1
  P  P20  1  0.50000000  0.00000000  0.82386700  1
  P  P21  1  0.73569000  0.54976200  0.83679500  1
  P  P22  1  0.26431000  0.04976200  0.33679500  1
  P  P23  1  0.00000000  0.00000000  0.20610200  1
  O  O24  1  0.91407500  0.11451200  0.84754600  1
  O  O25  1  0.27474900  0.90786300  0.61260800  1
  O  O26  1  0.03468900  0.18673800  0.50000000  1
  O  O27  1  0.28650000  0.18727800  0.59347200  1
  O  O28  1  0.72525100  0.09213700  0.38739200  1
  O  O29  1  0.61248800  0.91793900  0.25497600  1
  O  O30  1  0.71350000  0.68727800  0.09347200  1
  O  O31  1  0.10955300  0.41504000  0.78436600  1
  O  O32  1  0.89044700  0.58496000  0.78436600  1
  O  O33  1  0.89044700  0.91504000  0.71563400  1
  O  O34  1  0.96531100  0.68673800  0.00000000  1
  O  O35  1  0.38751200  0.41793900  0.24502400  1
  O  O36  1  0.38751200  0.41793900  0.75497600  1
  O  O37  1  0.27474900  0.90786300  0.38739200  1
  O  O38  1  0.08592500  0.61451200  0.34754600  1
  O  O39  1  0.58050100  0.38259100  0.62166800  1
  O  O40  1  0.91407500  0.38548800  0.34754600  1
  O  O41  1  0.41949900  0.88259100  0.87833200  1
  O  O42  1  0.21095300  0.08772000  0.00000000  1
  O  O43  1  0.78904700  0.58772000  0.50000000  1
  O  O44  1  0.41949900  0.61740900  0.62166800  1
  O  O45  1  0.72525100  0.40786300  0.88739200  1
  O  O46  1  0.61248800  0.91793900  0.74502400  1
  O  O47  1  0.10955300  0.41504000  0.21563400  1
  O  O48  1  0.38751200  0.08206100  0.74502400  1
  O  O49  1  0.72525100  0.40786300  0.11260800  1
  O  O50  1  0.78904700  0.91228000  0.00000000  1
  O  O51  1  0.71350000  0.68727800  0.90652800  1
  O  O52  1  0.71350000  0.81272200  0.40652800  1
  O  O53  1  0.41949900  0.61740900  0.37833200  1
  O  O54  1  0.91407500  0.38548800  0.65245400  1
  O  O55  1  0.41949900  0.88259100  0.12166800  1
  O  O56  1  0.58050100  0.38259100  0.37833200  1
  O  O57  1  0.28650000  0.31272200  0.09347200  1
  O  O58  1  0.61248800  0.58206100  0.75497600  1
  O  O59  1  0.27474900  0.59213700  0.11260800  1
  O  O60  1  0.96531100  0.81326200  0.50000000  1
  O  O61  1  0.28650000  0.18727800  0.40652800  1
  O  O62  1  0.03468900  0.31326200  0.00000000  1
  O  O63  1  0.28650000  0.31272200  0.90652800  1
  O  O64  1  0.27474900  0.59213700  0.88739200  1
  O  O65  1  0.71350000  0.81272200  0.59347200  1
  O  O66  1  0.89044700  0.91504000  0.28436600  1
  O  O67  1  0.21095300  0.41228000  0.50000000  1
  O  O68  1  0.08592500  0.88548800  0.84754600  1
  O  O69  1  0.72525100  0.09213700  0.61260800  1
  O  O70  1  0.89044700  0.58496000  0.21563400  1
  O  O71  1  0.10955300  0.08496000  0.28436600  1
  O  O72  1  0.58050100  0.11740900  0.12166800  1
  O  O73  1  0.61248800  0.58206100  0.24502400  1
  O  O74  1  0.38751200  0.08206100  0.25497600  1
  O  O75  1  0.08592500  0.88548800  0.15245400  1
  O  O76  1  0.91407500  0.11451200  0.15245400  1
  O  O77  1  0.10955300  0.08496000  0.71563400  1
  O  O78  1  0.08592500  0.61451200  0.65245400  1
  O  O79  1  0.58050100  0.11740900  0.87833200  1
