# generated using pymatgen
data_Ba2Tm(CuO2)4
_symmetry_space_group_name_H-M   'P 1'
_cell_length_a   13.86982093
_cell_length_b   13.86982093
_cell_length_c   3.86529700
_cell_angle_alpha   90.00000000
_cell_angle_beta   90.00000000
_cell_angle_gamma   163.89008843
_symmetry_Int_Tables_number   1
_chemical_formula_structural   Ba2Tm(CuO2)4
_chemical_formula_sum   'Ba2 Tm1 Cu4 O8'
_cell_volume   206.32772996
_cell_formula_units_Z   1
loop_
 _symmetry_equiv_pos_site_id
 _symmetry_equiv_pos_as_xyz
  1  'x, y, z'
loop_
 _atom_site_type_symbol
 _atom_site_label
 _atom_site_symmetry_multiplicity
 _atom_site_fract_x
 _atom_site_fract_y
 _atom_site_fract_z
 _atom_site_occupancy
  Ba  Ba0  1  0.63522800  0.36477200  0.50000000  1
  Ba  Ba1  1  0.36477200  0.63522800  0.50000000  1
  Tm  Tm2  1  0.50000000  0.50000000  0.50000000  1
  Cu  Cu3  1  0.06011500  0.93988500  0.00000000  1
  Cu  Cu4  1  0.93988500  0.06011500  0.00000000  1
  Cu  Cu5  1  0.21254700  0.78745300  0.00000000  1
  Cu  Cu6  1  0.78745300  0.21254700  0.00000000  1
  O  O7  1  0.71846200  0.28153800  0.00000000  1
  O  O8  1  0.28153800  0.71846200  0.00000000  1
  O  O9  1  0.55065800  0.44934200  0.00000000  1
  O  O10  1  0.44934200  0.55065800  0.00000000  1
  O  O11  1  0.05069200  0.94930800  0.50000000  1
  O  O12  1  0.94930800  0.05069200  0.50000000  1
  O  O13  1  0.14512200  0.85487800  0.00000000  1
  O  O14  1  0.85487800  0.14512200  0.00000000  1
