# generated using pymatgen
data_Sr8(TiS3)7
_symmetry_space_group_name_H-M   'P 1'
_cell_length_a   11.65987975
_cell_length_b   11.65987975
_cell_length_c   20.90191600
_cell_angle_alpha   90.00000000
_cell_angle_beta   90.00000000
_cell_angle_gamma   119.99999860
_symmetry_Int_Tables_number   1
_chemical_formula_structural   Sr8(TiS3)7
_chemical_formula_sum   'Sr24 Ti21 S63'
_cell_volume   2460.96183784
_cell_formula_units_Z   3
loop_
 _symmetry_equiv_pos_site_id
 _symmetry_equiv_pos_as_xyz
  1  'x, y, z'
loop_
 _atom_site_type_symbol
 _atom_site_label
 _atom_site_symmetry_multiplicity
 _atom_site_fract_x
 _atom_site_fract_y
 _atom_site_fract_z
 _atom_site_occupancy
  Sr  Sr0  1  0.02185600  0.68580400  0.18846600  1
  Sr  Sr1  1  0.30609900  0.96801500  0.31903600  1
  Sr  Sr2  1  0.99205500  0.35954100  0.56351000  1
  Sr  Sr3  1  0.30353200  0.97179000  0.05890900  1
  Sr  Sr4  1  0.36748600  0.00794500  0.56351000  1
  Sr  Sr5  1  0.02821000  0.33174300  0.05890900  1
  Sr  Sr6  1  0.03198500  0.33808400  0.31903600  1
  Sr  Sr7  1  0.31419600  0.33605200  0.18846600  1
  Sr  Sr8  1  0.66394800  0.97814400  0.18846600  1
  Sr  Sr9  1  0.33523000  0.30190300  0.67957100  1
  Sr  Sr10  1  0.36006600  0.36401900  0.43647000  1
  Sr  Sr11  1  0.33173300  0.30344700  0.94118000  1
  Sr  Sr12  1  0.66825700  0.69646800  0.05890900  1
  Sr  Sr13  1  0.64045900  0.63251400  0.56351000  1
  Sr  Sr14  1  0.66191600  0.69390100  0.31903600  1
  Sr  Sr15  1  0.33606000  0.02144100  0.81151200  1
  Sr  Sr16  1  0.68538100  0.66394000  0.81151200  1
  Sr  Sr17  1  0.96667300  0.66477000  0.67957100  1
  Sr  Sr18  1  0.97171300  0.66826700  0.94118000  1
  Sr  Sr19  1  0.63598100  0.99604700  0.43647000  1
  Sr  Sr20  1  0.69655300  0.02828700  0.94118000  1
  Sr  Sr21  1  0.00395300  0.63993400  0.43647000  1
  Sr  Sr22  1  0.69809700  0.03332700  0.67957100  1
  Sr  Sr23  1  0.97855900  0.31461900  0.81151200  1
  Ti  Ti24  1  0.33333300  0.66666700  0.66603600  1
  Ti  Ti25  1  0.33333300  0.66666700  0.09725000  1
  Ti  Ti26  1  0.33333300  0.66666700  0.23977300  1
  Ti  Ti27  1  0.33333300  0.66666700  0.95148400  1
  Ti  Ti28  1  0.00000000  0.00000000  0.99834700  1
  Ti  Ti29  1  0.00000000  0.00000000  0.14035300  1
  Ti  Ti30  1  0.33333300  0.66666700  0.80745800  1
  Ti  Ti31  1  0.00000000  0.00000000  0.28143700  1
  Ti  Ti32  1  0.00000000  0.00000000  0.57494100  1
  Ti  Ti33  1  0.00000000  0.00000000  0.72114700  1
  Ti  Ti34  1  0.00000000  0.00000000  0.85887600  1
  Ti  Ti35  1  0.33333300  0.66666700  0.38376200  1
  Ti  Ti36  1  0.33333300  0.66666700  0.52459400  1
  Ti  Ti37  1  0.66666700  0.33333300  0.47545100  1
  Ti  Ti38  1  0.66666700  0.33333300  0.61713800  1
  Ti  Ti39  1  0.00000000  0.00000000  0.42802900  1
  Ti  Ti40  1  0.66666700  0.33333300  0.19168300  1
  Ti  Ti41  1  0.66666700  0.33333300  0.33312600  1
  Ti  Ti42  1  0.66666700  0.33333300  0.76105000  1
  Ti  Ti43  1  0.66666700  0.33333300  0.90261300  1
  Ti  Ti44  1  0.66666700  0.33333300  0.04800600  1
  S  S45  1  0.15638000  0.98468800  0.65008900  1
  S  S46  1  0.16432600  0.99422900  0.20557700  1
  S  S47  1  0.15643600  0.97281700  0.93153000  1
  S  S48  1  0.15225000  0.64387800  0.31218200  1
  S  S49  1  0.16224700  0.65990900  0.58910900  1
  S  S50  1  0.17014700  0.67200000  0.03254800  1
  S  S51  1  0.14443000  0.56519800  0.88416300  1
  S  S52  1  0.24919600  0.77237000  0.73624900  1
  S  S53  1  0.30751700  0.82302000  0.44970400  1
  S  S54  1  0.16720900  0.49814800  0.17482600  1
  S  S55  1  0.33093900  0.83279100  0.17482600  1
  S  S56  1  0.00577100  0.17009700  0.20557700  1
  S  S57  1  0.01531200  0.17169200  0.65008900  1
  S  S58  1  0.17698000  0.48449800  0.44970400  1
  S  S59  1  0.02718300  0.18361900  0.93153000  1
  S  S60  1  0.22763000  0.47682700  0.73624900  1
  S  S61  1  0.42076800  0.85557000  0.88416300  1
  S  S62  1  0.49162700  0.84775000  0.31218200  1
  S  S63  1  0.50185400  0.82985300  0.03254800  1
  S  S64  1  0.34009100  0.50233800  0.58910900  1
  S  S65  1  0.49766200  0.83775300  0.58910900  1
  S  S66  1  0.17098800  0.16464900  0.79404900  1
  S  S67  1  0.32800000  0.49814600  0.03254800  1
  S  S68  1  0.16214000  0.16684500  0.34864300  1
  S  S69  1  0.35612200  0.50837300  0.31218200  1
  S  S70  1  0.18338900  0.15618600  0.06823700  1
  S  S71  1  0.18604400  0.09233000  0.49902700  1
  S  S72  1  0.43480200  0.57923200  0.88416300  1
  S  S73  1  0.52317300  0.75080400  0.73624900  1
  S  S74  1  0.50185200  0.66906100  0.17482600  1
  S  S75  1  0.51550200  0.69248300  0.44970400  1
  S  S76  1  0.49266300  0.32076500  0.55119300  1
  S  S77  1  0.49786800  0.33052800  0.82540000  1
  S  S78  1  0.47674900  0.24989200  0.26381200  1
  S  S79  1  0.56529500  0.42091900  0.11599600  1
  S  S80  1  0.81638100  0.84356400  0.93153000  1
  S  S81  1  0.64572400  0.49341300  0.68854000  1
  S  S82  1  0.82830800  0.84362000  0.65008900  1
  S  S83  1  0.67190300  0.50183300  0.96761300  1
  S  S84  1  0.82990300  0.83567400  0.20557700  1
  S  S85  1  0.50438500  0.16093100  0.41080800  1
  S  S86  1  0.65654700  0.49561500  0.41080800  1
  S  S87  1  0.49816700  0.17007000  0.96761300  1
  S  S88  1  0.50658700  0.15231100  0.68854000  1
  S  S89  1  0.90628600  0.81395600  0.49902700  1
  S  S90  1  0.57908100  0.14437600  0.11599600  1
  S  S91  1  0.77314300  0.52325100  0.26381200  1
  S  S92  1  0.97279700  0.81661100  0.06823700  1
  S  S93  1  0.82810100  0.50733700  0.55119300  1
  S  S94  1  0.00470500  0.83786000  0.34864300  1
  S  S95  1  0.99366100  0.82901200  0.79404900  1
  S  S96  1  0.66947200  0.16734000  0.82540000  1
  S  S97  1  0.83266000  0.50213200  0.82540000  1
  S  S98  1  0.67923500  0.17189900  0.55119300  1
  S  S99  1  0.75010800  0.22685700  0.26381200  1
  S  S100  1  0.85562400  0.43470500  0.11599600  1
  S  S101  1  0.82993000  0.32809700  0.96761300  1
  S  S102  1  0.83906900  0.34345300  0.41080800  1
  S  S103  1  0.84768900  0.35427600  0.68854000  1
  S  S104  1  0.84381400  0.02720300  0.06823700  1
  S  S105  1  0.83535100  0.00633900  0.79404900  1
  S  S106  1  0.83315500  0.99529500  0.34864300  1
  S  S107  1  0.90767000  0.09371400  0.49902700  1
