# generated using pymatgen
data_Sr3U11O36
_symmetry_space_group_name_H-M   'P 1'
_cell_length_a   6.79020200
_cell_length_b   8.47887200
_cell_length_c   28.80258300
_cell_angle_alpha   90.00000000
_cell_angle_beta   90.00000000
_cell_angle_gamma   90.00000000
_symmetry_Int_Tables_number   1
_chemical_formula_structural   Sr3U11O36
_chemical_formula_sum   'Sr6 U22 O72'
_cell_volume   1658.25841574
_cell_formula_units_Z   2
loop_
 _symmetry_equiv_pos_site_id
 _symmetry_equiv_pos_as_xyz
  1  'x, y, z'
loop_
 _atom_site_type_symbol
 _atom_site_label
 _atom_site_symmetry_multiplicity
 _atom_site_fract_x
 _atom_site_fract_y
 _atom_site_fract_z
 _atom_site_occupancy
  Sr  Sr0  1  0.76384500  0.00000000  0.50000000  1
  Sr  Sr1  1  0.23615500  0.50000000  0.00000000  1
  Sr  Sr2  1  0.31748900  0.50000000  0.14515700  1
  Sr  Sr3  1  0.31748900  0.50000000  0.85484300  1
  Sr  Sr4  1  0.68251100  0.00000000  0.64515700  1
  Sr  Sr5  1  0.68251100  0.00000000  0.35484300  1
  U  U6  1  0.24896300  0.00000000  0.13432500  1
  U  U7  1  0.77796500  0.50000000  0.07256200  1
  U  U8  1  0.22385300  0.50000000  0.71318600  1
  U  U9  1  0.75103700  0.50000000  0.36567500  1
  U  U10  1  0.22203500  0.00000000  0.57256200  1
  U  U11  1  0.77318800  0.50000000  0.78124400  1
  U  U12  1  0.22203500  0.00000000  0.42743800  1
  U  U13  1  0.77614700  0.00000000  0.78681400  1
  U  U14  1  0.75103700  0.50000000  0.63432500  1
  U  U15  1  0.22385300  0.50000000  0.28681400  1
  U  U16  1  0.24896300  0.00000000  0.86567500  1
  U  U17  1  0.32157600  0.00000000  0.00000000  1
  U  U18  1  0.22681200  0.00000000  0.28124400  1
  U  U19  1  0.21976200  0.50000000  0.57154000  1
  U  U20  1  0.77796500  0.50000000  0.92743800  1
  U  U21  1  0.77614700  0.00000000  0.21318600  1
  U  U22  1  0.67842400  0.50000000  0.50000000  1
  U  U23  1  0.78023800  0.00000000  0.92846000  1
  U  U24  1  0.78023800  0.00000000  0.07154000  1
  U  U25  1  0.77318800  0.50000000  0.21875600  1
  U  U26  1  0.21976200  0.50000000  0.42846000  1
  U  U27  1  0.22681200  0.00000000  0.71875600  1
  O  O28  1  0.77855700  0.76434700  0.07177500  1
  O  O29  1  0.25024800  0.78194800  0.86471100  1
  O  O30  1  0.52734400  0.00000000  0.17444400  1
  O  O31  1  0.71099800  0.50000000  0.85081400  1
  O  O32  1  0.22088500  0.72765700  0.28279400  1
  O  O33  1  0.46692700  0.00000000  0.07430200  1
  O  O34  1  0.25024800  0.21805200  0.86471100  1
  O  O35  1  0.77911500  0.77234300  0.78279400  1
  O  O36  1  0.22144300  0.73565300  0.57177500  1
  O  O37  1  0.77855700  0.23565300  0.92822500  1
  O  O38  1  0.48365100  0.50000000  0.77238000  1
  O  O39  1  0.68814800  0.00000000  0.00000000  1
  O  O40  1  0.49978200  0.50000000  0.93483800  1
  O  O41  1  0.74975200  0.28194800  0.36471100  1
  O  O42  1  0.09378000  0.50000000  0.35913700  1
  O  O43  1  0.09378000  0.50000000  0.64086300  1
  O  O44  1  0.77911500  0.22765700  0.78279400  1
  O  O45  1  0.74975200  0.28194800  0.63528900  1
  O  O46  1  0.08367900  0.00000000  0.94324700  1
  O  O47  1  0.90622000  0.00000000  0.14086300  1
  O  O48  1  0.46692700  0.00000000  0.92569800  1
  O  O49  1  0.31185200  0.50000000  0.50000000  1
  O  O50  1  0.77855700  0.23565300  0.07177500  1
  O  O51  1  0.77855700  0.76434700  0.92822500  1
  O  O52  1  0.22144300  0.73565300  0.42822500  1
  O  O53  1  0.08367900  0.00000000  0.05675300  1
  O  O54  1  0.13920800  0.00000000  0.21371600  1
  O  O55  1  0.77911500  0.77234300  0.21720600  1
  O  O56  1  0.93787700  0.00000000  0.71106800  1
  O  O57  1  0.06212300  0.50000000  0.21106800  1
  O  O58  1  0.53307300  0.50000000  0.57430200  1
  O  O59  1  0.31820600  0.21778500  0.00000000  1
  O  O60  1  0.22088500  0.72765700  0.71720600  1
  O  O61  1  0.48365100  0.50000000  0.22762000  1
  O  O62  1  0.74975200  0.71805200  0.36471100  1
  O  O63  1  0.77911500  0.22765700  0.21720600  1
  O  O64  1  0.22144300  0.26434700  0.57177500  1
  O  O65  1  0.13920800  0.00000000  0.78628400  1
  O  O66  1  0.25024800  0.78194800  0.13528900  1
  O  O67  1  0.28900200  0.00000000  0.64918600  1
  O  O68  1  0.51634900  0.00000000  0.72762000  1
  O  O69  1  0.94600400  0.00000000  0.41842600  1
  O  O70  1  0.25024800  0.21805200  0.13528900  1
  O  O71  1  0.50021800  0.00000000  0.43483800  1
  O  O72  1  0.91632100  0.50000000  0.44324700  1
  O  O73  1  0.86079200  0.50000000  0.71371600  1
  O  O74  1  0.15635100  0.00000000  0.50000000  1
  O  O75  1  0.68179400  0.28221500  0.50000000  1
  O  O76  1  0.06212300  0.50000000  0.78893200  1
  O  O77  1  0.93787700  0.00000000  0.28893200  1
  O  O78  1  0.47265600  0.50000000  0.32555600  1
  O  O79  1  0.84364900  0.50000000  0.00000000  1
  O  O80  1  0.53307300  0.50000000  0.42569800  1
  O  O81  1  0.31820600  0.78221500  0.00000000  1
  O  O82  1  0.05399600  0.50000000  0.91842600  1
  O  O83  1  0.47265600  0.50000000  0.67444400  1
  O  O84  1  0.91632100  0.50000000  0.55675300  1
  O  O85  1  0.50021800  0.00000000  0.56516200  1
  O  O86  1  0.52734400  0.00000000  0.82555600  1
  O  O87  1  0.22088500  0.27234300  0.28279400  1
  O  O88  1  0.05399600  0.50000000  0.08157400  1
  O  O89  1  0.94600400  0.00000000  0.58157400  1
  O  O90  1  0.49978200  0.50000000  0.06516200  1
  O  O91  1  0.22088500  0.27234300  0.71720600  1
  O  O92  1  0.86079200  0.50000000  0.28628400  1
  O  O93  1  0.68179400  0.71778500  0.50000000  1
  O  O94  1  0.51634900  0.00000000  0.27238000  1
  O  O95  1  0.28900200  0.00000000  0.35081400  1
  O  O96  1  0.90622000  0.00000000  0.85913700  1
  O  O97  1  0.71099800  0.50000000  0.14918600  1
  O  O98  1  0.22144300  0.26434700  0.42822500  1
  O  O99  1  0.74975200  0.71805200  0.63528900  1
