# generated using pymatgen
data_Ca(H2N)2
_symmetry_space_group_name_H-M   'P 1'
_cell_length_a   7.32860500
_cell_length_b   6.30853200
_cell_length_c   6.36035472
_cell_angle_alpha   70.60616590
_cell_angle_beta   90.00000000
_cell_angle_gamma   90.00000000
_symmetry_Int_Tables_number   1
_chemical_formula_structural   Ca(H2N)2
_chemical_formula_sum   'Ca4 H16 N8'
_cell_volume   277.37137680
_cell_formula_units_Z   4
loop_
 _symmetry_equiv_pos_site_id
 _symmetry_equiv_pos_as_xyz
  1  'x, y, z'
loop_
 _atom_site_type_symbol
 _atom_site_label
 _atom_site_symmetry_multiplicity
 _atom_site_fract_x
 _atom_site_fract_y
 _atom_site_fract_z
 _atom_site_occupancy
  Ca  Ca0  1  0.37913300  0.99568800  0.75095200  1
  Ca  Ca1  1  0.87913300  0.50431200  0.24904800  1
  Ca  Ca2  1  0.62086700  0.00431200  0.24904800  1
  Ca  Ca3  1  0.12086700  0.49568800  0.75095200  1
  H  H4  1  0.02827700  0.87653900  0.93391300  1
  H  H5  1  0.52827700  0.62346100  0.06608700  1
  H  H6  1  0.97172300  0.12346100  0.06608700  1
  H  H7  1  0.47172300  0.37653900  0.93391300  1
  H  H8  1  0.18131900  0.75187900  0.11781900  1
  H  H9  1  0.68131900  0.74812100  0.88218100  1
  H  H10  1  0.81868100  0.24812100  0.88218100  1
  H  H11  1  0.31868100  0.25187900  0.11781900  1
  H  H12  1  0.22964500  0.33446500  0.37238600  1
  H  H13  1  0.72964500  0.16553500  0.62761400  1
  H  H14  1  0.77035500  0.66553500  0.62761400  1
  H  H15  1  0.27035500  0.83446500  0.37238600  1
  H  H16  1  0.08818800  0.12840600  0.46728600  1
  H  H17  1  0.58818800  0.37159400  0.53271400  1
  H  H18  1  0.91181200  0.87159400  0.53271400  1
  H  H19  1  0.41181200  0.62840600  0.46728600  1
  N  N20  1  0.11905600  0.74465400  0.97553000  1
  N  N21  1  0.61905600  0.75534600  0.02447000  1
  N  N22  1  0.88094400  0.25534600  0.02447000  1
  N  N23  1  0.38094400  0.24465400  0.97553000  1
  N  N24  1  0.13703200  0.26823200  0.49859200  1
  N  N25  1  0.63703200  0.23176800  0.50140800  1
  N  N26  1  0.86296800  0.73176800  0.50140800  1
  N  N27  1  0.36296800  0.76823200  0.49859200  1
