# generated using pymatgen
data_Gd3Co29(Si2B5)2
_symmetry_space_group_name_H-M   'P 1'
_cell_length_a   7.81672572
_cell_length_b   11.15207421
_cell_length_c   11.15207421
_cell_angle_alpha   90.00000000
_cell_angle_beta   90.00000000
_cell_angle_gamma   90.00000000
_symmetry_Int_Tables_number   1
_chemical_formula_structural   Gd3Co29(Si2B5)2
_chemical_formula_sum   'Gd6 Co58 Si8 B20'
_cell_volume   972.15647869
_cell_formula_units_Z   2
loop_
 _symmetry_equiv_pos_site_id
 _symmetry_equiv_pos_as_xyz
  1  'x, y, z'
loop_
 _atom_site_type_symbol
 _atom_site_label
 _atom_site_symmetry_multiplicity
 _atom_site_fract_x
 _atom_site_fract_y
 _atom_site_fract_z
 _atom_site_occupancy
  Gd  Gd0  1  0.00000000  0.50000000  0.00000000  1
  Gd  Gd1  1  0.50000000  0.75000000  0.25000000  1
  Gd  Gd2  1  0.50000000  0.25000000  0.75000000  1
  Gd  Gd3  1  0.00000000  0.50000000  0.50000000  1
  Gd  Gd4  1  0.00000000  0.00000000  0.50000000  1
  Gd  Gd5  1  0.00000000  0.00000000  0.00000000  1
  Co  Co6  1  0.69750706  0.14003539  0.14003539  1
  Co  Co7  1  0.88825813  0.86002206  0.25000000  1
  Co  Co8  1  0.66390010  0.57547902  0.08865232  1
  Co  Co9  1  0.24973533  0.36426429  0.13573571  1
  Co  Co10  1  0.69750706  0.35996461  0.14003539  1
  Co  Co11  1  0.11174187  0.75000000  0.13997794  1
  Co  Co12  1  0.88825813  0.25000000  0.86002206  1
  Co  Co13  1  0.03021221  0.75000000  0.91489203  1
  Co  Co14  1  0.24973533  0.36426429  0.36426429  1
  Co  Co15  1  0.33609990  0.07547902  0.58865232  1
  Co  Co16  1  0.52715659  0.75000000  0.52255817  1
  Co  Co17  1  0.30249294  0.64003539  0.85996461  1
  Co  Co18  1  0.33609990  0.91134768  0.42452098  1
  Co  Co19  1  0.30249294  0.64003539  0.64003539  1
  Co  Co20  1  0.52715659  0.75000000  0.97744183  1
  Co  Co21  1  0.33609990  0.07547902  0.91134768  1
  Co  Co22  1  0.47284341  0.25000000  0.02255817  1
  Co  Co23  1  0.53225131  0.75000000  0.75000000  1
  Co  Co24  1  0.03021221  0.75000000  0.58510797  1
  Co  Co25  1  0.88825813  0.25000000  0.63997794  1
  Co  Co26  1  0.47284341  0.25000000  0.47744183  1
  Co  Co27  1  0.33609990  0.58865232  0.07547902  1
  Co  Co28  1  0.11174187  0.13997794  0.75000000  1
  Co  Co29  1  0.66390010  0.08865232  0.92452098  1
  Co  Co30  1  0.66390010  0.08865232  0.57547902  1
  Co  Co31  1  0.24973533  0.13573571  0.13573571  1
  Co  Co32  1  0.66390010  0.92452098  0.41134768  1
  Co  Co33  1  0.69750706  0.14003539  0.35996461  1
  Co  Co34  1  0.33609990  0.42452098  0.58865232  1
  Co  Co35  1  0.24973533  0.13573571  0.36426429  1
  Co  Co36  1  0.66390010  0.92452098  0.08865232  1
  Co  Co37  1  0.30249294  0.85996461  0.64003539  1
  Co  Co38  1  0.88825813  0.63997794  0.25000000  1
  Co  Co39  1  0.96978779  0.25000000  0.08510797  1
  Co  Co40  1  0.47284341  0.02255817  0.25000000  1
  Co  Co41  1  0.52715659  0.97744183  0.75000000  1
  Co  Co42  1  0.66390010  0.41134768  0.92452098  1
  Co  Co43  1  0.96978779  0.41489203  0.25000000  1
  Co  Co44  1  0.75026467  0.63573571  0.86426429  1
  Co  Co45  1  0.75026467  0.86426429  0.86426429  1
  Co  Co46  1  0.75026467  0.86426429  0.63573571  1
  Co  Co47  1  0.11174187  0.75000000  0.36002206  1
  Co  Co48  1  0.75026467  0.63573571  0.63573571  1
  Co  Co49  1  0.11174187  0.36002206  0.75000000  1
  Co  Co50  1  0.66390010  0.57547902  0.41134768  1
  Co  Co51  1  0.03021221  0.91489203  0.75000000  1
  Co  Co52  1  0.03021221  0.58510797  0.75000000  1
  Co  Co53  1  0.66390010  0.41134768  0.57547902  1
  Co  Co54  1  0.96978779  0.25000000  0.41489203  1
  Co  Co55  1  0.69750706  0.35996461  0.35996461  1
  Co  Co56  1  0.47284341  0.47744183  0.25000000  1
  Co  Co57  1  0.30249294  0.85996461  0.85996461  1
  Co  Co58  1  0.46774869  0.25000000  0.25000000  1
  Co  Co59  1  0.33609990  0.58865232  0.42452098  1
  Co  Co60  1  0.33609990  0.91134768  0.07547902  1
  Co  Co61  1  0.33609990  0.42452098  0.91134768  1
  Co  Co62  1  0.96978779  0.08510797  0.25000000  1
  Co  Co63  1  0.52715659  0.52255817  0.75000000  1
  Si  Si64  1  0.82508836  0.75000000  0.43139901  1
  Si  Si65  1  0.82508836  0.75000000  0.06860099  1
  Si  Si66  1  0.82508836  0.43139901  0.75000000  1
  Si  Si67  1  0.17491164  0.25000000  0.56860099  1
  Si  Si68  1  0.17491164  0.93139901  0.25000000  1
  Si  Si69  1  0.82508836  0.06860099  0.75000000  1
  Si  Si70  1  0.17491164  0.56860099  0.25000000  1
  Si  Si71  1  0.17491164  0.25000000  0.93139901  1
  B  B72  1  0.48121693  0.43631805  0.06368195  1
  B  B73  1  0.10106687  0.25000000  0.25000000  1
  B  B74  1  0.73647083  0.50577898  0.25000000  1
  B  B75  1  0.48121693  0.06368195  0.43631805  1
  B  B76  1  0.84871390  0.25000000  0.25000000  1
  B  B77  1  0.51878307  0.56368195  0.93631805  1
  B  B78  1  0.51878307  0.56368195  0.56368195  1
  B  B79  1  0.51878307  0.93631805  0.93631805  1
  B  B80  1  0.26352917  0.75000000  0.49422102  1
  B  B81  1  0.89893313  0.75000000  0.75000000  1
  B  B82  1  0.73647083  0.25000000  0.99422102  1
  B  B83  1  0.15128610  0.75000000  0.75000000  1
  B  B84  1  0.48121693  0.43631805  0.43631805  1
  B  B85  1  0.73647083  0.25000000  0.50577898  1
  B  B86  1  0.26352917  0.00577898  0.75000000  1
  B  B87  1  0.48121693  0.06368195  0.06368195  1
  B  B88  1  0.26352917  0.49422102  0.75000000  1
  B  B89  1  0.26352917  0.75000000  0.00577898  1
  B  B90  1  0.73647083  0.99422102  0.25000000  1
  B  B91  1  0.51878307  0.93631805  0.56368195  1
