# generated using pymatgen
data_U2SnRh2
_symmetry_space_group_name_H-M   'P 1'
_cell_length_a   7.64585400
_cell_length_b   7.64585400
_cell_length_c   3.58849100
_cell_angle_alpha   90.00000000
_cell_angle_beta   90.00000000
_cell_angle_gamma   90.00000000
_symmetry_Int_Tables_number   1
_chemical_formula_structural   U2SnRh2
_chemical_formula_sum   'U4 Sn2 Rh4'
_cell_volume   209.77989461
_cell_formula_units_Z   2
loop_
 _symmetry_equiv_pos_site_id
 _symmetry_equiv_pos_as_xyz
  1  'x, y, z'
loop_
 _atom_site_type_symbol
 _atom_site_label
 _atom_site_symmetry_multiplicity
 _atom_site_fract_x
 _atom_site_fract_y
 _atom_site_fract_z
 _atom_site_occupancy
  U  U0  1  0.33131200  0.16868800  0.50000000  1
  U  U1  1  0.66868800  0.83131200  0.50000000  1
  U  U2  1  0.16868800  0.66868800  0.50000000  1
  U  U3  1  0.83131200  0.33131200  0.50000000  1
  Sn  Sn4  1  0.00000000  0.00000000  0.00000000  1
  Sn  Sn5  1  0.50000000  0.50000000  0.00000000  1
  Rh  Rh6  1  0.63559800  0.13559800  0.00000000  1
  Rh  Rh7  1  0.86440200  0.63559800  0.00000000  1
  Rh  Rh8  1  0.36440200  0.86440200  0.00000000  1
  Rh  Rh9  1  0.13559800  0.36440200  0.00000000  1
