# generated using pymatgen
data_RbC2N3
_symmetry_space_group_name_H-M   'P 1'
_cell_length_a   12.46866700
_cell_length_b   4.04292500
_cell_length_c   25.69822959
_cell_angle_alpha   82.52922005
_cell_angle_beta   90.00000000
_cell_angle_gamma   90.00000000
_symmetry_Int_Tables_number   1
_chemical_formula_structural   RbC2N3
_chemical_formula_sum   'Rb12 C24 N36'
_cell_volume   1284.44816817
_cell_formula_units_Z   12
loop_
 _symmetry_equiv_pos_site_id
 _symmetry_equiv_pos_as_xyz
  1  'x, y, z'
loop_
 _atom_site_type_symbol
 _atom_site_label
 _atom_site_symmetry_multiplicity
 _atom_site_fract_x
 _atom_site_fract_y
 _atom_site_fract_z
 _atom_site_occupancy
  Rb  Rb0  1  0.15245500  0.52617900  0.01251700  1
  Rb  Rb1  1  0.09272600  0.56951900  0.39955000  1
  Rb  Rb2  1  0.59272600  0.43048100  0.10045000  1
  Rb  Rb3  1  0.40727400  0.56951900  0.89955000  1
  Rb  Rb4  1  0.51120300  0.56527200  0.25905000  1
  Rb  Rb5  1  0.90727400  0.43048100  0.60045000  1
  Rb  Rb6  1  0.84754500  0.47382100  0.98748300  1
  Rb  Rb7  1  0.34754500  0.52617900  0.51251700  1
  Rb  Rb8  1  0.48879700  0.43472800  0.74095000  1
  Rb  Rb9  1  0.65245500  0.47382100  0.48748300  1
  Rb  Rb10  1  0.98879700  0.56527200  0.75905000  1
  Rb  Rb11  1  0.01120300  0.43472800  0.24095000  1
  C  C12  1  0.32690000  0.00058400  0.12109500  1
  C  C13  1  0.24273200  0.10257800  0.79268500  1
  C  C14  1  0.82690000  0.99941600  0.37890500  1
  C  C15  1  0.99827400  0.04806400  0.90185800  1
  C  C16  1  0.79097200  0.96031800  0.29290600  1
  C  C17  1  0.17310000  0.00058400  0.62109500  1
  C  C18  1  0.00172600  0.95193600  0.09814200  1
  C  C19  1  0.13037600  0.99802000  0.53404600  1
  C  C20  1  0.25726800  0.10257800  0.29268500  1
  C  C21  1  0.36962400  0.99802000  0.03404600  1
  C  C22  1  0.34740400  0.00148400  0.64945400  1
  C  C23  1  0.15259600  0.00148400  0.14945400  1
  C  C24  1  0.75726800  0.89742200  0.20731500  1
  C  C25  1  0.67310000  0.99941600  0.87890500  1
  C  C26  1  0.70902800  0.96031800  0.79290600  1
  C  C27  1  0.20902800  0.03968200  0.70709400  1
  C  C28  1  0.63037600  0.00198000  0.96595400  1
  C  C29  1  0.74273200  0.89742200  0.70731500  1
  C  C30  1  0.65259600  0.99851600  0.35054600  1
  C  C31  1  0.86962400  0.00198000  0.46595400  1
  C  C32  1  0.49827400  0.95193600  0.59814200  1
  C  C33  1  0.50172600  0.04806400  0.40185800  1
  C  C34  1  0.84740400  0.99851600  0.85054600  1
  C  C35  1  0.29097200  0.03968200  0.20709400  1
  N  N36  1  0.68384600  0.97404500  0.30081400  1
  N  N37  1  0.82804400  0.92628700  0.24374700  1
  N  N38  1  0.86665700  0.97828000  0.33042000  1
  N  N39  1  0.22097400  0.99271400  0.10855100  1
  N  N40  1  0.45418000  0.08045100  0.44100200  1
  N  N41  1  0.30149700  0.13571600  0.82798000  1
  N  N42  1  0.84808200  0.99192900  0.51129600  1
  N  N43  1  0.13334300  0.02172000  0.66958000  1
  N  N44  1  0.95585300  0.01433200  0.85690600  1
  N  N45  1  0.18384600  0.02595500  0.19918600  1
  N  N46  1  0.40183600  0.99025200  0.08214400  1
  N  N47  1  0.59816400  0.00974800  0.91785600  1
  N  N48  1  0.34808200  0.00807100  0.98870400  1
  N  N49  1  0.09816400  0.99025200  0.58214400  1
  N  N50  1  0.31615400  0.02595500  0.69918600  1
  N  N51  1  0.65191800  0.99192900  0.01129600  1
  N  N52  1  0.69850300  0.86428400  0.17202000  1
  N  N53  1  0.27902600  0.99271400  0.60855100  1
  N  N54  1  0.95418000  0.91954900  0.05899800  1
  N  N55  1  0.36665700  0.02172000  0.16958000  1
  N  N56  1  0.17195600  0.07371300  0.75625300  1
  N  N57  1  0.81615400  0.97404500  0.80081400  1
  N  N58  1  0.77902600  0.00728600  0.89144900  1
  N  N59  1  0.45585300  0.98566800  0.64309400  1
  N  N60  1  0.63334300  0.97828000  0.83042000  1
  N  N61  1  0.04582000  0.08045100  0.94100200  1
  N  N62  1  0.54414700  0.01433200  0.35690600  1
  N  N63  1  0.32804400  0.07371300  0.25625300  1
  N  N64  1  0.19850300  0.13571600  0.32798000  1
  N  N65  1  0.15191800  0.00807100  0.48870400  1
  N  N66  1  0.80149700  0.86428400  0.67202000  1
  N  N67  1  0.72097400  0.00728600  0.39144900  1
  N  N68  1  0.04414700  0.98566800  0.14309400  1
  N  N69  1  0.54582000  0.91954900  0.55899800  1
  N  N70  1  0.90183600  0.00974800  0.41785600  1
  N  N71  1  0.67195600  0.92628700  0.74374700  1
