# generated using pymatgen
data_NaTi2(PO4)3
_symmetry_space_group_name_H-M   'P 1'
_cell_length_a   8.86750919
_cell_length_b   8.86750919
_cell_length_c   8.86750925
_cell_angle_alpha   58.13793009
_cell_angle_beta   58.13793009
_cell_angle_gamma   58.13793121
_symmetry_Int_Tables_number   1
_chemical_formula_structural   NaTi2(PO4)3
_chemical_formula_sum   'Na2 Ti4 P6 O24'
_cell_volume   472.00461866
_cell_formula_units_Z   2
loop_
 _symmetry_equiv_pos_site_id
 _symmetry_equiv_pos_as_xyz
  1  'x, y, z'
loop_
 _atom_site_type_symbol
 _atom_site_label
 _atom_site_symmetry_multiplicity
 _atom_site_fract_x
 _atom_site_fract_y
 _atom_site_fract_z
 _atom_site_occupancy
  Na  Na0  1  0.50000000  0.50000000  0.50000000  1
  Na  Na1  1  0.00000000  0.00000000  0.00000000  1
  Ti  Ti2  1  0.85540800  0.85540800  0.85540800  1
  Ti  Ti3  1  0.64459200  0.64459200  0.64459200  1
  Ti  Ti4  1  0.35540800  0.35540800  0.35540800  1
  Ti  Ti5  1  0.14459200  0.14459200  0.14459200  1
  P  P6  1  0.96279000  0.25000000  0.53721000  1
  P  P7  1  0.53721000  0.96279000  0.25000000  1
  P  P8  1  0.03721000  0.75000000  0.46279000  1
  P  P9  1  0.46279000  0.03721000  0.75000000  1
  P  P10  1  0.25000000  0.53721000  0.96279000  1
  P  P11  1  0.75000000  0.46279000  0.03721000  1
  O  O12  1  0.92299200  0.27995100  0.06033200  1
  O  O13  1  0.06033200  0.92299200  0.27995100  1
  O  O14  1  0.27995100  0.06033200  0.92299200  1
  O  O15  1  0.57700800  0.43966800  0.22004900  1
  O  O16  1  0.22004900  0.57700800  0.43966800  1
  O  O17  1  0.43966800  0.22004900  0.57700800  1
  O  O18  1  0.07700800  0.72004900  0.93966800  1
  O  O19  1  0.93966800  0.07700800  0.72004900  1
  O  O20  1  0.72004900  0.93966800  0.07700800  1
  O  O21  1  0.42299200  0.56033200  0.77995100  1
  O  O22  1  0.77995100  0.42299200  0.56033200  1
  O  O23  1  0.56033200  0.77995100  0.42299200  1
  O  O24  1  0.49703000  0.86764200  0.71351900  1
  O  O25  1  0.86764200  0.71351900  0.49703000  1
  O  O26  1  0.71351900  0.49703000  0.86764200  1
  O  O27  1  0.63235800  0.00297000  0.78648100  1
  O  O28  1  0.00297000  0.78648100  0.63235800  1
  O  O29  1  0.78648100  0.63235800  0.00297000  1
  O  O30  1  0.50297000  0.13235800  0.28648100  1
  O  O31  1  0.13235800  0.28648100  0.50297000  1
  O  O32  1  0.28648100  0.50297000  0.13235800  1
  O  O33  1  0.36764200  0.99703000  0.21351900  1
  O  O34  1  0.99703000  0.21351900  0.36764200  1
  O  O35  1  0.21351900  0.36764200  0.99703000  1
