# generated using pymatgen
data_La2(ZnGe2)3
_symmetry_space_group_name_H-M   'P 1'
_cell_length_a   12.90710103
_cell_length_b   12.90710103
_cell_length_c   6.02518700
_cell_angle_alpha   90.00000000
_cell_angle_beta   90.00000000
_cell_angle_gamma   152.99008327
_symmetry_Int_Tables_number   1
_chemical_formula_structural   La2(ZnGe2)3
_chemical_formula_sum   'La4 Zn6 Ge12'
_cell_volume   455.85026027
_cell_formula_units_Z   2
loop_
 _symmetry_equiv_pos_site_id
 _symmetry_equiv_pos_as_xyz
  1  'x, y, z'
loop_
 _atom_site_type_symbol
 _atom_site_label
 _atom_site_symmetry_multiplicity
 _atom_site_fract_x
 _atom_site_fract_y
 _atom_site_fract_z
 _atom_site_occupancy
  La  La0  1  0.89441800  0.10558200  0.25000000  1
  La  La1  1  0.39461200  0.60538800  0.75000000  1
  La  La2  1  0.60538800  0.39461200  0.25000000  1
  La  La3  1  0.10558200  0.89441800  0.75000000  1
  Zn  Zn4  1  0.76065500  0.76065500  0.00000000  1
  Zn  Zn5  1  0.33895000  0.66105000  0.25000000  1
  Zn  Zn6  1  0.76065500  0.76065500  0.50000000  1
  Zn  Zn7  1  0.66105000  0.33895000  0.75000000  1
  Zn  Zn8  1  0.23934500  0.23934500  0.00000000  1
  Zn  Zn9  1  0.23934500  0.23934500  0.50000000  1
  Ge  Ge10  1  0.01304600  0.41610500  0.96479800  1
  Ge  Ge11  1  0.98695400  0.58389500  0.46479800  1
  Ge  Ge12  1  0.58389500  0.98695400  0.96479800  1
  Ge  Ge13  1  0.98695400  0.58389500  0.03520200  1
  Ge  Ge14  1  0.93389000  0.06611000  0.75000000  1
  Ge  Ge15  1  0.41610500  0.01304600  0.46479800  1
  Ge  Ge16  1  0.44131400  0.55868600  0.25000000  1
  Ge  Ge17  1  0.58389500  0.98695400  0.53520200  1
  Ge  Ge18  1  0.41610500  0.01304600  0.03520200  1
  Ge  Ge19  1  0.06611000  0.93389000  0.25000000  1
  Ge  Ge20  1  0.55868600  0.44131400  0.75000000  1
  Ge  Ge21  1  0.01304600  0.41610500  0.53520200  1
