# generated using pymatgen
data_KNiPH2O5
_symmetry_space_group_name_H-M   'P 1'
_cell_length_a   5.61027600
_cell_length_b   8.36101402
_cell_length_c   9.54144701
_cell_angle_alpha   89.99388533
_cell_angle_beta   90.00040254
_cell_angle_gamma   90.00443644
_symmetry_Int_Tables_number   1
_chemical_formula_structural   KNiPH2O5
_chemical_formula_sum   'K4 Ni4 P4 H8 O20'
_cell_volume   447.56634090
_cell_formula_units_Z   4
loop_
 _symmetry_equiv_pos_site_id
 _symmetry_equiv_pos_as_xyz
  1  'x, y, z'
loop_
 _atom_site_type_symbol
 _atom_site_label
 _atom_site_symmetry_multiplicity
 _atom_site_fract_x
 _atom_site_fract_y
 _atom_site_fract_z
 _atom_site_occupancy
  K  K0  1  0.49998100  0.45765200  0.31536100  1
  K  K1  1  0.49998200  0.45765300  0.81538700  1
  K  K2  1  0.99998100  0.54279300  0.06536400  1
  K  K3  1  0.99998200  0.54276900  0.56536900  1
  Ni  Ni4  1  0.49965700  0.01728900  0.75227000  1
  Ni  Ni5  1  0.00003900  0.98283700  0.50252600  1
  Ni  Ni6  1  0.50004900  0.01737800  0.25221500  1
  Ni  Ni7  1  0.00029300  0.98276300  0.00260300  1
  P  P8  1  0.50003100  0.79128200  0.03902900  1
  P  P9  1  0.50003100  0.79127400  0.53900800  1
  P  P10  1  0.00003300  0.20852000  0.28905900  1
  P  P11  1  0.99995100  0.20845600  0.78912900  1
  H  H12  1  0.64033800  0.19106200  0.04272700  1
  H  H13  1  0.64034600  0.19106200  0.54276900  1
  H  H14  1  0.35966900  0.19107400  0.04274700  1
  H  H15  1  0.35963800  0.19107900  0.54276500  1
  H  H16  1  0.85961000  0.80917400  0.29289600  1
  H  H17  1  0.85958500  0.80917200  0.79290800  1
  H  H18  1  0.14037600  0.80918300  0.29289100  1
  H  H19  1  0.14037100  0.80913600  0.79288800  1
  O  O20  1  0.49998500  0.82173300  0.37975200  1
  O  O21  1  0.49999300  0.82174400  0.87974300  1
  O  O22  1  0.00002000  0.17825900  0.12978400  1
  O  O23  1  0.00002000  0.17830900  0.62981000  1
  O  O24  1  0.50001000  0.61122100  0.06814400  1
  O  O25  1  0.49998100  0.61119500  0.56812900  1
  O  O26  1  0.00001200  0.38863400  0.31808500  1
  O  O27  1  0.00000600  0.38843800  0.81846000  1
  O  O28  1  0.50000900  0.20778700  0.10386500  1
  O  O29  1  0.49998300  0.20779200  0.60387600  1
  O  O30  1  0.00000200  0.79228900  0.35393400  1
  O  O31  1  0.00003000  0.79227400  0.85393500  1
  O  O32  1  0.72139100  0.87582700  0.11193500  1
  O  O33  1  0.72149000  0.87574500  0.61185800  1
  O  O34  1  0.27850100  0.87574500  0.11187100  1
  O  O35  1  0.27848100  0.87574300  0.61186000  1
  O  O36  1  0.77842100  0.12395700  0.36188300  1
  O  O37  1  0.77830300  0.12382300  0.86183000  1
  O  O38  1  0.22166300  0.12396000  0.36187300  1
  O  O39  1  0.22175300  0.12391700  0.86185600  1
