# generated using pymatgen
data_Sr6Ge5N2
_symmetry_space_group_name_H-M   'P 1'
_cell_length_a   4.05461100
_cell_length_b   9.16913800
_cell_length_c   18.08919300
_cell_angle_alpha   90.00000000
_cell_angle_beta   90.00000000
_cell_angle_gamma   90.00000000
_symmetry_Int_Tables_number   1
_chemical_formula_structural   Sr6Ge5N2
_chemical_formula_sum   'Sr12 Ge10 N4'
_cell_volume   672.50713415
_cell_formula_units_Z   2
loop_
 _symmetry_equiv_pos_site_id
 _symmetry_equiv_pos_as_xyz
  1  'x, y, z'
loop_
 _atom_site_type_symbol
 _atom_site_label
 _atom_site_symmetry_multiplicity
 _atom_site_fract_x
 _atom_site_fract_y
 _atom_site_fract_z
 _atom_site_occupancy
  Sr  Sr0  1  0.00000000  0.46365100  0.36003700  1
  Sr  Sr1  1  0.50000000  0.11461600  0.68390900  1
  Sr  Sr2  1  0.50000000  0.75779000  0.50000000  1
  Sr  Sr3  1  0.50000000  0.53634900  0.86003700  1
  Sr  Sr4  1  0.00000000  0.88538400  0.18390900  1
  Sr  Sr5  1  0.00000000  0.24221000  0.00000000  1
  Sr  Sr6  1  0.50000000  0.83979600  0.00000000  1
  Sr  Sr7  1  0.50000000  0.53634900  0.13996300  1
  Sr  Sr8  1  0.00000000  0.16020400  0.50000000  1
  Sr  Sr9  1  0.00000000  0.88538400  0.81609100  1
  Sr  Sr10  1  0.50000000  0.11461600  0.31609100  1
  Sr  Sr11  1  0.00000000  0.46365100  0.63996300  1
  Ge  Ge12  1  0.50000000  0.41993500  0.50000000  1
  Ge  Ge13  1  0.00000000  0.85623000  0.63008000  1
  Ge  Ge14  1  0.50000000  0.73718900  0.69467400  1
  Ge  Ge15  1  0.00000000  0.26281100  0.80532600  1
  Ge  Ge16  1  0.00000000  0.58006500  0.00000000  1
  Ge  Ge17  1  0.50000000  0.14377000  0.13008000  1
  Ge  Ge18  1  0.00000000  0.85623000  0.36992000  1
  Ge  Ge19  1  0.50000000  0.14377000  0.86992000  1
  Ge  Ge20  1  0.50000000  0.73718900  0.30532600  1
  Ge  Ge21  1  0.00000000  0.26281100  0.19467400  1
  N  N22  1  0.50000000  0.29346800  0.41650400  1
  N  N23  1  0.00000000  0.70653200  0.08349600  1
  N  N24  1  0.00000000  0.70653200  0.91650400  1
  N  N25  1  0.50000000  0.29346800  0.58349600  1
