# generated using pymatgen
data_ScHO2
_symmetry_space_group_name_H-M   'P 1'
_cell_length_a   6.71846981
_cell_length_b   6.71846981
_cell_length_c   4.05048000
_cell_angle_alpha   90.00000000
_cell_angle_beta   90.00000000
_cell_angle_gamma   151.77152911
_symmetry_Int_Tables_number   1
_chemical_formula_structural   ScHO2
_chemical_formula_sum   'Sc2 H2 O4'
_cell_volume   86.47646697
_cell_formula_units_Z   2
loop_
 _symmetry_equiv_pos_site_id
 _symmetry_equiv_pos_as_xyz
  1  'x, y, z'
loop_
 _atom_site_type_symbol
 _atom_site_label
 _atom_site_symmetry_multiplicity
 _atom_site_fract_x
 _atom_site_fract_y
 _atom_site_fract_z
 _atom_site_occupancy
  Sc  Sc0  1  0.32443600  0.67556400  0.75088900  1
  Sc  Sc1  1  0.67556400  0.32443600  0.25088900  1
  H  H2  1  0.98418200  0.01581800  0.56504900  1
  H  H3  1  0.01581800  0.98418200  0.06504900  1
  O  O4  1  0.71558900  0.28441100  0.75046100  1
  O  O5  1  0.28441100  0.71558900  0.25046100  1
  O  O6  1  0.93088800  0.06911200  0.74420100  1
  O  O7  1  0.06911200  0.93088800  0.24420100  1
