# generated using pymatgen
data_Rb5Tc3S7
_symmetry_space_group_name_H-M   'P 1'
_cell_length_a   10.79434393
_cell_length_b   10.79434393
_cell_length_c   11.02618728
_cell_angle_alpha   59.39985553
_cell_angle_beta   59.39985553
_cell_angle_gamma   59.98295002
_symmetry_Int_Tables_number   1
_chemical_formula_structural   Rb5Tc3S7
_chemical_formula_sum   'Rb10 Tc6 S14'
_cell_volume   900.01180902
_cell_formula_units_Z   2
loop_
 _symmetry_equiv_pos_site_id
 _symmetry_equiv_pos_as_xyz
  1  'x, y, z'
loop_
 _atom_site_type_symbol
 _atom_site_label
 _atom_site_symmetry_multiplicity
 _atom_site_fract_x
 _atom_site_fract_y
 _atom_site_fract_z
 _atom_site_occupancy
  Rb  Rb0  1  0.01011000  0.01011000  0.99027300  1
  Rb  Rb1  1  0.41818200  0.98426700  0.00179800  1
  Rb  Rb2  1  0.40648700  0.99375900  0.59434300  1
  Rb  Rb3  1  0.85534500  0.85534500  0.85642500  1
  Rb  Rb4  1  0.83847000  0.83847000  0.42839300  1
  Rb  Rb5  1  0.99375900  0.40648700  0.59434300  1
  Rb  Rb6  1  0.03585600  0.03585600  0.42943100  1
  Rb  Rb7  1  0.98426700  0.41818200  0.00179800  1
  Rb  Rb8  1  0.18185100  0.58133200  0.11829500  1
  Rb  Rb9  1  0.58133200  0.18185100  0.11829500  1
  Tc  Tc10  1  0.37637500  0.62224700  0.61997100  1
  Tc  Tc11  1  0.37621100  0.37621100  0.62386700  1
  Tc  Tc12  1  0.37472800  0.62223900  0.38177400  1
  Tc  Tc13  1  0.62224700  0.37637500  0.61997100  1
  Tc  Tc14  1  0.62326500  0.62326500  0.37449600  1
  Tc  Tc15  1  0.62223900  0.37472800  0.38177400  1
  S  S16  1  0.21478900  0.21478900  0.78784400  1
  S  S17  1  0.20672900  0.78283200  0.77580600  1
  S  S18  1  0.38676400  0.38676400  0.83252600  1
  S  S19  1  0.16132400  0.61032000  0.61413500  1
  S  S20  1  0.61316900  0.61316900  0.60548600  1
  S  S21  1  0.19666800  0.78727200  0.24172300  1
  S  S22  1  0.38652000  0.38652000  0.39246700  1
  S  S23  1  0.39281700  0.83725100  0.38491700  1
  S  S24  1  0.61032000  0.16132400  0.61413500  1
  S  S25  1  0.78283200  0.20672900  0.77580600  1
  S  S26  1  0.83725100  0.39281700  0.38491700  1
  S  S27  1  0.61050700  0.61050700  0.16793800  1
  S  S28  1  0.78711500  0.78711500  0.20013300  1
  S  S29  1  0.78727200  0.19666800  0.24172300  1
