# generated using pymatgen
data_Ba3SrRu2O9
_symmetry_space_group_name_H-M   'P 1'
_cell_length_a   6.03893281
_cell_length_b   6.03893281
_cell_length_c   15.34995974
_cell_angle_alpha   88.94089186
_cell_angle_beta   88.94089186
_cell_angle_gamma   119.50351901
_symmetry_Int_Tables_number   1
_chemical_formula_structural   Ba3SrRu2O9
_chemical_formula_sum   'Ba6 Sr2 Ru4 O18'
_cell_volume   486.87420439
_cell_formula_units_Z   2
loop_
 _symmetry_equiv_pos_site_id
 _symmetry_equiv_pos_as_xyz
  1  'x, y, z'
loop_
 _atom_site_type_symbol
 _atom_site_label
 _atom_site_symmetry_multiplicity
 _atom_site_fract_x
 _atom_site_fract_y
 _atom_site_fract_z
 _atom_site_occupancy
  Ba  Ba0  1  0.34701500  0.67447700  0.89450800  1
  Ba  Ba1  1  0.32552300  0.65298500  0.60549200  1
  Ba  Ba2  1  0.65298500  0.32552300  0.10549200  1
  Ba  Ba3  1  0.67447700  0.34701500  0.39450800  1
  Ba  Ba4  1  0.99307100  0.00692900  0.75000000  1
  Ba  Ba5  1  0.00692900  0.99307100  0.25000000  1
  Sr  Sr6  1  0.00000000  0.00000000  0.50000000  1
  Sr  Sr7  1  0.00000000  0.00000000  0.00000000  1
  Ru  Ru8  1  0.69241500  0.35649300  0.84054700  1
  Ru  Ru9  1  0.64350700  0.30758500  0.65945300  1
  Ru  Ru10  1  0.35649300  0.69241500  0.34054700  1
  Ru  Ru11  1  0.30758500  0.64350700  0.15945300  1
  O  O12  1  0.87636100  0.68687900  0.88949400  1
  O  O13  1  0.31312100  0.12363900  0.61050600  1
  O  O14  1  0.12363900  0.31312100  0.11050600  1
  O  O15  1  0.68687900  0.87636100  0.38949400  1
  O  O16  1  0.88515900  0.22873600  0.89837700  1
  O  O17  1  0.77126400  0.11484100  0.60162300  1
  O  O18  1  0.11484100  0.77126400  0.10162300  1
  O  O19  1  0.22873600  0.88515900  0.39837700  1
  O  O20  1  0.42231300  0.22940500  0.92671800  1
  O  O21  1  0.77059500  0.57768700  0.57328200  1
  O  O22  1  0.57768700  0.77059500  0.07328200  1
  O  O23  1  0.22940500  0.42231300  0.42671800  1
  O  O24  1  0.48400600  0.51599400  0.25000000  1
  O  O25  1  0.51599400  0.48400600  0.75000000  1
  O  O26  1  0.48136000  0.95879100  0.23470300  1
  O  O27  1  0.04120900  0.51864000  0.26529700  1
  O  O28  1  0.51864000  0.04120900  0.76529700  1
  O  O29  1  0.95879100  0.48136000  0.73470300  1
