# generated using pymatgen
data_Nb6HI11
_symmetry_space_group_name_H-M   'P 1'
_cell_length_a   11.56044900
_cell_length_b   13.87533400
_cell_length_c   15.91985600
_cell_angle_alpha   90.00000000
_cell_angle_beta   90.00000000
_cell_angle_gamma   90.00000000
_symmetry_Int_Tables_number   1
_chemical_formula_structural   Nb6HI11
_chemical_formula_sum   'Nb24 H4 I44'
_cell_volume   2553.62595142
_cell_formula_units_Z   4
loop_
 _symmetry_equiv_pos_site_id
 _symmetry_equiv_pos_as_xyz
  1  'x, y, z'
loop_
 _atom_site_type_symbol
 _atom_site_label
 _atom_site_symmetry_multiplicity
 _atom_site_fract_x
 _atom_site_fract_y
 _atom_site_fract_z
 _atom_site_occupancy
  Nb  Nb0  1  0.10087500  0.47509800  0.39737100  1
  Nb  Nb1  1  0.39912500  0.47509800  0.10262900  1
  Nb  Nb2  1  0.60087500  0.02490200  0.60262900  1
  Nb  Nb3  1  0.89912500  0.02490200  0.89737100  1
  Nb  Nb4  1  0.89912500  0.52490200  0.60262900  1
  Nb  Nb5  1  0.60087500  0.52490200  0.89737100  1
  Nb  Nb6  1  0.39912500  0.97509800  0.39737100  1
  Nb  Nb7  1  0.10087500  0.97509800  0.10262900  1
  Nb  Nb8  1  0.13311400  0.58026900  0.55056900  1
  Nb  Nb9  1  0.36688600  0.58026900  0.94943100  1
  Nb  Nb10  1  0.63311400  0.91973100  0.44943100  1
  Nb  Nb11  1  0.86688600  0.91973100  0.05056900  1
  Nb  Nb12  1  0.86688600  0.41973100  0.44943100  1
  Nb  Nb13  1  0.63311400  0.41973100  0.05056900  1
  Nb  Nb14  1  0.36688600  0.08026900  0.55056900  1
  Nb  Nb15  1  0.13311400  0.08026900  0.94943100  1
  Nb  Nb16  1  0.93156800  0.62324000  0.44945600  1
  Nb  Nb17  1  0.56843200  0.62324000  0.05054400  1
  Nb  Nb18  1  0.43156800  0.87676000  0.55054400  1
  Nb  Nb19  1  0.06843200  0.87676000  0.94945600  1
  Nb  Nb20  1  0.06843200  0.37676000  0.55054400  1
  Nb  Nb21  1  0.43156800  0.37676000  0.94945600  1
  Nb  Nb22  1  0.56843200  0.12324000  0.44945600  1
  Nb  Nb23  1  0.93156800  0.12324000  0.05054400  1
  H  H24  1  0.00000000  0.50000000  0.50000000  1
  H  H25  1  0.50000000  0.50000000  0.00000000  1
  H  H26  1  0.50000000  0.00000000  0.50000000  1
  H  H27  1  0.00000000  0.00000000  0.00000000  1
  I  I28  1  0.15879800  0.67644000  0.39069700  1
  I  I29  1  0.34120200  0.67644000  0.10930300  1
  I  I30  1  0.65879800  0.82356000  0.60930300  1
  I  I31  1  0.84120200  0.82356000  0.89069700  1
  I  I32  1  0.84120200  0.32356000  0.60930300  1
  I  I33  1  0.65879800  0.32356000  0.89069700  1
  I  I34  1  0.34120200  0.17644000  0.39069700  1
  I  I35  1  0.15879800  0.17644000  0.10930300  1
  I  I36  1  0.02614100  0.27604600  0.39431300  1
  I  I37  1  0.47385900  0.27604600  0.10568700  1
  I  I38  1  0.52614100  0.22395400  0.60568700  1
  I  I39  1  0.97385900  0.22395400  0.89431300  1
  I  I40  1  0.97385900  0.72395400  0.60568700  1
  I  I41  1  0.52614100  0.72395400  0.89431300  1
  I  I42  1  0.47385900  0.77604600  0.39431300  1
  I  I43  1  0.02614100  0.77604600  0.10568700  1
  I  I44  1  0.90718000  0.52138700  0.29074700  1
  I  I45  1  0.59282000  0.52138700  0.20925300  1
  I  I46  1  0.40718000  0.97861300  0.70925300  1
  I  I47  1  0.09282000  0.97861300  0.79074700  1
  I  I48  1  0.09282000  0.47861300  0.70925300  1
  I  I49  1  0.40718000  0.47861300  0.79074700  1
  I  I50  1  0.59282000  0.02138700  0.29074700  1
  I  I51  1  0.90718000  0.02138700  0.20925300  1
  I  I52  1  0.29804700  0.43602800  0.50411900  1
  I  I53  1  0.20195300  0.43602800  0.99588100  1
  I  I54  1  0.79804700  0.06397200  0.49588100  1
  I  I55  1  0.70195300  0.06397200  0.00411900  1
  I  I56  1  0.70195300  0.56397200  0.49588100  1
  I  I57  1  0.79804700  0.56397200  0.00411900  1
  I  I58  1  0.20195300  0.93602800  0.50411900  1
  I  I59  1  0.29804700  0.93602800  0.99588100  1
  I  I60  1  0.83076700  0.80364500  0.37728300  1
  I  I61  1  0.66923300  0.80364500  0.12271700  1
  I  I62  1  0.33076700  0.69635500  0.62271700  1
  I  I63  1  0.16923300  0.69635500  0.87728300  1
  I  I64  1  0.16923300  0.19635500  0.62271700  1
  I  I65  1  0.33076700  0.19635500  0.87728300  1
  I  I66  1  0.66923300  0.30364500  0.37728300  1
  I  I67  1  0.83076700  0.30364500  0.12271700  1
  I  I68  1  0.25000000  0.42356600  0.25000000  1
  I  I69  1  0.75000000  0.07643400  0.75000000  1
  I  I70  1  0.75000000  0.57643400  0.75000000  1
  I  I71  1  0.25000000  0.92356600  0.25000000  1
