# generated using pymatgen
data_Ce2P3Au
_symmetry_space_group_name_H-M   'P 1'
_cell_length_a   4.16452200
_cell_length_b   7.65491700
_cell_length_c   16.05135400
_cell_angle_alpha   90.00000000
_cell_angle_beta   90.00000000
_cell_angle_gamma   90.00000000
_symmetry_Int_Tables_number   1
_chemical_formula_structural   Ce2P3Au
_chemical_formula_sum   'Ce8 P12 Au4'
_cell_volume   511.70224185
_cell_formula_units_Z   4
loop_
 _symmetry_equiv_pos_site_id
 _symmetry_equiv_pos_as_xyz
  1  'x, y, z'
loop_
 _atom_site_type_symbol
 _atom_site_label
 _atom_site_symmetry_multiplicity
 _atom_site_fract_x
 _atom_site_fract_y
 _atom_site_fract_z
 _atom_site_occupancy
  Ce  Ce0  1  0.25000000  0.23948800  0.47539000  1
  Ce  Ce1  1  0.75000000  0.90143900  0.79532300  1
  Ce  Ce2  1  0.75000000  0.26051200  0.97539000  1
  Ce  Ce3  1  0.75000000  0.40143900  0.70467700  1
  Ce  Ce4  1  0.25000000  0.59856100  0.29532300  1
  Ce  Ce5  1  0.25000000  0.09856100  0.20467700  1
  Ce  Ce6  1  0.75000000  0.76051200  0.52461000  1
  Ce  Ce7  1  0.25000000  0.73948800  0.02461000  1
  P  P8  1  0.25000000  0.38224400  0.08761200  1
  P  P9  1  0.25000000  0.70188000  0.70229200  1
  P  P10  1  0.75000000  0.11775600  0.58761200  1
  P  P11  1  0.75000000  0.29812000  0.29770800  1
  P  P12  1  0.75000000  0.79812000  0.20229200  1
  P  P13  1  0.25000000  0.88224400  0.41238800  1
  P  P14  1  0.25000000  0.53057900  0.59221000  1
  P  P15  1  0.75000000  0.61775600  0.91238800  1
  P  P16  1  0.75000000  0.96942100  0.09221000  1
  P  P17  1  0.25000000  0.20188000  0.79770800  1
  P  P18  1  0.75000000  0.46942100  0.40779000  1
  P  P19  1  0.25000000  0.03057900  0.90779000  1
  Au  Au20  1  0.25000000  0.01026400  0.64950900  1
  Au  Au21  1  0.75000000  0.98973600  0.35049100  1
  Au  Au22  1  0.25000000  0.51026400  0.85049100  1
  Au  Au23  1  0.75000000  0.48973600  0.14950900  1
