# generated using pymatgen
data_Mg3Ru2
_symmetry_space_group_name_H-M   'P 1'
_cell_length_a   6.96458000
_cell_length_b   6.96458000
_cell_length_c   6.96458000
_cell_angle_alpha   90.00000000
_cell_angle_beta   90.00000000
_cell_angle_gamma   90.00000000
_symmetry_Int_Tables_number   1
_chemical_formula_structural   Mg3Ru2
_chemical_formula_sum   'Mg12 Ru8'
_cell_volume   337.81956167
_cell_formula_units_Z   4
loop_
 _symmetry_equiv_pos_site_id
 _symmetry_equiv_pos_as_xyz
  1  'x, y, z'
loop_
 _atom_site_type_symbol
 _atom_site_label
 _atom_site_symmetry_multiplicity
 _atom_site_fract_x
 _atom_site_fract_y
 _atom_site_fract_z
 _atom_site_occupancy
  Mg  Mg0  1  0.62500000  0.29445700  0.54445700  1
  Mg  Mg1  1  0.70554300  0.04445700  0.87500000  1
  Mg  Mg2  1  0.54445700  0.62500000  0.29445700  1
  Mg  Mg3  1  0.95554300  0.37500000  0.79445700  1
  Mg  Mg4  1  0.29445700  0.54445700  0.62500000  1
  Mg  Mg5  1  0.45554300  0.12500000  0.20554300  1
  Mg  Mg6  1  0.04445700  0.87500000  0.70554300  1
  Mg  Mg7  1  0.79445700  0.95554300  0.37500000  1
  Mg  Mg8  1  0.12500000  0.20554300  0.45554300  1
  Mg  Mg9  1  0.37500000  0.79445700  0.95554300  1
  Mg  Mg10  1  0.87500000  0.70554300  0.04445700  1
  Mg  Mg11  1  0.20554300  0.45554300  0.12500000  1
  Ru  Ru12  1  0.67571500  0.67571500  0.67571500  1
  Ru  Ru13  1  0.92571500  0.57428500  0.42571500  1
  Ru  Ru14  1  0.57428500  0.42571500  0.92571500  1
  Ru  Ru15  1  0.42571500  0.92571500  0.57428500  1
  Ru  Ru16  1  0.17571500  0.82428500  0.32428500  1
  Ru  Ru17  1  0.82428500  0.32428500  0.17571500  1
  Ru  Ru18  1  0.32428500  0.17571500  0.82428500  1
  Ru  Ru19  1  0.07428500  0.07428500  0.07428500  1
