# generated using pymatgen
data_Cs2Ti2S9
_symmetry_space_group_name_H-M   'P 1'
_cell_length_a   10.49226786
_cell_length_b   10.49226786
_cell_length_c   10.49226766
_cell_angle_alpha   83.52448104
_cell_angle_beta   83.52448104
_cell_angle_gamma   83.52448164
_symmetry_Int_Tables_number   1
_chemical_formula_structural   Cs2Ti2S9
_chemical_formula_sum   'Cs6 Ti6 S27'
_cell_volume   1134.50624512
_cell_formula_units_Z   3
loop_
 _symmetry_equiv_pos_site_id
 _symmetry_equiv_pos_as_xyz
  1  'x, y, z'
loop_
 _atom_site_type_symbol
 _atom_site_label
 _atom_site_symmetry_multiplicity
 _atom_site_fract_x
 _atom_site_fract_y
 _atom_site_fract_z
 _atom_site_occupancy
  Cs  Cs0  1  0.65981900  0.65981900  0.65981900  1
  Cs  Cs1  1  0.44047200  0.78628400  0.17438000  1
  Cs  Cs2  1  0.78628400  0.17438000  0.44047200  1
  Cs  Cs3  1  0.23510900  0.23510900  0.23510900  1
  Cs  Cs4  1  0.17438000  0.44047200  0.78628400  1
  Cs  Cs5  1  0.00035100  0.00035100  0.00035100  1
  Ti  Ti6  1  0.86709800  0.53038000  0.16877700  1
  Ti  Ti7  1  0.99286700  0.73025400  0.33208400  1
  Ti  Ti8  1  0.53038000  0.16877700  0.86709800  1
  Ti  Ti9  1  0.73025400  0.33208400  0.99286700  1
  Ti  Ti10  1  0.33208400  0.99286700  0.73025400  1
  Ti  Ti11  1  0.16877700  0.86709800  0.53038000  1
  S  S12  1  0.91239200  0.31420800  0.11499300  1
  S  S13  1  0.39451200  0.89415000  0.50778900  1
  S  S14  1  0.82224000  0.78645400  0.19587300  1
  S  S15  1  0.70584600  0.51267900  0.34978200  1
  S  S16  1  0.78645400  0.19587300  0.82224000  1
  S  S17  1  0.38299300  0.77961200  0.83474000  1
  S  S18  1  0.17233100  0.55897000  0.32928100  1
  S  S19  1  0.60347200  0.15482700  0.09255900  1
  S  S20  1  0.32928100  0.17233100  0.55897000  1
  S  S21  1  0.01256100  0.70979600  0.57323300  1
  S  S22  1  0.70979600  0.57323300  0.01256100  1
  S  S23  1  0.31420800  0.11499300  0.91239200  1
  S  S24  1  0.51267900  0.34978200  0.70584600  1
  S  S25  1  0.95291900  0.88686900  0.64378500  1
  S  S26  1  0.11499300  0.91239200  0.31420800  1
  S  S27  1  0.34978200  0.70584600  0.51267900  1
  S  S28  1  0.64378500  0.95291900  0.88686900  1
  S  S29  1  0.88686900  0.64378500  0.95291900  1
  S  S30  1  0.15482700  0.09255900  0.60347200  1
  S  S31  1  0.89415000  0.50778900  0.39451200  1
  S  S32  1  0.77961200  0.83474000  0.38299300  1
  S  S33  1  0.19587300  0.82224000  0.78645400  1
  S  S34  1  0.50778900  0.39451200  0.89415000  1
  S  S35  1  0.83474000  0.38299300  0.77961200  1
  S  S36  1  0.57323300  0.01256100  0.70979600  1
  S  S37  1  0.55897000  0.32928100  0.17233100  1
  S  S38  1  0.09255900  0.60347200  0.15482700  1
