# generated using pymatgen
data_Cs4Ru2Cl10O
_symmetry_space_group_name_H-M   'P 1'
_cell_length_a   11.99702500
_cell_length_b   12.69454200
_cell_length_c   14.18961900
_cell_angle_alpha   90.00000000
_cell_angle_beta   90.00000000
_cell_angle_gamma   90.00000000
_symmetry_Int_Tables_number   1
_chemical_formula_structural   Cs4Ru2Cl10O
_chemical_formula_sum   'Cs16 Ru8 Cl40 O4'
_cell_volume   2161.03268344
_cell_formula_units_Z   4
loop_
 _symmetry_equiv_pos_site_id
 _symmetry_equiv_pos_as_xyz
  1  'x, y, z'
loop_
 _atom_site_type_symbol
 _atom_site_label
 _atom_site_symmetry_multiplicity
 _atom_site_fract_x
 _atom_site_fract_y
 _atom_site_fract_z
 _atom_site_occupancy
  Cs  Cs0  1  0.28952800  0.89392800  0.63590700  1
  Cs  Cs1  1  0.47795600  0.78455500  0.36137900  1
  Cs  Cs2  1  0.21047200  0.89392800  0.13590700  1
  Cs  Cs3  1  0.02204400  0.28455500  0.63862100  1
  Cs  Cs4  1  0.78952800  0.60607200  0.63590700  1
  Cs  Cs5  1  0.02204400  0.78455500  0.86137900  1
  Cs  Cs6  1  0.71047200  0.10607200  0.36409300  1
  Cs  Cs7  1  0.21047200  0.39392800  0.36409300  1
  Cs  Cs8  1  0.71047200  0.60607200  0.13590700  1
  Cs  Cs9  1  0.28952800  0.39392800  0.86409300  1
  Cs  Cs10  1  0.47795600  0.28455500  0.13862100  1
  Cs  Cs11  1  0.52204400  0.71544500  0.86137900  1
  Cs  Cs12  1  0.52204400  0.21544500  0.63862100  1
  Cs  Cs13  1  0.78952800  0.10607200  0.86409300  1
  Cs  Cs14  1  0.97795600  0.71544500  0.36137900  1
  Cs  Cs15  1  0.97795600  0.21544500  0.13862100  1
  Ru  Ru16  1  0.41466400  0.55300000  0.59404200  1
  Ru  Ru17  1  0.91466400  0.94700000  0.59404200  1
  Ru  Ru18  1  0.58533600  0.44700000  0.40595800  1
  Ru  Ru19  1  0.58533600  0.94700000  0.09404200  1
  Ru  Ru20  1  0.91466400  0.44700000  0.90595800  1
  Ru  Ru21  1  0.08533600  0.55300000  0.09404200  1
  Ru  Ru22  1  0.41466400  0.05300000  0.90595800  1
  Ru  Ru23  1  0.08533600  0.05300000  0.40595800  1
  Cl  Cl24  1  0.96886900  0.98229900  0.28378400  1
  Cl  Cl25  1  0.51911100  0.71442700  0.60176000  1
  Cl  Cl26  1  0.78339500  0.36729700  0.01121100  1
  Cl  Cl27  1  0.51911100  0.21442700  0.89824000  1
  Cl  Cl28  1  0.28339500  0.13270300  0.01121100  1
  Cl  Cl29  1  0.48088900  0.28557300  0.39824000  1
  Cl  Cl30  1  0.29950600  0.89885200  0.89585900  1
  Cl  Cl31  1  0.71660500  0.86729700  0.98878900  1
  Cl  Cl32  1  0.19627400  0.62382000  0.21658600  1
  Cl  Cl33  1  0.70049400  0.10114800  0.10414100  1
  Cl  Cl34  1  0.19627400  0.12382000  0.28341400  1
  Cl  Cl35  1  0.30372600  0.62382000  0.71658600  1
  Cl  Cl36  1  0.01911100  0.28557300  0.89824000  1
  Cl  Cl37  1  0.80372600  0.87618000  0.71658600  1
  Cl  Cl38  1  0.28339500  0.63270300  0.48878900  1
  Cl  Cl39  1  0.03113100  0.01770100  0.71621600  1
  Cl  Cl40  1  0.20049400  0.89885200  0.39585900  1
  Cl  Cl41  1  0.80372600  0.37618000  0.78341400  1
  Cl  Cl42  1  0.29950600  0.39885200  0.60414100  1
  Cl  Cl43  1  0.79950600  0.60114800  0.89585900  1
  Cl  Cl44  1  0.69627400  0.37618000  0.28341400  1
  Cl  Cl45  1  0.96886900  0.48229900  0.21621600  1
  Cl  Cl46  1  0.48088900  0.78557300  0.10176000  1
  Cl  Cl47  1  0.98088900  0.21442700  0.39824000  1
  Cl  Cl48  1  0.46886900  0.51770100  0.28378400  1
  Cl  Cl49  1  0.78339500  0.86729700  0.48878900  1
  Cl  Cl50  1  0.03113100  0.51770100  0.78378400  1
  Cl  Cl51  1  0.30372600  0.12382000  0.78341400  1
  Cl  Cl52  1  0.21660500  0.13270300  0.51121100  1
  Cl  Cl53  1  0.71660500  0.36729700  0.51121100  1
  Cl  Cl54  1  0.79950600  0.10114800  0.60414100  1
  Cl  Cl55  1  0.21660500  0.63270300  0.98878900  1
  Cl  Cl56  1  0.01911100  0.78557300  0.60176000  1
  Cl  Cl57  1  0.46886900  0.01770100  0.21621600  1
  Cl  Cl58  1  0.53113100  0.98229900  0.78378400  1
  Cl  Cl59  1  0.20049400  0.39885200  0.10414100  1
  Cl  Cl60  1  0.69627400  0.87618000  0.21658600  1
  Cl  Cl61  1  0.53113100  0.48229900  0.71621600  1
  Cl  Cl62  1  0.98088900  0.71442700  0.10176000  1
  Cl  Cl63  1  0.70049400  0.60114800  0.39585900  1
  O  O64  1  0.50000000  0.00000000  0.00000000  1
  O  O65  1  0.50000000  0.50000000  0.50000000  1
  O  O66  1  0.00000000  0.50000000  0.00000000  1
  O  O67  1  0.00000000  0.00000000  0.50000000  1
