# generated using pymatgen
data_NaPH3NO3
_symmetry_space_group_name_H-M   'P 1'
_cell_length_a   5.80625806
_cell_length_b   5.80625806
_cell_length_c   6.14105200
_cell_angle_alpha   90.00000000
_cell_angle_beta   90.00000000
_cell_angle_gamma   120.00000070
_symmetry_Int_Tables_number   1
_chemical_formula_structural   NaPH3NO3
_chemical_formula_sum   'Na2 P2 H6 N2 O6'
_cell_volume   179.29413037
_cell_formula_units_Z   2
loop_
 _symmetry_equiv_pos_site_id
 _symmetry_equiv_pos_as_xyz
  1  'x, y, z'
loop_
 _atom_site_type_symbol
 _atom_site_label
 _atom_site_symmetry_multiplicity
 _atom_site_fract_x
 _atom_site_fract_y
 _atom_site_fract_z
 _atom_site_occupancy
  Na  Na0  1  0.00000000  0.00000000  0.49930700  1
  Na  Na1  1  0.00000000  0.00000000  0.99930700  1
  P  P2  1  0.66666700  0.33333300  0.80764700  1
  P  P3  1  0.33333300  0.66666700  0.30764700  1
  H  H4  1  0.84498800  0.49176900  0.16246900  1
  H  H5  1  0.64678100  0.15501200  0.16246900  1
  H  H6  1  0.50823100  0.35321900  0.16246900  1
  H  H7  1  0.15501200  0.50823100  0.66246900  1
  H  H8  1  0.35321900  0.84498800  0.66246900  1
  H  H9  1  0.49176900  0.64678100  0.66246900  1
  N  N10  1  0.66666700  0.33333300  0.10176700  1
  N  N11  1  0.33333300  0.66666700  0.60176700  1
  O  O12  1  0.37482300  0.14796400  0.74999400  1
  O  O13  1  0.77314100  0.62517700  0.74999400  1
  O  O14  1  0.85203600  0.22685900  0.74999400  1
  O  O15  1  0.62517700  0.85203600  0.24999400  1
  O  O16  1  0.22685900  0.37482300  0.24999400  1
  O  O17  1  0.14796400  0.77314100  0.24999400  1
