# generated using pymatgen
data_La10(ErS3)9
_symmetry_space_group_name_H-M   'P 1'
_cell_length_a   3.94341082
_cell_length_b   15.00534717
_cell_length_c   18.87704711
_cell_angle_alpha   79.25266295
_cell_angle_beta   83.98890296
_cell_angle_gamma   82.45325857
_symmetry_Int_Tables_number   1
_chemical_formula_structural   La10(ErS3)9
_chemical_formula_sum   'La10 Er9 S27'
_cell_volume   1084.20107459
_cell_formula_units_Z   1
loop_
 _symmetry_equiv_pos_site_id
 _symmetry_equiv_pos_as_xyz
  1  'x, y, z'
loop_
 _atom_site_type_symbol
 _atom_site_label
 _atom_site_symmetry_multiplicity
 _atom_site_fract_x
 _atom_site_fract_y
 _atom_site_fract_z
 _atom_site_occupancy
  La  La0  1  0.12745200  0.95362100  0.79101700  1
  La  La1  1  0.03964200  0.60724400  0.30705600  1
  La  La2  1  0.11576700  0.15868500  0.60825200  1
  La  La3  1  0.95788100  0.39282900  0.69316300  1
  La  La4  1  0.86926700  0.04588500  0.20988000  1
  La  La5  1  0.81949700  0.46436600  0.89719500  1
  La  La6  1  0.79671500  0.67780800  0.72064300  1
  La  La7  1  0.87680200  0.84067700  0.39224500  1
  La  La8  1  0.19843800  0.32079100  0.28004700  1
  La  La9  1  0.18095200  0.53442300  0.10323000  1
  Er  Er10  1  0.17851400  0.71621300  0.92396000  1
  Er  Er11  1  0.82153500  0.28343300  0.07657600  1
  Er  Er12  1  0.57144600  0.38036000  0.47133800  1
  Er  Er13  1  0.99926600  0.00082400  0.00013400  1
  Er  Er14  1  0.74645700  0.90731400  0.58767900  1
  Er  Er15  1  0.24199500  0.09120900  0.41310300  1
  Er  Er16  1  0.42380200  0.61792600  0.52852200  1
  Er  Er17  1  0.53137200  0.80602300  0.14075800  1
  Er  Er18  1  0.47143900  0.19398700  0.85969500  1
  S  S19  1  0.67674600  0.80329100  0.84078200  1
  S  S20  1  0.32230400  0.19574500  0.15932400  1
  S  S21  1  0.29464000  0.91242400  0.48549800  1
  S  S22  1  0.60587300  0.45461500  0.33226800  1
  S  S23  1  0.45358300  0.99331500  0.10178400  1
  S  S24  1  0.45338200  0.69709400  0.38591400  1
  S  S25  1  0.24137400  0.82696100  0.68028800  1
  S  S26  1  0.54239100  0.30231500  0.61462400  1
  S  S27  1  0.85642400  0.72758500  0.55277800  1
  S  S28  1  0.74999800  0.17152300  0.32025800  1
  S  S29  1  0.59528400  0.62436800  0.18588300  1
  S  S30  1  0.13886500  0.27117000  0.44612700  1
  S  S31  1  0.08136900  0.81278100  0.03684600  1
  S  S32  1  0.54595800  0.00673900  0.89903500  1
  S  S33  1  0.71531600  0.39970100  0.16916000  1
  S  S34  1  0.39271700  0.54529000  0.66799800  1
  S  S35  1  0.28215400  0.60013100  0.83131000  1
  S  S36  1  0.69430700  0.08635400  0.51557000  1
  S  S37  1  0.30043900  0.39307500  0.00768900  1
  S  S38  1  0.92261600  0.18858500  0.96309600  1
  S  S39  1  0.70061100  0.60526600  0.99223900  1
  S  S40  1  0.02521800  0.18159900  0.76557100  1
  S  S41  1  0.64329000  0.02582500  0.68522800  1
  S  S42  1  0.40658700  0.37561300  0.81399700  1
  S  S43  1  0.99742700  0.49870200  0.50050100  1
  S  S44  1  0.97656600  0.81575300  0.23577300  1
  S  S45  1  0.35089700  0.97317800  0.31515900  1
