# generated using pymatgen
data_Be3Al2(SiO3)6
_symmetry_space_group_name_H-M   'P 1'
_cell_length_a   9.30347192
_cell_length_b   9.30347192
_cell_length_c   9.27757700
_cell_angle_alpha   90.00000000
_cell_angle_beta   90.00000000
_cell_angle_gamma   119.99999941
_symmetry_Int_Tables_number   1
_chemical_formula_structural   Be3Al2(SiO3)6
_chemical_formula_sum   'Be6 Al4 Si12 O36'
_cell_volume   695.43301390
_cell_formula_units_Z   2
loop_
 _symmetry_equiv_pos_site_id
 _symmetry_equiv_pos_as_xyz
  1  'x, y, z'
loop_
 _atom_site_type_symbol
 _atom_site_label
 _atom_site_symmetry_multiplicity
 _atom_site_fract_x
 _atom_site_fract_y
 _atom_site_fract_z
 _atom_site_occupancy
  Be  Be0  1  0.50000000  0.00000000  0.25000000  1
  Be  Be1  1  0.00000000  0.50000000  0.75000000  1
  Be  Be2  1  0.50000000  0.50000000  0.75000000  1
  Be  Be3  1  0.50000000  0.00000000  0.75000000  1
  Be  Be4  1  0.00000000  0.50000000  0.25000000  1
  Be  Be5  1  0.50000000  0.50000000  0.25000000  1
  Al  Al6  1  0.66666700  0.33333300  0.25000000  1
  Al  Al7  1  0.33333300  0.66666700  0.25000000  1
  Al  Al8  1  0.33333300  0.66666700  0.75000000  1
  Al  Al9  1  0.66666700  0.33333300  0.75000000  1
  Si  Si10  1  0.61268800  0.88490200  0.00000000  1
  Si  Si11  1  0.61268800  0.72778600  0.50000000  1
  Si  Si12  1  0.27221400  0.88490200  0.50000000  1
  Si  Si13  1  0.72778600  0.61268800  0.00000000  1
  Si  Si14  1  0.88490200  0.27221400  0.00000000  1
  Si  Si15  1  0.11509800  0.72778600  0.00000000  1
  Si  Si16  1  0.27221400  0.38731200  0.00000000  1
  Si  Si17  1  0.38731200  0.11509800  0.00000000  1
  Si  Si18  1  0.11509800  0.38731200  0.50000000  1
  Si  Si19  1  0.88490200  0.61268800  0.50000000  1
  Si  Si20  1  0.72778600  0.11509800  0.50000000  1
  Si  Si21  1  0.38731200  0.27221400  0.50000000  1
  O  O22  1  0.30947700  0.07387700  0.50000000  1
  O  O23  1  0.23559900  0.30947700  0.50000000  1
  O  O24  1  0.76440100  0.69052300  0.50000000  1
  O  O25  1  0.92612300  0.23559900  0.50000000  1
  O  O26  1  0.69052300  0.76440100  0.00000000  1
  O  O27  1  0.69052300  0.92612300  0.50000000  1
  O  O28  1  0.07387700  0.76440100  0.50000000  1
  O  O29  1  0.92612300  0.69052300  0.00000000  1
  O  O30  1  0.76440100  0.07387700  0.00000000  1
  O  O31  1  0.23559900  0.92612300  0.00000000  1
  O  O32  1  0.07387700  0.30947700  0.00000000  1
  O  O33  1  0.30947700  0.23559900  0.00000000  1
  O  O34  1  0.50157800  0.64632800  0.64580800  1
  O  O35  1  0.35367200  0.85525000  0.64580800  1
  O  O36  1  0.14475000  0.49842200  0.64580800  1
  O  O37  1  0.85525000  0.50157800  0.64580800  1
  O  O38  1  0.49842200  0.14475000  0.14580800  1
  O  O39  1  0.35367200  0.49842200  0.14580800  1
  O  O40  1  0.14475000  0.64632800  0.14580800  1
  O  O41  1  0.85525000  0.35367200  0.14580800  1
  O  O42  1  0.64632800  0.50157800  0.14580800  1
  O  O43  1  0.35367200  0.85525000  0.35419200  1
  O  O44  1  0.50157800  0.64632800  0.35419200  1
  O  O45  1  0.50157800  0.85525000  0.14580800  1
  O  O46  1  0.14475000  0.49842200  0.35419200  1
  O  O47  1  0.85525000  0.50157800  0.35419200  1
  O  O48  1  0.64632800  0.14475000  0.35419200  1
  O  O49  1  0.49842200  0.35367200  0.35419200  1
  O  O50  1  0.50157800  0.85525000  0.85419200  1
  O  O51  1  0.64632800  0.50157800  0.85419200  1
  O  O52  1  0.85525000  0.35367200  0.85419200  1
  O  O53  1  0.14475000  0.64632800  0.85419200  1
  O  O54  1  0.35367200  0.49842200  0.85419200  1
  O  O55  1  0.64632800  0.14475000  0.64580800  1
  O  O56  1  0.49842200  0.35367200  0.64580800  1
  O  O57  1  0.49842200  0.14475000  0.85419200  1
