# generated using pymatgen
data_Np2InPt2
_symmetry_space_group_name_H-M   'P 1'
_cell_length_a   7.69503400
_cell_length_b   7.69503400
_cell_length_c   3.65055000
_cell_angle_alpha   90.00000000
_cell_angle_beta   90.00000000
_cell_angle_gamma   90.00000000
_symmetry_Int_Tables_number   1
_chemical_formula_structural   Np2InPt2
_chemical_formula_sum   'Np4 In2 Pt4'
_cell_volume   216.16201860
_cell_formula_units_Z   2
loop_
 _symmetry_equiv_pos_site_id
 _symmetry_equiv_pos_as_xyz
  1  'x, y, z'
loop_
 _atom_site_type_symbol
 _atom_site_label
 _atom_site_symmetry_multiplicity
 _atom_site_fract_x
 _atom_site_fract_y
 _atom_site_fract_z
 _atom_site_occupancy
  Np  Np0  1  0.16914000  0.66914000  0.50000000  1
  Np  Np1  1  0.33086000  0.16914000  0.50000000  1
  Np  Np2  1  0.66914000  0.83086000  0.50000000  1
  Np  Np3  1  0.83086000  0.33086000  0.50000000  1
  In  In4  1  0.00000000  0.00000000  0.00000000  1
  In  In5  1  0.50000000  0.50000000  0.00000000  1
  Pt  Pt6  1  0.86909200  0.63090800  0.00000000  1
  Pt  Pt7  1  0.36909200  0.86909200  0.00000000  1
  Pt  Pt8  1  0.63090800  0.13090800  0.00000000  1
  Pt  Pt9  1  0.13090800  0.36909200  0.00000000  1
