# generated using pymatgen
data_GdGaGe2O7
_symmetry_space_group_name_H-M   'P 1'
_cell_length_a   6.63629600
_cell_length_b   7.31708200
_cell_length_c   12.96486152
_cell_angle_alpha   62.38002577
_cell_angle_beta   90.00000000
_cell_angle_gamma   90.00000000
_symmetry_Int_Tables_number   1
_chemical_formula_structural   GdGaGe2O7
_chemical_formula_sum   'Gd4 Ga4 Ge8 O28'
_cell_volume   557.80945094
_cell_formula_units_Z   4
loop_
 _symmetry_equiv_pos_site_id
 _symmetry_equiv_pos_as_xyz
  1  'x, y, z'
loop_
 _atom_site_type_symbol
 _atom_site_label
 _atom_site_symmetry_multiplicity
 _atom_site_fract_x
 _atom_site_fract_y
 _atom_site_fract_z
 _atom_site_occupancy
  Gd  Gd0  1  0.64435700  0.75536700  0.47383700  1
  Gd  Gd1  1  0.14435700  0.24463300  0.02616300  1
  Gd  Gd2  1  0.35564300  0.24463300  0.52616300  1
  Gd  Gd3  1  0.85564300  0.75536700  0.97383700  1
  Ga  Ga4  1  0.59971500  0.78789200  0.73127500  1
  Ga  Ga5  1  0.90028500  0.78789200  0.23127500  1
  Ga  Ga6  1  0.40028500  0.21210800  0.26872500  1
  Ga  Ga7  1  0.09971500  0.21210800  0.76872500  1
  Ge  Ge8  1  0.84123800  0.21609900  0.54273800  1
  Ge  Ge9  1  0.15876200  0.78390100  0.45726200  1
  Ge  Ge10  1  0.08938500  0.69831500  0.72222600  1
  Ge  Ge11  1  0.41061500  0.69831500  0.22222600  1
  Ge  Ge12  1  0.34123800  0.78390100  0.95726200  1
  Ge  Ge13  1  0.58938500  0.30168500  0.77777400  1
  Ge  Ge14  1  0.91061500  0.30168500  0.27777400  1
  Ge  Ge15  1  0.65876200  0.21609900  0.04273800  1
  O  O16  1  0.82916600  0.41081600  0.01928100  1
  O  O17  1  0.11072800  0.22035700  0.21889100  1
  O  O18  1  0.31168400  0.84722400  0.68795700  1
  O  O19  1  0.32916600  0.58918400  0.48071900  1
  O  O20  1  0.00184400  0.74444000  0.57877300  1
  O  O21  1  0.84164500  0.01335000  0.07854000  1
  O  O22  1  0.81168400  0.15277600  0.81204300  1
  O  O23  1  0.38927200  0.22035700  0.71889100  1
  O  O24  1  0.49815600  0.74444000  0.07877300  1
  O  O25  1  0.15835500  0.98665000  0.92146000  1
  O  O26  1  0.99815600  0.25556000  0.42122700  1
  O  O27  1  0.65835500  0.01335000  0.57854000  1
  O  O28  1  0.62217300  0.57212700  0.69002600  1
  O  O29  1  0.55428800  0.78806900  0.87482300  1
  O  O30  1  0.94571200  0.78806900  0.37482300  1
  O  O31  1  0.18831600  0.84722400  0.18795700  1
  O  O32  1  0.44571200  0.21193100  0.12517700  1
  O  O33  1  0.87782700  0.57212700  0.19002600  1
  O  O34  1  0.05428800  0.21193100  0.62517700  1
  O  O35  1  0.67083400  0.41081600  0.51928100  1
  O  O36  1  0.88927200  0.77964300  0.78110900  1
  O  O37  1  0.68831600  0.15277600  0.31204300  1
  O  O38  1  0.50184400  0.25556000  0.92122700  1
  O  O39  1  0.37782700  0.42787300  0.30997400  1
  O  O40  1  0.61072800  0.77964300  0.28110900  1
  O  O41  1  0.12217300  0.42787300  0.80997400  1
  O  O42  1  0.17083400  0.58918400  0.98071900  1
  O  O43  1  0.34164500  0.98665000  0.42146000  1
