# generated using pymatgen
data_UNiH14O9F4
_symmetry_space_group_name_H-M   'P 1'
_cell_length_a   9.45578300
_cell_length_b   10.15794700
_cell_length_c   12.21327387
_cell_angle_alpha   83.15463831
_cell_angle_beta   90.00000000
_cell_angle_gamma   90.00000000
_symmetry_Int_Tables_number   1
_chemical_formula_structural   UNiH14O9F4
_chemical_formula_sum   'U4 Ni4 H56 O36 F16'
_cell_volume   1164.73884669
_cell_formula_units_Z   4
loop_
 _symmetry_equiv_pos_site_id
 _symmetry_equiv_pos_as_xyz
  1  'x, y, z'
loop_
 _atom_site_type_symbol
 _atom_site_label
 _atom_site_symmetry_multiplicity
 _atom_site_fract_x
 _atom_site_fract_y
 _atom_site_fract_z
 _atom_site_occupancy
  U  U0  1  0.33899500  0.86970400  0.49482000  1
  U  U1  1  0.66100500  0.13029600  0.50518000  1
  U  U2  1  0.16100500  0.86970400  0.99482000  1
  U  U3  1  0.83899500  0.13029600  0.00518000  1
  Ni  Ni4  1  0.81695800  0.62761600  0.69890400  1
  Ni  Ni5  1  0.31695800  0.37238400  0.80109600  1
  Ni  Ni6  1  0.68304200  0.62761600  0.19890400  1
  Ni  Ni7  1  0.18304200  0.37238400  0.30109600  1
  H  H8  1  0.94608000  0.49891400  0.32876400  1
  H  H9  1  0.16263400  0.24413900  0.51065000  1
  H  H10  1  0.67837600  0.39288900  0.71371900  1
  H  H11  1  0.14475800  0.11274800  0.32316900  1
  H  H12  1  0.45945300  0.33123500  0.31532600  1
  H  H13  1  0.61706300  0.46525400  0.38778600  1
  H  H14  1  0.35524200  0.11274800  0.82316900  1
  H  H15  1  0.45541000  0.17551600  0.72671900  1
  H  H16  1  0.18873800  0.23378700  0.95755000  1
  H  H17  1  0.33736600  0.24413900  0.01065000  1
  H  H18  1  0.83736600  0.75586100  0.48935000  1
  H  H19  1  0.34712600  0.07355200  0.14443400  1
  H  H20  1  0.39992300  0.38587400  0.59051000  1
  H  H21  1  0.59664000  0.73395900  0.79028400  1
  H  H22  1  0.49512100  0.89517500  0.89153000  1
  H  H23  1  0.60007700  0.61412600  0.40949000  1
  H  H24  1  0.68873800  0.76621300  0.54245000  1
  H  H25  1  0.92448100  0.36085400  0.40732800  1
  H  H26  1  0.88293700  0.46525400  0.88778600  1
  H  H27  1  0.54459000  0.82448400  0.27328100  1
  H  H28  1  0.64475800  0.88725200  0.17683100  1
  H  H29  1  0.57551900  0.36085400  0.90732800  1
  H  H30  1  0.95541000  0.82448400  0.77328100  1
  H  H31  1  0.00487900  0.89517500  0.39153000  1
  H  H32  1  0.31126200  0.23378700  0.45755000  1
  H  H33  1  0.05392000  0.50108600  0.67123600  1
  H  H34  1  0.85524200  0.88725200  0.67683100  1
  H  H35  1  0.11706300  0.53474600  0.11221400  1
  H  H36  1  0.81126200  0.76621300  0.04245000  1
  H  H37  1  0.90336000  0.73395900  0.29028400  1
  H  H38  1  0.10007700  0.38587400  0.09051000  1
  H  H39  1  0.78070100  0.38671100  0.60932700  1
  H  H40  1  0.95945300  0.66876500  0.18467400  1
  H  H41  1  0.07551900  0.63914600  0.59267200  1
  H  H42  1  0.04459000  0.17551600  0.22671900  1
  H  H43  1  0.04054700  0.33123500  0.81532600  1
  H  H44  1  0.50487900  0.10482500  0.10847000  1
  H  H45  1  0.55392000  0.49891400  0.82876400  1
  H  H46  1  0.21929900  0.61328900  0.39067300  1
  H  H47  1  0.09664000  0.26604100  0.70971600  1
  H  H48  1  0.65287400  0.92644800  0.85556600  1
  H  H49  1  0.99512100  0.10482500  0.60847000  1
  H  H50  1  0.15287400  0.07355200  0.64443400  1
  H  H51  1  0.44608000  0.50108600  0.17123600  1
  H  H52  1  0.17837600  0.60711100  0.78628100  1
  H  H53  1  0.40336000  0.26604100  0.20971600  1
  H  H54  1  0.66263400  0.75586100  0.98935000  1
  H  H55  1  0.32162400  0.60711100  0.28628100  1
  H  H56  1  0.54054700  0.66876500  0.68467400  1
  H  H57  1  0.84712600  0.92644800  0.35556600  1
  H  H58  1  0.89992300  0.61412600  0.90949000  1
  H  H59  1  0.28070100  0.61328900  0.89067300  1
  H  H60  1  0.38293700  0.53474600  0.61221400  1
  H  H61  1  0.42448100  0.63914600  0.09267200  1
  H  H62  1  0.82162400  0.39288900  0.21371900  1
  H  H63  1  0.71929900  0.38671100  0.10932700  1
  O  O64  1  0.63787300  0.81485800  0.23857900  1
  O  O65  1  0.76854400  0.70461900  0.53933100  1
  O  O66  1  0.85282100  0.55737800  0.86205100  1
  O  O67  1  0.90218000  0.16543700  0.13986100  1
  O  O68  1  0.22038100  0.91027300  0.12834300  1
  O  O69  1  0.97067900  0.40333800  0.33887900  1
  O  O70  1  0.91397800  0.85344200  0.37435200  1
  O  O71  1  0.08602200  0.14655800  0.62564800  1
  O  O72  1  0.39545300  0.34568500  0.25055000  1
  O  O73  1  0.23145600  0.29538100  0.46066900  1
  O  O74  1  0.59782000  0.16543700  0.63986100  1
  O  O75  1  0.75578400  0.43744200  0.67096000  1
  O  O76  1  0.52932100  0.40333800  0.83887900  1
  O  O77  1  0.86212700  0.81485800  0.73857900  1
  O  O78  1  0.47067900  0.59666200  0.16112100  1
  O  O79  1  0.77961900  0.08972700  0.87165700  1
  O  O80  1  0.40218000  0.83456300  0.36013900  1
  O  O81  1  0.73145600  0.70461900  0.03933100  1
  O  O82  1  0.74421600  0.43744200  0.17096000  1
  O  O83  1  0.58602200  0.85344200  0.87435200  1
  O  O84  1  0.35282100  0.44262200  0.63794900  1
  O  O85  1  0.14717900  0.44262200  0.13794900  1
  O  O86  1  0.64717900  0.55737800  0.36205100  1
  O  O87  1  0.24421600  0.56255800  0.32904000  1
  O  O88  1  0.60454700  0.65431500  0.74945000  1
  O  O89  1  0.02932100  0.59666200  0.66112100  1
  O  O90  1  0.27961900  0.91027300  0.62834300  1
  O  O91  1  0.36212700  0.18514200  0.76142100  1
  O  O92  1  0.41397800  0.14655800  0.12564800  1
  O  O93  1  0.72038100  0.08972700  0.37165700  1
  O  O94  1  0.09782000  0.83456300  0.86013900  1
  O  O95  1  0.25578400  0.56255800  0.82904000  1
  O  O96  1  0.89545300  0.65431500  0.24945000  1
  O  O97  1  0.26854400  0.29538100  0.96066900  1
  O  O98  1  0.10454700  0.34568500  0.75055000  1
  O  O99  1  0.13787300  0.18514200  0.26142100  1
  F  F100  1  0.17267600  0.70848100  0.48870800  1
  F  F101  1  0.84584500  0.01889200  0.58463700  1
  F  F102  1  0.41907600  0.09221200  0.45673600  1
  F  F103  1  0.05254900  0.67676400  0.06941000  1
  F  F104  1  0.94745100  0.32323600  0.93059000  1
  F  F105  1  0.67267600  0.29151900  0.01129200  1
  F  F106  1  0.82732400  0.29151900  0.51129200  1
  F  F107  1  0.34584500  0.98110800  0.91536300  1
  F  F108  1  0.32732400  0.70848100  0.98870800  1
  F  F109  1  0.91907600  0.90778800  0.04326400  1
  F  F110  1  0.15415500  0.98110800  0.41536300  1
  F  F111  1  0.55254900  0.32323600  0.43059000  1
  F  F112  1  0.08092400  0.09221200  0.95673600  1
  F  F113  1  0.58092400  0.90778800  0.54326400  1
  F  F114  1  0.44745100  0.67676400  0.56941000  1
  F  F115  1  0.65415500  0.01889200  0.08463700  1
