# generated using pymatgen
data_SrLaTaMnO6
_symmetry_space_group_name_H-M   'P 1'
_cell_length_a   8.18588466
_cell_length_b   8.18593911
_cell_length_c   9.92389140
_cell_angle_alpha   66.40661626
_cell_angle_beta   66.40693917
_cell_angle_gamma   91.54762392
_symmetry_Int_Tables_number   1
_chemical_formula_structural   SrLaTaMnO6
_chemical_formula_sum   'Sr4 La4 Ta4 Mn4 O24'
_cell_volume   544.41350333
_cell_formula_units_Z   4
loop_
 _symmetry_equiv_pos_site_id
 _symmetry_equiv_pos_as_xyz
  1  'x, y, z'
loop_
 _atom_site_type_symbol
 _atom_site_label
 _atom_site_symmetry_multiplicity
 _atom_site_fract_x
 _atom_site_fract_y
 _atom_site_fract_z
 _atom_site_occupancy
  Sr  Sr0  1  0.39137100  0.35288700  0.24859500  1
  Sr  Sr1  1  0.89136600  0.85288200  0.24859700  1
  Sr  Sr2  1  0.10288000  0.64136600  0.74859100  1
  Sr  Sr3  1  0.60288000  0.14137000  0.74859900  1
  La  La4  1  0.41004000  0.85582100  0.24537700  1
  La  La5  1  0.91004100  0.35581900  0.24537700  1
  La  La6  1  0.10582000  0.16003300  0.74538200  1
  La  La7  1  0.60581500  0.66003500  0.74538400  1
  Ta  Ta8  1  0.74837700  0.25290200  0.99954900  1
  Ta  Ta9  1  0.24838400  0.75291300  0.99954300  1
  Ta  Ta10  1  0.00291300  0.99838300  0.49954400  1
  Ta  Ta11  1  0.50291000  0.49838200  0.49954600  1
  Mn  Mn12  1  0.99797200  0.50456800  0.49875000  1
  Mn  Mn13  1  0.25456600  0.24798400  0.99874500  1
  Mn  Mn14  1  0.49796400  0.00456800  0.49875400  1
  Mn  Mn15  1  0.75457900  0.74797400  0.99874500  1
  O  O16  1  0.34761700  0.81602500  0.76147500  1
  O  O17  1  0.84761900  0.31602500  0.76147900  1
  O  O18  1  0.56603300  0.59761900  0.26147800  1
  O  O19  1  0.06602400  0.09761600  0.26148000  1
  O  O20  1  0.76177400  0.99100300  0.04737700  1
  O  O21  1  0.26177400  0.49099800  0.04738100  1
  O  O22  1  0.24100200  0.51177500  0.54737500  1
  O  O23  1  0.74099600  0.01177000  0.54738600  1
  O  O24  1  0.55967200  0.75629600  0.46272200  1
  O  O25  1  0.05967400  0.25629300  0.46272200  1
  O  O26  1  0.00629400  0.30967200  0.96272300  1
  O  O27  1  0.50629700  0.80967000  0.96271900  1
  O  O28  1  0.48731800  0.17519500  0.04830100  1
  O  O29  1  0.98732300  0.67519200  0.04829800  1
  O  O30  1  0.92519100  0.73732000  0.54830600  1
  O  O31  1  0.42518800  0.23732100  0.54830600  1
  O  O32  1  0.26097500  0.96871300  0.44955500  1
  O  O33  1  0.76097300  0.46871200  0.44955600  1
  O  O34  1  0.71871100  0.51097200  0.94956000  1
  O  O35  1  0.21871500  0.01097800  0.94955400  1
  O  O36  1  0.94503900  0.91643600  0.73829200  1
  O  O37  1  0.44504100  0.41643800  0.73828800  1
  O  O38  1  0.16643300  0.69503900  0.23829100  1
  O  O39  1  0.66643800  0.19503500  0.23829300  1
