# generated using pymatgen
data_Na3Sm17Si12(O25F)2
_symmetry_space_group_name_H-M   'P 1'
_cell_length_a   9.56910746
_cell_length_b   9.56910746
_cell_length_c   14.01834500
_cell_angle_alpha   90.00000000
_cell_angle_beta   90.00000000
_cell_angle_gamma   119.99999629
_symmetry_Int_Tables_number   1
_chemical_formula_structural   Na3Sm17Si12(O25F)2
_chemical_formula_sum   'Na3 Sm17 Si12 O50 F2'
_cell_volume   1111.65558861
_cell_formula_units_Z   1
loop_
 _symmetry_equiv_pos_site_id
 _symmetry_equiv_pos_as_xyz
  1  'x, y, z'
loop_
 _atom_site_type_symbol
 _atom_site_label
 _atom_site_symmetry_multiplicity
 _atom_site_fract_x
 _atom_site_fract_y
 _atom_site_fract_z
 _atom_site_occupancy
  Na  Na0  1  0.33333300  0.66666700  0.74695300  1
  Na  Na1  1  0.66666700  0.33333300  0.99812200  1
  Na  Na2  1  0.66666700  0.33333300  0.49571100  1
  Sm  Sm3  1  0.23318400  0.99301300  0.12445200  1
  Sm  Sm4  1  0.24999100  0.99175700  0.62491800  1
  Sm  Sm5  1  0.00698700  0.24017100  0.12445200  1
  Sm  Sm6  1  0.00824300  0.25823400  0.62491800  1
  Sm  Sm7  1  0.33333300  0.66666700  0.50512200  1
  Sm  Sm8  1  0.33333300  0.66666700  0.99450700  1
  Sm  Sm9  1  0.33333300  0.66666700  0.24955000  1
  Sm  Sm10  1  0.24341300  0.23326200  0.37558400  1
  Sm  Sm11  1  0.25894500  0.25020300  0.87567300  1
  Sm  Sm12  1  0.75982900  0.76681600  0.12445200  1
  Sm  Sm13  1  0.74176600  0.75000900  0.62491800  1
  Sm  Sm14  1  0.66666700  0.33333300  0.24872500  1
  Sm  Sm15  1  0.66666700  0.33333300  0.75029300  1
  Sm  Sm16  1  0.98984900  0.75658700  0.37558400  1
  Sm  Sm17  1  0.99125700  0.74105500  0.87567300  1
  Sm  Sm18  1  0.76673800  0.01015100  0.37558400  1
  Sm  Sm19  1  0.74979700  0.00874300  0.87567300  1
  Si  Si20  1  0.02852100  0.39860600  0.37315000  1
  Si  Si21  1  0.02627500  0.39157100  0.87379400  1
  Si  Si22  1  0.37008600  0.97147900  0.37315000  1
  Si  Si23  1  0.36529600  0.97372500  0.87379400  1
  Si  Si24  1  0.39938100  0.37080800  0.12504800  1
  Si  Si25  1  0.39227100  0.36554100  0.62366000  1
  Si  Si26  1  0.60139400  0.62991400  0.37315000  1
  Si  Si27  1  0.60842900  0.63470400  0.87379400  1
  Si  Si28  1  0.62919200  0.02857300  0.12504800  1
  Si  Si29  1  0.63445900  0.02673000  0.62366000  1
  Si  Si30  1  0.97327000  0.60772900  0.62366000  1
  Si  Si31  1  0.97142700  0.60061900  0.12504800  1
  O  O32  1  0.00000000  0.00000000  0.12722200  1
  O  O33  1  0.25166500  0.90633700  0.46769200  1
  O  O34  1  0.24610000  0.90501900  0.96845900  1
  O  O35  1  0.24655500  0.89813800  0.28066700  1
  O  O36  1  0.23449800  0.91291900  0.78516300  1
  O  O37  1  0.12622700  0.59811100  0.37512800  1
  O  O38  1  0.11849100  0.59007000  0.87786200  1
  O  O39  1  0.16981400  0.68142200  0.12422900  1
  O  O40  1  0.16952800  0.69156900  0.62033700  1
  O  O41  1  0.10186200  0.34841600  0.28066700  1
  O  O42  1  0.08708100  0.32157900  0.78516300  1
  O  O43  1  0.09366300  0.34532800  0.46769200  1
  O  O44  1  0.09498100  0.34108100  0.96845900  1
  O  O45  1  0.00000000  0.00000000  0.37673400  1
  O  O46  1  0.47157900  0.88150900  0.87786200  1
  O  O47  1  0.47188500  0.87377300  0.37512800  1
  O  O48  1  0.31857800  0.48839200  0.12422900  1
  O  O49  1  0.30843100  0.47795900  0.62033700  1
  O  O50  1  0.51160800  0.83018600  0.12422900  1
  O  O51  1  0.52204100  0.83047200  0.62033700  1
  O  O52  1  0.40188900  0.52811500  0.37512800  1
  O  O53  1  0.40993000  0.52842100  0.87786200  1
  O  O54  1  0.32560300  0.24464400  0.03479400  1
  O  O55  1  0.32108400  0.23478900  0.53519100  1
  O  O56  1  0.34128200  0.24979300  0.21894400  1
  O  O57  1  0.33994300  0.24635100  0.71814700  1
  O  O58  1  0.65158400  0.75344500  0.28066700  1
  O  O59  1  0.65467200  0.74833500  0.46769200  1
  O  O60  1  0.67842100  0.76550200  0.78516300  1
  O  O61  1  0.65891900  0.75390000  0.96845900  1
  O  O62  1  0.59616200  0.47622200  0.12927100  1
  O  O63  1  0.59027100  0.47291600  0.62866400  1
  O  O64  1  0.47747300  0.16670700  0.36917500  1
  O  O65  1  0.47806000  0.16961300  0.86966500  1
  O  O66  1  0.68923400  0.52252700  0.36917500  1
  O  O67  1  0.69155300  0.52194000  0.86966500  1
  O  O68  1  0.52377800  0.11994000  0.12927100  1
  O  O69  1  0.52708400  0.11735500  0.62866400  1
  O  O70  1  0.91904000  0.67439700  0.03479400  1
  O  O71  1  0.90851100  0.65871800  0.21894400  1
  O  O72  1  0.91370500  0.67891600  0.53519100  1
  O  O73  1  0.90640800  0.66005700  0.71814700  1
  O  O74  1  0.83329300  0.31076600  0.36917500  1
  O  O75  1  0.83038700  0.30844700  0.86966500  1
  O  O76  1  0.88006000  0.40383800  0.12927100  1
  O  O77  1  0.88264500  0.40972900  0.62866400  1
  O  O78  1  0.75020700  0.09148900  0.21894400  1
  O  O79  1  0.75364900  0.09359200  0.71814700  1
  O  O80  1  0.75535600  0.08096000  0.03479400  1
  O  O81  1  0.76521100  0.08629500  0.53519100  1
  F  F82  1  0.00000000  0.00000000  0.63039800  1
  F  F83  1  0.00000000  0.00000000  0.87766600  1
