# generated using pymatgen
data_AlH2PbO2F3
_symmetry_space_group_name_H-M   'P 1'
_cell_length_a   5.08162300
_cell_length_b   6.39658911
_cell_length_c   6.92344092
_cell_angle_alpha   105.47808116
_cell_angle_beta   89.61133244
_cell_angle_gamma   107.61806262
_symmetry_Int_Tables_number   1
_chemical_formula_structural   AlH2PbO2F3
_chemical_formula_sum   'Al2 H4 Pb2 O4 F6'
_cell_volume   206.04029601
_cell_formula_units_Z   2
loop_
 _symmetry_equiv_pos_site_id
 _symmetry_equiv_pos_as_xyz
  1  'x, y, z'
loop_
 _atom_site_type_symbol
 _atom_site_label
 _atom_site_symmetry_multiplicity
 _atom_site_fract_x
 _atom_site_fract_y
 _atom_site_fract_z
 _atom_site_occupancy
  Al  Al0  1  0.16179200  0.18525900  0.67403800  1
  Al  Al1  1  0.83820800  0.81474100  0.32596200  1
  H  H2  1  0.73393900  0.18571100  0.47689400  1
  H  H3  1  0.26606100  0.81428900  0.52310600  1
  H  H4  1  0.73162200  0.14418600  0.86211100  1
  H  H5  1  0.26837800  0.85581400  0.13788900  1
  Pb  Pb6  1  0.79560000  0.68901500  0.80658800  1
  Pb  Pb7  1  0.20440000  0.31098500  0.19341200  1
  O  O8  1  0.90085200  0.13624300  0.45265600  1
  O  O9  1  0.09914800  0.86375700  0.54734400  1
  O  O10  1  0.90434600  0.10310300  0.86297600  1
  O  O11  1  0.09565400  0.89689700  0.13702400  1
  F  F12  1  0.42875600  0.20603500  0.86309700  1
  F  F13  1  0.57124400  0.79396500  0.13690300  1
  F  F14  1  0.44468800  0.26016600  0.51134700  1
  F  F15  1  0.55531200  0.73983400  0.48865300  1
  F  F16  1  0.18802600  0.48558000  0.77151000  1
  F  F17  1  0.81197400  0.51442000  0.22849000  1
