# generated using pymatgen
data_HXeF7
_symmetry_space_group_name_H-M   'P 1'
_cell_length_a   10.81600038
_cell_length_b   10.81600038
_cell_length_c   10.81599929
_cell_angle_alpha   107.87822042
_cell_angle_beta   107.87822042
_cell_angle_gamma   107.87822215
_symmetry_Int_Tables_number   1
_chemical_formula_structural   HXeF7
_chemical_formula_sum   'H6 Xe6 F42'
_cell_volume   1027.47990467
_cell_formula_units_Z   6
loop_
 _symmetry_equiv_pos_site_id
 _symmetry_equiv_pos_as_xyz
  1  'x, y, z'
loop_
 _atom_site_type_symbol
 _atom_site_label
 _atom_site_symmetry_multiplicity
 _atom_site_fract_x
 _atom_site_fract_y
 _atom_site_fract_z
 _atom_site_occupancy
  H  H0  1  0.89396600  0.92189900  0.31767800  1
  H  H1  1  0.10603400  0.07810100  0.68232200  1
  H  H2  1  0.07810100  0.68232200  0.10603400  1
  H  H3  1  0.68232200  0.10603400  0.07810100  1
  H  H4  1  0.31767800  0.89396600  0.92189900  1
  H  H5  1  0.92189900  0.31767800  0.89396600  1
  Xe  Xe6  1  0.86721400  0.73975000  0.50643700  1
  Xe  Xe7  1  0.73975000  0.50643700  0.86721400  1
  Xe  Xe8  1  0.13278600  0.26025000  0.49356300  1
  Xe  Xe9  1  0.50643700  0.86721400  0.73975000  1
  Xe  Xe10  1  0.49356300  0.13278600  0.26025000  1
  Xe  Xe11  1  0.26025000  0.49356300  0.13278600  1
  F  F12  1  0.43569000  0.71957500  0.81108900  1
  F  F13  1  0.01130000  0.34452500  0.40434300  1
  F  F14  1  0.65547500  0.59565700  0.98870000  1
  F  F15  1  0.34452500  0.40434300  0.01130000  1
  F  F16  1  0.11721400  0.17569900  0.72092900  1
  F  F17  1  0.40419400  0.48390300  0.29159500  1
  F  F18  1  0.42531100  0.68699600  0.19669700  1
  F  F19  1  0.56881700  0.06658800  0.91384300  1
  F  F20  1  0.40434300  0.01130000  0.34452500  1
  F  F21  1  0.31300400  0.80330300  0.57468900  1
  F  F22  1  0.59565700  0.98870000  0.65547500  1
  F  F23  1  0.27907100  0.88278600  0.82430100  1
  F  F24  1  0.86538500  0.70595600  0.90300000  1
  F  F25  1  0.28042500  0.18891100  0.56431000  1
  F  F26  1  0.88278600  0.82430100  0.27907100  1
  F  F27  1  0.06658800  0.91384300  0.56881700  1
  F  F28  1  0.13461500  0.29404400  0.09700000  1
  F  F29  1  0.43118300  0.93341200  0.08615700  1
  F  F30  1  0.82430100  0.27907100  0.88278600  1
  F  F31  1  0.81108900  0.43569000  0.71957500  1
  F  F32  1  0.80330300  0.57468900  0.31300400  1
  F  F33  1  0.48390300  0.29159500  0.40419400  1
  F  F34  1  0.68699600  0.19669700  0.42531100  1
  F  F35  1  0.91384300  0.56881700  0.06658800  1
  F  F36  1  0.59580600  0.51609700  0.70840500  1
  F  F37  1  0.93341200  0.08615700  0.43118300  1
  F  F38  1  0.09700000  0.13461500  0.29404400  1
  F  F39  1  0.08615700  0.43118300  0.93341200  1
  F  F40  1  0.90300000  0.86538500  0.70595600  1
  F  F41  1  0.29159500  0.40419400  0.48390300  1
  F  F42  1  0.29404400  0.09700000  0.13461500  1
  F  F43  1  0.72092900  0.11721400  0.17569900  1
  F  F44  1  0.17569900  0.72092900  0.11721400  1
  F  F45  1  0.57468900  0.31300400  0.80330300  1
  F  F46  1  0.18891100  0.56431000  0.28042500  1
  F  F47  1  0.70595600  0.90300000  0.86538500  1
  F  F48  1  0.19669700  0.42531100  0.68699600  1
  F  F49  1  0.98870000  0.65547500  0.59565700  1
  F  F50  1  0.71957500  0.81108900  0.43569000  1
  F  F51  1  0.56431000  0.28042500  0.18891100  1
  F  F52  1  0.70840500  0.59580600  0.51609700  1
  F  F53  1  0.51609700  0.70840500  0.59580600  1
