# generated using pymatgen
data_Na4H6Ru
_symmetry_space_group_name_H-M   'P 1'
_cell_length_a   6.50171049
_cell_length_b   6.50171049
_cell_length_c   6.50171035
_cell_angle_alpha   89.18745960
_cell_angle_beta   89.18745960
_cell_angle_gamma   89.18745408
_symmetry_Int_Tables_number   1
_chemical_formula_structural   Na4H6Ru
_chemical_formula_sum   'Na8 H12 Ru2'
_cell_volume   274.75972021
_cell_formula_units_Z   2
loop_
 _symmetry_equiv_pos_site_id
 _symmetry_equiv_pos_as_xyz
  1  'x, y, z'
loop_
 _atom_site_type_symbol
 _atom_site_label
 _atom_site_symmetry_multiplicity
 _atom_site_fract_x
 _atom_site_fract_y
 _atom_site_fract_z
 _atom_site_occupancy
  Na  Na0  1  0.25000000  0.25000000  0.25000000  1
  Na  Na1  1  0.75000000  0.75000000  0.75000000  1
  Na  Na2  1  0.86239200  0.63760800  0.25000000  1
  Na  Na3  1  0.25000000  0.86239200  0.63760800  1
  Na  Na4  1  0.63760800  0.25000000  0.86239200  1
  Na  Na5  1  0.75000000  0.13760800  0.36239200  1
  Na  Na6  1  0.36239200  0.75000000  0.13760800  1
  Na  Na7  1  0.13760800  0.36239200  0.75000000  1
  H  H8  1  0.24220800  0.55012000  0.44585700  1
  H  H9  1  0.44585700  0.24220800  0.55012000  1
  H  H10  1  0.55012000  0.44585700  0.24220800  1
  H  H11  1  0.94585700  0.05012000  0.74220800  1
  H  H12  1  0.74220800  0.94585700  0.05012000  1
  H  H13  1  0.05012000  0.74220800  0.94585700  1
  H  H14  1  0.75779200  0.44988000  0.55414300  1
  H  H15  1  0.55414300  0.75779200  0.44988000  1
  H  H16  1  0.44988000  0.55414300  0.75779200  1
  H  H17  1  0.05414300  0.94988000  0.25779200  1
  H  H18  1  0.25779200  0.05414300  0.94988000  1
  H  H19  1  0.94988000  0.25779200  0.05414300  1
  Ru  Ru20  1  0.50000000  0.50000000  0.50000000  1
  Ru  Ru21  1  0.00000000  0.00000000  0.00000000  1
