# generated using pymatgen
data_Ba4LaGe3SbSe13
_symmetry_space_group_name_H-M   'P 1'
_cell_length_a   12.69268800
_cell_length_b   13.20747900
_cell_length_c   16.61177713
_cell_angle_alpha   76.38609394
_cell_angle_beta   90.00000000
_cell_angle_gamma   90.00000000
_symmetry_Int_Tables_number   1
_chemical_formula_structural   Ba4LaGe3SbSe13
_chemical_formula_sum   'Ba16 La4 Ge12 Sb4 Se52'
_cell_volume   2706.53068246
_cell_formula_units_Z   4
loop_
 _symmetry_equiv_pos_site_id
 _symmetry_equiv_pos_as_xyz
  1  'x, y, z'
loop_
 _atom_site_type_symbol
 _atom_site_label
 _atom_site_symmetry_multiplicity
 _atom_site_fract_x
 _atom_site_fract_y
 _atom_site_fract_z
 _atom_site_occupancy
  Ba  Ba0  1  0.31584400  0.15556100  0.63583500  1
  Ba  Ba1  1  0.67684600  0.45479400  0.94771800  1
  Ba  Ba2  1  0.82315400  0.95479400  0.94771800  1
  Ba  Ba3  1  0.33050500  0.22895400  0.25673000  1
  Ba  Ba4  1  0.17684600  0.04520600  0.05228200  1
  Ba  Ba5  1  0.81584400  0.34443900  0.36416500  1
  Ba  Ba6  1  0.16949500  0.72895400  0.25673000  1
  Ba  Ba7  1  0.82704200  0.64713500  0.15204400  1
  Ba  Ba8  1  0.67295800  0.14713500  0.15204400  1
  Ba  Ba9  1  0.32704200  0.85286500  0.84795600  1
  Ba  Ba10  1  0.32315400  0.54520600  0.05228200  1
  Ba  Ba11  1  0.18415600  0.65556100  0.63583500  1
  Ba  Ba12  1  0.68415600  0.84443900  0.36416500  1
  Ba  Ba13  1  0.66949500  0.77104600  0.74327000  1
  Ba  Ba14  1  0.83050500  0.27104600  0.74327000  1
  Ba  Ba15  1  0.17295800  0.35286500  0.84795600  1
  La  La16  1  0.52200500  0.45284700  0.64337200  1
  La  La17  1  0.97799500  0.95284700  0.64337200  1
  La  La18  1  0.47799500  0.54715300  0.35662800  1
  La  La19  1  0.02200500  0.04715300  0.35662800  1
  Ge  Ge20  1  0.38287900  0.92351200  0.32994500  1
  Ge  Ge21  1  0.23274100  0.93859900  0.51501200  1
  Ge  Ge22  1  0.59028600  0.42188800  0.18105900  1
  Ge  Ge23  1  0.88287900  0.57648800  0.67005500  1
  Ge  Ge24  1  0.73274100  0.56140100  0.48498800  1
  Ge  Ge25  1  0.09028600  0.07811200  0.81894100  1
  Ge  Ge26  1  0.40971400  0.57811200  0.81894100  1
  Ge  Ge27  1  0.90971400  0.92188800  0.18105900  1
  Ge  Ge28  1  0.26725900  0.43859900  0.51501200  1
  Ge  Ge29  1  0.76725900  0.06140100  0.48498800  1
  Ge  Ge30  1  0.61712100  0.07648800  0.67005500  1
  Ge  Ge31  1  0.11712100  0.42351200  0.32994500  1
  Sb  Sb32  1  0.98208600  0.63552300  0.91922900  1
  Sb  Sb33  1  0.51791400  0.13552300  0.91922900  1
  Sb  Sb34  1  0.48208600  0.86447700  0.08077100  1
  Sb  Sb35  1  0.01791400  0.36447700  0.08077100  1
  Se  Se36  1  0.51381100  0.04968200  0.31954300  1
  Se  Se37  1  0.49100400  0.34144700  0.09061800  1
  Se  Se38  1  0.94372900  0.83604600  0.31994400  1
  Se  Se39  1  0.05485100  0.56046800  0.08363900  1
  Se  Se40  1  0.61977600  0.15448400  0.52114700  1
  Se  Se41  1  0.05627100  0.16395400  0.68005600  1
  Se  Se42  1  0.21784400  0.98440600  0.26189400  1
  Se  Se43  1  0.78453800  0.09260400  0.33672300  1
  Se  Se44  1  0.04325100  0.89921700  0.83764300  1
  Se  Se45  1  0.55485100  0.93953200  0.91636100  1
  Se  Se46  1  0.88022400  0.65448400  0.52114700  1
  Se  Se47  1  0.44372900  0.66395400  0.68005600  1
  Se  Se48  1  0.79021200  0.69237600  0.94648100  1
  Se  Se49  1  0.71546200  0.59260400  0.33672300  1
  Se  Se50  1  0.94194700  0.71569900  0.73074600  1
  Se  Se51  1  0.29021200  0.80762400  0.05351900  1
  Se  Se52  1  0.44194700  0.78430100  0.26925400  1
  Se  Se53  1  0.28215600  0.48440600  0.26189400  1
  Se  Se54  1  0.50899600  0.65855300  0.90938200  1
  Se  Se55  1  0.98618900  0.54968200  0.31954300  1
  Se  Se56  1  0.70978800  0.19237600  0.94648100  1
  Se  Se57  1  0.01381100  0.45031800  0.68045700  1
  Se  Se58  1  0.38022400  0.84551600  0.47885300  1
  Se  Se59  1  0.22720100  0.60264000  0.85080400  1
  Se  Se60  1  0.71784400  0.51559400  0.73810600  1
  Se  Se61  1  0.20978800  0.30762400  0.05351900  1
  Se  Se62  1  0.21546200  0.90739600  0.66327700  1
  Se  Se63  1  0.43121900  0.35744900  0.49676300  1
  Se  Se64  1  0.99100400  0.15855300  0.90938200  1
  Se  Se65  1  0.06878100  0.85744900  0.49676300  1
  Se  Se66  1  0.27279900  0.10264000  0.85080400  1
  Se  Se67  1  0.55627100  0.33604600  0.31994400  1
  Se  Se68  1  0.54325100  0.60078300  0.16235700  1
  Se  Se69  1  0.44514900  0.06046800  0.08363900  1
  Se  Se70  1  0.22169500  0.11618700  0.45157100  1
  Se  Se71  1  0.78215600  0.01559400  0.73810600  1
  Se  Se72  1  0.27830500  0.61618700  0.45157100  1
  Se  Se73  1  0.95674900  0.10078300  0.16235700  1
  Se  Se74  1  0.56878100  0.64255100  0.50323700  1
  Se  Se75  1  0.28453800  0.40739600  0.66327700  1
  Se  Se76  1  0.00899600  0.84144700  0.09061800  1
  Se  Se77  1  0.72169500  0.38381300  0.54842900  1
  Se  Se78  1  0.93121900  0.14255100  0.50323700  1
  Se  Se79  1  0.94514900  0.43953200  0.91636100  1
  Se  Se80  1  0.05805300  0.28430100  0.26925400  1
  Se  Se81  1  0.48618900  0.95031800  0.68045700  1
  Se  Se82  1  0.45674900  0.39921700  0.83764300  1
  Se  Se83  1  0.77830500  0.88381300  0.54842900  1
  Se  Se84  1  0.77279900  0.39736000  0.14919600  1
  Se  Se85  1  0.55805300  0.21569900  0.73074600  1
  Se  Se86  1  0.72720100  0.89736000  0.14919600  1
  Se  Se87  1  0.11977600  0.34551600  0.47885300  1
