# generated using pymatgen
data_H2SO4
_symmetry_space_group_name_H-M   'P 1'
_cell_length_a   4.81422279
_cell_length_b   4.81422279
_cell_length_c   9.55363320
_cell_angle_alpha   68.71931376
_cell_angle_beta   68.71931376
_cell_angle_gamma   62.75986290
_symmetry_Int_Tables_number   1
_chemical_formula_structural   H2SO4
_chemical_formula_sum   'H4 S2 O8'
_cell_volume   178.19043539
_cell_formula_units_Z   2
loop_
 _symmetry_equiv_pos_site_id
 _symmetry_equiv_pos_as_xyz
  1  'x, y, z'
loop_
 _atom_site_type_symbol
 _atom_site_label
 _atom_site_symmetry_multiplicity
 _atom_site_fract_x
 _atom_site_fract_y
 _atom_site_fract_z
 _atom_site_occupancy
  H  H0  1  0.31928900  0.14112200  0.89814300  1
  H  H1  1  0.85887800  0.68071100  0.10185700  1
  H  H2  1  0.53714000  0.77336200  0.58917800  1
  H  H3  1  0.22663800  0.46286000  0.41082200  1
  S  S4  1  0.13763700  0.86236300  0.50000000  1
  S  S5  1  0.82943100  0.17056900  0.00000000  1
  O  O6  1  0.82669900  0.84899100  0.58857200  1
  O  O7  1  0.15100900  0.17330100  0.41142800  1
  O  O8  1  0.14938500  0.11515000  0.87153100  1
  O  O9  1  0.88485000  0.85061500  0.12846900  1
  O  O10  1  0.34963000  0.70350100  0.61836100  1
  O  O11  1  0.29649900  0.65037000  0.38163900  1
  O  O12  1  0.58881700  0.22455700  0.92736000  1
  O  O13  1  0.77544300  0.41118300  0.07264000  1
