# generated using pymatgen
data_Ce(Al4Fe)2
_symmetry_space_group_name_H-M   'P 1'
_cell_length_a   4.00695400
_cell_length_b   12.43431600
_cell_length_c   14.38663700
_cell_angle_alpha   90.00000000
_cell_angle_beta   90.00000000
_cell_angle_gamma   90.00000000
_symmetry_Int_Tables_number   1
_chemical_formula_structural   Ce(Al4Fe)2
_chemical_formula_sum   'Ce4 Al32 Fe8'
_cell_volume   716.79594963
_cell_formula_units_Z   4
loop_
 _symmetry_equiv_pos_site_id
 _symmetry_equiv_pos_as_xyz
  1  'x, y, z'
loop_
 _atom_site_type_symbol
 _atom_site_label
 _atom_site_symmetry_multiplicity
 _atom_site_fract_x
 _atom_site_fract_y
 _atom_site_fract_z
 _atom_site_occupancy
  Ce  Ce0  1  0.00000000  0.34090000  0.31910000  1
  Ce  Ce1  1  0.00000000  0.84090000  0.18090000  1
  Ce  Ce2  1  0.00000000  0.15910000  0.81910000  1
  Ce  Ce3  1  0.00000000  0.65910000  0.68090000  1
  Al  Al4  1  0.50000000  0.76466800  0.82610900  1
  Al  Al5  1  0.50000000  0.34004300  0.87890800  1
  Al  Al6  1  0.50000000  0.00000000  0.50000000  1
  Al  Al7  1  0.50000000  0.52545200  0.36840600  1
  Al  Al8  1  0.50000000  0.23533200  0.17389100  1
  Al  Al9  1  0.50000000  0.95259200  0.31984800  1
  Al  Al10  1  0.00000000  0.33866900  0.04632400  1
  Al  Al11  1  0.50000000  0.04740800  0.68015200  1
  Al  Al12  1  0.50000000  0.97454800  0.86840600  1
  Al  Al13  1  0.50000000  0.47454800  0.63159400  1
  Al  Al14  1  0.50000000  0.50000000  0.00000000  1
  Al  Al15  1  0.50000000  0.45259200  0.18015200  1
  Al  Al16  1  0.50000000  0.26466800  0.67389100  1
  Al  Al17  1  0.50000000  0.65995700  0.12109200  1
  Al  Al18  1  0.00000000  0.90508300  0.74685100  1
  Al  Al19  1  0.50000000  0.02545200  0.13159400  1
  Al  Al20  1  0.50000000  0.84004300  0.62109200  1
  Al  Al21  1  0.50000000  0.16825500  0.99246600  1
  Al  Al22  1  0.50000000  0.54740800  0.81984800  1
  Al  Al23  1  0.00000000  0.00000000  0.00000000  1
  Al  Al24  1  0.50000000  0.66825500  0.50753400  1
  Al  Al25  1  0.50000000  0.15995700  0.37890800  1
  Al  Al26  1  0.00000000  0.16133100  0.54632400  1
  Al  Al27  1  0.00000000  0.59491700  0.24685100  1
  Al  Al28  1  0.00000000  0.09491700  0.25314900  1
  Al  Al29  1  0.50000000  0.73533200  0.32610900  1
  Al  Al30  1  0.00000000  0.50000000  0.50000000  1
  Al  Al31  1  0.50000000  0.83174500  0.00753400  1
  Al  Al32  1  0.50000000  0.33174500  0.49246600  1
  Al  Al33  1  0.00000000  0.66133100  0.95367600  1
  Al  Al34  1  0.00000000  0.83866900  0.45367600  1
  Al  Al35  1  0.00000000  0.40508300  0.75314900  1
  Fe  Fe36  1  0.00000000  0.15041800  0.09782300  1
  Fe  Fe37  1  0.00000000  0.96506600  0.59337500  1
  Fe  Fe38  1  0.00000000  0.84958200  0.90217700  1
  Fe  Fe39  1  0.00000000  0.65041800  0.40217700  1
  Fe  Fe40  1  0.00000000  0.03493400  0.40662500  1
  Fe  Fe41  1  0.00000000  0.34958200  0.59782300  1
  Fe  Fe42  1  0.00000000  0.53493400  0.09337500  1
  Fe  Fe43  1  0.00000000  0.46506600  0.90662500  1
