# generated using pymatgen
data_Na8In6Au11
_symmetry_space_group_name_H-M   'P 1'
_cell_length_a   5.62213600
_cell_length_b   15.29192900
_cell_length_c   26.16939900
_cell_angle_alpha   90.00000000
_cell_angle_beta   90.00000000
_cell_angle_gamma   90.00000000
_symmetry_Int_Tables_number   1
_chemical_formula_structural   Na8In6Au11
_chemical_formula_sum   'Na32 In24 Au44'
_cell_volume   2249.86970986
_cell_formula_units_Z   4
loop_
 _symmetry_equiv_pos_site_id
 _symmetry_equiv_pos_as_xyz
  1  'x, y, z'
loop_
 _atom_site_type_symbol
 _atom_site_label
 _atom_site_symmetry_multiplicity
 _atom_site_fract_x
 _atom_site_fract_y
 _atom_site_fract_z
 _atom_site_occupancy
  Na  Na0  1  0.77448800  0.13754500  0.36016000  1
  Na  Na1  1  0.77448800  0.86245500  0.13984000  1
  Na  Na2  1  0.24659000  0.06381200  0.30157900  1
  Na  Na3  1  0.22984500  0.94096000  0.51628100  1
  Na  Na4  1  0.22551200  0.36245500  0.86016000  1
  Na  Na5  1  0.77323800  0.75000000  0.92928800  1
  Na  Na6  1  0.22551200  0.86245500  0.63984000  1
  Na  Na7  1  0.77323800  0.25000000  0.57071200  1
  Na  Na8  1  0.23409200  0.25000000  0.64201400  1
  Na  Na9  1  0.23409200  0.75000000  0.85798600  1
  Na  Na10  1  0.75341000  0.56381200  0.69842100  1
  Na  Na11  1  0.22984500  0.05904000  0.98371900  1
  Na  Na12  1  0.22551200  0.13754500  0.86016000  1
  Na  Na13  1  0.24659000  0.93618800  0.19842100  1
  Na  Na14  1  0.77015500  0.05904000  0.48371900  1
  Na  Na15  1  0.76590800  0.75000000  0.35798600  1
  Na  Na16  1  0.22551200  0.63754500  0.63984000  1
  Na  Na17  1  0.77448800  0.36245500  0.36016000  1
  Na  Na18  1  0.75341000  0.43618800  0.80157900  1
  Na  Na19  1  0.22984500  0.55904000  0.51628100  1
  Na  Na20  1  0.75341000  0.93618800  0.69842100  1
  Na  Na21  1  0.76590800  0.25000000  0.14201400  1
  Na  Na22  1  0.77448800  0.63754500  0.13984000  1
  Na  Na23  1  0.22676200  0.25000000  0.07071200  1
  Na  Na24  1  0.24659000  0.43618800  0.30157900  1
  Na  Na25  1  0.77015500  0.44096000  0.48371900  1
  Na  Na26  1  0.77015500  0.94096000  0.01628100  1
  Na  Na27  1  0.22676200  0.75000000  0.42928800  1
  Na  Na28  1  0.24659000  0.56381200  0.19842100  1
  Na  Na29  1  0.75341000  0.06381200  0.80157900  1
  Na  Na30  1  0.77015500  0.55904000  0.01628100  1
  Na  Na31  1  0.22984500  0.44096000  0.98371900  1
  In  In32  1  0.49648500  0.75000000  0.23653000  1
  In  In33  1  0.50351500  0.25000000  0.76347000  1
  In  In34  1  0.46893700  0.93927200  0.39530100  1
  In  In35  1  0.50088200  0.25000000  0.45447500  1
  In  In36  1  0.22879300  0.41887500  0.71637500  1
  In  In37  1  0.22879300  0.58112500  0.78362500  1
  In  In38  1  0.22879300  0.08112500  0.71637500  1
  In  In39  1  0.77120700  0.58112500  0.28362500  1
  In  In40  1  0.49648500  0.25000000  0.26347000  1
  In  In41  1  0.22879300  0.91887500  0.78362500  1
  In  In42  1  0.77120700  0.41887500  0.21637500  1
  In  In43  1  0.53106300  0.06072800  0.60469900  1
  In  In44  1  0.50088200  0.75000000  0.04552500  1
  In  In45  1  0.46893700  0.43927200  0.10469900  1
  In  In46  1  0.77120700  0.08112500  0.21637500  1
  In  In47  1  0.53106300  0.43927200  0.60469900  1
  In  In48  1  0.50351500  0.75000000  0.73653000  1
  In  In49  1  0.46893700  0.56072800  0.39530100  1
  In  In50  1  0.77120700  0.91887500  0.28362500  1
  In  In51  1  0.53106300  0.93927200  0.89530100  1
  In  In52  1  0.49911800  0.25000000  0.95447500  1
  In  In53  1  0.53106300  0.56072800  0.89530100  1
  In  In54  1  0.46893700  0.06072800  0.10469900  1
  In  In55  1  0.49911800  0.75000000  0.54552500  1
  Au  Au56  1  0.26524200  0.65229100  0.96750900  1
  Au  Au57  1  0.03634700  0.44449400  0.61411800  1
  Au  Au58  1  0.96365300  0.55550600  0.38588200  1
  Au  Au59  1  0.73475800  0.15229100  0.03249100  1
  Au  Au60  1  0.74832400  0.59401300  0.57659100  1
  Au  Au61  1  0.72978700  0.64310100  0.81025800  1
  Au  Au62  1  0.25167600  0.90598700  0.07659100  1
  Au  Au63  1  0.01816300  0.75000000  0.73967300  1
  Au  Au64  1  0.72978700  0.14310100  0.68974200  1
  Au  Au65  1  0.97820300  0.75000000  0.04559500  1
  Au  Au66  1  0.27021300  0.35689900  0.18974200  1
  Au  Au67  1  0.97820300  0.25000000  0.45440500  1
  Au  Au68  1  0.03634700  0.05550600  0.61411800  1
  Au  Au69  1  0.74832400  0.09401300  0.92340900  1
  Au  Au70  1  0.73764500  0.75000000  0.64368100  1
  Au  Au71  1  0.26524200  0.84770900  0.96750900  1
  Au  Au72  1  0.25167600  0.09401300  0.42340900  1
  Au  Au73  1  0.72978700  0.85689900  0.81025800  1
  Au  Au74  1  0.25167600  0.59401300  0.07659100  1
  Au  Au75  1  0.03634700  0.55550600  0.88588200  1
  Au  Au76  1  0.73475800  0.65229100  0.46750900  1
  Au  Au77  1  0.02179700  0.25000000  0.95440500  1
  Au  Au78  1  0.74832400  0.90598700  0.57659100  1
  Au  Au79  1  0.03634700  0.94449400  0.88588200  1
  Au  Au80  1  0.96365300  0.44449400  0.11411800  1
  Au  Au81  1  0.27021300  0.64310100  0.31025800  1
  Au  Au82  1  0.02179700  0.75000000  0.54559500  1
  Au  Au83  1  0.73475800  0.34770900  0.03249100  1
  Au  Au84  1  0.26524200  0.15229100  0.53249100  1
  Au  Au85  1  0.98183700  0.25000000  0.26032700  1
  Au  Au86  1  0.26235500  0.75000000  0.14368100  1
  Au  Au87  1  0.26235500  0.25000000  0.35631900  1
  Au  Au88  1  0.96365300  0.05550600  0.11411800  1
  Au  Au89  1  0.98183700  0.75000000  0.23967300  1
  Au  Au90  1  0.74832400  0.40598700  0.92340900  1
  Au  Au91  1  0.25167600  0.40598700  0.42340900  1
  Au  Au92  1  0.26524200  0.34770900  0.53249100  1
  Au  Au93  1  0.73475800  0.84770900  0.46750900  1
  Au  Au94  1  0.73764500  0.25000000  0.85631900  1
  Au  Au95  1  0.27021300  0.14310100  0.18974200  1
  Au  Au96  1  0.96365300  0.94449400  0.38588200  1
  Au  Au97  1  0.72978700  0.35689900  0.68974200  1
  Au  Au98  1  0.27021300  0.85689900  0.31025800  1
  Au  Au99  1  0.01816300  0.25000000  0.76032700  1
