# generated using pymatgen
data_Nb14S5
_symmetry_space_group_name_H-M   'P 1'
_cell_length_a   3.40444100
_cell_length_b   18.67755300
_cell_length_c   19.98921700
_cell_angle_alpha   90.00000000
_cell_angle_beta   90.00000000
_cell_angle_gamma   90.00000000
_symmetry_Int_Tables_number   1
_chemical_formula_structural   Nb14S5
_chemical_formula_sum   'Nb56 S20'
_cell_volume   1271.04688966
_cell_formula_units_Z   4
loop_
 _symmetry_equiv_pos_site_id
 _symmetry_equiv_pos_as_xyz
  1  'x, y, z'
loop_
 _atom_site_type_symbol
 _atom_site_label
 _atom_site_symmetry_multiplicity
 _atom_site_fract_x
 _atom_site_fract_y
 _atom_site_fract_z
 _atom_site_occupancy
  Nb  Nb0  1  0.25000000  0.46660900  0.95586700  1
  Nb  Nb1  1  0.25000000  0.50940800  0.27332400  1
  Nb  Nb2  1  0.25000000  0.94777400  0.88492900  1
  Nb  Nb3  1  0.75000000  0.39733900  0.86435000  1
  Nb  Nb4  1  0.75000000  0.86171300  0.48066600  1
  Nb  Nb5  1  0.75000000  0.04991700  0.94942300  1
  Nb  Nb6  1  0.25000000  0.60266100  0.13565000  1
  Nb  Nb7  1  0.75000000  0.82873200  0.84847400  1
  Nb  Nb8  1  0.25000000  0.25576700  0.29604400  1
  Nb  Nb9  1  0.25000000  0.43003100  0.12143700  1
  Nb  Nb10  1  0.25000000  0.70024000  0.82278000  1
  Nb  Nb11  1  0.25000000  0.95008300  0.05057700  1
  Nb  Nb12  1  0.25000000  0.85876800  0.74233400  1
  Nb  Nb13  1  0.75000000  0.56996900  0.87856300  1
  Nb  Nb14  1  0.75000000  0.05222600  0.11507100  1
  Nb  Nb15  1  0.75000000  0.64123200  0.24233400  1
  Nb  Nb16  1  0.75000000  0.71932000  0.08153900  1
  Nb  Nb17  1  0.75000000  0.55222600  0.38492900  1
  Nb  Nb18  1  0.75000000  0.54991700  0.55057700  1
  Nb  Nb19  1  0.75000000  0.03339100  0.45586700  1
  Nb  Nb20  1  0.75000000  0.36171300  0.01933400  1
  Nb  Nb21  1  0.75000000  0.29976000  0.17722000  1
  Nb  Nb22  1  0.75000000  0.88228200  0.16619200  1
  Nb  Nb23  1  0.75000000  0.49059200  0.72667600  1
  Nb  Nb24  1  0.75000000  0.70183700  0.46593100  1
  Nb  Nb25  1  0.25000000  0.13828700  0.51933400  1
  Nb  Nb26  1  0.25000000  0.67126800  0.34847400  1
  Nb  Nb27  1  0.25000000  0.11771800  0.83380800  1
  Nb  Nb28  1  0.25000000  0.44777400  0.61507100  1
  Nb  Nb29  1  0.25000000  0.63828700  0.98066600  1
  Nb  Nb30  1  0.75000000  0.79976000  0.32278000  1
  Nb  Nb31  1  0.75000000  0.53339100  0.04413300  1
  Nb  Nb32  1  0.25000000  0.45008300  0.44942300  1
  Nb  Nb33  1  0.75000000  0.74423300  0.70395600  1
  Nb  Nb34  1  0.75000000  0.99059200  0.77332400  1
  Nb  Nb35  1  0.25000000  0.20024000  0.67722000  1
  Nb  Nb36  1  0.25000000  0.78068000  0.58153900  1
  Nb  Nb37  1  0.25000000  0.79816300  0.96593100  1
  Nb  Nb38  1  0.75000000  0.20183700  0.03406900  1
  Nb  Nb39  1  0.25000000  0.93003100  0.37856300  1
  Nb  Nb40  1  0.25000000  0.96660900  0.54413300  1
  Nb  Nb41  1  0.25000000  0.17126800  0.15152600  1
  Nb  Nb42  1  0.25000000  0.00940800  0.22667600  1
  Nb  Nb43  1  0.75000000  0.21932000  0.41846100  1
  Nb  Nb44  1  0.75000000  0.89733900  0.63565000  1
  Nb  Nb45  1  0.75000000  0.06996900  0.62143700  1
  Nb  Nb46  1  0.25000000  0.10266100  0.36435000  1
  Nb  Nb47  1  0.75000000  0.38228200  0.33380800  1
  Nb  Nb48  1  0.25000000  0.35876800  0.75766600  1
  Nb  Nb49  1  0.25000000  0.28068000  0.91846100  1
  Nb  Nb50  1  0.25000000  0.29816300  0.53406900  1
  Nb  Nb51  1  0.25000000  0.61771800  0.66619200  1
  Nb  Nb52  1  0.75000000  0.32873200  0.65152600  1
  Nb  Nb53  1  0.25000000  0.75576700  0.20395600  1
  Nb  Nb54  1  0.75000000  0.14123200  0.25766600  1
  Nb  Nb55  1  0.75000000  0.24423300  0.79604400  1
  S  S56  1  0.25000000  0.09734500  0.03339400  1
  S  S57  1  0.75000000  0.90265500  0.96660600  1
  S  S58  1  0.25000000  0.37976600  0.23903100  1
  S  S59  1  0.25000000  0.87976600  0.26096900  1
  S  S60  1  0.25000000  0.28975600  0.07957400  1
  S  S61  1  0.25000000  0.59734500  0.46660600  1
  S  S62  1  0.75000000  0.12023400  0.73903100  1
  S  S63  1  0.75000000  0.40265500  0.53339400  1
  S  S64  1  0.75000000  0.17724200  0.91097000  1
  S  S65  1  0.75000000  0.67724200  0.58903000  1
  S  S66  1  0.75000000  0.51454300  0.17754600  1
  S  S67  1  0.25000000  0.48545700  0.82245400  1
  S  S68  1  0.25000000  0.78975600  0.42042600  1
  S  S69  1  0.25000000  0.98545700  0.67754600  1
  S  S70  1  0.75000000  0.21024400  0.57957400  1
  S  S71  1  0.75000000  0.71024400  0.92042600  1
  S  S72  1  0.25000000  0.32275800  0.41097000  1
  S  S73  1  0.25000000  0.82275800  0.08903000  1
  S  S74  1  0.75000000  0.62023400  0.76096900  1
  S  S75  1  0.75000000  0.01454300  0.32245400  1
