# generated using pymatgen
data_Re3Se4Br
_symmetry_space_group_name_H-M   'P 1'
_cell_length_a   12.09168200
_cell_length_b   6.70580400
_cell_length_c   11.36551158
_cell_angle_alpha   65.10069147
_cell_angle_beta   90.00000000
_cell_angle_gamma   90.00000000
_symmetry_Int_Tables_number   1
_chemical_formula_structural   Re3Se4Br
_chemical_formula_sum   'Re12 Se16 Br4'
_cell_volume   835.90583363
_cell_formula_units_Z   4
loop_
 _symmetry_equiv_pos_site_id
 _symmetry_equiv_pos_as_xyz
  1  'x, y, z'
loop_
 _atom_site_type_symbol
 _atom_site_label
 _atom_site_symmetry_multiplicity
 _atom_site_fract_x
 _atom_site_fract_y
 _atom_site_fract_z
 _atom_site_occupancy
  Re  Re0  1  0.02002300  0.69678900  0.06258300  1
  Re  Re1  1  0.06521300  0.03648300  0.84177200  1
  Re  Re2  1  0.85867600  0.97105900  0.93859100  1
  Re  Re3  1  0.56521300  0.96351700  0.65822800  1
  Re  Re4  1  0.97997700  0.30321100  0.93741700  1
  Re  Re5  1  0.64132400  0.97105900  0.43859100  1
  Re  Re6  1  0.14132400  0.02894100  0.06140900  1
  Re  Re7  1  0.52002300  0.30321100  0.43741700  1
  Re  Re8  1  0.47997700  0.69678900  0.56258300  1
  Re  Re9  1  0.43478700  0.03648300  0.34177200  1
  Re  Re10  1  0.35867600  0.02894100  0.56140900  1
  Re  Re11  1  0.93478700  0.96351700  0.15822800  1
  Se  Se12  1  0.40902000  0.69908300  0.77154100  1
  Se  Se13  1  0.44099900  0.26465700  0.66644300  1
  Se  Se14  1  0.90902000  0.30091700  0.72845900  1
  Se  Se15  1  0.82618700  0.64426800  0.15574000  1
  Se  Se16  1  0.17381300  0.35573200  0.84426000  1
  Se  Se17  1  0.32618700  0.35573200  0.34426000  1
  Se  Se18  1  0.28530900  0.76881300  0.47207000  1
  Se  Se19  1  0.09098000  0.69908300  0.27154100  1
  Se  Se20  1  0.78530900  0.23118700  0.02793000  1
  Se  Se21  1  0.55900100  0.73534300  0.33355700  1
  Se  Se22  1  0.94099900  0.73534300  0.83355700  1
  Se  Se23  1  0.21469100  0.76881300  0.97207000  1
  Se  Se24  1  0.67381300  0.64426800  0.65574000  1
  Se  Se25  1  0.71469100  0.23118700  0.52793000  1
  Se  Se26  1  0.59098000  0.30091700  0.22845900  1
  Se  Se27  1  0.05900100  0.26465700  0.16644300  1
  Br  Br28  1  0.64847900  0.90434100  0.88710500  1
  Br  Br29  1  0.14847900  0.09565900  0.61289500  1
  Br  Br30  1  0.85152100  0.90434100  0.38710500  1
  Br  Br31  1  0.35152100  0.09565900  0.11289500  1
