# generated using pymatgen
data_K2Fe2As2O9
_symmetry_space_group_name_H-M   'P 1'
_cell_length_a   5.84330600
_cell_length_b   8.67223700
_cell_length_c   18.26067100
_cell_angle_alpha   90.00000000
_cell_angle_beta   90.00000000
_cell_angle_gamma   90.00000000
_symmetry_Int_Tables_number   1
_chemical_formula_structural   K2Fe2As2O9
_chemical_formula_sum   'K8 Fe8 As8 O36'
_cell_volume   925.35100250
_cell_formula_units_Z   4
loop_
 _symmetry_equiv_pos_site_id
 _symmetry_equiv_pos_as_xyz
  1  'x, y, z'
loop_
 _atom_site_type_symbol
 _atom_site_label
 _atom_site_symmetry_multiplicity
 _atom_site_fract_x
 _atom_site_fract_y
 _atom_site_fract_z
 _atom_site_occupancy
  K  K0  1  0.75000000  0.45576200  0.76548800  1
  K  K1  1  0.25000000  0.59958800  0.63300700  1
  K  K2  1  0.75000000  0.95576200  0.73451200  1
  K  K3  1  0.75000000  0.40041200  0.36699300  1
  K  K4  1  0.25000000  0.04423800  0.26548800  1
  K  K5  1  0.25000000  0.54423800  0.23451200  1
  K  K6  1  0.25000000  0.09958800  0.86699300  1
  K  K7  1  0.75000000  0.90041200  0.13300700  1
  Fe  Fe8  1  0.25000000  0.21500800  0.06594300  1
  Fe  Fe9  1  0.75000000  0.28499200  0.56594300  1
  Fe  Fe10  1  0.25000000  0.71500800  0.43405700  1
  Fe  Fe11  1  0.50000000  0.00000000  0.50000000  1
  Fe  Fe12  1  0.75000000  0.78499200  0.93405700  1
  Fe  Fe13  1  0.00000000  0.50000000  0.00000000  1
  Fe  Fe14  1  0.50000000  0.50000000  0.00000000  1
  Fe  Fe15  1  0.00000000  0.00000000  0.50000000  1
  As  As16  1  0.25000000  0.32341500  0.44152900  1
  As  As17  1  0.25000000  0.18219200  0.64773900  1
  As  As18  1  0.75000000  0.31780800  0.14773900  1
  As  As19  1  0.75000000  0.67658500  0.55847100  1
  As  As20  1  0.75000000  0.81780800  0.35226100  1
  As  As21  1  0.25000000  0.68219200  0.85226100  1
  As  As22  1  0.75000000  0.17658500  0.94152900  1
  As  As23  1  0.25000000  0.82341500  0.05847100  1
  O  O24  1  0.75000000  0.95793200  0.42270700  1
  O  O25  1  0.49012400  0.80086300  0.86171700  1
  O  O26  1  0.00453000  0.23239800  0.47601600  1
  O  O27  1  0.49547000  0.23239800  0.47601600  1
  O  O28  1  0.75000000  0.91442900  0.27287300  1
  O  O29  1  0.25000000  0.50802900  0.47513800  1
  O  O30  1  0.50453000  0.26760200  0.97601600  1
  O  O31  1  0.25000000  0.94182400  0.43398800  1
  O  O32  1  0.25000000  0.44182400  0.06601200  1
  O  O33  1  0.25000000  0.04206800  0.57729300  1
  O  O34  1  0.25000000  0.31796900  0.34924700  1
  O  O35  1  0.99012400  0.19913700  0.13828300  1
  O  O36  1  0.25000000  0.58557100  0.77287300  1
  O  O37  1  0.49547000  0.73239800  0.02398400  1
  O  O38  1  0.25000000  0.54206800  0.92270700  1
  O  O39  1  0.00987600  0.80086300  0.86171700  1
  O  O40  1  0.75000000  0.45793200  0.07729300  1
  O  O41  1  0.75000000  0.55817600  0.93398800  1
  O  O42  1  0.50987600  0.19913700  0.13828300  1
  O  O43  1  0.50453000  0.76760200  0.52398400  1
  O  O44  1  0.75000000  0.18203100  0.84924700  1
  O  O45  1  0.75000000  0.99197100  0.97513800  1
  O  O46  1  0.00987600  0.30086300  0.63828300  1
  O  O47  1  0.25000000  0.08557100  0.72712700  1
  O  O48  1  0.99547000  0.26760200  0.97601600  1
  O  O49  1  0.75000000  0.41442900  0.22712700  1
  O  O50  1  0.00453000  0.73239800  0.02398400  1
  O  O51  1  0.99547000  0.76760200  0.52398400  1
  O  O52  1  0.25000000  0.00802900  0.02486200  1
  O  O53  1  0.99012400  0.69913700  0.36171700  1
  O  O54  1  0.25000000  0.81796900  0.15075300  1
  O  O55  1  0.75000000  0.05817600  0.56601200  1
  O  O56  1  0.49012400  0.30086300  0.63828300  1
  O  O57  1  0.75000000  0.49197100  0.52486200  1
  O  O58  1  0.75000000  0.68203100  0.65075300  1
  O  O59  1  0.50987600  0.69913700  0.36171700  1
