# generated using pymatgen
data_Li(Fe3Ge2)2
_symmetry_space_group_name_H-M   'P 1'
_cell_length_a   7.12417026
_cell_length_b   7.12417026
_cell_length_c   7.12417099
_cell_angle_alpha   41.49420531
_cell_angle_beta   41.49420531
_cell_angle_gamma   41.49420899
_symmetry_Int_Tables_number   1
_chemical_formula_structural   Li(Fe3Ge2)2
_chemical_formula_sum   'Li1 Fe6 Ge4'
_cell_volume   143.42917288
_cell_formula_units_Z   1
loop_
 _symmetry_equiv_pos_site_id
 _symmetry_equiv_pos_as_xyz
  1  'x, y, z'
loop_
 _atom_site_type_symbol
 _atom_site_label
 _atom_site_symmetry_multiplicity
 _atom_site_fract_x
 _atom_site_fract_y
 _atom_site_fract_z
 _atom_site_occupancy
  Li  Li0  1  0.00000000  0.00000000  0.00000000  1
  Fe  Fe1  1  0.39978500  0.88640800  0.39978500  1
  Fe  Fe2  1  0.11359200  0.60021500  0.60021500  1
  Fe  Fe3  1  0.60021500  0.60021500  0.11359200  1
  Fe  Fe4  1  0.60021500  0.11359200  0.60021500  1
  Fe  Fe5  1  0.39978500  0.39978500  0.88640800  1
  Fe  Fe6  1  0.88640800  0.39978500  0.39978500  1
  Ge  Ge7  1  0.12726000  0.12726000  0.12726000  1
  Ge  Ge8  1  0.33159300  0.33159300  0.33159300  1
  Ge  Ge9  1  0.66840700  0.66840700  0.66840700  1
  Ge  Ge10  1  0.87274000  0.87274000  0.87274000  1
