# generated using pymatgen
data_K2ZnGeO4
_symmetry_space_group_name_H-M   'P 1'
_cell_length_a   5.62939700
_cell_length_b   11.29272400
_cell_length_c   16.05042600
_cell_angle_alpha   90.00000000
_cell_angle_beta   90.00000000
_cell_angle_gamma   90.00000000
_symmetry_Int_Tables_number   1
_chemical_formula_structural   K2ZnGeO4
_chemical_formula_sum   'K16 Zn8 Ge8 O32'
_cell_volume   1020.34526839
_cell_formula_units_Z   8
loop_
 _symmetry_equiv_pos_site_id
 _symmetry_equiv_pos_as_xyz
  1  'x, y, z'
loop_
 _atom_site_type_symbol
 _atom_site_label
 _atom_site_symmetry_multiplicity
 _atom_site_fract_x
 _atom_site_fract_y
 _atom_site_fract_z
 _atom_site_occupancy
  K  K0  1  0.95525300  0.73477300  0.99501500  1
  K  K1  1  0.04474700  0.26522700  0.49501500  1
  K  K2  1  0.04474700  0.23477300  0.99501500  1
  K  K3  1  0.95525300  0.76522700  0.49501500  1
  K  K4  1  0.45371000  0.73208300  0.12767200  1
  K  K5  1  0.54629000  0.26791700  0.62767200  1
  K  K6  1  0.54629000  0.23208300  0.12767200  1
  K  K7  1  0.45371000  0.76791700  0.62767200  1
  K  K8  1  0.99400200  0.51506700  0.37356300  1
  K  K9  1  0.00599800  0.48493300  0.87356300  1
  K  K10  1  0.00599800  0.01506700  0.37356300  1
  K  K11  1  0.49154900  0.98644800  0.25289500  1
  K  K12  1  0.49154900  0.51355200  0.75289500  1
  K  K13  1  0.50845100  0.48644800  0.25289500  1
  K  K14  1  0.50845100  0.01355200  0.75289500  1
  K  K15  1  0.99400200  0.98493300  0.87356300  1
  Zn  Zn16  1  0.48630500  0.51012500  0.50167400  1
  Zn  Zn17  1  0.03017000  0.23910200  0.24800800  1
  Zn  Zn18  1  0.03017000  0.26089800  0.74800800  1
  Zn  Zn19  1  0.96983000  0.73910200  0.24800800  1
  Zn  Zn20  1  0.48630500  0.98987500  0.00167400  1
  Zn  Zn21  1  0.51369500  0.01012500  0.50167400  1
  Zn  Zn22  1  0.51369500  0.48987500  0.00167400  1
  Zn  Zn23  1  0.96983000  0.76089800  0.74800800  1
  Ge  Ge24  1  0.98345300  0.99018000  0.12355100  1
  Ge  Ge25  1  0.01654700  0.00982000  0.62355100  1
  Ge  Ge26  1  0.01654700  0.49018000  0.12355100  1
  Ge  Ge27  1  0.98345300  0.50982000  0.62355100  1
  Ge  Ge28  1  0.47305600  0.76450700  0.37781800  1
  Ge  Ge29  1  0.52694400  0.23549300  0.87781800  1
  Ge  Ge30  1  0.52694400  0.26450700  0.37781800  1
  Ge  Ge31  1  0.47305600  0.73549300  0.87781800  1
  O  O32  1  0.70782000  0.51314500  0.10442400  1
  O  O33  1  0.29218000  0.48685500  0.60442400  1
  O  O34  1  0.29218000  0.01314500  0.10442400  1
  O  O35  1  0.70782000  0.98685500  0.60442400  1
  O  O36  1  0.17721500  0.52525100  0.03058400  1
  O  O37  1  0.82278500  0.47474900  0.53058400  1
  O  O38  1  0.82278500  0.02525100  0.03058400  1
  O  O39  1  0.17721500  0.97474900  0.53058400  1
  O  O40  1  0.61100300  0.60100200  0.91129700  1
  O  O41  1  0.38899700  0.39899800  0.41129700  1
  O  O42  1  0.38899700  0.10100200  0.91129700  1
  O  O43  1  0.61100300  0.89899800  0.41129700  1
  O  O44  1  0.10268400  0.58442200  0.20775300  1
  O  O45  1  0.89731600  0.41557800  0.70775300  1
  O  O46  1  0.89731600  0.08442200  0.20775300  1
  O  O47  1  0.91032700  0.84029000  0.14963000  1
  O  O48  1  0.20315600  0.69360100  0.82744600  1
  O  O49  1  0.79684400  0.30639900  0.32744600  1
  O  O50  1  0.79684400  0.19360100  0.82744600  1
  O  O51  1  0.20315600  0.80639900  0.32744600  1
  O  O52  1  0.67208900  0.69246700  0.30777100  1
  O  O53  1  0.32791100  0.30753300  0.80777100  1
  O  O54  1  0.32791100  0.19246700  0.30777100  1
  O  O55  1  0.67208900  0.80753300  0.80777100  1
  O  O56  1  0.40981400  0.67489300  0.46639900  1
  O  O57  1  0.59018600  0.32510700  0.96639900  1
  O  O58  1  0.59018600  0.17489300  0.46639900  1
  O  O59  1  0.40981400  0.82510700  0.96639900  1
  O  O60  1  0.91032700  0.65971000  0.64963000  1
  O  O61  1  0.08967300  0.34029000  0.14963000  1
  O  O62  1  0.08967300  0.15971000  0.64963000  1
  O  O63  1  0.10268400  0.91557800  0.70775300  1
