# generated using pymatgen
data_Na2CdH4(SeO5)2
_symmetry_space_group_name_H-M   'P 1'
_cell_length_a   13.59348000
_cell_length_b   5.92411800
_cell_length_c   6.09664807
_cell_angle_alpha   73.46151141
_cell_angle_beta   90.00000000
_cell_angle_gamma   90.00000000
_symmetry_Int_Tables_number   1
_chemical_formula_structural   Na2CdH4(SeO5)2
_chemical_formula_sum   'Na4 Cd2 H8 Se4 O20'
_cell_volume   470.64767749
_cell_formula_units_Z   2
loop_
 _symmetry_equiv_pos_site_id
 _symmetry_equiv_pos_as_xyz
  1  'x, y, z'
loop_
 _atom_site_type_symbol
 _atom_site_label
 _atom_site_symmetry_multiplicity
 _atom_site_fract_x
 _atom_site_fract_y
 _atom_site_fract_z
 _atom_site_occupancy
  Na  Na0  1  0.62163000  0.25194600  0.57722700  1
  Na  Na1  1  0.12163000  0.24805400  0.42277300  1
  Na  Na2  1  0.37837000  0.74805400  0.42277300  1
  Na  Na3  1  0.87837000  0.75194600  0.57722700  1
  Cd  Cd4  1  0.50000000  0.50000000  0.00000000  1
  Cd  Cd5  1  0.00000000  0.00000000  0.00000000  1
  H  H6  1  0.70699900  0.49664800  0.90081900  1
  H  H7  1  0.20699900  0.00335200  0.09918100  1
  H  H8  1  0.29300100  0.50335200  0.09918100  1
  H  H9  1  0.79300100  0.99664800  0.90081900  1
  H  H10  1  0.65706800  0.67620900  0.68524800  1
  H  H11  1  0.15706800  0.82379100  0.31475200  1
  H  H12  1  0.34293200  0.32379100  0.31475200  1
  H  H13  1  0.84293200  0.17620900  0.68524800  1
  Se  Se14  1  0.61955000  0.92551400  0.23607100  1
  Se  Se15  1  0.11955000  0.57448600  0.76392900  1
  Se  Se16  1  0.38045000  0.07448600  0.76392900  1
  Se  Se17  1  0.88045000  0.42551400  0.23607100  1
  O  O18  1  0.67342900  0.98788500  0.98076200  1
  O  O19  1  0.17342900  0.51211500  0.01923800  1
  O  O20  1  0.32657100  0.01211500  0.01923800  1
  O  O21  1  0.82657100  0.48788500  0.98076200  1
  O  O22  1  0.55551200  0.67100700  0.28793600  1
  O  O23  1  0.05551200  0.82899300  0.71206400  1
  O  O24  1  0.44448800  0.32899300  0.71206400  1
  O  O25  1  0.94448800  0.17100700  0.28793600  1
  O  O26  1  0.54025100  0.14029900  0.25207900  1
  O  O27  1  0.04025100  0.35970100  0.74792100  1
  O  O28  1  0.45974900  0.85970100  0.74792100  1
  O  O29  1  0.95974900  0.64029900  0.25207900  1
  O  O30  1  0.69895000  0.90391500  0.45115700  1
  O  O31  1  0.19895000  0.59608500  0.54884300  1
  O  O32  1  0.30105000  0.09608500  0.54884300  1
  O  O33  1  0.80105000  0.40391500  0.45115700  1
  O  O34  1  0.64648700  0.52220000  0.80368300  1
  O  O35  1  0.14648700  0.97780000  0.19631700  1
  O  O36  1  0.35351300  0.47780000  0.19631700  1
  O  O37  1  0.85351300  0.02220000  0.80368300  1
