# generated using pymatgen
data_Cd3(PO4)2
_symmetry_space_group_name_H-M   'P 1'
_cell_length_a   10.52495300
_cell_length_b   9.34134100
_cell_length_c   22.49235650
_cell_angle_alpha   75.37334818
_cell_angle_beta   90.00000000
_cell_angle_gamma   90.00000000
_symmetry_Int_Tables_number   1
_chemical_formula_structural   Cd3(PO4)2
_chemical_formula_sum   'Cd36 P24 O96'
_cell_volume   2139.71797235
_cell_formula_units_Z   12
loop_
 _symmetry_equiv_pos_site_id
 _symmetry_equiv_pos_as_xyz
  1  'x, y, z'
loop_
 _atom_site_type_symbol
 _atom_site_label
 _atom_site_symmetry_multiplicity
 _atom_site_fract_x
 _atom_site_fract_y
 _atom_site_fract_z
 _atom_site_occupancy
  Cd  Cd0  1  0.70996800  0.88071600  0.36475500  1
  Cd  Cd1  1  0.29493300  0.80155000  0.29522300  1
  Cd  Cd2  1  0.39397200  0.51894700  0.58435100  1
  Cd  Cd3  1  0.78805300  0.50949600  0.54331600  1
  Cd  Cd4  1  0.20506700  0.80155000  0.79522300  1
  Cd  Cd5  1  0.59566300  0.87982200  0.56039800  1
  Cd  Cd6  1  0.10390400  0.78789500  0.60723200  1
  Cd  Cd7  1  0.21194700  0.49050400  0.45668400  1
  Cd  Cd8  1  0.89587800  0.14376700  0.57720700  1
  Cd  Cd9  1  0.71194700  0.50949600  0.04331600  1
  Cd  Cd10  1  0.29003200  0.11928400  0.63524500  1
  Cd  Cd11  1  0.70506700  0.19845000  0.70477700  1
  Cd  Cd12  1  0.89665700  0.80200800  0.24747000  1
  Cd  Cd13  1  0.60390400  0.21210500  0.89276800  1
  Cd  Cd14  1  0.79003200  0.88071600  0.86475500  1
  Cd  Cd15  1  0.39665700  0.19799200  0.25253000  1
  Cd  Cd16  1  0.10334300  0.19799200  0.75253000  1
  Cd  Cd17  1  0.58997600  0.57049200  0.21777400  1
  Cd  Cd18  1  0.20996800  0.11928400  0.13524500  1
  Cd  Cd19  1  0.28805300  0.49050400  0.95668400  1
  Cd  Cd20  1  0.10412200  0.85623300  0.42279300  1
  Cd  Cd21  1  0.79493300  0.19845000  0.20477700  1
  Cd  Cd22  1  0.08997600  0.42950800  0.28222600  1
  Cd  Cd23  1  0.41002400  0.42950800  0.78222600  1
  Cd  Cd24  1  0.60412200  0.14376700  0.07720700  1
  Cd  Cd25  1  0.39587800  0.85623300  0.92279300  1
  Cd  Cd26  1  0.60602800  0.48105300  0.41564900  1
  Cd  Cd27  1  0.09566300  0.12017800  0.93960200  1
  Cd  Cd28  1  0.60334300  0.80200800  0.74747000  1
  Cd  Cd29  1  0.90433700  0.87982200  0.06039800  1
  Cd  Cd30  1  0.40433700  0.12017800  0.43960200  1
  Cd  Cd31  1  0.89397200  0.48105300  0.91564900  1
  Cd  Cd32  1  0.89609600  0.21210500  0.39276800  1
  Cd  Cd33  1  0.39609600  0.78789500  0.10723200  1
  Cd  Cd34  1  0.91002400  0.57049200  0.71777400  1
  Cd  Cd35  1  0.10602800  0.51894700  0.08435100  1
  P  P36  1  0.14151800  0.47051500  0.83115600  1
  P  P37  1  0.36463100  0.78139500  0.67106000  1
  P  P38  1  0.64151800  0.52948500  0.66884400  1
  P  P39  1  0.43614000  0.75889800  0.43987300  1
  P  P40  1  0.35848200  0.47051500  0.33115600  1
  P  P41  1  0.57250000  0.92800100  0.22039100  1
  P  P42  1  0.57953000  0.57153900  0.89466300  1
  P  P43  1  0.06386000  0.75889800  0.93987300  1
  P  P44  1  0.85448200  0.87288600  0.49916200  1
  P  P45  1  0.14551800  0.12711400  0.50083800  1
  P  P46  1  0.64551800  0.87288600  0.99916200  1
  P  P47  1  0.07953000  0.42846100  0.60533700  1
  P  P48  1  0.42047000  0.42846100  0.10533700  1
  P  P49  1  0.92047000  0.57153900  0.39466300  1
  P  P50  1  0.07250000  0.07199900  0.27960900  1
  P  P51  1  0.63536900  0.21860500  0.32894000  1
  P  P52  1  0.86463100  0.21860500  0.82894000  1
  P  P53  1  0.13536900  0.78139500  0.17106000  1
  P  P54  1  0.42750000  0.07199900  0.77960900  1
  P  P55  1  0.56386000  0.24110200  0.56012700  1
  P  P56  1  0.35448200  0.12711400  0.00083800  1
  P  P57  1  0.85848200  0.52948500  0.16884400  1
  P  P58  1  0.93614000  0.24110200  0.06012700  1
  P  P59  1  0.92750000  0.92800100  0.72039100  1
  O  O60  1  0.30479800  0.69334000  0.62778600  1
  O  O61  1  0.46504100  0.62275200  0.92859700  1
  O  O62  1  0.25437400  0.87507700  0.68922200  1
  O  O63  1  0.04487900  0.95869800  0.75785300  1
  O  O64  1  0.74562600  0.12492300  0.31077800  1
  O  O65  1  0.18277800  0.14027900  0.23569700  1
  O  O66  1  0.14086600  0.04083000  0.57066400  1
  O  O67  1  0.70024900  0.63208000  0.70678300  1
  O  O68  1  0.81783100  0.49702900  0.44222700  1
  O  O69  1  0.91776100  0.32235300  0.76887700  1
  O  O70  1  0.53495900  0.37724800  0.07140300  1
  O  O71  1  0.29975100  0.36792000  0.29321700  1
  O  O72  1  0.17360400  0.82560400  0.89560500  1
  O  O73  1  0.45512100  0.95869800  0.25785300  1
  O  O74  1  0.41776100  0.67764700  0.73112300  1
  O  O75  1  0.31722200  0.14027900  0.73569700  1
  O  O76  1  0.00940300  0.18237500  0.48190200  1
  O  O77  1  0.24454900  0.25287800  0.49419600  1
  O  O78  1  0.03549400  0.54524400  0.63951900  1
  O  O79  1  0.86176200  0.70967700  0.34923800  1
  O  O80  1  0.35913400  0.04083000  0.07066400  1
  O  O81  1  0.68216900  0.49702900  0.94222700  1
  O  O82  1  0.03081600  0.89248900  0.13959300  1
  O  O83  1  0.96918400  0.10751100  0.86040700  1
  O  O84  1  0.64086600  0.95917000  0.92933600  1
  O  O85  1  0.50940300  0.81762500  0.01809800  1
  O  O86  1  0.13823800  0.29032300  0.65076200  1
  O  O87  1  0.94987900  0.41109400  0.20645000  1
  O  O88  1  0.53081600  0.10751100  0.36040700  1
  O  O89  1  0.54106300  0.82118800  0.17912600  1
  O  O90  1  0.92369700  0.62385700  0.10957900  1
  O  O91  1  0.19965800  0.02870800  0.45945500  1
  O  O92  1  0.95893700  0.82118800  0.67912600  1
  O  O93  1  0.05012100  0.58890600  0.79355000  1
  O  O94  1  0.42369700  0.37614300  0.39042100  1
  O  O95  1  0.57630300  0.62385700  0.60957900  1
  O  O96  1  0.30034200  0.02870800  0.95945500  1
  O  O97  1  0.58223900  0.32235300  0.26887700  1
  O  O98  1  0.67360400  0.17439600  0.60439500  1
  O  O99  1  0.46450600  0.54524400  0.13951900  1
  O  O100  1  0.61385600  0.08229000  0.17947400  1
  O  O101  1  0.88991800  0.39247300  0.01861500  1
  O  O102  1  0.61008200  0.39247300  0.51861500  1
  O  O103  1  0.80034200  0.97129200  0.54054500  1
  O  O104  1  0.63823800  0.70967700  0.84923800  1
  O  O105  1  0.18216900  0.50297100  0.55777300  1
  O  O106  1  0.97422500  0.13037500  0.02204100  1
  O  O107  1  0.96504100  0.37724800  0.57140300  1
  O  O108  1  0.38991800  0.60752700  0.48138500  1
  O  O109  1  0.47422500  0.86962500  0.47795900  1
  O  O110  1  0.24310700  0.55580200  0.35036900  1
  O  O111  1  0.96450600  0.45475600  0.36048100  1
  O  O112  1  0.44987900  0.58890600  0.29355000  1
  O  O113  1  0.52577500  0.13037500  0.52204100  1
  O  O114  1  0.74454900  0.74712200  0.00580400  1
  O  O115  1  0.53549400  0.45475600  0.86048100  1
  O  O116  1  0.32639600  0.82560400  0.39560500  1
  O  O117  1  0.38614400  0.91771000  0.82052600  1
  O  O118  1  0.75689300  0.44419800  0.64963100  1
  O  O119  1  0.20024900  0.36792000  0.79321700  1
  O  O120  1  0.69965800  0.97129200  0.04054500  1
  O  O121  1  0.79975100  0.63208000  0.20678300  1
  O  O122  1  0.05539800  0.27714900  0.09612600  1
  O  O123  1  0.85913400  0.95917000  0.42933600  1
  O  O124  1  0.44460200  0.27714900  0.59612600  1
  O  O125  1  0.68277800  0.85972100  0.26430300  1
  O  O126  1  0.99059700  0.81762500  0.51809800  1
  O  O127  1  0.54487900  0.04130200  0.74214700  1
  O  O128  1  0.55539800  0.72285100  0.40387400  1
  O  O129  1  0.11008200  0.60752700  0.98138500  1
  O  O130  1  0.25689300  0.55580200  0.85036900  1
  O  O131  1  0.95512100  0.04130200  0.24214700  1
  O  O132  1  0.94460200  0.72285100  0.90387400  1
  O  O133  1  0.55012100  0.41109400  0.70645000  1
  O  O134  1  0.49059700  0.18237500  0.98190200  1
  O  O135  1  0.69520200  0.30666000  0.37221400  1
  O  O136  1  0.46918400  0.89248900  0.63959300  1
  O  O137  1  0.80479800  0.30666000  0.87221400  1
  O  O138  1  0.75437400  0.12492300  0.81077800  1
  O  O139  1  0.74310700  0.44419800  0.14963100  1
  O  O140  1  0.88614400  0.08229000  0.67947400  1
  O  O141  1  0.36176200  0.29032300  0.15076200  1
  O  O142  1  0.03495900  0.62275200  0.42859700  1
  O  O143  1  0.08223900  0.67764700  0.23112300  1
  O  O144  1  0.25545100  0.25287800  0.99419600  1
  O  O145  1  0.11385600  0.91771000  0.32052600  1
  O  O146  1  0.07630300  0.37614300  0.89042100  1
  O  O147  1  0.04106300  0.17881200  0.32087400  1
  O  O148  1  0.19520200  0.69334000  0.12778600  1
  O  O149  1  0.31783100  0.50297100  0.05777300  1
  O  O150  1  0.02577500  0.86962500  0.97795900  1
  O  O151  1  0.24562600  0.87507700  0.18922200  1
  O  O152  1  0.82639600  0.17439600  0.10439500  1
  O  O153  1  0.45893700  0.17881200  0.82087400  1
  O  O154  1  0.81722200  0.85972100  0.76430300  1
  O  O155  1  0.75545100  0.74712200  0.50580400  1
