# generated using pymatgen
data_Yb5(InSb3)2
_symmetry_space_group_name_H-M   'P 1'
_cell_length_a   4.54652600
_cell_length_b   7.45771100
_cell_length_c   23.15854600
_cell_angle_alpha   90.00000000
_cell_angle_beta   90.00000000
_cell_angle_gamma   90.00000000
_symmetry_Int_Tables_number   1
_chemical_formula_structural   Yb5(InSb3)2
_chemical_formula_sum   'Yb10 In4 Sb12'
_cell_volume   785.22933813
_cell_formula_units_Z   2
loop_
 _symmetry_equiv_pos_site_id
 _symmetry_equiv_pos_as_xyz
  1  'x, y, z'
loop_
 _atom_site_type_symbol
 _atom_site_label
 _atom_site_symmetry_multiplicity
 _atom_site_fract_x
 _atom_site_fract_y
 _atom_site_fract_z
 _atom_site_occupancy
  Yb  Yb0  1  0.50000000  0.04148200  0.91025600  1
  Yb  Yb1  1  0.50000000  0.54148200  0.58974400  1
  Yb  Yb2  1  0.50000000  0.95851800  0.08974400  1
  Yb  Yb3  1  0.50000000  0.23091200  0.74433900  1
  Yb  Yb4  1  0.50000000  0.45851800  0.41025600  1
  Yb  Yb5  1  0.50000000  0.50000000  0.00000000  1
  Yb  Yb6  1  0.50000000  0.26908800  0.24433900  1
  Yb  Yb7  1  0.50000000  0.76908800  0.25566100  1
  Yb  Yb8  1  0.50000000  0.73091200  0.75566100  1
  Yb  Yb9  1  0.50000000  0.00000000  0.50000000  1
  In  In10  1  0.00000000  0.32309500  0.12010700  1
  In  In11  1  0.00000000  0.67690500  0.87989300  1
  In  In12  1  0.00000000  0.82309500  0.37989300  1
  In  In13  1  0.00000000  0.17690500  0.62010700  1
  Sb  Sb14  1  0.00000000  0.69729900  0.50126300  1
  Sb  Sb15  1  0.50000000  0.04882300  0.36300100  1
  Sb  Sb16  1  0.00000000  0.00463600  0.18981800  1
  Sb  Sb17  1  0.00000000  0.50463600  0.31018200  1
  Sb  Sb18  1  0.00000000  0.99536400  0.81018200  1
  Sb  Sb19  1  0.00000000  0.49536400  0.68981800  1
  Sb  Sb20  1  0.50000000  0.45117700  0.86300100  1
  Sb  Sb21  1  0.00000000  0.19729900  0.99873700  1
  Sb  Sb22  1  0.50000000  0.54882300  0.13699900  1
  Sb  Sb23  1  0.00000000  0.30270100  0.49873700  1
  Sb  Sb24  1  0.00000000  0.80270100  0.00126300  1
  Sb  Sb25  1  0.50000000  0.95117700  0.63699900  1
