# generated using pymatgen
data_Pr7C3I10
_symmetry_space_group_name_H-M   'P 1'
_cell_length_a   9.79203600
_cell_length_b   11.84196809
_cell_length_c   14.07076193
_cell_angle_alpha   79.37036089
_cell_angle_beta   71.46137352
_cell_angle_gamma   66.17272405
_symmetry_Int_Tables_number   1
_chemical_formula_structural   Pr7C3I10
_chemical_formula_sum   'Pr14 C6 I20'
_cell_volume   1412.13425770
_cell_formula_units_Z   2
loop_
 _symmetry_equiv_pos_site_id
 _symmetry_equiv_pos_as_xyz
  1  'x, y, z'
loop_
 _atom_site_type_symbol
 _atom_site_label
 _atom_site_symmetry_multiplicity
 _atom_site_fract_x
 _atom_site_fract_y
 _atom_site_fract_z
 _atom_site_occupancy
  Pr  Pr0  1  0.62373800  0.07066700  0.35979400  1
  Pr  Pr1  1  0.86740700  0.72239700  0.41327600  1
  Pr  Pr2  1  0.95119700  0.57962700  0.16635500  1
  Pr  Pr3  1  0.04837300  0.88393200  0.17706400  1
  Pr  Pr4  1  0.25465400  0.04838700  0.91989800  1
  Pr  Pr5  1  0.74534600  0.95161300  0.08010200  1
  Pr  Pr6  1  0.04880300  0.42037300  0.83364500  1
  Pr  Pr7  1  0.54232100  0.79250000  0.30835900  1
  Pr  Pr8  1  0.16524900  0.75903300  0.90009500  1
  Pr  Pr9  1  0.13259300  0.27760300  0.58672400  1
  Pr  Pr10  1  0.95162700  0.11606800  0.82293600  1
  Pr  Pr11  1  0.83475100  0.24096700  0.09990500  1
  Pr  Pr12  1  0.37626200  0.92933300  0.64020600  1
  Pr  Pr13  1  0.45767900  0.20750000  0.69164100  1
  C  C14  1  0.16782900  0.22532800  0.76969900  1
  C  C15  1  0.24355000  0.11239900  0.72464000  1
  C  C16  1  0.96082900  0.05655600  0.02242300  1
  C  C17  1  0.75645000  0.88760100  0.27536000  1
  C  C18  1  0.03917100  0.94344400  0.97757700  1
  C  C19  1  0.83217100  0.77467200  0.23030100  1
  I  I20  1  0.06928400  0.86824400  0.69601300  1
  I  I21  1  0.60306900  0.07876900  0.87726700  1
  I  I22  1  0.50361200  0.22033500  0.16953800  1
  I  I23  1  0.28149000  0.60681300  0.09103600  1
  I  I24  1  0.95895900  0.56542800  0.63762200  1
  I  I25  1  0.39693100  0.92123100  0.12273300  1
  I  I26  1  0.49638800  0.77966500  0.83046200  1
  I  I27  1  0.93071600  0.13175600  0.30398700  1
  I  I28  1  0.56648500  0.65528700  0.52071800  1
  I  I29  1  0.14574000  0.30394800  0.04166800  1
  I  I30  1  0.04104100  0.43457200  0.36237800  1
  I  I31  1  0.43351500  0.34471300  0.47928200  1
  I  I32  1  0.71490700  0.95304300  0.56934800  1
  I  I33  1  0.28509300  0.04695700  0.43065200  1
  I  I34  1  0.64473900  0.52429600  0.22481800  1
  I  I35  1  0.71851000  0.39318700  0.90896400  1
  I  I36  1  0.81325100  0.24762900  0.62556900  1
  I  I37  1  0.35526100  0.47570400  0.77518200  1
  I  I38  1  0.85426000  0.69605200  0.95833200  1
  I  I39  1  0.18674900  0.75237100  0.37443100  1
