# generated using pymatgen
data_CsCdCl3
_symmetry_space_group_name_H-M   'P 1'
_cell_length_a   7.57508967
_cell_length_b   7.57508967
_cell_length_c   18.87334000
_cell_angle_alpha   90.00000000
_cell_angle_beta   90.00000000
_cell_angle_gamma   119.99999716
_symmetry_Int_Tables_number   1
_chemical_formula_structural   CsCdCl3
_chemical_formula_sum   'Cs6 Cd6 Cl18'
_cell_volume   937.89660689
_cell_formula_units_Z   6
loop_
 _symmetry_equiv_pos_site_id
 _symmetry_equiv_pos_as_xyz
  1  'x, y, z'
loop_
 _atom_site_type_symbol
 _atom_site_label
 _atom_site_symmetry_multiplicity
 _atom_site_fract_x
 _atom_site_fract_y
 _atom_site_fract_z
 _atom_site_occupancy
  Cs  Cs0  1  0.33333300  0.66666700  0.09015100  1
  Cs  Cs1  1  0.66666700  0.33333300  0.90984900  1
  Cs  Cs2  1  0.66666700  0.33333300  0.59015100  1
  Cs  Cs3  1  0.00000000  0.00000000  0.25000000  1
  Cs  Cs4  1  0.33333300  0.66666700  0.40984900  1
  Cs  Cs5  1  0.00000000  0.00000000  0.75000000  1
  Cd  Cd6  1  0.66666700  0.33333300  0.33948200  1
  Cd  Cd7  1  0.33333300  0.66666700  0.66051800  1
  Cd  Cd8  1  0.66666700  0.33333300  0.16051800  1
  Cd  Cd9  1  0.00000000  0.00000000  0.50000000  1
  Cd  Cd10  1  0.33333300  0.66666700  0.83948200  1
  Cd  Cd11  1  0.00000000  0.00000000  0.00000000  1
  Cl  Cl12  1  0.83558200  0.16441800  0.08255100  1
  Cl  Cl13  1  0.83558200  0.67116400  0.08255100  1
  Cl  Cl14  1  0.83558200  0.16441800  0.41744900  1
  Cl  Cl15  1  0.16441800  0.32883600  0.58255100  1
  Cl  Cl16  1  0.83558200  0.67116400  0.41744900  1
  Cl  Cl17  1  0.98516500  0.49258300  0.25000000  1
  Cl  Cl18  1  0.32883600  0.16441800  0.08255100  1
  Cl  Cl19  1  0.50741700  0.49258300  0.25000000  1
  Cl  Cl20  1  0.32883600  0.16441800  0.41744900  1
  Cl  Cl21  1  0.67116400  0.83558200  0.91744900  1
  Cl  Cl22  1  0.16441800  0.83558200  0.91744900  1
  Cl  Cl23  1  0.16441800  0.83558200  0.58255100  1
  Cl  Cl24  1  0.67116400  0.83558200  0.58255100  1
  Cl  Cl25  1  0.50741700  0.01483500  0.25000000  1
  Cl  Cl26  1  0.16441800  0.32883600  0.91744900  1
  Cl  Cl27  1  0.49258300  0.98516500  0.75000000  1
  Cl  Cl28  1  0.49258300  0.50741700  0.75000000  1
  Cl  Cl29  1  0.01483500  0.50741700  0.75000000  1
