# generated using pymatgen
data_CsAl(H2N)4
_symmetry_space_group_name_H-M   'P 1'
_cell_length_a   7.82377400
_cell_length_b   7.82377400
_cell_length_c   5.32525200
_cell_angle_alpha   90.00000000
_cell_angle_beta   90.00000000
_cell_angle_gamma   90.00000000
_symmetry_Int_Tables_number   1
_chemical_formula_structural   CsAl(H2N)4
_chemical_formula_sum   'Cs2 Al2 H16 N8'
_cell_volume   325.96634117
_cell_formula_units_Z   2
loop_
 _symmetry_equiv_pos_site_id
 _symmetry_equiv_pos_as_xyz
  1  'x, y, z'
loop_
 _atom_site_type_symbol
 _atom_site_label
 _atom_site_symmetry_multiplicity
 _atom_site_fract_x
 _atom_site_fract_y
 _atom_site_fract_z
 _atom_site_occupancy
  Cs  Cs0  1  0.00000000  0.50000000  0.71364000  1
  Cs  Cs1  1  0.50000000  0.00000000  0.28636000  1
  Al  Al2  1  0.50000000  0.50000000  0.00000000  1
  Al  Al3  1  0.00000000  0.00000000  0.00000000  1
  H  H4  1  0.17393400  0.05564900  0.59880800  1
  H  H5  1  0.82606600  0.94435100  0.59880800  1
  H  H6  1  0.55564900  0.32606600  0.59880800  1
  H  H7  1  0.44435100  0.67393400  0.59880800  1
  H  H8  1  0.32606600  0.44435100  0.40119200  1
  H  H9  1  0.67393400  0.55564900  0.40119200  1
  H  H10  1  0.94435100  0.17393400  0.40119200  1
  H  H11  1  0.05564900  0.82606600  0.40119200  1
  H  H12  1  0.27262700  0.14799400  0.83820600  1
  H  H13  1  0.72737300  0.85200600  0.83820600  1
  H  H14  1  0.64799400  0.22737300  0.83820600  1
  H  H15  1  0.35200600  0.77262700  0.83820600  1
  H  H16  1  0.22737300  0.35200600  0.16179400  1
  H  H17  1  0.77262700  0.64799400  0.16179400  1
  H  H18  1  0.85200600  0.27262700  0.16179400  1
  H  H19  1  0.14799400  0.72737300  0.16179400  1
  N  N20  1  0.16077200  0.09267800  0.78111200  1
  N  N21  1  0.83922800  0.90732200  0.78111200  1
  N  N22  1  0.59267800  0.33922800  0.78111200  1
  N  N23  1  0.40732200  0.66077200  0.78111200  1
  N  N24  1  0.33922800  0.40732200  0.21888800  1
  N  N25  1  0.66077200  0.59267800  0.21888800  1
  N  N26  1  0.90732200  0.16077200  0.21888800  1
  N  N27  1  0.09267800  0.83922800  0.21888800  1
