# generated using pymatgen
data_RbHSeO4
_symmetry_space_group_name_H-M   'P 1'
_cell_length_a   4.66158800
_cell_length_b   7.69737100
_cell_length_c   13.21307300
_cell_angle_alpha   90.00000000
_cell_angle_beta   90.00000000
_cell_angle_gamma   90.00000000
_symmetry_Int_Tables_number   1
_chemical_formula_structural   RbHSeO4
_chemical_formula_sum   'Rb4 H4 Se4 O16'
_cell_volume   474.11111919
_cell_formula_units_Z   4
loop_
 _symmetry_equiv_pos_site_id
 _symmetry_equiv_pos_as_xyz
  1  'x, y, z'
loop_
 _atom_site_type_symbol
 _atom_site_label
 _atom_site_symmetry_multiplicity
 _atom_site_fract_x
 _atom_site_fract_y
 _atom_site_fract_z
 _atom_site_occupancy
  Rb  Rb0  1  0.81612500  0.44884400  0.87792400  1
  Rb  Rb1  1  0.18387500  0.94884400  0.62207600  1
  Rb  Rb2  1  0.68387500  0.55115600  0.37792400  1
  Rb  Rb3  1  0.31612600  0.05115600  0.12207600  1
  H  H4  1  0.28090900  0.82633200  0.88784100  1
  H  H5  1  0.71909100  0.32633200  0.61215900  1
  H  H6  1  0.21909100  0.17366800  0.38784100  1
  H  H7  1  0.78090900  0.67366800  0.11215900  1
  Se  Se8  1  0.73004900  0.95852400  0.87388500  1
  Se  Se9  1  0.26995100  0.45852400  0.62611500  1
  Se  Se10  1  0.76995100  0.04147600  0.37388500  1
  Se  Se11  1  0.23004900  0.54147600  0.12611500  1
  O  O12  1  0.57998900  0.07069400  0.78178300  1
  O  O13  1  0.42001100  0.57069400  0.71821700  1
  O  O14  1  0.92001100  0.92930600  0.28178300  1
  O  O15  1  0.07998900  0.42930600  0.21821700  1
  O  O16  1  0.83963700  0.08111800  0.96930300  1
  O  O17  1  0.16036300  0.58111800  0.53069700  1
  O  O18  1  0.66036300  0.91888200  0.46930300  1
  O  O19  1  0.33963700  0.41888200  0.03069700  1
  O  O20  1  0.98606100  0.82571700  0.83086900  1
  O  O21  1  0.01393900  0.32571700  0.66913100  1
  O  O22  1  0.51393900  0.17428300  0.33086900  1
  O  O23  1  0.48606100  0.67428300  0.16913100  1
  O  O24  1  0.47055800  0.81689600  0.92810400  1
  O  O25  1  0.52944200  0.31689600  0.57189600  1
  O  O26  1  0.02944200  0.18310400  0.42810400  1
  O  O27  1  0.97055800  0.68310400  0.07189600  1
