# generated using pymatgen
data_Ti2Sn3
_symmetry_space_group_name_H-M   'P 1'
_cell_length_a   10.48788348
_cell_length_b   10.48788348
_cell_length_c   7.05846000
_cell_angle_alpha   90.00000000
_cell_angle_beta   90.00000000
_cell_angle_gamma   146.80235218
_symmetry_Int_Tables_number   1
_chemical_formula_structural   Ti2Sn3
_chemical_formula_sum   'Ti8 Sn12'
_cell_volume   425.10155135
_cell_formula_units_Z   4
loop_
 _symmetry_equiv_pos_site_id
 _symmetry_equiv_pos_as_xyz
  1  'x, y, z'
loop_
 _atom_site_type_symbol
 _atom_site_label
 _atom_site_symmetry_multiplicity
 _atom_site_fract_x
 _atom_site_fract_y
 _atom_site_fract_z
 _atom_site_occupancy
  Ti  Ti0  1  0.08080600  0.91919400  0.95194700  1
  Ti  Ti1  1  0.58669800  0.91330200  0.75000000  1
  Ti  Ti2  1  0.91330200  0.58669800  0.25000000  1
  Ti  Ti3  1  0.41330200  0.08669800  0.25000000  1
  Ti  Ti4  1  0.58080600  0.41919400  0.54805300  1
  Ti  Ti5  1  0.08669800  0.41330200  0.75000000  1
  Ti  Ti6  1  0.91919400  0.08080600  0.04805300  1
  Ti  Ti7  1  0.41919400  0.58080600  0.45194700  1
  Sn  Sn8  1  0.22460500  0.77539500  0.92705100  1
  Sn  Sn9  1  0.87797100  0.12202900  0.42595400  1
  Sn  Sn10  1  0.72460500  0.27539500  0.57294900  1
  Sn  Sn11  1  0.27539500  0.72460500  0.42705100  1
  Sn  Sn12  1  0.77069500  0.72930500  0.25000000  1
  Sn  Sn13  1  0.12202900  0.87797100  0.57404600  1
  Sn  Sn14  1  0.37797100  0.62202900  0.07404600  1
  Sn  Sn15  1  0.72930500  0.77069500  0.75000000  1
  Sn  Sn16  1  0.77539500  0.22460500  0.07294900  1
  Sn  Sn17  1  0.27069500  0.22930500  0.25000000  1
  Sn  Sn18  1  0.22930500  0.27069500  0.75000000  1
  Sn  Sn19  1  0.62202900  0.37797100  0.92595400  1
