# generated using pymatgen
data_P2WO8
_symmetry_space_group_name_H-M   'P 1'
_cell_length_a   8.51056684
_cell_length_b   8.51056684
_cell_length_c   6.99866820
_cell_angle_alpha   79.35247801
_cell_angle_beta   79.35247801
_cell_angle_gamma   35.89930068
_symmetry_Int_Tables_number   1
_chemical_formula_structural   P2WO8
_chemical_formula_sum   'P4 W2 O16'
_cell_volume   291.57412734
_cell_formula_units_Z   2
loop_
 _symmetry_equiv_pos_site_id
 _symmetry_equiv_pos_as_xyz
  1  'x, y, z'
loop_
 _atom_site_type_symbol
 _atom_site_label
 _atom_site_symmetry_multiplicity
 _atom_site_fract_x
 _atom_site_fract_y
 _atom_site_fract_z
 _atom_site_occupancy
  P  P0  1  0.66224200  0.66224200  0.38372000  1
  P  P1  1  0.66391000  0.66391000  0.95381000  1
  P  P2  1  0.33775800  0.33775800  0.61628000  1
  P  P3  1  0.33609000  0.33609000  0.04619000  1
  W  W4  1  0.89334700  0.89334700  0.29957600  1
  W  W5  1  0.10665300  0.10665300  0.70042400  1
  O  O6  1  0.84917200  0.38102300  0.89031400  1
  O  O7  1  0.61897700  0.15082800  0.10968600  1
  O  O8  1  0.37106000  0.37106000  0.81415200  1
  O  O9  1  0.38102300  0.84917200  0.89031400  1
  O  O10  1  0.85576500  0.38431500  0.49381700  1
  O  O11  1  0.61568500  0.14423500  0.50618300  1
  O  O12  1  0.62894000  0.62894000  0.18584800  1
  O  O13  1  0.15082800  0.61897700  0.10968600  1
  O  O14  1  0.75558900  0.75558900  0.88751600  1
  O  O15  1  0.00206600  0.00206600  0.25837900  1
  O  O16  1  0.24368500  0.24368500  0.64135700  1
  O  O17  1  0.75631500  0.75631500  0.35864300  1
  O  O18  1  0.38431500  0.85576500  0.49381700  1
  O  O19  1  0.24441100  0.24441100  0.11248400  1
  O  O20  1  0.14423500  0.61568500  0.50618300  1
  O  O21  1  0.99793400  0.99793400  0.74162100  1
