# generated using pymatgen
data_KNd(PO3)4
_symmetry_space_group_name_H-M   'P 1'
_cell_length_a   8.59038100
_cell_length_b   7.41405000
_cell_length_c   8.10889713
_cell_angle_alpha   88.25090952
_cell_angle_beta   90.00000000
_cell_angle_gamma   90.00000000
_symmetry_Int_Tables_number   1
_chemical_formula_structural   KNd(PO3)4
_chemical_formula_sum   'K2 Nd2 P8 O24'
_cell_volume   516.21109207
_cell_formula_units_Z   2
loop_
 _symmetry_equiv_pos_site_id
 _symmetry_equiv_pos_as_xyz
  1  'x, y, z'
loop_
 _atom_site_type_symbol
 _atom_site_label
 _atom_site_symmetry_multiplicity
 _atom_site_fract_x
 _atom_site_fract_y
 _atom_site_fract_z
 _atom_site_occupancy
  K  K0  1  0.43636800  0.26863100  0.28253300  1
  K  K1  1  0.93636800  0.73136900  0.71746700  1
  Nd  Nd2  1  0.25035800  0.76324200  0.24175700  1
  Nd  Nd3  1  0.75035800  0.23675800  0.75824300  1
  P  P4  1  0.40000000  0.99772000  0.61807600  1
  P  P5  1  0.90000000  0.00228000  0.38192400  1
  P  P6  1  0.99921900  0.38230900  0.39499300  1
  P  P7  1  0.49921900  0.61769100  0.60500700  1
  P  P8  1  0.87486500  0.56788700  0.09585500  1
  P  P9  1  0.37486500  0.43211300  0.90414500  1
  P  P10  1  0.67247900  0.89972000  0.10472700  1
  P  P11  1  0.17247900  0.10028000  0.89527300  1
  O  O12  1  0.43917100  0.60731100  0.43205400  1
  O  O13  1  0.93917100  0.39268900  0.56794600  1
  O  O14  1  0.20418300  0.02967700  0.06770100  1
  O  O15  1  0.70418300  0.97032300  0.93229900  1
  O  O16  1  0.15254700  0.46706500  0.35096700  1
  O  O17  1  0.65254700  0.53293500  0.64903300  1
  O  O18  1  0.36511500  0.54019900  0.72866600  1
  O  O19  1  0.86511500  0.45980100  0.27133400  1
  O  O20  1  0.50914100  0.82522200  0.65821800  1
  O  O21  1  0.00914100  0.17477800  0.34178200  1
  O  O22  1  0.30341600  0.96884000  0.46664900  1
  O  O23  1  0.80341600  0.03116000  0.53335100  1
  O  O24  1  0.01192800  0.08833000  0.82465500  1
  O  O25  1  0.51192800  0.91167000  0.17534500  1
  O  O26  1  0.72214700  0.69078000  0.12158000  1
  O  O27  1  0.22214700  0.30922000  0.87842000  1
  O  O28  1  0.79113500  0.00901100  0.22096000  1
  O  O29  1  0.29113500  0.99098900  0.77904000  1
  O  O30  1  0.00255600  0.83816500  0.38506200  1
  O  O31  1  0.50255600  0.16183500  0.61493800  1
  O  O32  1  0.01779900  0.68205700  0.07373300  1
  O  O33  1  0.51779900  0.31794300  0.92626700  1
  O  O34  1  0.84267200  0.43961300  0.96017100  1
  O  O35  1  0.34267200  0.56038700  0.03982900  1
