# generated using pymatgen
data_Nd2MoC2
_symmetry_space_group_name_H-M   'P 1'
_cell_length_a   5.84131300
_cell_length_b   5.84131300
_cell_length_c   10.38541300
_cell_angle_alpha   90.00000000
_cell_angle_beta   90.00000000
_cell_angle_gamma   90.00000000
_symmetry_Int_Tables_number   1
_chemical_formula_structural   Nd2MoC2
_chemical_formula_sum   'Nd8 Mo4 C8'
_cell_volume   354.36002855
_cell_formula_units_Z   4
loop_
 _symmetry_equiv_pos_site_id
 _symmetry_equiv_pos_as_xyz
  1  'x, y, z'
loop_
 _atom_site_type_symbol
 _atom_site_label
 _atom_site_symmetry_multiplicity
 _atom_site_fract_x
 _atom_site_fract_y
 _atom_site_fract_z
 _atom_site_occupancy
  Nd  Nd0  1  0.19814500  0.80185500  0.15595400  1
  Nd  Nd1  1  0.80185500  0.19814500  0.84404600  1
  Nd  Nd2  1  0.19814500  0.80185500  0.84404600  1
  Nd  Nd3  1  0.30185500  0.30185500  0.34404600  1
  Nd  Nd4  1  0.69814500  0.69814500  0.34404600  1
  Nd  Nd5  1  0.30185500  0.30185500  0.65595400  1
  Nd  Nd6  1  0.80185500  0.19814500  0.15595400  1
  Nd  Nd7  1  0.69814500  0.69814500  0.65595400  1
  Mo  Mo8  1  0.32405900  0.32405900  0.00000000  1
  Mo  Mo9  1  0.17594100  0.82405900  0.50000000  1
  Mo  Mo10  1  0.67594100  0.67594100  0.00000000  1
  Mo  Mo11  1  0.82405900  0.17594100  0.50000000  1
  C  C12  1  0.00000000  0.50000000  0.50000000  1
  C  C13  1  0.00000000  0.00000000  0.35595500  1
  C  C14  1  0.50000000  0.00000000  0.00000000  1
  C  C15  1  0.00000000  0.00000000  0.64404500  1
  C  C16  1  0.50000000  0.50000000  0.85595500  1
  C  C17  1  0.50000000  0.50000000  0.14404500  1
  C  C18  1  0.50000000  0.00000000  0.50000000  1
  C  C19  1  0.00000000  0.50000000  0.00000000  1
