# generated using pymatgen
data_ZrRh
_symmetry_space_group_name_H-M   'P 1'
_cell_length_a   4.49217600
_cell_length_b   5.35964100
_cell_length_c   6.15426500
_cell_angle_alpha   90.00000000
_cell_angle_beta   90.00000000
_cell_angle_gamma   90.00000000
_symmetry_Int_Tables_number   1
_chemical_formula_structural   ZrRh
_chemical_formula_sum   'Zr4 Rh4'
_cell_volume   148.17285768
_cell_formula_units_Z   4
loop_
 _symmetry_equiv_pos_site_id
 _symmetry_equiv_pos_as_xyz
  1  'x, y, z'
loop_
 _atom_site_type_symbol
 _atom_site_label
 _atom_site_symmetry_multiplicity
 _atom_site_fract_x
 _atom_site_fract_y
 _atom_site_fract_z
 _atom_site_occupancy
  Zr  Zr0  1  0.75000000  0.86207600  0.82593800  1
  Zr  Zr1  1  0.25000000  0.36207600  0.67406200  1
  Zr  Zr2  1  0.75000000  0.63792400  0.32593800  1
  Zr  Zr3  1  0.25000000  0.13792400  0.17406200  1
  Rh  Rh4  1  0.75000000  0.16568100  0.45063400  1
  Rh  Rh5  1  0.25000000  0.83431900  0.54936600  1
  Rh  Rh6  1  0.25000000  0.66568100  0.04936600  1
  Rh  Rh7  1  0.75000000  0.33431900  0.95063400  1
