# generated using pymatgen
data_LiTiPO5
_symmetry_space_group_name_H-M   'P 1'
_cell_length_a   6.44231600
_cell_length_b   7.34000600
_cell_length_c   7.49596800
_cell_angle_alpha   90.00000000
_cell_angle_beta   90.00000000
_cell_angle_gamma   90.00000000
_symmetry_Int_Tables_number   1
_chemical_formula_structural   LiTiPO5
_chemical_formula_sum   'Li4 Ti4 P4 O20'
_cell_volume   354.45912598
_cell_formula_units_Z   4
loop_
 _symmetry_equiv_pos_site_id
 _symmetry_equiv_pos_as_xyz
  1  'x, y, z'
loop_
 _atom_site_type_symbol
 _atom_site_label
 _atom_site_symmetry_multiplicity
 _atom_site_fract_x
 _atom_site_fract_y
 _atom_site_fract_z
 _atom_site_occupancy
  Li  Li0  1  0.00000000  0.00000000  0.00000000  1
  Li  Li1  1  0.50000000  0.50000000  0.50000000  1
  Li  Li2  1  0.00000000  0.50000000  0.50000000  1
  Li  Li3  1  0.50000000  0.00000000  0.00000000  1
  Ti  Ti4  1  0.75000000  0.28083700  0.83319400  1
  Ti  Ti5  1  0.25000000  0.71916300  0.16680600  1
  Ti  Ti6  1  0.25000000  0.78083700  0.66680600  1
  Ti  Ti7  1  0.75000000  0.21916300  0.33319400  1
  P  P8  1  0.25000000  0.37448200  0.87379300  1
  P  P9  1  0.75000000  0.62551800  0.12620700  1
  P  P10  1  0.75000000  0.87448200  0.62620700  1
  P  P11  1  0.25000000  0.12551800  0.37379300  1
  O  O12  1  0.94338700  0.74981700  0.62855200  1
  O  O13  1  0.55661300  0.75018300  0.12855200  1
  O  O14  1  0.05661300  0.24981700  0.87144800  1
  O  O15  1  0.44338700  0.25018300  0.37144800  1
  O  O16  1  0.05661300  0.25018300  0.37144800  1
  O  O17  1  0.55661300  0.74981700  0.62855200  1
  O  O18  1  0.94338700  0.75018300  0.12855200  1
  O  O19  1  0.44338700  0.24981700  0.87144800  1
  O  O20  1  0.75000000  0.15233000  0.11192000  1
  O  O21  1  0.25000000  0.84767000  0.88808000  1
  O  O22  1  0.25000000  0.65233000  0.38808000  1
  O  O23  1  0.75000000  0.34767000  0.61192000  1
  O  O24  1  0.75000000  0.00128700  0.79306100  1
  O  O25  1  0.25000000  0.99871300  0.20693900  1
  O  O26  1  0.25000000  0.50128700  0.70693900  1
  O  O27  1  0.75000000  0.49871300  0.29306100  1
  O  O28  1  0.25000000  0.48794800  0.04749200  1
  O  O29  1  0.75000000  0.51205200  0.95250800  1
  O  O30  1  0.75000000  0.98794800  0.45250800  1
  O  O31  1  0.25000000  0.01205200  0.54749200  1
