# generated using pymatgen
data_Gd3CuSiSe7
_symmetry_space_group_name_H-M   'P 1'
_cell_length_a   10.45947383
_cell_length_b   10.45947383
_cell_length_c   6.03105400
_cell_angle_alpha   90.00000000
_cell_angle_beta   90.00000000
_cell_angle_gamma   119.99999894
_symmetry_Int_Tables_number   1
_chemical_formula_structural   Gd3CuSiSe7
_chemical_formula_sum   'Gd6 Cu2 Si2 Se14'
_cell_volume   571.40433228
_cell_formula_units_Z   2
loop_
 _symmetry_equiv_pos_site_id
 _symmetry_equiv_pos_as_xyz
  1  'x, y, z'
loop_
 _atom_site_type_symbol
 _atom_site_label
 _atom_site_symmetry_multiplicity
 _atom_site_fract_x
 _atom_site_fract_y
 _atom_site_fract_z
 _atom_site_occupancy
  Gd  Gd0  1  0.64477600  0.77376200  0.73487300  1
  Gd  Gd1  1  0.77376200  0.12898600  0.23487300  1
  Gd  Gd2  1  0.22623800  0.87101400  0.73487300  1
  Gd  Gd3  1  0.87101400  0.64477600  0.23487300  1
  Gd  Gd4  1  0.12898600  0.35522400  0.73487300  1
  Gd  Gd5  1  0.35522400  0.22623800  0.23487300  1
  Cu  Cu6  1  0.00000000  0.00000000  0.70783000  1
  Cu  Cu7  1  0.00000000  0.00000000  0.20783000  1
  Si  Si8  1  0.66666700  0.33333300  0.82499500  1
  Si  Si9  1  0.33333300  0.66666700  0.32499500  1
  Se  Se10  1  0.10277300  0.58203800  0.47772300  1
  Se  Se11  1  0.66666700  0.33333300  0.44865900  1
  Se  Se12  1  0.25889100  0.16409600  0.71293100  1
  Se  Se13  1  0.52073500  0.10277300  0.97772300  1
  Se  Se14  1  0.16409600  0.90520500  0.21293100  1
  Se  Se15  1  0.90520500  0.74110900  0.71293100  1
  Se  Se16  1  0.74110900  0.83590400  0.21293100  1
  Se  Se17  1  0.89722700  0.41796200  0.97772300  1
  Se  Se18  1  0.09479500  0.25889100  0.21293100  1
  Se  Se19  1  0.83590400  0.09479500  0.71293100  1
  Se  Se20  1  0.47926500  0.89722700  0.47772300  1
  Se  Se21  1  0.33333300  0.66666700  0.94865900  1
  Se  Se22  1  0.41796200  0.52073500  0.47772300  1
  Se  Se23  1  0.58203800  0.47926500  0.97772300  1
