# generated using pymatgen
data_K3Ga2(PO4)3
_symmetry_space_group_name_H-M   'P 1'
_cell_length_a   8.55270400
_cell_length_b   8.87904200
_cell_length_c   17.24774800
_cell_angle_alpha   90.00000000
_cell_angle_beta   90.00000000
_cell_angle_gamma   90.00000000
_symmetry_Int_Tables_number   1
_chemical_formula_structural   K3Ga2(PO4)3
_chemical_formula_sum   'K12 Ga8 P12 O48'
_cell_volume   1309.79084454
_cell_formula_units_Z   4
loop_
 _symmetry_equiv_pos_site_id
 _symmetry_equiv_pos_as_xyz
  1  'x, y, z'
loop_
 _atom_site_type_symbol
 _atom_site_label
 _atom_site_symmetry_multiplicity
 _atom_site_fract_x
 _atom_site_fract_y
 _atom_site_fract_z
 _atom_site_occupancy
  K  K0  1  0.59573900  0.45476200  0.64479200  1
  K  K1  1  0.09573900  0.54523800  0.35520800  1
  K  K2  1  0.09573900  0.04523800  0.14479200  1
  K  K3  1  0.59573900  0.95476200  0.85520800  1
  K  K4  1  0.12330100  0.00908800  0.90078300  1
  K  K5  1  0.62330100  0.99091200  0.09921700  1
  K  K6  1  0.62330100  0.49091200  0.40078300  1
  K  K7  1  0.12330100  0.50908800  0.59921700  1
  K  K8  1  0.40303100  0.17310700  0.50947600  1
  K  K9  1  0.90303100  0.82689300  0.49052400  1
  K  K10  1  0.90303100  0.32689300  0.00947600  1
  K  K11  1  0.40303100  0.67310700  0.99052400  1
  Ga  Ga12  1  0.93901900  0.13341400  0.66855700  1
  Ga  Ga13  1  0.43901900  0.86658600  0.33144300  1
  Ga  Ga14  1  0.43901900  0.36658600  0.16855700  1
  Ga  Ga15  1  0.93901900  0.63341400  0.83144300  1
  Ga  Ga16  1  0.42708100  0.34674700  0.84022200  1
  Ga  Ga17  1  0.92708100  0.65325300  0.15977800  1
  Ga  Ga18  1  0.92708100  0.15325300  0.34022200  1
  Ga  Ga19  1  0.42708100  0.84674700  0.65977800  1
  P  P20  1  0.28765200  0.15230200  0.71337700  1
  P  P21  1  0.78765200  0.84769800  0.28662300  1
  P  P22  1  0.78765200  0.34769800  0.21337700  1
  P  P23  1  0.28765200  0.65230200  0.78662300  1
  P  P24  1  0.79610800  0.29886900  0.81353800  1
  P  P25  1  0.29610800  0.70113100  0.18646200  1
  P  P26  1  0.29610800  0.20113100  0.31353800  1
  P  P27  1  0.79610800  0.79886900  0.68646200  1
  P  P28  1  0.86582600  0.26286100  0.50273500  1
  P  P29  1  0.36582600  0.73713900  0.49726500  1
  P  P30  1  0.36582600  0.23713900  0.00273500  1
  P  P31  1  0.86582600  0.76286100  0.99726500  1
  O  O32  1  0.69527300  0.76830000  0.97252000  1
  O  O33  1  0.19527300  0.23170000  0.02748000  1
  O  O34  1  0.19527300  0.73170000  0.47252000  1
  O  O35  1  0.69527300  0.26830000  0.52748000  1
  O  O36  1  0.89160600  0.62366800  0.05608400  1
  O  O37  1  0.39160600  0.37633200  0.94391600  1
  O  O38  1  0.39160600  0.87633200  0.55608400  1
  O  O39  1  0.89160600  0.12366800  0.44391600  1
  O  O40  1  0.92922300  0.90649100  0.03378700  1
  O  O41  1  0.42922300  0.09350900  0.96621300  1
  O  O42  1  0.42922300  0.59350900  0.53378700  1
  O  O43  1  0.92922300  0.40649100  0.46621300  1
  O  O44  1  0.97663100  0.71900200  0.92651600  1
  O  O45  1  0.47663100  0.28099800  0.07348400  1
  O  O46  1  0.47663100  0.78099800  0.42651600  1
  O  O47  1  0.97663100  0.21900200  0.57348400  1
  O  O48  1  0.81045200  0.96712100  0.65967900  1
  O  O49  1  0.31045200  0.03287900  0.34032100  1
  O  O50  1  0.31045200  0.53287900  0.15967900  1
  O  O51  1  0.12926700  0.56462600  0.79556500  1
  O  O52  1  0.81045200  0.46712100  0.84032100  1
  O  O53  1  0.35615600  0.20961100  0.22726100  1
  O  O54  1  0.35615600  0.70961100  0.27273900  1
  O  O55  1  0.85615600  0.29038900  0.72726100  1
  O  O56  1  0.61630600  0.76558100  0.69128200  1
  O  O57  1  0.11630600  0.23441900  0.30871800  1
  O  O58  1  0.11630600  0.73441900  0.19128200  1
  O  O59  1  0.61630600  0.26558100  0.80871800  1
  O  O60  1  0.87507700  0.68953500  0.63241200  1
  O  O61  1  0.37507700  0.31046500  0.36758800  1
  O  O62  1  0.37507700  0.81046500  0.13241200  1
  O  O63  1  0.87507700  0.18953500  0.86758800  1
  O  O64  1  0.28591000  0.21010900  0.79953300  1
  O  O65  1  0.78591000  0.78989100  0.20046700  1
  O  O66  1  0.78591000  0.28989100  0.29953300  1
  O  O67  1  0.28591000  0.71010900  0.70046700  1
  O  O68  1  0.42019700  0.03014200  0.70969600  1
  O  O69  1  0.92019700  0.96985800  0.29030400  1
  O  O70  1  0.92019700  0.46985800  0.20969600  1
  O  O71  1  0.42019700  0.53014200  0.79030400  1
  O  O72  1  0.31348500  0.27550700  0.65441600  1
  O  O73  1  0.81348500  0.72449300  0.34558400  1
  O  O74  1  0.81348500  0.22449300  0.15441600  1
  O  O75  1  0.31348500  0.77550700  0.84558400  1
  O  O76  1  0.12926700  0.06462600  0.70443500  1
  O  O77  1  0.62926700  0.93537400  0.29556500  1
  O  O78  1  0.62926700  0.43537400  0.20443500  1
  O  O79  1  0.85615600  0.79038900  0.77273900  1
