# generated using pymatgen
data_LiEu3SiCl3O4
_symmetry_space_group_name_H-M   'P 1'
_cell_length_a   7.02357800
_cell_length_b   9.51802300
_cell_length_c   13.66320800
_cell_angle_alpha   90.00000000
_cell_angle_beta   90.00000000
_cell_angle_gamma   90.00000000
_symmetry_Int_Tables_number   1
_chemical_formula_structural   LiEu3SiCl3O4
_chemical_formula_sum   'Li4 Eu12 Si4 Cl12 O16'
_cell_volume   913.39333774
_cell_formula_units_Z   4
loop_
 _symmetry_equiv_pos_site_id
 _symmetry_equiv_pos_as_xyz
  1  'x, y, z'
loop_
 _atom_site_type_symbol
 _atom_site_label
 _atom_site_symmetry_multiplicity
 _atom_site_fract_x
 _atom_site_fract_y
 _atom_site_fract_z
 _atom_site_occupancy
  Li  Li0  1  0.50000000  0.50000000  0.00000000  1
  Li  Li1  1  0.50000000  0.50000000  0.50000000  1
  Li  Li2  1  0.50000000  0.00000000  0.50000000  1
  Li  Li3  1  0.50000000  0.00000000  0.00000000  1
  Eu  Eu4  1  0.00000000  0.73991200  0.00000000  1
  Eu  Eu5  1  0.00000000  0.26008800  0.00000000  1
  Eu  Eu6  1  0.77667900  0.00000000  0.18942100  1
  Eu  Eu7  1  0.22332100  0.50000000  0.68942100  1
  Eu  Eu8  1  0.33076400  0.25000000  0.25000000  1
  Eu  Eu9  1  0.22332100  0.00000000  0.81057900  1
  Eu  Eu10  1  0.00000000  0.76008800  0.50000000  1
  Eu  Eu11  1  0.33076400  0.75000000  0.25000000  1
  Eu  Eu12  1  0.66923600  0.25000000  0.75000000  1
  Eu  Eu13  1  0.00000000  0.23991200  0.50000000  1
  Eu  Eu14  1  0.66923600  0.75000000  0.75000000  1
  Eu  Eu15  1  0.77667900  0.50000000  0.31057900  1
  Si  Si16  1  0.20772000  0.50000000  0.38876900  1
  Si  Si17  1  0.20772000  0.00000000  0.11123100  1
  Si  Si18  1  0.79228000  0.00000000  0.88876900  1
  Si  Si19  1  0.79228000  0.50000000  0.61123100  1
  Cl  Cl20  1  0.20188700  0.00000000  0.39519400  1
  Cl  Cl21  1  0.33450100  0.68266400  0.87338100  1
  Cl  Cl22  1  0.33450100  0.18266400  0.62661900  1
  Cl  Cl23  1  0.33450100  0.81733600  0.62661900  1
  Cl  Cl24  1  0.79811300  0.00000000  0.60480600  1
  Cl  Cl25  1  0.66549900  0.68266400  0.12661900  1
  Cl  Cl26  1  0.66549900  0.81733600  0.37338100  1
  Cl  Cl27  1  0.66549900  0.18266400  0.37338100  1
  Cl  Cl28  1  0.79811300  0.50000000  0.89519400  1
  Cl  Cl29  1  0.33450100  0.31733600  0.87338100  1
  Cl  Cl30  1  0.20188700  0.50000000  0.10480600  1
  Cl  Cl31  1  0.66549900  0.31733600  0.12661900  1
  O  O32  1  0.77403900  0.50000000  0.49115400  1
  O  O33  1  0.42261300  0.50000000  0.34039700  1
  O  O34  1  0.91227100  0.63914300  0.64898100  1
  O  O35  1  0.08772900  0.86085700  0.14898100  1
  O  O36  1  0.91227100  0.36085700  0.64898100  1
  O  O37  1  0.08772900  0.13914300  0.14898100  1
  O  O38  1  0.22596100  0.50000000  0.50884600  1
  O  O39  1  0.08772900  0.63914300  0.35101900  1
  O  O40  1  0.57738700  0.50000000  0.65960300  1
  O  O41  1  0.42261300  0.00000000  0.15960300  1
  O  O42  1  0.91227100  0.86085700  0.85101900  1
  O  O43  1  0.57738700  0.00000000  0.84039700  1
  O  O44  1  0.22596100  0.00000000  0.99115400  1
  O  O45  1  0.77403900  0.00000000  0.00884600  1
  O  O46  1  0.91227100  0.13914300  0.85101900  1
  O  O47  1  0.08772900  0.36085700  0.35101900  1
