# generated using pymatgen
data_CaLaMgTaO6
_symmetry_space_group_name_H-M   'P 1'
_cell_length_a   5.72764000
_cell_length_b   5.58586300
_cell_length_c   9.68041090
_cell_angle_alpha   54.76712143
_cell_angle_beta   90.00000000
_cell_angle_gamma   90.00000000
_symmetry_Int_Tables_number   1
_chemical_formula_structural   CaLaMgTaO6
_chemical_formula_sum   'Ca2 La2 Mg2 Ta2 O12'
_cell_volume   252.97811369
_cell_formula_units_Z   2
loop_
 _symmetry_equiv_pos_site_id
 _symmetry_equiv_pos_as_xyz
  1  'x, y, z'
loop_
 _atom_site_type_symbol
 _atom_site_label
 _atom_site_symmetry_multiplicity
 _atom_site_fract_x
 _atom_site_fract_y
 _atom_site_fract_z
 _atom_site_occupancy
  Ca  Ca0  1  0.79562400  0.75311200  0.75115600  1
  Ca  Ca1  1  0.20437600  0.75311200  0.25115600  1
  La  La2  1  0.29994300  0.23917100  0.75233200  1
  La  La3  1  0.70005700  0.23917100  0.25233200  1
  Mg  Mg4  1  0.24644800  0.99834600  0.50011200  1
  Mg  Mg5  1  0.75355200  0.99834600  0.00011200  1
  Ta  Ta6  1  0.75703100  0.49871500  0.50073700  1
  Ta  Ta7  1  0.24296900  0.49871500  0.00073700  1
  O  O8  1  0.78231000  0.65963400  0.25514000  1
  O  O9  1  0.04697300  0.26753400  0.54298500  1
  O  O10  1  0.05370300  0.83643700  0.95693600  1
  O  O11  1  0.56089200  0.16395800  0.54373900  1
  O  O12  1  0.53546000  0.74061300  0.95189600  1
  O  O13  1  0.27471400  0.34247900  0.24496600  1
  O  O14  1  0.21769000  0.65963400  0.75514000  1
  O  O15  1  0.95302700  0.26753400  0.04298500  1
  O  O16  1  0.94629700  0.83643700  0.45693600  1
  O  O17  1  0.43910800  0.16395800  0.04373900  1
  O  O18  1  0.46454000  0.74061300  0.45189600  1
  O  O19  1  0.72528600  0.34247900  0.74496600  1
