# generated using pymatgen
data_KICl4
_symmetry_space_group_name_H-M   'P 1'
_cell_length_a   13.89979900
_cell_length_b   5.09325300
_cell_length_c   13.39712688
_cell_angle_alpha   75.88497267
_cell_angle_beta   90.00000000
_cell_angle_gamma   90.00000000
_symmetry_Int_Tables_number   1
_chemical_formula_structural   KICl4
_chemical_formula_sum   'K4 I4 Cl16'
_cell_volume   919.81659740
_cell_formula_units_Z   4
loop_
 _symmetry_equiv_pos_site_id
 _symmetry_equiv_pos_as_xyz
  1  'x, y, z'
loop_
 _atom_site_type_symbol
 _atom_site_label
 _atom_site_symmetry_multiplicity
 _atom_site_fract_x
 _atom_site_fract_y
 _atom_site_fract_z
 _atom_site_occupancy
  K  K0  1  0.34284400  0.64203700  0.08475300  1
  K  K1  1  0.84284400  0.35796300  0.41524700  1
  K  K2  1  0.65715600  0.35796300  0.91524700  1
  K  K3  1  0.15715600  0.64203700  0.58475300  1
  I  I4  1  0.06495900  0.79684000  0.20522900  1
  I  I5  1  0.56495900  0.20316000  0.29477100  1
  I  I6  1  0.93504100  0.20316000  0.79477100  1
  I  I7  1  0.43504100  0.79684000  0.70522900  1
  Cl  Cl8  1  0.11638000  0.72516000  0.03645500  1
  Cl  Cl9  1  0.61638000  0.27484000  0.46354500  1
  Cl  Cl10  1  0.88362000  0.27484000  0.96354500  1
  Cl  Cl11  1  0.38362000  0.72516000  0.53645500  1
  Cl  Cl12  1  0.22764300  0.01263000  0.22327100  1
  Cl  Cl13  1  0.72764300  0.98737000  0.27672900  1
  Cl  Cl14  1  0.77235700  0.98737000  0.77672900  1
  Cl  Cl15  1  0.27235700  0.01263000  0.72327100  1
  Cl  Cl16  1  0.90778600  0.57143700  0.18610700  1
  Cl  Cl17  1  0.40778600  0.42856300  0.31389300  1
  Cl  Cl18  1  0.09221400  0.42856300  0.81389300  1
  Cl  Cl19  1  0.59221400  0.57143700  0.68610700  1
  Cl  Cl20  1  0.01018400  0.85714000  0.38734300  1
  Cl  Cl21  1  0.51018400  0.14286000  0.11265700  1
  Cl  Cl22  1  0.98981600  0.14286000  0.61265700  1
  Cl  Cl23  1  0.48981600  0.85714000  0.88734300  1
