# generated using pymatgen
data_NaCdPO4
_symmetry_space_group_name_H-M   'P 1'
_cell_length_a   5.11992800
_cell_length_b   6.61131600
_cell_length_c   11.03060100
_cell_angle_alpha   90.00000000
_cell_angle_beta   90.00000000
_cell_angle_gamma   90.00000000
_symmetry_Int_Tables_number   1
_chemical_formula_structural   NaCdPO4
_chemical_formula_sum   'Na4 Cd4 P4 O16'
_cell_volume   373.37990834
_cell_formula_units_Z   4
loop_
 _symmetry_equiv_pos_site_id
 _symmetry_equiv_pos_as_xyz
  1  'x, y, z'
loop_
 _atom_site_type_symbol
 _atom_site_label
 _atom_site_symmetry_multiplicity
 _atom_site_fract_x
 _atom_site_fract_y
 _atom_site_fract_z
 _atom_site_occupancy
  Na  Na0  1  0.00000000  0.00000000  0.00000000  1
  Na  Na1  1  0.00000000  0.50000000  0.00000000  1
  Na  Na2  1  0.50000000  0.50000000  0.50000000  1
  Na  Na3  1  0.50000000  0.00000000  0.50000000  1
  Cd  Cd4  1  0.51516200  0.25000000  0.21452300  1
  Cd  Cd5  1  0.48483800  0.75000000  0.78547700  1
  Cd  Cd6  1  0.98483800  0.25000000  0.71452300  1
  Cd  Cd7  1  0.01516200  0.75000000  0.28547700  1
  P  P8  1  0.06812700  0.25000000  0.39696800  1
  P  P9  1  0.43187300  0.25000000  0.89696800  1
  P  P10  1  0.93187300  0.75000000  0.60303200  1
  P  P11  1  0.56812700  0.75000000  0.10303200  1
  O  O12  1  0.19178400  0.06315300  0.33007400  1
  O  O13  1  0.80821600  0.56315300  0.66992600  1
  O  O14  1  0.30821600  0.06315300  0.83007400  1
  O  O15  1  0.69178400  0.56315300  0.16992600  1
  O  O16  1  0.32477600  0.25000000  0.02925500  1
  O  O17  1  0.67522400  0.75000000  0.97074500  1
  O  O18  1  0.17522400  0.25000000  0.52925500  1
  O  O19  1  0.82477600  0.75000000  0.47074500  1
  O  O20  1  0.80821600  0.93684700  0.66992600  1
  O  O21  1  0.19178400  0.43684700  0.33007400  1
  O  O22  1  0.69178400  0.93684700  0.16992600  1
  O  O23  1  0.30821600  0.43684700  0.83007400  1
  O  O24  1  0.26632400  0.75000000  0.10653600  1
  O  O25  1  0.73367600  0.25000000  0.89346400  1
  O  O26  1  0.23367600  0.75000000  0.60653600  1
  O  O27  1  0.76632400  0.25000000  0.39346400  1
