# generated using pymatgen
data_Y7C2I12N
_symmetry_space_group_name_H-M   'P 1'
_cell_length_a   9.93986300
_cell_length_b   10.61232684
_cell_length_c   17.02780720
_cell_angle_alpha   101.51291073
_cell_angle_beta   92.98938771
_cell_angle_gamma   112.79106864
_symmetry_Int_Tables_number   1
_chemical_formula_structural   Y7C2I12N
_chemical_formula_sum   'Y14 C4 I24 N2'
_cell_volume   1605.87240741
_cell_formula_units_Z   2
loop_
 _symmetry_equiv_pos_site_id
 _symmetry_equiv_pos_as_xyz
  1  'x, y, z'
loop_
 _atom_site_type_symbol
 _atom_site_label
 _atom_site_symmetry_multiplicity
 _atom_site_fract_x
 _atom_site_fract_y
 _atom_site_fract_z
 _atom_site_occupancy
  Y  Y0  1  0.28199800  0.24242300  0.35044400  1
  Y  Y1  1  0.71800200  0.75757700  0.64955600  1
  Y  Y2  1  0.93541200  0.57085600  0.73682600  1
  Y  Y3  1  0.48002800  0.56662100  0.32093200  1
  Y  Y4  1  0.13243600  0.11610400  0.14378300  1
  Y  Y5  1  0.33727800  0.45574100  0.11357600  1
  Y  Y6  1  0.66272200  0.54425900  0.88642400  1
  Y  Y7  1  0.54538400  0.25240300  0.19071800  1
  Y  Y8  1  0.64037600  0.45204200  0.48058400  1
  Y  Y9  1  0.06458800  0.42914400  0.26317400  1
  Y  Y10  1  0.51997200  0.43337900  0.67906800  1
  Y  Y11  1  0.45461600  0.74759700  0.80928200  1
  Y  Y12  1  0.35962400  0.54795800  0.51941600  1
  Y  Y13  1  0.86756400  0.88389600  0.85621700  1
  C  C14  1  0.75510600  0.63879600  0.76614800  1
  C  C15  1  0.36270200  0.31963300  0.21602400  1
  C  C16  1  0.63729800  0.68036700  0.78397600  1
  C  C17  1  0.24489400  0.36120400  0.23385200  1
  I  I18  1  0.45770600  0.85521700  0.65026400  1
  I  I19  1  0.27147300  0.70658500  0.38965400  1
  I  I20  1  0.17359100  0.84674700  0.83571600  1
  I  I21  1  0.96875300  0.67880000  0.57584500  1
  I  I22  1  0.95080500  0.05550400  0.73201700  1
  I  I23  1  0.66107600  0.02649400  0.91123700  1
  I  I24  1  0.60669400  0.39906700  0.05018200  1
  I  I25  1  0.33892400  0.97350600  0.08876300  1
  I  I26  1  0.43987200  0.25363800  0.80331200  1
  I  I27  1  0.90511600  0.43016600  0.87417100  1
  I  I28  1  0.70117600  0.81772500  0.46990400  1
  I  I29  1  0.12507000  0.19860300  0.98228200  1
  I  I30  1  0.72852700  0.29341500  0.61034600  1
  I  I31  1  0.03124700  0.32120000  0.42415500  1
  I  I32  1  0.56012800  0.74636200  0.19668800  1
  I  I33  1  0.39330600  0.60093300  0.94981800  1
  I  I34  1  0.29882400  0.18227500  0.53009600  1
  I  I35  1  0.21378900  0.47048000  0.68780200  1
  I  I36  1  0.87493000  0.80139700  0.01771800  1
  I  I37  1  0.54229400  0.14478300  0.34973600  1
  I  I38  1  0.09488400  0.56983400  0.12582900  1
  I  I39  1  0.82640900  0.15325300  0.16428400  1
  I  I40  1  0.04919500  0.94449600  0.26798300  1
  I  I41  1  0.78621100  0.52952000  0.31219800  1
  N  N42  1  0.55921400  0.54870500  0.58426000  1
  N  N43  1  0.44078600  0.45129500  0.41574000  1
