# generated using pymatgen
data_Cs2SiP4(HO7)2
_symmetry_space_group_name_H-M   'P 1'
_cell_length_a   9.24705300
_cell_length_b   9.40764141
_cell_length_c   9.70208099
_cell_angle_alpha   94.96548187
_cell_angle_beta   111.22115220
_cell_angle_gamma   112.90176800
_symmetry_Int_Tables_number   1
_chemical_formula_structural   Cs2SiP4(HO7)2
_chemical_formula_sum   'Cs4 Si2 P8 H4 O28'
_cell_volume   698.88259578
_cell_formula_units_Z   2
loop_
 _symmetry_equiv_pos_site_id
 _symmetry_equiv_pos_as_xyz
  1  'x, y, z'
loop_
 _atom_site_type_symbol
 _atom_site_label
 _atom_site_symmetry_multiplicity
 _atom_site_fract_x
 _atom_site_fract_y
 _atom_site_fract_z
 _atom_site_occupancy
  Cs  Cs0  1  0.80628300  0.67123500  0.77910900  1
  Cs  Cs1  1  0.19371700  0.32876500  0.22089100  1
  Cs  Cs2  1  0.20919800  0.73986000  0.53332900  1
  Cs  Cs3  1  0.79080200  0.26014000  0.46667100  1
  Si  Si4  1  0.50000000  0.50000000  0.00000000  1
  Si  Si5  1  0.50000000  0.00000000  0.00000000  1
  P  P6  1  0.24238900  0.14204200  0.85653500  1
  P  P7  1  0.75761100  0.85795800  0.14346500  1
  P  P8  1  0.29660800  0.34569200  0.64788100  1
  P  P9  1  0.70339200  0.65430800  0.35211900  1
  P  P10  1  0.31022800  0.87617900  0.19825000  1
  P  P11  1  0.68977200  0.12382100  0.80175000  1
  P  P12  1  0.23978500  0.64538200  0.93407900  1
  P  P13  1  0.76021500  0.35461800  0.06592100  1
  H  H14  1  0.92520100  0.06964600  0.81206500  1
  H  H15  1  0.07479900  0.93035400  0.18793500  1
  H  H16  1  0.47982000  0.24413400  0.62995000  1
  H  H17  1  0.52018000  0.75586600  0.37005000  1
  O  O18  1  0.07280500  0.03924200  0.86097300  1
  O  O19  1  0.92719500  0.96075800  0.13902700  1
  O  O20  1  0.34380900  0.30377200  0.97926500  1
  O  O21  1  0.65619100  0.69622800  0.02073500  1
  O  O22  1  0.64474200  0.94343500  0.13856000  1
  O  O23  1  0.35525800  0.05656500  0.86144000  1
  O  O24  1  0.19795200  0.18285500  0.69121500  1
  O  O25  1  0.80204800  0.81714500  0.30878500  1
  O  O26  1  0.16727500  0.37724400  0.52698200  1
  O  O27  1  0.83272500  0.62275600  0.47301800  1
  O  O28  1  0.59359100  0.51907900  0.20077700  1
  O  O29  1  0.40640900  0.48092100  0.79922300  1
  O  O30  1  0.41900200  0.31496600  0.58531100  1
  O  O31  1  0.58099800  0.68503400  0.41468900  1
  O  O32  1  0.56648900  0.14754100  0.66549600  1
  O  O33  1  0.43351100  0.85245900  0.33450400  1
  O  O34  1  0.39782500  0.00411500  0.12586800  1
  O  O35  1  0.60217500  0.99588500  0.87413200  1
  O  O36  1  0.81080700  0.08063100  0.75047600  1
  O  O37  1  0.18919300  0.91936900  0.24952400  1
  O  O38  1  0.18584900  0.71256100  0.06093900  1
  O  O39  1  0.81415100  0.28743900  0.93906100  1
  O  O40  1  0.07599500  0.53438400  0.79850800  1
  O  O41  1  0.92400500  0.46561600  0.20149200  1
  O  O42  1  0.64253800  0.42563200  0.97209900  1
  O  O43  1  0.35746200  0.57436800  0.02790100  1
  O  O44  1  0.35124100  0.79764200  0.89936100  1
  O  O45  1  0.64875900  0.20235800  0.10063900  1
