# generated using pymatgen
data_Lu(HO)3
_symmetry_space_group_name_H-M   'P 1'
_cell_length_a   7.11335090
_cell_length_b   7.11335090
_cell_length_c   7.11335150
_cell_angle_alpha   109.55307861
_cell_angle_beta   109.55307861
_cell_angle_gamma   109.55308002
_symmetry_Int_Tables_number   1
_chemical_formula_structural   Lu(HO)3
_chemical_formula_sum   'Lu4 H12 O12'
_cell_volume   276.23429795
_cell_formula_units_Z   4
loop_
 _symmetry_equiv_pos_site_id
 _symmetry_equiv_pos_as_xyz
  1  'x, y, z'
loop_
 _atom_site_type_symbol
 _atom_site_label
 _atom_site_symmetry_multiplicity
 _atom_site_fract_x
 _atom_site_fract_y
 _atom_site_fract_z
 _atom_site_occupancy
  Lu  Lu0  1  0.50000000  0.00000000  0.00000000  1
  Lu  Lu1  1  0.50000000  0.50000000  0.50000000  1
  Lu  Lu2  1  0.00000000  0.00000000  0.50000000  1
  Lu  Lu3  1  0.00000000  0.50000000  0.00000000  1
  H  H4  1  0.63826900  0.95485800  0.68306000  1
  H  H5  1  0.36173100  0.04514200  0.31694000  1
  H  H6  1  0.72458700  0.16724600  0.55724800  1
  H  H7  1  0.27541300  0.83275400  0.44275200  1
  H  H8  1  0.44275200  0.27541300  0.83275400  1
  H  H9  1  0.55724800  0.72458700  0.16724600  1
  H  H10  1  0.31694000  0.36173100  0.04514200  1
  H  H11  1  0.68306000  0.63826900  0.95485800  1
  H  H12  1  0.04514200  0.31694000  0.36173100  1
  H  H13  1  0.95485800  0.68306000  0.63826900  1
  H  H14  1  0.83275400  0.44275200  0.27541300  1
  H  H15  1  0.16724600  0.55724800  0.72458700  1
  O  O16  1  0.51383900  0.83378700  0.68169500  1
  O  O17  1  0.48616100  0.16621300  0.31830500  1
  O  O18  1  0.84518200  0.16855300  0.67953200  1
  O  O19  1  0.15481800  0.83144700  0.32046800  1
  O  O20  1  0.32046800  0.15481800  0.83144700  1
  O  O21  1  0.67953200  0.84518200  0.16855300  1
  O  O22  1  0.31830500  0.48616100  0.16621300  1
  O  O23  1  0.68169500  0.51383900  0.83378700  1
  O  O24  1  0.16621300  0.31830500  0.48616100  1
  O  O25  1  0.83378700  0.68169500  0.51383900  1
  O  O26  1  0.83144700  0.32046800  0.15481800  1
  O  O27  1  0.16855300  0.67953200  0.84518200  1
