# generated using pymatgen
data_Ba7Al64O103
_symmetry_space_group_name_H-M   'P 1'
_cell_length_a   9.80636234
_cell_length_b   9.80636234
_cell_length_c   23.17700900
_cell_angle_alpha   90.00000000
_cell_angle_beta   90.00000000
_cell_angle_gamma   120.00000227
_symmetry_Int_Tables_number   1
_chemical_formula_structural   Ba7Al64O103
_chemical_formula_sum   'Ba7 Al64 O103'
_cell_volume   1930.20698641
_cell_formula_units_Z   1
loop_
 _symmetry_equiv_pos_site_id
 _symmetry_equiv_pos_as_xyz
  1  'x, y, z'
loop_
 _atom_site_type_symbol
 _atom_site_label
 _atom_site_symmetry_multiplicity
 _atom_site_fract_x
 _atom_site_fract_y
 _atom_site_fract_z
 _atom_site_occupancy
  Ba  Ba0  1  0.00000000  0.33077300  0.50000000  1
  Ba  Ba1  1  0.33333300  0.66666700  0.00000000  1
  Ba  Ba2  1  0.00000000  0.00000000  0.77683500  1
  Ba  Ba3  1  0.66922700  0.66922700  0.50000000  1
  Ba  Ba4  1  0.33077300  0.00000000  0.50000000  1
  Ba  Ba5  1  0.66666700  0.33333300  0.00000000  1
  Ba  Ba6  1  0.00000000  0.00000000  0.22316500  1
  Al  Al7  1  0.66666700  0.33333300  0.57517800  1
  Al  Al8  1  0.49070200  0.32068800  0.84786400  1
  Al  Al9  1  0.00000000  0.00000000  0.57585000  1
  Al  Al10  1  0.83867400  0.66991200  0.64296800  1
  Al  Al11  1  0.00000000  0.81088600  0.06960300  1
  Al  Al12  1  0.00000000  0.00000000  0.42415000  1
  Al  Al13  1  0.66666700  0.33333300  0.72266800  1
  Al  Al14  1  0.16132600  0.83123800  0.35703200  1
  Al  Al15  1  0.16876200  0.33008800  0.35703200  1
  Al  Al16  1  0.50929800  0.82998600  0.84786400  1
  Al  Al17  1  0.00000000  0.66778300  0.25414300  1
  Al  Al18  1  0.32068800  0.49070200  0.84786400  1
  Al  Al19  1  0.34200300  0.00000000  0.76858900  1
  Al  Al20  1  0.67931200  0.17001400  0.15213600  1
  Al  Al21  1  0.49647100  0.00000000  0.64200800  1
  Al  Al22  1  0.50929800  0.82998600  0.15213600  1
  Al  Al23  1  0.17001400  0.67931200  0.84786400  1
  Al  Al24  1  0.66778300  0.00000000  0.74585700  1
  Al  Al25  1  0.49647100  0.00000000  0.35799200  1
  Al  Al26  1  0.66666700  0.33333300  0.42482200  1
  Al  Al27  1  0.65799700  0.65799700  0.23141100  1
  Al  Al28  1  0.33221700  0.33221700  0.74585700  1
  Al  Al29  1  0.83123800  0.16132600  0.64296800  1
  Al  Al30  1  0.66666700  0.33333300  0.27733200  1
  Al  Al31  1  0.00000000  0.34200300  0.76858900  1
  Al  Al32  1  0.66991200  0.83867400  0.64296800  1
  Al  Al33  1  0.82998600  0.50929800  0.84786400  1
  Al  Al34  1  0.50352900  0.50352900  0.35799200  1
  Al  Al35  1  0.18911400  0.18911400  0.06960300  1
  Al  Al36  1  0.00000000  0.49647100  0.35799200  1
  Al  Al37  1  0.33008800  0.16876200  0.64296800  1
  Al  Al38  1  0.33333300  0.66666700  0.27733200  1
  Al  Al39  1  0.33008800  0.16876200  0.35703200  1
  Al  Al40  1  0.00000000  0.81088600  0.93039700  1
  Al  Al41  1  0.83123800  0.16132600  0.35703200  1
  Al  Al42  1  0.17001400  0.67931200  0.15213600  1
  Al  Al43  1  0.65799700  0.65799700  0.76858900  1
  Al  Al44  1  0.66991200  0.83867400  0.35703200  1
  Al  Al45  1  0.34200300  0.00000000  0.23141100  1
  Al  Al46  1  0.67931200  0.17001400  0.84786400  1
  Al  Al47  1  0.49070200  0.32068800  0.15213600  1
  Al  Al48  1  0.16132600  0.83123800  0.64296800  1
  Al  Al49  1  0.33333300  0.66666700  0.42482200  1
  Al  Al50  1  0.35967300  0.00000000  0.92602800  1
  Al  Al51  1  0.64032700  0.64032700  0.92602800  1
  Al  Al52  1  0.00000000  0.35967300  0.07397200  1
  Al  Al53  1  0.00000000  0.66778300  0.74585700  1
  Al  Al54  1  0.81088600  0.00000000  0.93039700  1
  Al  Al55  1  0.33333300  0.66666700  0.72266800  1
  Al  Al56  1  0.16876200  0.33008800  0.64296800  1
  Al  Al57  1  0.66778300  0.00000000  0.25414300  1
  Al  Al58  1  0.35967300  0.00000000  0.07397200  1
  Al  Al59  1  0.83867400  0.66991200  0.35703200  1
  Al  Al60  1  0.50352900  0.50352900  0.64200800  1
  Al  Al61  1  0.33221700  0.33221700  0.25414300  1
  Al  Al62  1  0.00000000  0.34200300  0.23141100  1
  Al  Al63  1  0.64032700  0.64032700  0.07397200  1
  Al  Al64  1  0.00000000  0.35967300  0.92602800  1
  Al  Al65  1  0.32068800  0.49070200  0.15213600  1
  Al  Al66  1  0.82998600  0.50929800  0.15213600  1
  Al  Al67  1  0.18911400  0.18911400  0.93039700  1
  Al  Al68  1  0.00000000  0.49647100  0.64200800  1
  Al  Al69  1  0.81088600  0.00000000  0.06960300  1
  Al  Al70  1  0.33333300  0.66666700  0.57517800  1
  O  O71  1  0.50730700  0.67083800  0.39932200  1
  O  O72  1  0.00000000  0.33232600  0.68966700  1
  O  O73  1  0.82906000  0.33728200  0.89179400  1
  O  O74  1  0.00000000  0.51553400  0.20303900  1
  O  O75  1  0.66598400  0.00000000  0.11345600  1
  O  O76  1  0.34323100  0.49929700  0.69605900  1
  O  O77  1  0.00000000  0.66598400  0.88654400  1
  O  O78  1  0.65676900  0.15606600  0.30394100  1
  O  O79  1  0.40011100  0.00000000  0.00000000  1
  O  O80  1  0.59988900  0.59988900  0.00000000  1
  O  O81  1  0.16976500  0.82504900  0.20838900  1
  O  O82  1  0.17094000  0.50822100  0.89179400  1
  O  O83  1  0.32916200  0.83647000  0.39932200  1
  O  O84  1  0.49269300  0.16353000  0.60067800  1
  O  O85  1  0.65528400  0.83023500  0.79161100  1
  O  O86  1  0.67083800  0.50730700  0.60067800  1
  O  O87  1  0.66598400  0.00000000  0.88654400  1
  O  O88  1  0.48446600  0.48446600  0.20303900  1
  O  O89  1  0.82860900  0.82860900  0.60048900  1
  O  O90  1  0.33232600  0.00000000  0.68966700  1
  O  O91  1  0.34471600  0.17495100  0.20838900  1
  O  O92  1  0.66767400  0.66767400  0.31033300  1
  O  O93  1  0.83023500  0.65528400  0.79161100  1
  O  O94  1  0.16976500  0.82504900  0.79161100  1
  O  O95  1  0.33333300  0.66666700  0.80199000  1
  O  O96  1  0.34471600  0.17495100  0.79161100  1
  O  O97  1  0.00000000  0.75577000  0.00000000  1
  O  O98  1  0.80716400  0.00000000  0.30639000  1
  O  O99  1  0.84393400  0.50070300  0.30394100  1
  O  O100  1  0.00000000  0.40011100  0.00000000  1
  O  O101  1  0.80716400  0.00000000  0.69361000  1
  O  O102  1  0.33728200  0.82906000  0.10820600  1
  O  O103  1  0.34323100  0.49929700  0.30394100  1
  O  O104  1  0.00000000  0.66598400  0.11345600  1
  O  O105  1  0.15606600  0.65676900  0.30394100  1
  O  O106  1  0.66271800  0.49177900  0.10820600  1
  O  O107  1  0.48446600  0.48446600  0.79696100  1
  O  O108  1  0.49929700  0.34323100  0.69605900  1
  O  O109  1  0.83023500  0.65528400  0.20838900  1
  O  O110  1  0.33919500  0.33919500  0.60382900  1
  O  O111  1  0.33401600  0.33401600  0.11345600  1
  O  O112  1  0.00000000  0.33232600  0.31033300  1
  O  O113  1  0.33728200  0.82906000  0.89179400  1
  O  O114  1  0.49177900  0.66271800  0.10820600  1
  O  O115  1  0.66666700  0.33333300  0.19801000  1
  O  O116  1  0.17265700  0.00000000  0.91552600  1
  O  O117  1  0.66666700  0.33333300  0.50000000  1
  O  O118  1  0.00000000  0.17265700  0.08447400  1
  O  O119  1  0.00000000  0.17265700  0.91552600  1
  O  O120  1  0.00000000  0.17139100  0.60048900  1
  O  O121  1  0.83647000  0.32916200  0.60067800  1
  O  O122  1  0.17139100  0.00000000  0.60048900  1
  O  O123  1  0.00000000  0.51553400  0.79696100  1
  O  O124  1  0.33333300  0.66666700  0.50000000  1
  O  O125  1  0.82504900  0.16976500  0.79161100  1
  O  O126  1  0.17094000  0.50822100  0.10820600  1
  O  O127  1  0.19283600  0.19283600  0.69361000  1
  O  O128  1  0.82734300  0.82734300  0.91552600  1
  O  O129  1  0.00000000  0.17139100  0.39951100  1
  O  O130  1  0.33232600  0.00000000  0.31033300  1
  O  O131  1  0.33401600  0.33401600  0.88654400  1
  O  O132  1  0.84393400  0.50070300  0.69605900  1
  O  O133  1  0.17495100  0.34471600  0.20838900  1
  O  O134  1  0.66080500  0.00000000  0.60382900  1
  O  O135  1  0.75577000  0.00000000  0.00000000  1
  O  O136  1  0.66767400  0.66767400  0.68966700  1
  O  O137  1  0.33919500  0.33919500  0.39617100  1
  O  O138  1  0.19283600  0.19283600  0.30639000  1
  O  O139  1  0.17495100  0.34471600  0.79161100  1
  O  O140  1  0.33333300  0.66666700  0.19801000  1
  O  O141  1  0.82906000  0.33728200  0.10820600  1
  O  O142  1  0.50730700  0.67083800  0.60067800  1
  O  O143  1  0.82860900  0.82860900  0.39951100  1
  O  O144  1  0.16353000  0.49269300  0.39932200  1
  O  O145  1  0.66666700  0.33333300  0.80199000  1
  O  O146  1  0.82504900  0.16976500  0.20838900  1
  O  O147  1  0.65676900  0.15606600  0.69605900  1
  O  O148  1  0.51553400  0.00000000  0.79696100  1
  O  O149  1  0.00000000  0.66080500  0.39617100  1
  O  O150  1  0.49929700  0.34323100  0.30394100  1
  O  O151  1  0.17139100  0.00000000  0.39951100  1
  O  O152  1  0.17265700  0.00000000  0.08447400  1
  O  O153  1  0.82734300  0.82734300  0.08447400  1
  O  O154  1  0.00000000  0.80716400  0.30639000  1
  O  O155  1  0.00000000  0.80716400  0.69361000  1
  O  O156  1  0.66080500  0.00000000  0.39617100  1
  O  O157  1  0.50070300  0.84393400  0.69605900  1
  O  O158  1  0.49269300  0.16353000  0.39932200  1
  O  O159  1  0.50822100  0.17094000  0.89179400  1
  O  O160  1  0.83647000  0.32916200  0.39932200  1
  O  O161  1  0.50822100  0.17094000  0.10820600  1
  O  O162  1  0.51553400  0.00000000  0.20303900  1
  O  O163  1  0.32916200  0.83647000  0.60067800  1
  O  O164  1  0.24423000  0.24423000  0.00000000  1
  O  O165  1  0.67083800  0.50730700  0.39932200  1
  O  O166  1  0.00000000  0.00000000  0.50000000  1
  O  O167  1  0.66271800  0.49177900  0.89179400  1
  O  O168  1  0.16353000  0.49269300  0.60067800  1
  O  O169  1  0.50070300  0.84393400  0.30394100  1
  O  O170  1  0.15606600  0.65676900  0.69605900  1
  O  O171  1  0.65528400  0.83023500  0.20838900  1
  O  O172  1  0.49177900  0.66271800  0.89179400  1
  O  O173  1  0.00000000  0.66080500  0.60382900  1
