# generated using pymatgen
data_TiCdFe(PO4)3
_symmetry_space_group_name_H-M   'P 1'
_cell_length_a   8.80207394
_cell_length_b   8.80207394
_cell_length_c   8.80207392
_cell_angle_alpha   58.88666486
_cell_angle_beta   58.88666486
_cell_angle_gamma   58.88667191
_symmetry_Int_Tables_number   1
_chemical_formula_structural   TiCdFe(PO4)3
_chemical_formula_sum   'Ti2 Cd2 Fe2 P6 O24'
_cell_volume   469.96003691
_cell_formula_units_Z   2
loop_
 _symmetry_equiv_pos_site_id
 _symmetry_equiv_pos_as_xyz
  1  'x, y, z'
loop_
 _atom_site_type_symbol
 _atom_site_label
 _atom_site_symmetry_multiplicity
 _atom_site_fract_x
 _atom_site_fract_y
 _atom_site_fract_z
 _atom_site_occupancy
  Ti  Ti0  1  0.14691700  0.14691700  0.14691700  1
  Ti  Ti1  1  0.64691700  0.64691700  0.64691700  1
  Cd  Cd2  1  0.99878100  0.99878100  0.99878100  1
  Cd  Cd3  1  0.49878100  0.49878100  0.49878100  1
  Fe  Fe4  1  0.35348600  0.35348600  0.35348600  1
  Fe  Fe5  1  0.85348600  0.85348600  0.85348600  1
  P  P6  1  0.74999900  0.04171500  0.46034000  1
  P  P7  1  0.04171500  0.46034000  0.74999900  1
  P  P8  1  0.46034000  0.74999900  0.04171500  1
  P  P9  1  0.54171500  0.24999900  0.96034000  1
  P  P10  1  0.96034000  0.54171500  0.24999900  1
  P  P11  1  0.24999900  0.96034000  0.54171500  1
  O  O12  1  0.30266900  0.11894800  0.50383000  1
  O  O13  1  0.50383000  0.30266900  0.11894800  1
  O  O14  1  0.91937100  0.05718500  0.26993600  1
  O  O15  1  0.11894800  0.50383000  0.30266900  1
  O  O16  1  0.80266900  0.00383000  0.61894800  1
  O  O17  1  0.58232600  0.22910300  0.44126000  1
  O  O18  1  0.05718500  0.26993600  0.91937100  1
  O  O19  1  0.22910300  0.44126000  0.58232600  1
  O  O20  1  0.37557600  0.19916400  0.99939500  1
  O  O21  1  0.44126000  0.58232600  0.22910300  1
  O  O22  1  0.72910300  0.08232600  0.94126000  1
  O  O23  1  0.99939500  0.37557600  0.19916400  1
  O  O24  1  0.00383000  0.61894800  0.80266900  1
  O  O25  1  0.26993600  0.91937100  0.05718500  1
  O  O26  1  0.55718500  0.41937100  0.76993600  1
  O  O27  1  0.61894800  0.80266900  0.00383000  1
  O  O28  1  0.76993600  0.55718500  0.41937100  1
  O  O29  1  0.94126000  0.72910300  0.08232600  1
  O  O30  1  0.41937100  0.76993600  0.55718500  1
  O  O31  1  0.19916400  0.99939500  0.37557600  1
  O  O32  1  0.87557600  0.49939500  0.69916400  1
  O  O33  1  0.08232600  0.94126000  0.72910300  1
  O  O34  1  0.49939500  0.69916400  0.87557600  1
  O  O35  1  0.69916400  0.87557600  0.49939500  1
