# generated using pymatgen
data_Ag3AsSe3
_symmetry_space_group_name_H-M   'P 1'
_cell_length_a   8.23761900
_cell_length_b   11.50262900
_cell_length_c   21.10600400
_cell_angle_alpha   90.00000000
_cell_angle_beta   90.00000000
_cell_angle_gamma   90.00000000
_symmetry_Int_Tables_number   1
_chemical_formula_structural   Ag3AsSe3
_chemical_formula_sum   'Ag36 As12 Se36'
_cell_volume   1999.88411140
_cell_formula_units_Z   12
loop_
 _symmetry_equiv_pos_site_id
 _symmetry_equiv_pos_as_xyz
  1  'x, y, z'
loop_
 _atom_site_type_symbol
 _atom_site_label
 _atom_site_symmetry_multiplicity
 _atom_site_fract_x
 _atom_site_fract_y
 _atom_site_fract_z
 _atom_site_occupancy
  Ag  Ag0  1  0.21433800  0.42942600  0.05729500  1
  Ag  Ag1  1  0.28566200  0.92942600  0.55729500  1
  Ag  Ag2  1  0.14439200  0.51747600  0.82258300  1
  Ag  Ag3  1  0.14439200  0.98252400  0.82258300  1
  Ag  Ag4  1  0.33161200  0.38966700  0.71559800  1
  Ag  Ag5  1  0.77547700  0.75000000  0.63091500  1
  Ag  Ag6  1  0.78566200  0.92942600  0.94270500  1
  Ag  Ag7  1  0.87674900  0.53494600  0.55993100  1
  Ag  Ag8  1  0.66838800  0.61033300  0.28440200  1
  Ag  Ag9  1  0.62325100  0.03494600  0.05993100  1
  Ag  Ag10  1  0.64439200  0.51747600  0.67741700  1
  Ag  Ag11  1  0.87674900  0.96505400  0.55993100  1
  Ag  Ag12  1  0.35560800  0.01747600  0.32258300  1
  Ag  Ag13  1  0.85560800  0.48252400  0.17741700  1
  Ag  Ag14  1  0.37674900  0.96505400  0.94006900  1
  Ag  Ag15  1  0.22452300  0.25000000  0.36908500  1
  Ag  Ag16  1  0.21433800  0.07057400  0.05729500  1
  Ag  Ag17  1  0.37674900  0.53494600  0.94006900  1
  Ag  Ag18  1  0.33161200  0.11033300  0.71559800  1
  Ag  Ag19  1  0.64439200  0.98252400  0.67741700  1
  Ag  Ag20  1  0.12325100  0.46505400  0.44006900  1
  Ag  Ag21  1  0.16838800  0.88966700  0.21559800  1
  Ag  Ag22  1  0.72452300  0.25000000  0.13091500  1
  Ag  Ag23  1  0.28566200  0.57057400  0.55729500  1
  Ag  Ag24  1  0.71433800  0.07057400  0.44270500  1
  Ag  Ag25  1  0.78566200  0.57057400  0.94270500  1
  Ag  Ag26  1  0.27547700  0.75000000  0.86908500  1
  Ag  Ag27  1  0.85560800  0.01747600  0.17741700  1
  Ag  Ag28  1  0.83161200  0.38966700  0.78440200  1
  Ag  Ag29  1  0.35560800  0.48252400  0.32258300  1
  Ag  Ag30  1  0.66838800  0.88966700  0.28440200  1
  Ag  Ag31  1  0.62325100  0.46505400  0.05993100  1
  Ag  Ag32  1  0.16838800  0.61033300  0.21559800  1
  Ag  Ag33  1  0.83161200  0.11033300  0.78440200  1
  Ag  Ag34  1  0.12325100  0.03494600  0.44006900  1
  Ag  Ag35  1  0.71433800  0.42942600  0.44270500  1
  As  As36  1  0.78746200  0.75000000  0.79383200  1
  As  As37  1  0.75262600  0.75000000  0.10776500  1
  As  As38  1  0.21253800  0.25000000  0.20616800  1
  As  As39  1  0.28126300  0.75000000  0.05368300  1
  As  As40  1  0.24737400  0.25000000  0.89223500  1
  As  As41  1  0.71253800  0.25000000  0.29383200  1
  As  As42  1  0.28746200  0.75000000  0.70616800  1
  As  As43  1  0.25262600  0.75000000  0.39223500  1
  As  As44  1  0.78126300  0.75000000  0.44631700  1
  As  As45  1  0.74737400  0.25000000  0.60776500  1
  As  As46  1  0.21873700  0.25000000  0.55368300  1
  As  As47  1  0.71873700  0.25000000  0.94631700  1
  Se  Se48  1  0.60167200  0.41653200  0.56326000  1
  Se  Se49  1  0.39832800  0.91653200  0.43674000  1
  Se  Se50  1  0.45001200  0.75000000  0.60995100  1
  Se  Se51  1  0.51394900  0.25000000  0.03191800  1
  Se  Se52  1  0.89832800  0.91653200  0.06326000  1
  Se  Se53  1  0.89832800  0.58346800  0.06326000  1
  Se  Se54  1  0.10167200  0.08346800  0.93674000  1
  Se  Se55  1  0.91730300  0.59639000  0.73116800  1
  Se  Se56  1  0.08269700  0.40361000  0.26883200  1
  Se  Se57  1  0.11301800  0.25000000  0.78771800  1
  Se  Se58  1  0.54998800  0.25000000  0.39004900  1
  Se  Se59  1  0.12146400  0.08859000  0.61853000  1
  Se  Se60  1  0.98605100  0.75000000  0.53191800  1
  Se  Se61  1  0.60167200  0.08346800  0.56326000  1
  Se  Se62  1  0.10167200  0.41653200  0.93674000  1
  Se  Se63  1  0.58269700  0.09639000  0.23116800  1
  Se  Se64  1  0.04998800  0.25000000  0.10995100  1
  Se  Se65  1  0.12146400  0.41141000  0.61853000  1
  Se  Se66  1  0.61301800  0.25000000  0.71228200  1
  Se  Se67  1  0.87853600  0.91141000  0.38147000  1
  Se  Se68  1  0.37853600  0.58859000  0.11853000  1
  Se  Se69  1  0.41730300  0.90361000  0.76883200  1
  Se  Se70  1  0.08269700  0.09639000  0.26883200  1
  Se  Se71  1  0.58269700  0.40361000  0.23116800  1
  Se  Se72  1  0.39832800  0.58346800  0.43674000  1
  Se  Se73  1  0.95001200  0.75000000  0.89004900  1
  Se  Se74  1  0.37853600  0.91141000  0.11853000  1
  Se  Se75  1  0.87853600  0.58859000  0.38147000  1
  Se  Se76  1  0.91730300  0.90361000  0.73116800  1
  Se  Se77  1  0.62146400  0.41141000  0.88147000  1
  Se  Se78  1  0.41730300  0.59639000  0.76883200  1
  Se  Se79  1  0.01394900  0.25000000  0.46808200  1
  Se  Se80  1  0.88698200  0.75000000  0.21228200  1
  Se  Se81  1  0.38698200  0.75000000  0.28771800  1
  Se  Se82  1  0.62146400  0.08859000  0.88147000  1
  Se  Se83  1  0.48605100  0.75000000  0.96808200  1
