# generated using pymatgen
data_Cs2MnTe2
_symmetry_space_group_name_H-M   'P 1'
_cell_length_a   9.44155314
_cell_length_b   9.44155314
_cell_length_c   9.44155314
_cell_angle_alpha   134.58759893
_cell_angle_beta   129.62570984
_cell_angle_gamma   70.13722360
_symmetry_Int_Tables_number   1
_chemical_formula_structural   Cs2MnTe2
_chemical_formula_sum   'Cs4 Mn2 Te4'
_cell_volume   452.64897405
_cell_formula_units_Z   2
loop_
 _symmetry_equiv_pos_site_id
 _symmetry_equiv_pos_as_xyz
  1  'x, y, z'
loop_
 _atom_site_type_symbol
 _atom_site_label
 _atom_site_symmetry_multiplicity
 _atom_site_fract_x
 _atom_site_fract_y
 _atom_site_fract_z
 _atom_site_occupancy
  Cs  Cs0  1  0.97243000  0.64582400  0.32660600  1
  Cs  Cs1  1  0.68078200  0.85417600  0.82660600  1
  Cs  Cs2  1  0.31921800  0.14582400  0.17339400  1
  Cs  Cs3  1  0.02757000  0.35417600  0.67339400  1
  Mn  Mn4  1  0.50000000  0.25000000  0.75000000  1
  Mn  Mn5  1  0.50000000  0.75000000  0.25000000  1
  Te  Te6  1  0.57991400  0.40182600  0.17808900  1
  Te  Te7  1  0.22373700  0.90182600  0.32191100  1
  Te  Te8  1  0.77626300  0.09817400  0.67808900  1
  Te  Te9  1  0.42008600  0.59817400  0.82191100  1
