# generated using pymatgen
data_Cs(Bi2Te3)2
_symmetry_space_group_name_H-M   'P 1'
_cell_length_a   4.45979200
_cell_length_b   14.63098208
_cell_length_c   26.39758584
_cell_angle_alpha   101.11008998
_cell_angle_beta   94.80569790
_cell_angle_gamma   90.07050473
_symmetry_Int_Tables_number   1
_chemical_formula_structural   Cs(Bi2Te3)2
_chemical_formula_sum   'Cs4 Bi16 Te24'
_cell_volume   1683.98349031
_cell_formula_units_Z   4
loop_
 _symmetry_equiv_pos_site_id
 _symmetry_equiv_pos_as_xyz
  1  'x, y, z'
loop_
 _atom_site_type_symbol
 _atom_site_label
 _atom_site_symmetry_multiplicity
 _atom_site_fract_x
 _atom_site_fract_y
 _atom_site_fract_z
 _atom_site_occupancy
  Cs  Cs0  1  0.68873800  0.51593000  0.37495400  1
  Cs  Cs1  1  0.06295600  0.51024100  0.10961600  1
  Cs  Cs2  1  0.94635700  0.49180800  0.89281200  1
  Cs  Cs3  1  0.32020300  0.48294300  0.62566400  1
  Bi  Bi4  1  0.15887600  0.09182200  0.32687700  1
  Bi  Bi5  1  0.70643100  0.91173300  0.42582300  1
  Bi  Bi6  1  0.40993000  0.06159300  0.82244700  1
  Bi  Bi7  1  0.96160100  0.86197300  0.92002400  1
  Bi  Bi8  1  0.86689800  0.25009900  0.72745200  1
  Bi  Bi9  1  0.59569900  0.93656500  0.17808000  1
  Bi  Bi10  1  0.01764300  0.78887100  0.02985300  1
  Bi  Bi11  1  0.83671400  0.90762000  0.67458700  1
  Bi  Bi12  1  0.13170900  0.74956600  0.27258800  1
  Bi  Bi13  1  0.26462000  0.73998900  0.52932100  1
  Bi  Bi14  1  0.04594100  0.13676000  0.08016700  1
  Bi  Bi15  1  0.99187100  0.20962000  0.97048100  1
  Bi  Bi16  1  0.73646000  0.25967700  0.47107200  1
  Bi  Bi17  1  0.61921000  0.27664700  0.22974400  1
  Bi  Bi18  1  0.38447300  0.72122700  0.77009000  1
  Bi  Bi19  1  0.28659100  0.08861100  0.57549600  1
  Te  Te20  1  0.32362200  0.75851600  0.64882000  1
  Te  Te21  1  0.53552100  0.96106000  0.06592400  1
  Te  Te22  1  0.24120400  0.40078400  0.47904400  1
  Te  Te23  1  0.89306300  0.89923300  0.79093700  1
  Te  Te24  1  0.08470900  0.78627000  0.16169100  1
  Te  Te25  1  0.87545300  0.57928700  0.75270600  1
  Te  Te26  1  0.19854700  0.75949000  0.40584600  1
  Te  Te27  1  0.67319700  0.24104900  0.35168500  1
  Te  Te28  1  0.76010800  0.59885800  0.52148500  1
  Te  Te29  1  0.10808100  0.09869600  0.21039800  1
  Te  Te30  1  0.56273700  0.27869500  0.11538400  1
  Te  Te31  1  0.34854500  0.07106500  0.69278300  1
  Te  Te32  1  0.91843400  0.21217200  0.83822600  1
  Te  Te33  1  0.44136700  0.71996500  0.88456200  1
  Te  Te34  1  0.38008600  0.38977900  0.75406200  1
  Te  Te35  1  0.77399600  0.92450600  0.55089400  1
  Te  Te36  1  0.65005600  0.92840400  0.30841400  1
  Te  Te37  1  0.61933000  0.60951500  0.24675800  1
  Te  Te38  1  0.46686100  0.03655500  0.93470000  1
  Te  Te39  1  0.50880500  0.64341700  0.01534500  1
  Te  Te40  1  0.12770400  0.41867900  0.24788900  1
  Te  Te41  1  0.22598700  0.07615500  0.45075000  1
  Te  Te42  1  0.79869100  0.24116600  0.59492300  1
  Te  Te43  1  0.49770200  0.35481900  0.98628400  1
