# generated using pymatgen
data_Re3(SCl)7
_symmetry_space_group_name_H-M   'P 1'
_cell_length_a   9.74097405
_cell_length_b   9.74097405
_cell_length_c   22.76368600
_cell_angle_alpha   90.00000000
_cell_angle_beta   90.00000000
_cell_angle_gamma   120.00000034
_symmetry_Int_Tables_number   1
_chemical_formula_structural   Re3(SCl)7
_chemical_formula_sum   'Re12 S28 Cl28'
_cell_volume   1870.58733410
_cell_formula_units_Z   4
loop_
 _symmetry_equiv_pos_site_id
 _symmetry_equiv_pos_as_xyz
  1  'x, y, z'
loop_
 _atom_site_type_symbol
 _atom_site_label
 _atom_site_symmetry_multiplicity
 _atom_site_fract_x
 _atom_site_fract_y
 _atom_site_fract_z
 _atom_site_occupancy
  Re  Re0  1  0.85624300  0.03146600  0.57198900  1
  Re  Re1  1  0.17522400  0.14375700  0.57198900  1
  Re  Re2  1  0.63725100  0.47885700  0.33496200  1
  Re  Re3  1  0.14375700  0.17522400  0.07198900  1
  Re  Re4  1  0.96853400  0.82477600  0.57198900  1
  Re  Re5  1  0.03146600  0.85624300  0.07198900  1
  Re  Re6  1  0.82477600  0.96853400  0.07198900  1
  Re  Re7  1  0.52114300  0.15839500  0.33496200  1
  Re  Re8  1  0.36274900  0.84160500  0.83496200  1
  Re  Re9  1  0.84160500  0.36274900  0.33496200  1
  Re  Re10  1  0.47885700  0.63725100  0.83496200  1
  Re  Re11  1  0.15839500  0.52114300  0.83496200  1
  S  S12  1  0.74126400  0.68488200  0.06590900  1
  S  S13  1  0.07241200  0.71872600  0.84229700  1
  S  S14  1  0.92758800  0.64631400  0.34229700  1
  S  S15  1  0.29910300  0.46518600  0.76279300  1
  S  S16  1  0.71872600  0.07241200  0.34229700  1
  S  S17  1  0.16529300  0.96329200  0.64510100  1
  S  S18  1  0.66666700  0.33333300  0.41312000  1
  S  S19  1  0.03670800  0.20200100  0.64510100  1
  S  S20  1  0.83391700  0.53481400  0.26279300  1
  S  S21  1  0.96329200  0.16529300  0.14510100  1
  S  S22  1  0.46518600  0.29910300  0.26279300  1
  S  S23  1  0.31511800  0.05638200  0.06590900  1
  S  S24  1  0.83470700  0.79799900  0.14510100  1
  S  S25  1  0.00000000  0.00000000  0.99502600  1
  S  S26  1  0.33333300  0.66666700  0.91312000  1
  S  S27  1  0.35368600  0.28127400  0.34229700  1
  S  S28  1  0.70089700  0.16608300  0.26279300  1
  S  S29  1  0.28127400  0.35368600  0.84229700  1
  S  S30  1  0.64631400  0.92758800  0.84229700  1
  S  S31  1  0.68488200  0.74126400  0.56590900  1
  S  S32  1  0.20200100  0.03670800  0.14510100  1
  S  S33  1  0.53481400  0.83391700  0.76279300  1
  S  S34  1  0.00000000  0.00000000  0.49502600  1
  S  S35  1  0.16608300  0.70089700  0.76279300  1
  S  S36  1  0.79799900  0.83470700  0.64510100  1
  S  S37  1  0.25873600  0.94361800  0.56590900  1
  S  S38  1  0.05638200  0.31511800  0.56590900  1
  S  S39  1  0.94361800  0.25873600  0.06590900  1
  Cl  Cl40  1  0.65922300  0.94979800  0.99139300  1
  Cl  Cl41  1  0.67522800  0.08231100  0.62557100  1
  Cl  Cl42  1  0.38636200  0.02309600  0.90892700  1
  Cl  Cl43  1  0.61363800  0.63673500  0.40892700  1
  Cl  Cl44  1  0.70942400  0.05020200  0.49139300  1
  Cl  Cl45  1  0.59291700  0.91768900  0.12557100  1
  Cl  Cl46  1  0.93377500  0.34709800  0.77321800  1
  Cl  Cl47  1  0.41332200  0.06622500  0.77321800  1
  Cl  Cl48  1  0.02309600  0.38636200  0.40892700  1
  Cl  Cl49  1  0.00000000  0.00000000  0.73363900  1
  Cl  Cl50  1  0.05020200  0.70942400  0.99139300  1
  Cl  Cl51  1  0.34709800  0.93377500  0.27321800  1
  Cl  Cl52  1  0.40708300  0.32477200  0.62557100  1
  Cl  Cl53  1  0.63673500  0.61363800  0.90892700  1
  Cl  Cl54  1  0.29057600  0.34077700  0.99139300  1
  Cl  Cl55  1  0.58667800  0.65290200  0.27321800  1
  Cl  Cl56  1  0.91768900  0.59291700  0.62557100  1
  Cl  Cl57  1  0.66666700  0.33333300  0.17474400  1
  Cl  Cl58  1  0.32477200  0.40708300  0.12557100  1
  Cl  Cl59  1  0.00000000  0.00000000  0.23363900  1
  Cl  Cl60  1  0.94979800  0.65922300  0.49139300  1
  Cl  Cl61  1  0.36326500  0.97690400  0.40892700  1
  Cl  Cl62  1  0.08231100  0.67522800  0.12557100  1
  Cl  Cl63  1  0.34077700  0.29057600  0.49139300  1
  Cl  Cl64  1  0.06622500  0.41332200  0.27321800  1
  Cl  Cl65  1  0.97690400  0.36326500  0.90892700  1
  Cl  Cl66  1  0.65290200  0.58667800  0.77321800  1
  Cl  Cl67  1  0.33333300  0.66666700  0.67474400  1
