# generated using pymatgen
data_TlHg3As2Cl3
_symmetry_space_group_name_H-M   'P 1'
_cell_length_a   6.34057200
_cell_length_b   12.58200500
_cell_length_c   12.65443500
_cell_angle_alpha   90.00000000
_cell_angle_beta   90.00000000
_cell_angle_gamma   90.00000000
_symmetry_Int_Tables_number   1
_chemical_formula_structural   TlHg3As2Cl3
_chemical_formula_sum   'Tl4 Hg12 As8 Cl12'
_cell_volume   1009.53423535
_cell_formula_units_Z   4
loop_
 _symmetry_equiv_pos_site_id
 _symmetry_equiv_pos_as_xyz
  1  'x, y, z'
loop_
 _atom_site_type_symbol
 _atom_site_label
 _atom_site_symmetry_multiplicity
 _atom_site_fract_x
 _atom_site_fract_y
 _atom_site_fract_z
 _atom_site_occupancy
  Tl  Tl0  1  0.98266800  0.75000000  0.25237800  1
  Tl  Tl1  1  0.01733200  0.75000000  0.75237800  1
  Tl  Tl2  1  0.01733200  0.25000000  0.74762200  1
  Tl  Tl3  1  0.98266800  0.25000000  0.24762200  1
  Hg  Hg4  1  0.54234100  0.00000000  0.25000000  1
  Hg  Hg5  1  0.44993100  0.25000000  0.97972500  1
  Hg  Hg6  1  0.45765900  0.50000000  0.75000000  1
  Hg  Hg7  1  0.44993100  0.75000000  0.52027500  1
  Hg  Hg8  1  0.00000000  0.50000000  0.00000000  1
  Hg  Hg9  1  0.45765900  0.00000000  0.75000000  1
  Hg  Hg10  1  0.54234100  0.50000000  0.25000000  1
  Hg  Hg11  1  0.00000000  0.50000000  0.50000000  1
  Hg  Hg12  1  0.55006900  0.75000000  0.02027500  1
  Hg  Hg13  1  0.00000000  0.00000000  0.50000000  1
  Hg  Hg14  1  0.00000000  0.00000000  0.00000000  1
  Hg  Hg15  1  0.55006900  0.25000000  0.47972500  1
  As  As16  1  0.37890400  0.05058400  0.94422100  1
  As  As17  1  0.62109600  0.44941600  0.44422100  1
  As  As18  1  0.37890400  0.94941600  0.55577900  1
  As  As19  1  0.37890400  0.55058400  0.55577900  1
  As  As20  1  0.62109600  0.55058400  0.05577900  1
  As  As21  1  0.37890400  0.44941600  0.94422100  1
  As  As22  1  0.62109600  0.94941600  0.05577900  1
  As  As23  1  0.62109600  0.05058400  0.44422100  1
  Cl  Cl24  1  0.89616300  0.25000000  0.99687000  1
  Cl  Cl25  1  0.54711400  0.25000000  0.70445800  1
  Cl  Cl26  1  0.09751200  0.50000000  0.25000000  1
  Cl  Cl27  1  0.90248800  0.00000000  0.75000000  1
  Cl  Cl28  1  0.90248800  0.50000000  0.75000000  1
  Cl  Cl29  1  0.09751200  0.00000000  0.25000000  1
  Cl  Cl30  1  0.54711400  0.75000000  0.79554200  1
  Cl  Cl31  1  0.10383700  0.25000000  0.49687000  1
  Cl  Cl32  1  0.45288600  0.75000000  0.29554200  1
  Cl  Cl33  1  0.10383700  0.75000000  0.00313000  1
  Cl  Cl34  1  0.89616300  0.75000000  0.50313000  1
  Cl  Cl35  1  0.45288600  0.25000000  0.20445800  1
