# generated using pymatgen
data_Tl7Sb2
_symmetry_space_group_name_H-M   'P 1'
_cell_length_a   10.36311286
_cell_length_b   10.36311286
_cell_length_c   10.36311286
_cell_angle_alpha   109.47122063
_cell_angle_beta   109.47122063
_cell_angle_gamma   109.47122063
_symmetry_Int_Tables_number   1
_chemical_formula_structural   Tl7Sb2
_chemical_formula_sum   'Tl21 Sb6'
_cell_volume   856.73950498
_cell_formula_units_Z   3
loop_
 _symmetry_equiv_pos_site_id
 _symmetry_equiv_pos_as_xyz
  1  'x, y, z'
loop_
 _atom_site_type_symbol
 _atom_site_label
 _atom_site_symmetry_multiplicity
 _atom_site_fract_x
 _atom_site_fract_y
 _atom_site_fract_z
 _atom_site_occupancy
  Tl  Tl0  1  0.34988800  0.65011200  0.00000000  1
  Tl  Tl1  1  0.34988800  0.34988800  0.69977600  1
  Tl  Tl2  1  0.66356900  0.66356900  0.66356900  1
  Tl  Tl3  1  0.65011200  0.34988800  0.00000000  1
  Tl  Tl4  1  0.00000000  0.66356900  0.00000000  1
  Tl  Tl5  1  0.34988800  0.69977600  0.34988800  1
  Tl  Tl6  1  0.00000000  0.00000000  0.33643100  1
  Tl  Tl7  1  0.00000000  0.34988800  0.65011200  1
  Tl  Tl8  1  0.00000000  0.00000000  0.66356900  1
  Tl  Tl9  1  0.00000000  0.65011200  0.34988800  1
  Tl  Tl10  1  0.00000000  0.33643100  0.00000000  1
  Tl  Tl11  1  0.65011200  0.30022400  0.65011200  1
  Tl  Tl12  1  0.65011200  0.00000000  0.34988800  1
  Tl  Tl13  1  0.33643100  0.00000000  0.00000000  1
  Tl  Tl14  1  0.66356900  0.00000000  0.00000000  1
  Tl  Tl15  1  0.00000000  0.00000000  0.00000000  1
  Tl  Tl16  1  0.34988800  0.00000000  0.65011200  1
  Tl  Tl17  1  0.65011200  0.65011200  0.30022400  1
  Tl  Tl18  1  0.30022400  0.65011200  0.65011200  1
  Tl  Tl19  1  0.69977600  0.34988800  0.34988800  1
  Tl  Tl20  1  0.33643100  0.33643100  0.33643100  1
  Sb  Sb21  1  0.68874800  0.68874800  0.00000000  1
  Sb  Sb22  1  0.31125200  0.31125200  0.00000000  1
  Sb  Sb23  1  0.00000000  0.31125200  0.31125200  1
  Sb  Sb24  1  0.31125200  0.00000000  0.31125200  1
  Sb  Sb25  1  0.00000000  0.68874800  0.68874800  1
  Sb  Sb26  1  0.68874800  0.00000000  0.68874800  1
