# generated using pymatgen
data_V12P7
_symmetry_space_group_name_H-M   'P 1'
_cell_length_a   9.31298423
_cell_length_b   9.31298423
_cell_length_c   3.22406000
_cell_angle_alpha   90.00000000
_cell_angle_beta   90.00000000
_cell_angle_gamma   120.00000167
_symmetry_Int_Tables_number   1
_chemical_formula_structural   V12P7
_chemical_formula_sum   'V12 P7'
_cell_volume   242.16505601
_cell_formula_units_Z   1
loop_
 _symmetry_equiv_pos_site_id
 _symmetry_equiv_pos_as_xyz
  1  'x, y, z'
loop_
 _atom_site_type_symbol
 _atom_site_label
 _atom_site_symmetry_multiplicity
 _atom_site_fract_x
 _atom_site_fract_y
 _atom_site_fract_z
 _atom_site_occupancy
  V  V0  1  0.19872800  0.99335100  0.00000000  1
  V  V1  1  0.13234900  0.62150700  0.00000000  1
  V  V2  1  0.00664900  0.20537700  0.00000000  1
  V  V3  1  0.48915800  0.86765100  0.00000000  1
  V  V4  1  0.26510600  0.25172400  0.50000000  1
  V  V5  1  0.37849300  0.51084200  0.00000000  1
  V  V6  1  0.79462300  0.80127200  0.00000000  1
  V  V7  1  0.62636000  0.49734900  0.50000000  1
  V  V8  1  0.50265100  0.12901100  0.50000000  1
  V  V9  1  0.98661700  0.73489400  0.50000000  1
  V  V10  1  0.87098900  0.37364000  0.50000000  1
  V  V11  1  0.74827600  0.01338300  0.50000000  1
  P  P12  1  0.28394900  0.84126700  0.50000000  1
  P  P13  1  0.15873300  0.44268300  0.50000000  1
  P  P14  1  0.55731700  0.71605100  0.50000000  1
  P  P15  1  0.46248600  0.29121700  0.00000000  1
  P  P16  1  0.00000000  0.00000000  0.50000000  1
  P  P17  1  0.82873100  0.53751400  0.00000000  1
  P  P18  1  0.70878300  0.17126900  0.00000000  1
