# generated using pymatgen
data_Lu6CuTe2
_symmetry_space_group_name_H-M   'P 1'
_cell_length_a   3.94432100
_cell_length_b   11.31651800
_cell_length_c   21.14473700
_cell_angle_alpha   90.00000000
_cell_angle_beta   90.00000000
_cell_angle_gamma   90.00000000
_symmetry_Int_Tables_number   1
_chemical_formula_structural   Lu6CuTe2
_chemical_formula_sum   'Lu24 Cu4 Te8'
_cell_volume   943.81604926
_cell_formula_units_Z   4
loop_
 _symmetry_equiv_pos_site_id
 _symmetry_equiv_pos_as_xyz
  1  'x, y, z'
loop_
 _atom_site_type_symbol
 _atom_site_label
 _atom_site_symmetry_multiplicity
 _atom_site_fract_x
 _atom_site_fract_y
 _atom_site_fract_z
 _atom_site_occupancy
  Lu  Lu0  1  0.75000000  0.93998400  0.64136200  1
  Lu  Lu1  1  0.25000000  0.38033300  0.47569700  1
  Lu  Lu2  1  0.25000000  0.11966700  0.97569700  1
  Lu  Lu3  1  0.25000000  0.30942900  0.10864900  1
  Lu  Lu4  1  0.75000000  0.23687500  0.23189900  1
  Lu  Lu5  1  0.25000000  0.76312500  0.76810100  1
  Lu  Lu6  1  0.75000000  0.69057100  0.89135100  1
  Lu  Lu7  1  0.25000000  0.02970500  0.15452100  1
  Lu  Lu8  1  0.75000000  0.11231600  0.49368100  1
  Lu  Lu9  1  0.25000000  0.47029500  0.65452100  1
  Lu  Lu10  1  0.75000000  0.88033300  0.02430300  1
  Lu  Lu11  1  0.75000000  0.56001600  0.14136200  1
  Lu  Lu12  1  0.75000000  0.80942900  0.39135100  1
  Lu  Lu13  1  0.75000000  0.61966700  0.52430300  1
  Lu  Lu14  1  0.25000000  0.43998400  0.85863800  1
  Lu  Lu15  1  0.25000000  0.06001600  0.35863800  1
  Lu  Lu16  1  0.25000000  0.19057100  0.60864900  1
  Lu  Lu17  1  0.25000000  0.73687500  0.26810100  1
  Lu  Lu18  1  0.75000000  0.38768400  0.99368100  1
  Lu  Lu19  1  0.75000000  0.52970500  0.34547900  1
  Lu  Lu20  1  0.25000000  0.61231600  0.00631900  1
  Lu  Lu21  1  0.75000000  0.26312500  0.73189900  1
  Lu  Lu22  1  0.75000000  0.97029500  0.84547900  1
  Lu  Lu23  1  0.25000000  0.88768400  0.50631900  1
  Cu  Cu24  1  0.75000000  0.13620100  0.07665200  1
  Cu  Cu25  1  0.25000000  0.63620100  0.42334800  1
  Cu  Cu26  1  0.25000000  0.86379900  0.92334800  1
  Cu  Cu27  1  0.75000000  0.36379900  0.57665200  1
  Te  Te28  1  0.25000000  0.73309400  0.62576900  1
  Te  Te29  1  0.75000000  0.26690600  0.37423100  1
  Te  Te30  1  0.25000000  0.04590200  0.73871000  1
  Te  Te31  1  0.25000000  0.45409800  0.23871000  1
  Te  Te32  1  0.75000000  0.23309400  0.87423100  1
  Te  Te33  1  0.75000000  0.54590200  0.76129000  1
  Te  Te34  1  0.25000000  0.76690600  0.12576900  1
  Te  Te35  1  0.75000000  0.95409800  0.26129000  1
