# generated using pymatgen
data_NdReMoO8
_symmetry_space_group_name_H-M   'P 1'
_cell_length_a   9.97673400
_cell_length_b   6.27926500
_cell_length_c   13.32449313
_cell_angle_alpha   68.41973303
_cell_angle_beta   90.00000000
_cell_angle_gamma   90.00000000
_symmetry_Int_Tables_number   1
_chemical_formula_structural   NdReMoO8
_chemical_formula_sum   'Nd4 Re4 Mo4 O32'
_cell_volume   776.22147069
_cell_formula_units_Z   4
loop_
 _symmetry_equiv_pos_site_id
 _symmetry_equiv_pos_as_xyz
  1  'x, y, z'
loop_
 _atom_site_type_symbol
 _atom_site_label
 _atom_site_symmetry_multiplicity
 _atom_site_fract_x
 _atom_site_fract_y
 _atom_site_fract_z
 _atom_site_occupancy
  Nd  Nd0  1  0.23808900  0.82372900  0.37494900  1
  Nd  Nd1  1  0.26191100  0.82372900  0.87494900  1
  Nd  Nd2  1  0.76191100  0.17627100  0.62505100  1
  Nd  Nd3  1  0.73808900  0.17627100  0.12505100  1
  Re  Re4  1  0.98892600  0.37564700  0.84502400  1
  Re  Re5  1  0.01107400  0.62435300  0.15497600  1
  Re  Re6  1  0.48892600  0.62435300  0.65497600  1
  Re  Re7  1  0.51107400  0.37564700  0.34502400  1
  Mo  Mo8  1  0.33639400  0.15833600  0.07959100  1
  Mo  Mo9  1  0.66360600  0.84166400  0.92040900  1
  Mo  Mo10  1  0.16360600  0.15833600  0.57959100  1
  Mo  Mo11  1  0.83639400  0.84166400  0.42040900  1
  O  O12  1  0.07396300  0.63900100  0.80900300  1
  O  O13  1  0.22017200  0.07637900  0.19065300  1
  O  O14  1  0.42104600  0.69740200  0.52536600  1
  O  O15  1  0.92104600  0.30259800  0.97463400  1
  O  O16  1  0.92603700  0.36099900  0.19099700  1
  O  O17  1  0.50248900  0.15571000  0.13056400  1
  O  O18  1  0.39867400  0.16064900  0.34658300  1
  O  O19  1  0.00248900  0.84429000  0.36943600  1
  O  O20  1  0.20432000  0.43951100  0.48706000  1
  O  O21  1  0.17755100  0.96089200  0.51155400  1
  O  O22  1  0.57895400  0.30259800  0.47463400  1
  O  O23  1  0.63833700  0.40090900  0.25107000  1
  O  O24  1  0.36166300  0.59909100  0.74893000  1
  O  O25  1  0.07895400  0.69740200  0.02536600  1
  O  O26  1  0.57396300  0.36099900  0.69099700  1
  O  O27  1  0.86166300  0.40090900  0.75107000  1
  O  O28  1  0.72017200  0.92362100  0.30934700  1
  O  O29  1  0.29568000  0.43951100  0.98706000  1
  O  O30  1  0.42603700  0.63900100  0.30900300  1
  O  O31  1  0.27982800  0.07637900  0.69065300  1
  O  O32  1  0.60132600  0.83935100  0.65341700  1
  O  O33  1  0.13833700  0.59909100  0.24893000  1
  O  O34  1  0.32244900  0.96089200  0.01155400  1
  O  O35  1  0.49751100  0.84429000  0.86943600  1
  O  O36  1  0.67755100  0.03910800  0.98844600  1
  O  O37  1  0.82244900  0.03910800  0.48844600  1
  O  O38  1  0.70432000  0.56048900  0.01294000  1
  O  O39  1  0.79568000  0.56048900  0.51294000  1
  O  O40  1  0.89867400  0.83935100  0.15341700  1
  O  O41  1  0.99751100  0.15571000  0.63056400  1
  O  O42  1  0.10132600  0.16064900  0.84658300  1
  O  O43  1  0.77982800  0.92362100  0.80934700  1
