# generated using pymatgen
data_BaAl2(SiO4)2
_symmetry_space_group_name_H-M   'P 1'
_cell_length_a   9.71528700
_cell_length_b   8.67280600
_cell_length_c   9.20844985
_cell_angle_alpha   89.83791441
_cell_angle_beta   90.00000000
_cell_angle_gamma   90.00000000
_symmetry_Int_Tables_number   1
_chemical_formula_structural   BaAl2(SiO4)2
_chemical_formula_sum   'Ba4 Al8 Si8 O32'
_cell_volume   775.88982362
_cell_formula_units_Z   4
loop_
 _symmetry_equiv_pos_site_id
 _symmetry_equiv_pos_as_xyz
  1  'x, y, z'
loop_
 _atom_site_type_symbol
 _atom_site_label
 _atom_site_symmetry_multiplicity
 _atom_site_fract_x
 _atom_site_fract_y
 _atom_site_fract_z
 _atom_site_occupancy
  Ba  Ba0  1  0.08709000  0.74930400  0.39854500  1
  Ba  Ba1  1  0.58709000  0.25069600  0.10145500  1
  Ba  Ba2  1  0.91291000  0.25069600  0.60145500  1
  Ba  Ba3  1  0.41291000  0.74930400  0.89854500  1
  Al  Al4  1  0.57977100  0.06953700  0.72226800  1
  Al  Al5  1  0.07977100  0.93046300  0.77773200  1
  Al  Al6  1  0.42022900  0.93046300  0.27773200  1
  Al  Al7  1  0.92022900  0.06953700  0.22226800  1
  Al  Al8  1  0.30692700  0.42808700  0.56515400  1
  Al  Al9  1  0.80692700  0.57191300  0.93484600  1
  Al  Al10  1  0.69307300  0.57191300  0.43484600  1
  Al  Al11  1  0.19307300  0.42808700  0.06515400  1
  Si  Si12  1  0.58456300  0.43735000  0.73006900  1
  Si  Si13  1  0.08456300  0.56265000  0.76993100  1
  Si  Si14  1  0.41543700  0.56265000  0.26993100  1
  Si  Si15  1  0.91543700  0.43735000  0.23006900  1
  Si  Si16  1  0.30115200  0.05916800  0.56971800  1
  Si  Si17  1  0.80115200  0.94083200  0.93028200  1
  Si  Si18  1  0.69884800  0.94083200  0.43028200  1
  Si  Si19  1  0.19884800  0.05916800  0.06971800  1
  O  O20  1  0.58902900  0.25919900  0.79147400  1
  O  O21  1  0.08902900  0.74080100  0.70852600  1
  O  O22  1  0.41097100  0.74080100  0.20852600  1
  O  O23  1  0.91097100  0.25919900  0.29147400  1
  O  O24  1  0.33346500  0.23538500  0.52206700  1
  O  O25  1  0.83346500  0.76461500  0.97793300  1
  O  O26  1  0.66653500  0.76461500  0.47793300  1
  O  O27  1  0.16653500  0.23538500  0.02206700  1
  O  O28  1  0.31360300  0.54958200  0.41057000  1
  O  O29  1  0.81360300  0.45041800  0.08943000  1
  O  O30  1  0.68639700  0.45041800  0.58943000  1
  O  O31  1  0.18639700  0.54958200  0.91057000  1
  O  O32  1  0.31342400  0.94143000  0.43079600  1
  O  O33  1  0.81342400  0.05857000  0.06920400  1
  O  O34  1  0.68657600  0.05857000  0.56920400  1
  O  O35  1  0.18657600  0.94143000  0.93079600  1
  O  O36  1  0.13730600  0.45510000  0.63347900  1
  O  O37  1  0.63730600  0.54490000  0.86652100  1
  O  O38  1  0.86269400  0.54490000  0.36652100  1
  O  O39  1  0.36269400  0.45510000  0.13347900  1
  O  O40  1  0.08854900  0.00008600  0.19479200  1
  O  O41  1  0.58854900  0.99991400  0.30520800  1
  O  O42  1  0.91145100  0.99991400  0.80520800  1
  O  O43  1  0.41145100  0.00008600  0.69479200  1
  O  O44  1  0.07114600  0.49727600  0.19302400  1
  O  O45  1  0.57114600  0.50272400  0.30697600  1
  O  O46  1  0.92885400  0.50272400  0.80697600  1
  O  O47  1  0.42885400  0.49727600  0.69302400  1
  O  O48  1  0.35854900  0.04322000  0.13027300  1
  O  O49  1  0.85854900  0.95678000  0.36972700  1
  O  O50  1  0.64145100  0.95678000  0.86972700  1
  O  O51  1  0.14145100  0.04322000  0.63027300  1
