# generated using pymatgen
data_Ba8CaY2U4O24
_symmetry_space_group_name_H-M   'P 1'
_cell_length_a   10.76834837
_cell_length_b   10.76834837
_cell_length_c   12.40363700
_cell_angle_alpha   90.00000000
_cell_angle_beta   90.00000000
_cell_angle_gamma   109.76859682
_symmetry_Int_Tables_number   1
_chemical_formula_structural   Ba8CaY2U4O24
_chemical_formula_sum   'Ba16 Ca2 Y4 U8 O48'
_cell_volume   1353.52866269
_cell_formula_units_Z   2
loop_
 _symmetry_equiv_pos_site_id
 _symmetry_equiv_pos_as_xyz
  1  'x, y, z'
loop_
 _atom_site_type_symbol
 _atom_site_label
 _atom_site_symmetry_multiplicity
 _atom_site_fract_x
 _atom_site_fract_y
 _atom_site_fract_z
 _atom_site_occupancy
  Ba  Ba0  1  0.85080700  0.61619500  0.50000000  1
  Ba  Ba1  1  0.61619500  0.85080700  0.50000000  1
  Ba  Ba2  1  0.11786800  0.88213200  0.76690400  1
  Ba  Ba3  1  0.88213200  0.11786800  0.23309600  1
  Ba  Ba4  1  0.14919300  0.38380500  0.50000000  1
  Ba  Ba5  1  0.38380500  0.14919300  0.50000000  1
  Ba  Ba6  1  0.35199300  0.11787200  0.00000000  1
  Ba  Ba7  1  0.61871800  0.38128200  0.73968500  1
  Ba  Ba8  1  0.11787200  0.35199300  0.00000000  1
  Ba  Ba9  1  0.88213200  0.11786800  0.76690400  1
  Ba  Ba10  1  0.61871800  0.38128200  0.26031500  1
  Ba  Ba11  1  0.88212800  0.64800700  0.00000000  1
  Ba  Ba12  1  0.64800700  0.88212800  0.00000000  1
  Ba  Ba13  1  0.38128200  0.61871800  0.26031500  1
  Ba  Ba14  1  0.11786800  0.88213200  0.23309600  1
  Ba  Ba15  1  0.38128200  0.61871800  0.73968500  1
  Ca  Ca16  1  0.00000000  0.00000000  0.50000000  1
  Ca  Ca17  1  0.50000000  0.50000000  0.00000000  1
  Y  Y18  1  0.00000000  0.50000000  0.75024900  1
  Y  Y19  1  0.50000000  0.00000000  0.24975100  1
  Y  Y20  1  0.50000000  0.00000000  0.75024900  1
  Y  Y21  1  0.00000000  0.50000000  0.24975100  1
  U  U22  1  0.24689600  0.75310400  0.50000000  1
  U  U23  1  0.74652100  0.25347900  0.00000000  1
  U  U24  1  0.75038800  0.75038800  0.75118000  1
  U  U25  1  0.24961200  0.24961200  0.24882000  1
  U  U26  1  0.75310400  0.24689600  0.50000000  1
  U  U27  1  0.75038800  0.75038800  0.24882000  1
  U  U28  1  0.25347900  0.74652100  0.00000000  1
  U  U29  1  0.24961200  0.24961200  0.75118000  1
  O  O30  1  0.13076600  0.62577300  0.37848900  1
  O  O31  1  0.86775000  0.86775000  0.63058900  1
  O  O32  1  0.62789700  0.87311700  0.75421900  1
  O  O33  1  0.63058300  0.12759500  0.87870700  1
  O  O34  1  0.63229600  0.63229600  0.12911400  1
  O  O35  1  0.13225000  0.13225000  0.36941100  1
  O  O36  1  0.12759500  0.63058300  0.12129300  1
  O  O37  1  0.87240500  0.36941700  0.87870700  1
  O  O38  1  0.13860900  0.86139100  0.00000000  1
  O  O39  1  0.13326700  0.13326700  0.13481500  1
  O  O40  1  0.63353200  0.63353200  0.36229300  1
  O  O41  1  0.36770400  0.36770400  0.12911400  1
  O  O42  1  0.36134200  0.63865800  0.50000000  1
  O  O43  1  0.63058300  0.12759500  0.12129300  1
  O  O44  1  0.12759500  0.63058300  0.87870700  1
  O  O45  1  0.63229600  0.63229600  0.87088600  1
  O  O46  1  0.63132700  0.36867300  0.00000000  1
  O  O47  1  0.36941700  0.87240500  0.87870700  1
  O  O48  1  0.86777800  0.13222200  0.50000000  1
  O  O49  1  0.62577300  0.13076600  0.37848900  1
  O  O50  1  0.86673300  0.86673300  0.86518500  1
  O  O51  1  0.36646800  0.36646800  0.63770700  1
  O  O52  1  0.63353200  0.63353200  0.63770700  1
  O  O53  1  0.86139100  0.13860900  0.00000000  1
  O  O54  1  0.13326700  0.13326700  0.86518500  1
  O  O55  1  0.87311700  0.62789700  0.24578100  1
  O  O56  1  0.86775000  0.86775000  0.36941100  1
  O  O57  1  0.13076600  0.62577300  0.62151100  1
  O  O58  1  0.36770400  0.36770400  0.87088600  1
  O  O59  1  0.87311700  0.62789700  0.75421900  1
  O  O60  1  0.13222200  0.86777800  0.50000000  1
  O  O61  1  0.63865800  0.36134200  0.50000000  1
  O  O62  1  0.86923400  0.37422700  0.62151100  1
  O  O63  1  0.87240500  0.36941700  0.12129300  1
  O  O64  1  0.86673300  0.86673300  0.13481500  1
  O  O65  1  0.36941700  0.87240500  0.12129300  1
  O  O66  1  0.12688300  0.37210300  0.75421900  1
  O  O67  1  0.37422700  0.86923400  0.37848900  1
  O  O68  1  0.62577300  0.13076600  0.62151100  1
  O  O69  1  0.86923400  0.37422700  0.37848900  1
  O  O70  1  0.12688300  0.37210300  0.24578100  1
  O  O71  1  0.36867300  0.63132700  0.00000000  1
  O  O72  1  0.37210300  0.12688300  0.75421900  1
  O  O73  1  0.37422700  0.86923400  0.62151100  1
  O  O74  1  0.36646800  0.36646800  0.36229300  1
  O  O75  1  0.37210300  0.12688300  0.24578100  1
  O  O76  1  0.62789700  0.87311700  0.24578100  1
  O  O77  1  0.13225000  0.13225000  0.63058900  1
