# generated using pymatgen
data_Na3La9B8O27
_symmetry_space_group_name_H-M   'P 1'
_cell_length_a   8.94996830
_cell_length_b   8.94996830
_cell_length_c   8.74446100
_cell_angle_alpha   90.00000000
_cell_angle_beta   90.00000000
_cell_angle_gamma   120.00000223
_symmetry_Int_Tables_number   1
_chemical_formula_structural   Na3La9B8O27
_chemical_formula_sum   'Na3 La9 B8 O27'
_cell_volume   606.60594387
_cell_formula_units_Z   1
loop_
 _symmetry_equiv_pos_site_id
 _symmetry_equiv_pos_as_xyz
  1  'x, y, z'
loop_
 _atom_site_type_symbol
 _atom_site_label
 _atom_site_symmetry_multiplicity
 _atom_site_fract_x
 _atom_site_fract_y
 _atom_site_fract_z
 _atom_site_occupancy
  Na  Na0  1  0.66797100  0.00000000  0.00000000  1
  Na  Na1  1  0.00000000  0.66797100  0.00000000  1
  Na  Na2  1  0.33202900  0.33202900  0.00000000  1
  La  La3  1  0.34881300  0.00000000  0.76593900  1
  La  La4  1  0.65118700  0.65118700  0.23406100  1
  La  La5  1  0.00000000  0.34881300  0.23406100  1
  La  La6  1  0.00000000  0.34881300  0.76593900  1
  La  La7  1  0.65118700  0.65118700  0.76593900  1
  La  La8  1  0.34881300  0.00000000  0.23406100  1
  La  La9  1  0.71743300  0.00000000  0.50000000  1
  La  La10  1  0.00000000  0.71743300  0.50000000  1
  La  La11  1  0.28256700  0.28256700  0.50000000  1
  B  B12  1  0.66666700  0.33333300  0.67618000  1
  B  B13  1  0.33333300  0.66666700  0.32382000  1
  B  B14  1  0.33333300  0.66666700  0.67618000  1
  B  B15  1  0.66666700  0.33333300  0.32382000  1
  B  B16  1  0.33333300  0.66666700  0.00000000  1
  B  B17  1  0.66666700  0.33333300  0.00000000  1
  B  B18  1  0.00000000  0.00000000  0.79011900  1
  B  B19  1  0.00000000  0.00000000  0.20988100  1
  O  O20  1  0.48671300  0.82110100  0.68184700  1
  O  O21  1  0.17889900  0.66561200  0.68184700  1
  O  O22  1  0.82110100  0.48671300  0.31815300  1
  O  O23  1  0.66561200  0.17889900  0.31815300  1
  O  O24  1  0.33438800  0.51328700  0.68184700  1
  O  O25  1  0.51328700  0.33438800  0.68184700  1
  O  O26  1  0.33438800  0.51328700  0.31815300  1
  O  O27  1  0.17889900  0.66561200  0.31815300  1
  O  O28  1  0.48671300  0.82110100  0.31815300  1
  O  O29  1  0.00000000  0.25706000  0.50000000  1
  O  O30  1  0.25706000  0.00000000  0.50000000  1
  O  O31  1  0.74294000  0.74294000  0.50000000  1
  O  O32  1  0.15540700  0.15540700  0.21217500  1
  O  O33  1  0.00000000  0.84459300  0.78782500  1
  O  O34  1  0.84459300  0.00000000  0.78782500  1
  O  O35  1  0.84459300  0.00000000  0.21217500  1
  O  O36  1  0.00000000  0.84459300  0.21217500  1
  O  O37  1  0.15540700  0.15540700  0.78782500  1
  O  O38  1  0.50470200  0.18275100  0.00000000  1
  O  O39  1  0.67805000  0.49529800  0.00000000  1
  O  O40  1  0.81724900  0.32195000  0.00000000  1
  O  O41  1  0.32195000  0.81724900  0.00000000  1
  O  O42  1  0.49529800  0.67805000  0.00000000  1
  O  O43  1  0.18275100  0.50470200  0.00000000  1
  O  O44  1  0.51328700  0.33438800  0.31815300  1
  O  O45  1  0.82110100  0.48671300  0.68184700  1
  O  O46  1  0.66561200  0.17889900  0.68184700  1
