# generated using pymatgen
data_PBr7
_symmetry_space_group_name_H-M   'P 1'
_cell_length_a   8.34261800
_cell_length_b   9.39783300
_cell_length_c   15.13122900
_cell_angle_alpha   90.00000000
_cell_angle_beta   90.00000000
_cell_angle_gamma   90.00000000
_symmetry_Int_Tables_number   1
_chemical_formula_structural   PBr7
_chemical_formula_sum   'P4 Br28'
_cell_volume   1186.32664691
_cell_formula_units_Z   4
loop_
 _symmetry_equiv_pos_site_id
 _symmetry_equiv_pos_as_xyz
  1  'x, y, z'
loop_
 _atom_site_type_symbol
 _atom_site_label
 _atom_site_symmetry_multiplicity
 _atom_site_fract_x
 _atom_site_fract_y
 _atom_site_fract_z
 _atom_site_occupancy
  P  P0  1  0.75000000  0.88100000  0.14609300  1
  P  P1  1  0.75000000  0.38100000  0.35390700  1
  P  P2  1  0.25000000  0.61900000  0.64609300  1
  P  P3  1  0.25000000  0.11900000  0.85390700  1
  Br  Br4  1  0.25000000  0.33336400  0.12417600  1
  Br  Br5  1  0.75000000  0.89274900  0.79871000  1
  Br  Br6  1  0.75000000  0.92073600  0.28898000  1
  Br  Br7  1  0.53417400  0.76254100  0.10681200  1
  Br  Br8  1  0.25000000  0.60725100  0.29871000  1
  Br  Br9  1  0.46582600  0.73745900  0.60681200  1
  Br  Br10  1  0.25000000  0.57926400  0.78898000  1
  Br  Br11  1  0.25000000  0.09454500  0.47345800  1
  Br  Br12  1  0.75000000  0.58680200  0.42212100  1
  Br  Br13  1  0.46582600  0.23745900  0.89318800  1
  Br  Br14  1  0.25000000  0.91319800  0.92212100  1
  Br  Br15  1  0.75000000  0.42073600  0.21102000  1
  Br  Br16  1  0.53417400  0.26254100  0.39318800  1
  Br  Br17  1  0.75000000  0.16663600  0.62417600  1
  Br  Br18  1  0.25000000  0.83336400  0.37582400  1
  Br  Br19  1  0.96582600  0.26254100  0.39318800  1
  Br  Br20  1  0.75000000  0.90545500  0.52654200  1
  Br  Br21  1  0.96582600  0.76254100  0.10681200  1
  Br  Br22  1  0.25000000  0.10725100  0.20129000  1
  Br  Br23  1  0.75000000  0.08680200  0.07787900  1
  Br  Br24  1  0.75000000  0.66663600  0.87582400  1
  Br  Br25  1  0.75000000  0.39274900  0.70129000  1
  Br  Br26  1  0.25000000  0.59454500  0.02654200  1
  Br  Br27  1  0.03417400  0.73745900  0.60681200  1
  Br  Br28  1  0.75000000  0.40545500  0.97345800  1
  Br  Br29  1  0.25000000  0.41319800  0.57787900  1
  Br  Br30  1  0.25000000  0.07926400  0.71102000  1
  Br  Br31  1  0.03417400  0.23745900  0.89318800  1
