# generated using pymatgen
data_Ca3La3(BO3)5
_symmetry_space_group_name_H-M   'P 1'
_cell_length_a   10.60468422
_cell_length_b   10.60468422
_cell_length_c   6.44457600
_cell_angle_alpha   90.00000000
_cell_angle_beta   90.00000000
_cell_angle_gamma   120.00000139
_symmetry_Int_Tables_number   1
_chemical_formula_structural   Ca3La3(BO3)5
_chemical_formula_sum   'Ca6 La6 B10 O30'
_cell_volume   627.65422591
_cell_formula_units_Z   2
loop_
 _symmetry_equiv_pos_site_id
 _symmetry_equiv_pos_as_xyz
  1  'x, y, z'
loop_
 _atom_site_type_symbol
 _atom_site_label
 _atom_site_symmetry_multiplicity
 _atom_site_fract_x
 _atom_site_fract_y
 _atom_site_fract_z
 _atom_site_occupancy
  Ca  Ca0  1  0.47301300  0.52698700  0.76418200  1
  Ca  Ca1  1  0.94602700  0.47301300  0.26418200  1
  Ca  Ca2  1  0.52698700  0.05397300  0.26418200  1
  Ca  Ca3  1  0.47301300  0.94602700  0.76418200  1
  Ca  Ca4  1  0.05397300  0.52698700  0.76418200  1
  Ca  Ca5  1  0.52698700  0.47301300  0.26418200  1
  La  La6  1  0.15561500  0.84438500  0.07951200  1
  La  La7  1  0.31123000  0.15561500  0.57951200  1
  La  La8  1  0.84438500  0.68877000  0.57951200  1
  La  La9  1  0.15561500  0.31123000  0.07951200  1
  La  La10  1  0.68877000  0.84438500  0.07951200  1
  La  La11  1  0.84438500  0.15561500  0.57951200  1
  B  B12  1  0.00000000  0.00000000  0.74616400  1
  B  B13  1  0.33333300  0.66666700  0.09817600  1
  B  B14  1  0.66666700  0.33333300  0.59817600  1
  B  B15  1  0.00000000  0.00000000  0.24616400  1
  B  B16  1  0.80206200  0.19793800  0.04781600  1
  B  B17  1  0.60412500  0.80206200  0.54781600  1
  B  B18  1  0.19793800  0.39587500  0.54781600  1
  B  B19  1  0.80206200  0.60412500  0.04781600  1
  B  B20  1  0.39587500  0.19793800  0.04781600  1
  B  B21  1  0.19793800  0.80206200  0.54781600  1
  O  O22  1  0.18085300  0.59042700  0.09750500  1
  O  O23  1  0.59042700  0.40957300  0.59750500  1
  O  O24  1  0.40957300  0.81914700  0.09750500  1
  O  O25  1  0.59042700  0.18085300  0.59750500  1
  O  O26  1  0.81914700  0.40957300  0.59750500  1
  O  O27  1  0.40957300  0.59042700  0.09750500  1
  O  O28  1  0.22593300  0.77406700  0.74503100  1
  O  O29  1  0.45186700  0.22593300  0.24503100  1
  O  O30  1  0.77406700  0.54813300  0.24503100  1
  O  O31  1  0.77406700  0.22593300  0.24503100  1
  O  O32  1  0.22593300  0.45186700  0.74503100  1
  O  O33  1  0.54813300  0.77406700  0.74503100  1
  O  O34  1  0.62819600  0.92842200  0.44634000  1
  O  O35  1  0.69977400  0.62819600  0.94634000  1
  O  O36  1  0.92842200  0.30022600  0.94634000  1
  O  O37  1  0.07157800  0.69977400  0.44634000  1
  O  O38  1  0.30022600  0.37180400  0.44634000  1
  O  O39  1  0.37180400  0.07157800  0.94634000  1
  O  O40  1  0.30022600  0.92842200  0.44634000  1
  O  O41  1  0.62819600  0.69977400  0.44634000  1
  O  O42  1  0.07157800  0.37180400  0.44634000  1
  O  O43  1  0.92842200  0.62819600  0.94634000  1
  O  O44  1  0.69977400  0.07157800  0.94634000  1
  O  O45  1  0.37180400  0.30022600  0.94634000  1
  O  O46  1  0.07529400  0.92470600  0.73952800  1
  O  O47  1  0.15058700  0.07529400  0.23952800  1
  O  O48  1  0.92470600  0.84941300  0.23952800  1
  O  O49  1  0.07529400  0.15058700  0.73952800  1
  O  O50  1  0.84941300  0.92470600  0.73952800  1
  O  O51  1  0.92470600  0.07529400  0.23952800  1
