# generated using pymatgen
data_Rb3Ce(PSe4)2
_symmetry_space_group_name_H-M   'P 1'
_cell_length_a   18.39758500
_cell_length_b   9.68822700
_cell_length_c   10.24438467
_cell_angle_alpha   89.14535140
_cell_angle_beta   90.00000000
_cell_angle_gamma   90.00000000
_symmetry_Int_Tables_number   1
_chemical_formula_structural   Rb3Ce(PSe4)2
_chemical_formula_sum   'Rb12 Ce4 P8 Se32'
_cell_volume   1825.75578119
_cell_formula_units_Z   4
loop_
 _symmetry_equiv_pos_site_id
 _symmetry_equiv_pos_as_xyz
  1  'x, y, z'
loop_
 _atom_site_type_symbol
 _atom_site_label
 _atom_site_symmetry_multiplicity
 _atom_site_fract_x
 _atom_site_fract_y
 _atom_site_fract_z
 _atom_site_occupancy
  Rb  Rb0  1  0.29411400  0.60992600  0.36719100  1
  Rb  Rb1  1  0.96473200  0.76289600  0.01691600  1
  Rb  Rb2  1  0.03526800  0.23710400  0.98308400  1
  Rb  Rb3  1  0.21059900  0.09778900  0.35924100  1
  Rb  Rb4  1  0.28940100  0.09778900  0.85924100  1
  Rb  Rb5  1  0.79411400  0.39007400  0.13280900  1
  Rb  Rb6  1  0.46473200  0.23710400  0.48308400  1
  Rb  Rb7  1  0.70588600  0.39007400  0.63280900  1
  Rb  Rb8  1  0.20588600  0.60992600  0.86719100  1
  Rb  Rb9  1  0.53526800  0.76289600  0.51691600  1
  Rb  Rb10  1  0.78940100  0.90221100  0.64075900  1
  Rb  Rb11  1  0.71059900  0.90221100  0.14075900  1
  Ce  Ce12  1  0.48683600  0.72659700  0.97388400  1
  Ce  Ce13  1  0.98683600  0.27340300  0.52611600  1
  Ce  Ce14  1  0.01316400  0.72659700  0.47388400  1
  Ce  Ce15  1  0.51316400  0.27340300  0.02611600  1
  P  P16  1  0.39715000  0.49810200  0.76073200  1
  P  P17  1  0.10285000  0.49810200  0.26073200  1
  P  P18  1  0.40247500  0.97278900  0.22165800  1
  P  P19  1  0.90247500  0.02721100  0.27834200  1
  P  P20  1  0.89715000  0.50189800  0.73926800  1
  P  P21  1  0.59752500  0.02721100  0.77834200  1
  P  P22  1  0.60285000  0.50189800  0.23926800  1
  P  P23  1  0.09752500  0.97278900  0.72165800  1
  Se  Se24  1  0.02184900  0.04001000  0.32500900  1
  Se  Se25  1  0.84607800  0.17387200  0.41011800  1
  Se  Se26  1  0.65392200  0.17387200  0.91011800  1
  Se  Se27  1  0.51543800  0.44398100  0.74976000  1
  Se  Se28  1  0.37531000  0.92666200  0.42618100  1
  Se  Se29  1  0.68241000  0.61636200  0.35518500  1
  Se  Se30  1  0.11911400  0.46808900  0.47721700  1
  Se  Se31  1  0.18241000  0.38363800  0.14481500  1
  Se  Se32  1  0.31759000  0.38363800  0.64481500  1
  Se  Se33  1  0.11226300  0.72459800  0.23116200  1
  Se  Se34  1  0.12755300  0.18968300  0.66426200  1
  Se  Se35  1  0.12469000  0.92666200  0.92618100  1
  Se  Se36  1  0.87531000  0.07333800  0.07381900  1
  Se  Se37  1  0.37244700  0.18968300  0.16426200  1
  Se  Se38  1  0.52184900  0.95999000  0.17499100  1
  Se  Se39  1  0.47815100  0.04001000  0.82500900  1
  Se  Se40  1  0.15392200  0.82612800  0.58988200  1
  Se  Se41  1  0.62755300  0.81031700  0.83573800  1
  Se  Se42  1  0.62469000  0.07333800  0.57381900  1
  Se  Se43  1  0.97815100  0.95999000  0.67499100  1
  Se  Se44  1  0.61226300  0.27540200  0.26883800  1
  Se  Se45  1  0.88088600  0.53191100  0.52278300  1
  Se  Se46  1  0.38088600  0.46808900  0.97721700  1
  Se  Se47  1  0.48456200  0.55601900  0.25024000  1
  Se  Se48  1  0.38773700  0.72459800  0.73116200  1
  Se  Se49  1  0.88773700  0.27540200  0.76883800  1
  Se  Se50  1  0.01543800  0.55601900  0.75024000  1
  Se  Se51  1  0.81759000  0.61636200  0.85518500  1
  Se  Se52  1  0.98456200  0.44398100  0.24976000  1
  Se  Se53  1  0.61911400  0.53191100  0.02278300  1
  Se  Se54  1  0.34607800  0.82612800  0.08988200  1
  Se  Se55  1  0.87244700  0.81031700  0.33573800  1
