# generated using pymatgen
data_Zr9(In2Co)7
_symmetry_space_group_name_H-M   'P 1'
_cell_length_a   9.45998847
_cell_length_b   9.45998847
_cell_length_c   9.45998847
_cell_angle_alpha   60.00000000
_cell_angle_beta   60.00000000
_cell_angle_gamma   60.00000000
_symmetry_Int_Tables_number   1
_chemical_formula_structural   Zr9(In2Co)7
_chemical_formula_sum   'Zr9 In14 Co7'
_cell_volume   598.62772082
_cell_formula_units_Z   1
loop_
 _symmetry_equiv_pos_site_id
 _symmetry_equiv_pos_as_xyz
  1  'x, y, z'
loop_
 _atom_site_type_symbol
 _atom_site_label
 _atom_site_symmetry_multiplicity
 _atom_site_fract_x
 _atom_site_fract_y
 _atom_site_fract_z
 _atom_site_occupancy
  Zr  Zr0  1  0.12108700  0.63674000  0.12108700  1
  Zr  Zr1  1  0.36326000  0.87891300  0.87891300  1
  Zr  Zr2  1  0.87891300  0.87891300  0.87891300  1
  Zr  Zr3  1  0.63674000  0.12108700  0.12108700  1
  Zr  Zr4  1  0.50000000  0.50000000  0.50000000  1
  Zr  Zr5  1  0.87891300  0.87891300  0.36326000  1
  Zr  Zr6  1  0.12108700  0.12108700  0.12108700  1
  Zr  Zr7  1  0.87891300  0.36326000  0.87891300  1
  Zr  Zr8  1  0.12108700  0.12108700  0.63674000  1
  In  In9  1  0.50000000  0.84242600  0.15757400  1
  In  In10  1  0.50000000  0.84242600  0.50000000  1
  In  In11  1  0.50000000  0.15757400  0.50000000  1
  In  In12  1  0.50000000  0.50000000  0.84242600  1
  In  In13  1  0.15757400  0.50000000  0.50000000  1
  In  In14  1  0.84242600  0.15757400  0.50000000  1
  In  In15  1  0.15757400  0.84242600  0.50000000  1
  In  In16  1  0.50000000  0.15757400  0.84242600  1
  In  In17  1  0.15757400  0.50000000  0.84242600  1
  In  In18  1  0.50000000  0.50000000  0.15757400  1
  In  In19  1  0.84242600  0.50000000  0.50000000  1
  In  In20  1  0.84242600  0.50000000  0.15757400  1
  In  In21  1  0.25000000  0.25000000  0.25000000  1
  In  In22  1  0.75000000  0.75000000  0.75000000  1
  Co  Co23  1  0.77959000  0.77959000  0.22041000  1
  Co  Co24  1  0.00000000  0.00000000  0.00000000  1
  Co  Co25  1  0.22041000  0.77959000  0.22041000  1
  Co  Co26  1  0.22041000  0.77959000  0.77959000  1
  Co  Co27  1  0.22041000  0.22041000  0.77959000  1
  Co  Co28  1  0.77959000  0.22041000  0.77959000  1
  Co  Co29  1  0.77959000  0.22041000  0.22041000  1
