# generated using pymatgen
data_ScNb6Cl13O3
_symmetry_space_group_name_H-M   'P 1'
_cell_length_a   27.39275215
_cell_length_b   27.39275215
_cell_length_c   27.39275215
_cell_angle_alpha   160.59714727
_cell_angle_beta   160.59714727
_cell_angle_gamma   27.57418415
_symmetry_Int_Tables_number   1
_chemical_formula_structural   ScNb6Cl13O3
_chemical_formula_sum   'Sc4 Nb24 Cl52 O12'
_cell_volume   2267.47159079
_cell_formula_units_Z   4
loop_
 _symmetry_equiv_pos_site_id
 _symmetry_equiv_pos_as_xyz
  1  'x, y, z'
loop_
 _atom_site_type_symbol
 _atom_site_label
 _atom_site_symmetry_multiplicity
 _atom_site_fract_x
 _atom_site_fract_y
 _atom_site_fract_z
 _atom_site_occupancy
  Sc  Sc0  1  0.09415600  0.09415600  0.00000000  1
  Sc  Sc1  1  0.90584400  0.90584400  0.00000000  1
  Sc  Sc2  1  0.84415600  0.34415600  0.50000000  1
  Sc  Sc3  1  0.65584400  0.15584400  0.50000000  1
  Nb  Nb4  1  0.82406900  0.38459300  0.27656800  1
  Nb  Nb5  1  0.71388000  0.93281500  0.96521400  1
  Nb  Nb6  1  0.68281500  0.21760100  0.71893500  1
  Nb  Nb7  1  0.92981900  0.00580700  0.30886900  1
  Nb  Nb8  1  0.78239900  0.31718500  0.28106500  1
  Nb  Nb9  1  0.05306200  0.24419300  0.42401200  1
  Nb  Nb10  1  0.29750100  0.07406900  0.93947600  1
  Nb  Nb11  1  0.75580700  0.94693800  0.57598800  1
  Nb  Nb12  1  0.61540700  0.17593100  0.72343200  1
  Nb  Nb13  1  0.10802500  0.54750100  0.72343200  1
  Nb  Nb14  1  0.06718500  0.28612000  0.03478600  1
  Nb  Nb15  1  0.92593100  0.70249900  0.06052400  1
  Nb  Nb16  1  0.25133400  0.03239900  0.96521400  1
  Nb  Nb17  1  0.82018100  0.62905000  0.57598800  1
  Nb  Nb18  1  0.37095000  0.17981900  0.42401200  1
  Nb  Nb19  1  0.64197500  0.86540700  0.93947600  1
  Nb  Nb20  1  0.96760100  0.74866600  0.03478600  1
  Nb  Nb21  1  0.45249900  0.89197500  0.27656800  1
  Nb  Nb22  1  0.69693800  0.62095000  0.69113100  1
  Nb  Nb23  1  0.03612000  0.50133400  0.71893500  1
  Nb  Nb24  1  0.99419300  0.07018100  0.69113100  1
  Nb  Nb25  1  0.13459300  0.35802500  0.06052400  1
  Nb  Nb26  1  0.49866600  0.96388000  0.28106500  1
  Nb  Nb27  1  0.37905000  0.30306200  0.30886900  1
  Cl  Cl28  1  0.39744700  0.33287400  0.66755500  1
  Cl  Cl29  1  0.99161300  0.78713300  0.83781800  1
  Cl  Cl30  1  0.69734500  0.87862400  0.71856300  1
  Cl  Cl31  1  0.71591800  0.80159600  0.32503400  1
  Cl  Cl32  1  0.49392500  0.00390300  0.87265400  1
  Cl  Cl33  1  0.00259100  0.50259100  0.50000000  1
  Cl  Cl34  1  0.61875100  0.24609700  0.99002200  1
  Cl  Cl35  1  0.84620500  0.05068500  0.83781800  1
  Cl  Cl36  1  0.16006100  0.97878200  0.28143700  1
  Cl  Cl37  1  0.66712600  0.60255300  0.33244500  1
  Cl  Cl38  1  0.25607500  0.62872900  0.00997800  1
  Cl  Cl39  1  0.67235300  0.32764700  0.00000000  1
  Cl  Cl40  1  0.37872900  0.86875100  0.87265400  1
  Cl  Cl41  1  0.08287400  0.91531900  0.43542700  1
  Cl  Cl42  1  0.72878200  0.94734500  0.31872100  1
  Cl  Cl43  1  0.60599000  0.12500000  0.98099000  1
  Cl  Cl44  1  0.99609700  0.50607500  0.12734600  1
  Cl  Cl45  1  0.66531900  0.72989200  0.33244500  1
  Cl  Cl46  1  0.62862400  0.41006100  0.68127900  1
  Cl  Cl47  1  0.80068500  0.46286700  0.70448000  1
  Cl  Cl48  1  0.49740900  0.99740900  0.50000000  1
  Cl  Cl49  1  0.94931500  0.15379500  0.16218200  1
  Cl  Cl50  1  0.13124900  0.62127100  0.12734600  1
  Cl  Cl51  1  0.47656200  0.39088300  0.67496600  1
  Cl  Cl52  1  0.55159600  0.72656200  0.58567900  1
  Cl  Cl53  1  0.27343800  0.44840400  0.41432100  1
  Cl  Cl54  1  0.19840400  0.28408200  0.67496600  1
  Cl  Cl55  1  0.75390300  0.38124900  0.00997800  1
  Cl  Cl56  1  0.05265500  0.27121800  0.68127900  1
  Cl  Cl57  1  0.35255300  0.52010800  0.43542700  1
  Cl  Cl58  1  0.25259100  0.25259100  0.00000000  1
  Cl  Cl59  1  0.42235300  0.92235300  0.84470700  1
  Cl  Cl60  1  0.87500000  0.39401000  0.01901000  1
  Cl  Cl61  1  0.21286700  0.00838700  0.16218200  1
  Cl  Cl62  1  0.08468100  0.91712600  0.56457300  1
  Cl  Cl63  1  0.53713300  0.19931500  0.29552000  1
  Cl  Cl64  1  0.60911700  0.52343800  0.32503400  1
  Cl  Cl65  1  0.37127100  0.74392500  0.99002200  1
  Cl  Cl66  1  0.14088300  0.96591800  0.41432100  1
  Cl  Cl67  1  0.14401000  0.62500000  0.01901000  1
  Cl  Cl68  1  0.02121800  0.83993900  0.71856300  1
  Cl  Cl69  1  0.75838700  0.09620500  0.29552000  1
  Cl  Cl70  1  0.90379500  0.24161300  0.70448000  1
  Cl  Cl71  1  0.12137600  0.30265500  0.28143700  1
  Cl  Cl72  1  0.07764700  0.57764700  0.15529300  1
  Cl  Cl73  1  0.03408200  0.85911700  0.58567900  1
  Cl  Cl74  1  0.58993900  0.37137600  0.31872100  1
  Cl  Cl75  1  0.32764700  0.67235300  0.00000000  1
  Cl  Cl76  1  0.27010800  0.33468100  0.66755500  1
  Cl  Cl77  1  0.37500000  0.85599000  0.98099000  1
  Cl  Cl78  1  0.47989200  0.64744700  0.56457300  1
  Cl  Cl79  1  0.74740900  0.74740900  0.00000000  1
  O  O80  1  0.92769000  0.68961800  0.79574000  1
  O  O81  1  0.82231000  0.11805000  0.26192800  1
  O  O82  1  0.86805000  0.10612200  0.79574000  1
  O  O83  1  0.13178900  0.13178900  0.00000000  1
  O  O84  1  0.31038200  0.07231000  0.20426000  1
  O  O85  1  0.86821100  0.86821100  0.00000000  1
  O  O86  1  0.61821100  0.11821100  0.50000000  1
  O  O87  1  0.43961800  0.14387800  0.26192800  1
  O  O88  1  0.85612200  0.56038200  0.73807200  1
  O  O89  1  0.88178900  0.38178900  0.50000000  1
  O  O90  1  0.88195000  0.17769000  0.73807200  1
  O  O91  1  0.89387800  0.13195000  0.20426000  1
