# generated using pymatgen
data_La5Ga3
_symmetry_space_group_name_H-M   'P 1'
_cell_length_a   8.09044200
_cell_length_b   8.09044200
_cell_length_c   14.80862000
_cell_angle_alpha   90.00000000
_cell_angle_beta   90.00000000
_cell_angle_gamma   90.00000000
_symmetry_Int_Tables_number   1
_chemical_formula_structural   La5Ga3
_chemical_formula_sum   'La20 Ga12'
_cell_volume   969.30195025
_cell_formula_units_Z   4
loop_
 _symmetry_equiv_pos_site_id
 _symmetry_equiv_pos_as_xyz
  1  'x, y, z'
loop_
 _atom_site_type_symbol
 _atom_site_label
 _atom_site_symmetry_multiplicity
 _atom_site_fract_x
 _atom_site_fract_y
 _atom_site_fract_z
 _atom_site_occupancy
  La  La0  1  0.50000000  0.00000000  0.78066500  1
  La  La1  1  0.33891600  0.31564900  0.10183800  1
  La  La2  1  0.83891600  0.81564900  0.89816200  1
  La  La3  1  0.00000000  0.50000000  0.21933500  1
  La  La4  1  0.83891600  0.18435100  0.39816200  1
  La  La5  1  0.16108400  0.18435100  0.89816200  1
  La  La6  1  0.66108400  0.68435100  0.10183800  1
  La  La7  1  0.00000000  0.50000000  0.71933500  1
  La  La8  1  0.81564900  0.83891600  0.60183800  1
  La  La9  1  0.31564900  0.33891600  0.39816200  1
  La  La10  1  0.18435100  0.83891600  0.10183800  1
  La  La11  1  0.18435100  0.16108400  0.60183800  1
  La  La12  1  0.81564900  0.16108400  0.10183800  1
  La  La13  1  0.33891600  0.68435100  0.60183800  1
  La  La14  1  0.50000000  0.00000000  0.28066500  1
  La  La15  1  0.68435100  0.33891600  0.89816200  1
  La  La16  1  0.66108400  0.31564900  0.60183800  1
  La  La17  1  0.31564900  0.66108400  0.89816200  1
  La  La18  1  0.16108400  0.81564900  0.39816200  1
  La  La19  1  0.68435100  0.66108400  0.39816200  1
  Ga  Ga20  1  0.61711300  0.38288700  0.25000000  1
  Ga  Ga21  1  0.88288700  0.11711300  0.75000000  1
  Ga  Ga22  1  0.50000000  0.00000000  0.49546400  1
  Ga  Ga23  1  0.88288700  0.88288700  0.25000000  1
  Ga  Ga24  1  0.00000000  0.50000000  0.00453600  1
  Ga  Ga25  1  0.11711300  0.88288700  0.75000000  1
  Ga  Ga26  1  0.38288700  0.38288700  0.75000000  1
  Ga  Ga27  1  0.11711300  0.11711300  0.25000000  1
  Ga  Ga28  1  0.38288700  0.61711300  0.25000000  1
  Ga  Ga29  1  0.61711300  0.61711300  0.75000000  1
  Ga  Ga30  1  0.50000000  0.00000000  0.99546400  1
  Ga  Ga31  1  0.00000000  0.50000000  0.50453600  1
