# generated using pymatgen
data_Ba4Yb3F17
_symmetry_space_group_name_H-M   'P 1'
_cell_length_a   9.37321800
_cell_length_b   9.39747290
_cell_length_c   9.46629695
_cell_angle_alpha   72.27817075
_cell_angle_beta   72.61897011
_cell_angle_gamma   72.81139465
_symmetry_Int_Tables_number   1
_chemical_formula_structural   Ba4Yb3F17
_chemical_formula_sum   'Ba8 Yb6 F34'
_cell_volume   738.55294584
_cell_formula_units_Z   2
loop_
 _symmetry_equiv_pos_site_id
 _symmetry_equiv_pos_as_xyz
  1  'x, y, z'
loop_
 _atom_site_type_symbol
 _atom_site_label
 _atom_site_symmetry_multiplicity
 _atom_site_fract_x
 _atom_site_fract_y
 _atom_site_fract_z
 _atom_site_occupancy
  Ba  Ba0  1  0.92858500  0.12988800  0.67800300  1
  Ba  Ba1  1  0.72809300  0.72577300  0.72581600  1
  Ba  Ba2  1  0.67843400  0.93124500  0.12817100  1
  Ba  Ba3  1  0.87134000  0.32234900  0.06956300  1
  Ba  Ba4  1  0.12653600  0.67907300  0.93754900  1
  Ba  Ba5  1  0.32305100  0.06703600  0.87066100  1
  Ba  Ba6  1  0.27352900  0.27106100  0.27358000  1
  Ba  Ba7  1  0.06512500  0.87590600  0.31597900  1
  Yb  Yb8  1  0.84224400  0.53067400  0.39145400  1
  Yb  Yb9  1  0.53513700  0.39106000  0.83984500  1
  Yb  Yb10  1  0.61087600  0.15763500  0.46853800  1
  Yb  Yb11  1  0.40020000  0.84072400  0.52978100  1
  Yb  Yb12  1  0.46948100  0.60960700  0.15818300  1
  Yb  Yb13  1  0.16097500  0.46076000  0.60606600  1
  F  F14  1  0.00019900  0.99835900  0.00127600  1
  F  F15  1  0.98239100  0.54577000  0.82211900  1
  F  F16  1  0.86378800  0.86242200  0.86195000  1
  F  F17  1  0.96280400  0.63957800  0.50969400  1
  F  F18  1  0.82560500  0.97849300  0.54399400  1
  F  F19  1  0.92583300  0.73566500  0.20536900  1
  F  F20  1  0.54581200  0.82276200  0.97880000  1
  F  F21  1  0.63948000  0.50872600  0.95874900  1
  F  F22  1  0.73620200  0.20610400  0.92574200  1
  F  F23  1  0.73487300  0.45520100  0.64942500  1
  F  F24  1  0.79236900  0.30139400  0.41163200  1
  F  F25  1  0.65371900  0.73662700  0.45421700  1
  F  F26  1  0.51127800  0.95736000  0.63904100  1
  F  F27  1  0.70019900  0.58646900  0.20756200  1
  F  F28  1  0.79414900  0.07506700  0.26337300  1
  F  F29  1  0.45368600  0.65540100  0.74526700  1
  F  F30  1  0.58984900  0.20793100  0.69929800  1
  F  F31  1  0.40446900  0.55136800  0.54050800  1
  F  F32  1  0.41318800  0.79715900  0.29709500  1
  F  F33  1  0.54501500  0.35149500  0.26679300  1
  F  F34  1  0.20599300  0.92350700  0.73377300  1
  F  F35  1  0.29535000  0.40678600  0.80191300  1
  F  F36  1  0.49233900  0.04098800  0.36023600  1
  F  F37  1  0.34889000  0.25864900  0.54578600  1
  F  F38  1  0.20592500  0.70105800  0.59143600  1
  F  F39  1  0.25883400  0.54667900  0.34553500  1
  F  F40  1  0.26464100  0.79503700  0.07389900  1
  F  F41  1  0.36134300  0.48942100  0.04251800  1
  F  F42  1  0.45616000  0.17576400  0.01937700  1
  F  F43  1  0.07472500  0.26267600  0.79316800  1
  F  F44  1  0.17750100  0.01484500  0.45710900  1
  F  F45  1  0.04274700  0.35958800  0.48988300  1
  F  F46  1  0.13747000  0.13802400  0.13649400  1
  F  F47  1  0.02157100  0.45483800  0.17677500  1
