# generated using pymatgen
data_KNiPS4
_symmetry_space_group_name_H-M   'P 1'
_cell_length_a   8.41161300
_cell_length_b   8.41161300
_cell_length_c   10.95811600
_cell_angle_alpha   90.00000000
_cell_angle_beta   90.00000000
_cell_angle_gamma   90.00000000
_symmetry_Int_Tables_number   1
_chemical_formula_structural   KNiPS4
_chemical_formula_sum   'K4 Ni4 P4 S16'
_cell_volume   775.34405369
_cell_formula_units_Z   4
loop_
 _symmetry_equiv_pos_site_id
 _symmetry_equiv_pos_as_xyz
  1  'x, y, z'
loop_
 _atom_site_type_symbol
 _atom_site_label
 _atom_site_symmetry_multiplicity
 _atom_site_fract_x
 _atom_site_fract_y
 _atom_site_fract_z
 _atom_site_occupancy
  K  K0  1  0.00000000  0.50000000  0.25000000  1
  K  K1  1  0.50000000  0.00000000  0.75000000  1
  K  K2  1  0.50000000  0.00000000  0.25000000  1
  K  K3  1  0.00000000  0.50000000  0.75000000  1
  Ni  Ni4  1  0.50000000  0.50000000  0.50000000  1
  Ni  Ni5  1  0.00000000  0.00000000  0.00000000  1
  Ni  Ni6  1  0.00000000  0.00000000  0.50000000  1
  Ni  Ni7  1  0.50000000  0.50000000  0.00000000  1
  P  P8  1  0.24939300  0.75060700  0.50000000  1
  P  P9  1  0.75060700  0.24939300  0.50000000  1
  P  P10  1  0.25060700  0.25060700  0.00000000  1
  P  P11  1  0.74939300  0.74939300  0.00000000  1
  S  S12  1  0.26225900  0.00618800  0.00000000  1
  S  S13  1  0.99381200  0.73774100  0.00000000  1
  S  S14  1  0.50618800  0.23774100  0.50000000  1
  S  S15  1  0.00618800  0.26225900  0.00000000  1
  S  S16  1  0.49381200  0.76225900  0.50000000  1
  S  S17  1  0.86540400  0.13459600  0.64000500  1
  S  S18  1  0.73774100  0.99381200  0.00000000  1
  S  S19  1  0.36540400  0.36540400  0.14000500  1
  S  S20  1  0.23774100  0.50618800  0.50000000  1
  S  S21  1  0.86540400  0.13459600  0.35999500  1
  S  S22  1  0.76225900  0.49381200  0.50000000  1
  S  S23  1  0.36540400  0.36540400  0.85999500  1
  S  S24  1  0.63459600  0.63459600  0.85999500  1
  S  S25  1  0.63459600  0.63459600  0.14000500  1
  S  S26  1  0.13459600  0.86540400  0.35999500  1
  S  S27  1  0.13459600  0.86540400  0.64000500  1
