# generated using pymatgen
data_CaFe2Sb2(PO4)6
_symmetry_space_group_name_H-M   'P 1'
_cell_length_a   8.93890389
_cell_length_b   8.93890389
_cell_length_c   8.93890412
_cell_angle_alpha   56.36658669
_cell_angle_beta   56.36658669
_cell_angle_gamma   56.36659236
_symmetry_Int_Tables_number   1
_chemical_formula_structural   CaFe2Sb2(PO4)6
_chemical_formula_sum   'Ca1 Fe2 Sb2 P6 O24'
_cell_volume   462.61239411
_cell_formula_units_Z   1
loop_
 _symmetry_equiv_pos_site_id
 _symmetry_equiv_pos_as_xyz
  1  'x, y, z'
loop_
 _atom_site_type_symbol
 _atom_site_label
 _atom_site_symmetry_multiplicity
 _atom_site_fract_x
 _atom_site_fract_y
 _atom_site_fract_z
 _atom_site_occupancy
  Ca  Ca0  1  0.00000000  0.00000000  0.00000000  1
  Fe  Fe1  1  0.14689100  0.14689100  0.14689100  1
  Fe  Fe2  1  0.85310900  0.85310900  0.85310900  1
  Sb  Sb3  1  0.64784300  0.64784300  0.64784300  1
  Sb  Sb4  1  0.35215700  0.35215700  0.35215700  1
  P  P5  1  0.24667200  0.54078600  0.96158800  1
  P  P6  1  0.96158800  0.24667200  0.54078600  1
  P  P7  1  0.54078600  0.96158800  0.24667200  1
  P  P8  1  0.45921400  0.03841200  0.75332800  1
  P  P9  1  0.03841200  0.75332800  0.45921400  1
  P  P10  1  0.75332800  0.45921400  0.03841200  1
  O  O11  1  0.15748100  0.22483100  0.52576200  1
  O  O12  1  0.18454000  0.54078200  0.48433900  1
  O  O13  1  0.54078200  0.48433900  0.18454000  1
  O  O14  1  0.48433900  0.18454000  0.54078200  1
  O  O15  1  0.38516200  0.98949100  0.20205500  1
  O  O16  1  0.52576200  0.15748100  0.22483100  1
  O  O17  1  0.20205500  0.38516200  0.98949100  1
  O  O18  1  0.22483100  0.52576200  0.15748100  1
  O  O19  1  0.89132700  0.25363900  0.10831800  1
  O  O20  1  0.25363900  0.10831800  0.89132700  1
  O  O21  1  0.10831800  0.89132700  0.25363900  1
  O  O22  1  0.01050900  0.79794500  0.61483800  1
  O  O23  1  0.98949100  0.20205500  0.38516200  1
  O  O24  1  0.89168200  0.10867300  0.74636100  1
  O  O25  1  0.74636100  0.89168200  0.10867300  1
  O  O26  1  0.10867300  0.74636100  0.89168200  1
  O  O27  1  0.77516900  0.47423800  0.84251900  1
  O  O28  1  0.79794500  0.61483800  0.01050900  1
  O  O29  1  0.47423800  0.84251900  0.77516900  1
  O  O30  1  0.61483800  0.01050900  0.79794500  1
  O  O31  1  0.51566100  0.81546000  0.45921800  1
  O  O32  1  0.45921800  0.51566100  0.81546000  1
  O  O33  1  0.81546000  0.45921800  0.51566100  1
  O  O34  1  0.84251900  0.77516900  0.47423800  1
