# generated using pymatgen
data_RbTiPO5
_symmetry_space_group_name_H-M   'P 1'
_cell_length_a   6.59471900
_cell_length_b   10.67435200
_cell_length_c   13.13802400
_cell_angle_alpha   90.00000000
_cell_angle_beta   90.00000000
_cell_angle_gamma   90.00000000
_symmetry_Int_Tables_number   1
_chemical_formula_structural   RbTiPO5
_chemical_formula_sum   'Rb8 Ti8 P8 O40'
_cell_volume   924.84268535
_cell_formula_units_Z   8
loop_
 _symmetry_equiv_pos_site_id
 _symmetry_equiv_pos_as_xyz
  1  'x, y, z'
loop_
 _atom_site_type_symbol
 _atom_site_label
 _atom_site_symmetry_multiplicity
 _atom_site_fract_x
 _atom_site_fract_y
 _atom_site_fract_z
 _atom_site_occupancy
  Rb  Rb0  1  0.19275300  0.45255500  0.60637800  1
  Rb  Rb1  1  0.80724700  0.95255500  0.39362200  1
  Rb  Rb2  1  0.30724700  0.45255500  0.10637800  1
  Rb  Rb3  1  0.69275300  0.95255500  0.89362200  1
  Rb  Rb4  1  0.28276900  0.20270300  0.88310300  1
  Rb  Rb5  1  0.71723100  0.70270300  0.11689700  1
  Rb  Rb6  1  0.21723100  0.20270300  0.38310300  1
  Rb  Rb7  1  0.78276900  0.70270300  0.61689700  1
  Ti  Ti8  1  0.76278000  0.27234800  0.74689700  1
  Ti  Ti9  1  0.23722000  0.77234800  0.25310300  1
  Ti  Ti10  1  0.73722000  0.27234800  0.24689700  1
  Ti  Ti11  1  0.26278000  0.77234800  0.75310300  1
  Ti  Ti12  1  0.99842300  0.52341100  0.87130100  1
  Ti  Ti13  1  0.00157700  0.02341100  0.12869900  1
  Ti  Ti14  1  0.50157700  0.52341100  0.37130100  1
  Ti  Ti15  1  0.49842300  0.02341100  0.62869900  1
  P  P16  1  0.00280500  0.01519900  0.67963200  1
  P  P17  1  0.99719500  0.51519900  0.32036800  1
  P  P18  1  0.49719500  0.01519900  0.17963200  1
  P  P19  1  0.50280500  0.51519900  0.82036800  1
  P  P20  1  0.83586200  0.26733700  0.99986000  1
  P  P21  1  0.16413800  0.76733700  0.00014000  1
  P  P22  1  0.66413800  0.26733700  0.49986000  1
  P  P23  1  0.33586200  0.76733700  0.50014000  1
  O  O24  1  0.95930500  0.12879300  0.75059200  1
  O  O25  1  0.04069500  0.62879300  0.24940800  1
  O  O26  1  0.54069500  0.12879300  0.25059200  1
  O  O27  1  0.45930500  0.62879300  0.74940800  1
  O  O28  1  0.04382700  0.89964900  0.75009200  1
  O  O29  1  0.95617300  0.39964900  0.24990800  1
  O  O30  1  0.45617300  0.89964900  0.25009200  1
  O  O31  1  0.54382700  0.39964900  0.74990800  1
  O  O32  1  0.19230700  0.04406800  0.61379900  1
  O  O33  1  0.80769300  0.54406800  0.38620100  1
  O  O34  1  0.30769300  0.04406800  0.11379900  1
  O  O35  1  0.69230700  0.54406800  0.88620100  1
  O  O36  1  0.81415500  0.98514900  0.61384200  1
  O  O37  1  0.18584500  0.48514900  0.38615800  1
  O  O38  1  0.68584500  0.98514900  0.11384200  1
  O  O39  1  0.69881100  0.28945400  0.09541700  1
  O  O40  1  0.31415500  0.48514900  0.88615800  1
  O  O41  1  0.44894100  0.63780400  0.27706300  1
  O  O42  1  0.94894100  0.13780400  0.22293700  1
  O  O43  1  0.05105900  0.63780400  0.77706300  1
  O  O44  1  0.95729700  0.38539900  0.77945100  1
  O  O45  1  0.04270300  0.88539900  0.22054900  1
  O  O46  1  0.54270300  0.38539900  0.27945100  1
  O  O47  1  0.45729700  0.88539900  0.72054900  1
  O  O48  1  0.48079300  0.87890900  0.51426100  1
  O  O49  1  0.51920700  0.37890900  0.48573900  1
  O  O50  1  0.01920700  0.87890900  0.01426100  1
  O  O51  1  0.98079300  0.37890900  0.98573900  1
  O  O52  1  0.46249400  0.64493200  0.48506000  1
  O  O53  1  0.53750600  0.14493200  0.51494000  1
  O  O54  1  0.03750600  0.64493200  0.98506000  1
  O  O55  1  0.96249400  0.14493200  0.01494000  1
  O  O56  1  0.20362500  0.74571100  0.59677900  1
  O  O57  1  0.79637500  0.24571100  0.40322100  1
  O  O58  1  0.29637500  0.74571100  0.09677900  1
  O  O59  1  0.70362500  0.24571100  0.90322100  1
  O  O60  1  0.19881100  0.78945400  0.40458300  1
  O  O61  1  0.80118900  0.28945400  0.59541700  1
  O  O62  1  0.30118900  0.78945400  0.90458300  1
  O  O63  1  0.55105900  0.13780400  0.72293700  1
