# generated using pymatgen
data_K5RbZn4Sn5S17
_symmetry_space_group_name_H-M   'P 1'
_cell_length_a   9.88388800
_cell_length_b   11.04091661
_cell_length_c   11.04459346
_cell_angle_alpha   78.42786943
_cell_angle_beta   63.45794554
_cell_angle_gamma   63.47516084
_symmetry_Int_Tables_number   1
_chemical_formula_structural   K5RbZn4Sn5S17
_chemical_formula_sum   'K5 Rb1 Zn4 Sn5 S17'
_cell_volume   964.74309307
_cell_formula_units_Z   1
loop_
 _symmetry_equiv_pos_site_id
 _symmetry_equiv_pos_as_xyz
  1  'x, y, z'
loop_
 _atom_site_type_symbol
 _atom_site_label
 _atom_site_symmetry_multiplicity
 _atom_site_fract_x
 _atom_site_fract_y
 _atom_site_fract_z
 _atom_site_occupancy
  K  K0  1  0.00422000  0.50504600  0.98157900  1
  K  K1  1  0.49196400  0.01689200  0.49982500  1
  K  K2  1  0.48897600  0.50936400  0.02041500  1
  K  K3  1  0.01100100  0.97951700  0.49826900  1
  K  K4  1  0.74985300  0.50089100  0.49970600  1
  Rb  Rb5  1  0.47779300  0.13463600  0.96347900  1
  Zn  Zn6  1  0.38562700  0.64097200  0.35955900  1
  Zn  Zn7  1  0.97455000  0.64004100  0.63989900  1
  Zn  Zn8  1  0.25245700  0.36101000  0.36197200  1
  Zn  Zn9  1  0.38524000  0.36243100  0.63675500  1
  Sn  Sn10  1  0.00161100  0.99657700  0.00190200  1
  Sn  Sn11  1  0.24956500  0.72336900  0.72261800  1
  Sn  Sn12  1  0.69685600  0.27835600  0.27594200  1
  Sn  Sn13  1  0.02486000  0.27846500  0.72232100  1
  Sn  Sn14  1  0.02947900  0.72162500  0.27746900  1
  S  S15  1  0.66395900  0.50864700  0.22066800  1
  S  S16  1  0.39416800  0.77791400  0.49232000  1
  S  S17  1  0.24937900  0.50117700  0.49929100  1
  S  S18  1  0.52384800  0.21871000  0.22102400  1
  S  S19  1  0.96309100  0.78003500  0.78206400  1
  S  S20  1  0.25665400  0.78172600  0.21800000  1
  S  S21  1  0.82765500  0.50769300  0.77966800  1
  S  S22  1  0.11521400  0.21992100  0.49285500  1
  S  S23  1  0.82945800  0.77737000  0.50733500  1
  S  S24  1  0.11701800  0.49058000  0.22017200  1
  S  S25  1  0.86143900  0.14154100  0.85668400  1
  S  S26  1  0.86016900  0.85415700  0.14571600  1
  S  S27  1  0.28480000  0.85588100  0.85536900  1
  S  S28  1  0.99689200  0.14401200  0.14334300  1
  S  S29  1  0.39266700  0.49111800  0.77934800  1
  S  S30  1  0.66312500  0.22085000  0.50687700  1
  S  S31  1  0.25551200  0.22007600  0.77895700  1
