# generated using pymatgen
data_Ni3Sn2
_symmetry_space_group_name_H-M   'P 1'
_cell_length_a   5.21755300
_cell_length_b   7.12700400
_cell_length_c   8.20788200
_cell_angle_alpha   90.00000000
_cell_angle_beta   90.00000000
_cell_angle_gamma   90.00000000
_symmetry_Int_Tables_number   1
_chemical_formula_structural   Ni3Sn2
_chemical_formula_sum   'Ni12 Sn8'
_cell_volume   305.21436931
_cell_formula_units_Z   4
loop_
 _symmetry_equiv_pos_site_id
 _symmetry_equiv_pos_as_xyz
  1  'x, y, z'
loop_
 _atom_site_type_symbol
 _atom_site_label
 _atom_site_symmetry_multiplicity
 _atom_site_fract_x
 _atom_site_fract_y
 _atom_site_fract_z
 _atom_site_occupancy
  Ni  Ni0  1  0.25000000  0.91090900  0.37454300  1
  Ni  Ni1  1  0.75000000  0.08909100  0.62545700  1
  Ni  Ni2  1  0.49544600  0.23661900  0.37639300  1
  Ni  Ni3  1  0.99544600  0.76338100  0.62360700  1
  Ni  Ni4  1  0.50455400  0.26338100  0.87639300  1
  Ni  Ni5  1  0.99544600  0.26338100  0.87639300  1
  Ni  Ni6  1  0.50455400  0.76338100  0.62360700  1
  Ni  Ni7  1  0.00455400  0.23661900  0.37639300  1
  Ni  Ni8  1  0.49544600  0.73661900  0.12360700  1
  Ni  Ni9  1  0.25000000  0.41090900  0.12545700  1
  Ni  Ni10  1  0.00455400  0.73661900  0.12360700  1
  Ni  Ni11  1  0.75000000  0.58909100  0.87454300  1
  Sn  Sn12  1  0.25000000  0.56117400  0.40295300  1
  Sn  Sn13  1  0.25000000  0.09837400  0.64261900  1
  Sn  Sn14  1  0.75000000  0.90162600  0.35738100  1
  Sn  Sn15  1  0.75000000  0.40162600  0.14261900  1
  Sn  Sn16  1  0.25000000  0.59837400  0.85738100  1
  Sn  Sn17  1  0.25000000  0.06117400  0.09704700  1
  Sn  Sn18  1  0.75000000  0.43882600  0.59704700  1
  Sn  Sn19  1  0.75000000  0.93882600  0.90295300  1
