# generated using pymatgen
data_SrZn13
_symmetry_space_group_name_H-M   'P 1'
_cell_length_a   8.69118097
_cell_length_b   8.69118097
_cell_length_c   8.69118097
_cell_angle_alpha   60.00000000
_cell_angle_beta   60.00000000
_cell_angle_gamma   60.00000000
_symmetry_Int_Tables_number   1
_chemical_formula_structural   SrZn13
_chemical_formula_sum   'Sr2 Zn26'
_cell_volume   464.21736394
_cell_formula_units_Z   2
loop_
 _symmetry_equiv_pos_site_id
 _symmetry_equiv_pos_as_xyz
  1  'x, y, z'
loop_
 _atom_site_type_symbol
 _atom_site_label
 _atom_site_symmetry_multiplicity
 _atom_site_fract_x
 _atom_site_fract_y
 _atom_site_fract_z
 _atom_site_occupancy
  Sr  Sr0  1  0.25000000  0.25000000  0.25000000  1
  Sr  Sr1  1  0.75000000  0.75000000  0.75000000  1
  Zn  Zn2  1  0.94040200  0.30039100  0.05959800  1
  Zn  Zn3  1  0.55959800  0.44040200  0.19960900  1
  Zn  Zn4  1  0.05959800  0.94040200  0.30039100  1
  Zn  Zn5  1  0.30039100  0.05959800  0.94040200  1
  Zn  Zn6  1  0.69960900  0.30039100  0.94040200  1
  Zn  Zn7  1  0.19960900  0.55959800  0.44040200  1
  Zn  Zn8  1  0.94040200  0.05959800  0.69960900  1
  Zn  Zn9  1  0.19960900  0.44040200  0.80039100  1
  Zn  Zn10  1  0.94040200  0.69960900  0.30039100  1
  Zn  Zn11  1  0.44040200  0.19960900  0.55959800  1
  Zn  Zn12  1  0.55959800  0.80039100  0.44040200  1
  Zn  Zn13  1  0.44040200  0.80039100  0.19960900  1
  Zn  Zn14  1  0.19960900  0.80039100  0.55959800  1
  Zn  Zn15  1  0.69960900  0.94040200  0.05959800  1
  Zn  Zn16  1  0.30039100  0.94040200  0.69960900  1
  Zn  Zn17  1  0.80039100  0.19960900  0.44040200  1
  Zn  Zn18  1  0.55959800  0.19960900  0.80039100  1
  Zn  Zn19  1  0.05959800  0.30039100  0.69960900  1
  Zn  Zn20  1  0.80039100  0.44040200  0.55959800  1
  Zn  Zn21  1  0.69960900  0.05959800  0.30039100  1
  Zn  Zn22  1  0.80039100  0.55959800  0.19960900  1
  Zn  Zn23  1  0.30039100  0.69960900  0.05959800  1
  Zn  Zn24  1  0.44040200  0.55959800  0.80039100  1
  Zn  Zn25  1  0.05959800  0.69960900  0.94040200  1
  Zn  Zn26  1  0.50000000  0.50000000  0.50000000  1
  Zn  Zn27  1  0.00000000  0.00000000  0.00000000  1
