# generated using pymatgen
data_ZrTe5
_symmetry_space_group_name_H-M   'P 1'
_cell_length_a   8.18496774
_cell_length_b   8.18496774
_cell_length_c   13.83963200
_cell_angle_alpha   90.00000000
_cell_angle_beta   90.00000000
_cell_angle_gamma   151.33276817
_symmetry_Int_Tables_number   1
_chemical_formula_structural   ZrTe5
_chemical_formula_sum   'Zr2 Te10'
_cell_volume   444.78272584
_cell_formula_units_Z   2
loop_
 _symmetry_equiv_pos_site_id
 _symmetry_equiv_pos_as_xyz
  1  'x, y, z'
loop_
 _atom_site_type_symbol
 _atom_site_label
 _atom_site_symmetry_multiplicity
 _atom_site_fract_x
 _atom_site_fract_y
 _atom_site_fract_z
 _atom_site_occupancy
  Zr  Zr0  1  0.68648700  0.31351300  0.75000000  1
  Zr  Zr1  1  0.31351300  0.68648700  0.25000000  1
  Te  Te2  1  0.32752400  0.67247600  0.75000000  1
  Te  Te3  1  0.67247600  0.32752400  0.25000000  1
  Te  Te4  1  0.08044200  0.91955800  0.85029900  1
  Te  Te5  1  0.91955800  0.08044200  0.14970100  1
  Te  Te6  1  0.91955800  0.08044200  0.35029900  1
  Te  Te7  1  0.08044200  0.91955800  0.64970100  1
  Te  Te8  1  0.78617600  0.21382400  0.56591900  1
  Te  Te9  1  0.21382400  0.78617600  0.43408100  1
  Te  Te10  1  0.21382400  0.78617600  0.06591900  1
  Te  Te11  1  0.78617600  0.21382400  0.93408100  1
