# generated using pymatgen
data_TiTlPO5
_symmetry_space_group_name_H-M   'P 1'
_cell_length_a   6.57356500
_cell_length_b   10.69808400
_cell_length_c   13.11606900
_cell_angle_alpha   90.00000000
_cell_angle_beta   90.00000000
_cell_angle_gamma   90.00000000
_symmetry_Int_Tables_number   1
_chemical_formula_structural   TiTlPO5
_chemical_formula_sum   'Ti8 Tl8 P8 O40'
_cell_volume   922.38165740
_cell_formula_units_Z   8
loop_
 _symmetry_equiv_pos_site_id
 _symmetry_equiv_pos_as_xyz
  1  'x, y, z'
loop_
 _atom_site_type_symbol
 _atom_site_label
 _atom_site_symmetry_multiplicity
 _atom_site_fract_x
 _atom_site_fract_y
 _atom_site_fract_z
 _atom_site_occupancy
  Ti  Ti0  1  0.23536200  0.25340000  0.74521200  1
  Ti  Ti1  1  0.73536200  0.75340000  0.75478800  1
  Ti  Ti2  1  0.26463800  0.25340000  0.24521200  1
  Ti  Ti3  1  0.99915000  0.50376200  0.12990000  1
  Ti  Ti4  1  0.00085000  0.00376200  0.87010000  1
  Ti  Ti5  1  0.50085000  0.50376200  0.62990000  1
  Ti  Ti6  1  0.76463800  0.75340000  0.25478800  1
  Ti  Ti7  1  0.49915000  0.00376200  0.37010000  1
  Tl  Tl8  1  0.69365500  0.07456900  0.10262100  1
  Tl  Tl9  1  0.30634500  0.57456900  0.89737900  1
  Tl  Tl10  1  0.80634500  0.07456900  0.60262100  1
  Tl  Tl11  1  0.19365500  0.57456900  0.39737900  1
  Tl  Tl12  1  0.78791800  0.32882800  0.38265700  1
  Tl  Tl13  1  0.21208200  0.82882800  0.61734300  1
  Tl  Tl14  1  0.71208200  0.32882800  0.88265700  1
  Tl  Tl15  1  0.28791800  0.82882800  0.11734300  1
  P  P16  1  0.83850600  0.76019100  0.00115600  1
  P  P17  1  0.16149400  0.26019100  0.99884400  1
  P  P18  1  0.33850600  0.26019100  0.49884400  1
  P  P19  1  0.50462300  0.51174500  0.18108500  1
  P  P20  1  0.49537700  0.01174500  0.81891500  1
  P  P21  1  0.99537700  0.51174500  0.68108500  1
  P  P22  1  0.00462300  0.01174500  0.31891500  1
  P  P23  1  0.66149400  0.76019100  0.50115600  1
  O  O24  1  0.46118800  0.14061300  0.27746700  1
  O  O25  1  0.53881200  0.64061300  0.72253300  1
  O  O26  1  0.03881200  0.14061300  0.77746700  1
  O  O27  1  0.96118800  0.64061300  0.22253300  1
  O  O28  1  0.55046300  0.88691800  0.27751400  1
  O  O29  1  0.44953700  0.38691800  0.72248600  1
  O  O30  1  0.94953700  0.88691800  0.77751400  1
  O  O31  1  0.05046300  0.38691800  0.22248600  1
  O  O32  1  0.96210500  0.89664200  0.24932400  1
  O  O33  1  0.03789500  0.39664200  0.75067600  1
  O  O34  1  0.53789500  0.89664200  0.74932400  1
  O  O35  1  0.46210500  0.39664200  0.25067600  1
  O  O36  1  0.04520800  0.12595300  0.24727500  1
  O  O37  1  0.95479200  0.62595300  0.75272500  1
  O  O38  1  0.45479200  0.12595300  0.74727500  1
  O  O39  1  0.70078600  0.73860400  0.90569100  1
  O  O40  1  0.54520800  0.62595300  0.25272500  1
  O  O41  1  0.80509800  0.48499400  0.61495600  1
  O  O42  1  0.30509800  0.98499400  0.88504400  1
  O  O43  1  0.69490200  0.48499400  0.11495600  1
  O  O44  1  0.81483200  0.04141500  0.38458600  1
  O  O45  1  0.18516800  0.54141500  0.61541400  1
  O  O46  1  0.68516800  0.04141500  0.88458600  1
  O  O47  1  0.31483200  0.54141500  0.11541400  1
  O  O48  1  0.48605000  0.14921000  0.48555900  1
  O  O49  1  0.51395000  0.64921000  0.51444100  1
  O  O50  1  0.01395000  0.14921000  0.98555900  1
  O  O51  1  0.98605000  0.64921000  0.01444100  1
  O  O52  1  0.46183600  0.38390000  0.51349200  1
  O  O53  1  0.53816400  0.88390000  0.48650800  1
  O  O54  1  0.03816400  0.38390000  0.01349200  1
  O  O55  1  0.96183600  0.88390000  0.98650800  1
  O  O56  1  0.20690800  0.27825700  0.40130600  1
  O  O57  1  0.79309200  0.77825700  0.59869400  1
  O  O58  1  0.29309200  0.27825700  0.90130600  1
  O  O59  1  0.70690800  0.77825700  0.09869400  1
  O  O60  1  0.20078600  0.23860400  0.59430900  1
  O  O61  1  0.79921400  0.73860400  0.40569100  1
  O  O62  1  0.29921400  0.23860400  0.09430900  1
  O  O63  1  0.19490200  0.98499400  0.38504400  1
