# generated using pymatgen
data_KScAs2(HO4)2
_symmetry_space_group_name_H-M   'P 1'
_cell_length_a   6.84526979
_cell_length_b   6.84526979
_cell_length_c   9.37383489
_cell_angle_alpha   77.47950710
_cell_angle_beta   77.47950710
_cell_angle_gamma   103.39062851
_symmetry_Int_Tables_number   1
_chemical_formula_structural   KScAs2(HO4)2
_chemical_formula_sum   'K2 Sc2 As4 H4 O16'
_cell_volume   400.30902347
_cell_formula_units_Z   2
loop_
 _symmetry_equiv_pos_site_id
 _symmetry_equiv_pos_as_xyz
  1  'x, y, z'
loop_
 _atom_site_type_symbol
 _atom_site_label
 _atom_site_symmetry_multiplicity
 _atom_site_fract_x
 _atom_site_fract_y
 _atom_site_fract_z
 _atom_site_occupancy
  K  K0  1  0.00000000  0.50000000  0.00000000  1
  K  K1  1  0.50000000  0.00000000  0.50000000  1
  Sc  Sc2  1  0.13836200  0.86163800  0.25000000  1
  Sc  Sc3  1  0.86163800  0.13836200  0.75000000  1
  As  As4  1  0.12680600  0.32400000  0.35719100  1
  As  As5  1  0.67600000  0.87319400  0.14280900  1
  As  As6  1  0.87319400  0.67600000  0.64280900  1
  As  As7  1  0.32400000  0.12680600  0.85719100  1
  H  H8  1  0.30929000  0.34975100  0.53351000  1
  H  H9  1  0.65024900  0.69071000  0.96649000  1
  H  H10  1  0.69071000  0.65024900  0.46649000  1
  H  H11  1  0.34975100  0.30929000  0.03351000  1
  O  O12  1  0.08494400  0.54502200  0.26272000  1
  O  O13  1  0.45497800  0.91505600  0.23728000  1
  O  O14  1  0.91505600  0.45497800  0.73728000  1
  O  O15  1  0.54502200  0.08494400  0.76272000  1
  O  O16  1  0.18027000  0.18781400  0.22800500  1
  O  O17  1  0.81218600  0.81973000  0.27199500  1
  O  O18  1  0.81973000  0.81218600  0.77199500  1
  O  O19  1  0.18781400  0.18027000  0.72800500  1
  O  O20  1  0.91724000  0.19027200  0.51087000  1
  O  O21  1  0.80972800  0.08276000  0.98913000  1
  O  O22  1  0.08276000  0.80972800  0.48913000  1
  O  O23  1  0.19027200  0.91724000  0.01087000  1
  O  O24  1  0.35394100  0.38825700  0.41976400  1
  O  O25  1  0.61174300  0.64605900  0.08023600  1
  O  O26  1  0.64605900  0.61174300  0.58023600  1
  O  O27  1  0.38825700  0.35394100  0.91976400  1
