# generated using pymatgen
data_Bi2Te2O7
_symmetry_space_group_name_H-M   'P 1'
_cell_length_a   5.61793500
_cell_length_b   22.39352600
_cell_length_c   22.92381200
_cell_angle_alpha   90.00000000
_cell_angle_beta   90.00000000
_cell_angle_gamma   90.00000000
_symmetry_Int_Tables_number   1
_chemical_formula_structural   Bi2Te2O7
_chemical_formula_sum   'Bi32 Te32 O112'
_cell_volume   2883.93873045
_cell_formula_units_Z   16
loop_
 _symmetry_equiv_pos_site_id
 _symmetry_equiv_pos_as_xyz
  1  'x, y, z'
loop_
 _atom_site_type_symbol
 _atom_site_label
 _atom_site_symmetry_multiplicity
 _atom_site_fract_x
 _atom_site_fract_y
 _atom_site_fract_z
 _atom_site_occupancy
  Bi  Bi0  1  0.48960400  0.82079400  0.30647100  1
  Bi  Bi1  1  0.54436800  0.93068600  0.94447600  1
  Bi  Bi2  1  0.02097700  0.94377400  0.31228000  1
  Bi  Bi3  1  0.04436800  0.56931400  0.44447600  1
  Bi  Bi4  1  0.95563200  0.06931400  0.44447600  1
  Bi  Bi5  1  0.48960400  0.67920600  0.69352900  1
  Bi  Bi6  1  0.98960400  0.67920600  0.80647100  1
  Bi  Bi7  1  0.04436800  0.93068600  0.55552400  1
  Bi  Bi8  1  0.49756700  0.19583700  0.19355500  1
  Bi  Bi9  1  0.99756700  0.30416300  0.69355500  1
  Bi  Bi10  1  0.01039600  0.32079400  0.19352900  1
  Bi  Bi11  1  0.45563200  0.43068600  0.94447600  1
  Bi  Bi12  1  0.49756700  0.30416300  0.80644500  1
  Bi  Bi13  1  0.00243300  0.69583700  0.30644500  1
  Bi  Bi14  1  0.98960400  0.82079400  0.19352900  1
  Bi  Bi15  1  0.45563200  0.06931400  0.05552400  1
  Bi  Bi16  1  0.01039600  0.17920600  0.80647100  1
  Bi  Bi17  1  0.02097700  0.55622600  0.68772000  1
  Bi  Bi18  1  0.00243300  0.80416300  0.69355500  1
  Bi  Bi19  1  0.95563200  0.43068600  0.55552400  1
  Bi  Bi20  1  0.50243300  0.80416300  0.80644500  1
  Bi  Bi21  1  0.99756700  0.19583700  0.30644500  1
  Bi  Bi22  1  0.52097700  0.55622600  0.81228000  1
  Bi  Bi23  1  0.97902300  0.44377400  0.31228000  1
  Bi  Bi24  1  0.97902300  0.05622600  0.68772000  1
  Bi  Bi25  1  0.51039600  0.32079400  0.30647100  1
  Bi  Bi26  1  0.50243300  0.69583700  0.19355500  1
  Bi  Bi27  1  0.47902300  0.44377400  0.18772000  1
  Bi  Bi28  1  0.47902300  0.05622600  0.81228000  1
  Bi  Bi29  1  0.51039600  0.17920600  0.69352900  1
  Bi  Bi30  1  0.54436800  0.56931400  0.05552400  1
  Bi  Bi31  1  0.52097700  0.94377400  0.18772000  1
  Te  Te32  1  0.98801700  0.68854900  0.56742400  1
  Te  Te33  1  0.07591500  0.93388300  0.81142800  1
  Te  Te34  1  0.42408500  0.06611700  0.31142800  1
  Te  Te35  1  0.49986900  0.05673700  0.56406500  1
  Te  Te36  1  0.49986900  0.44326300  0.43593500  1
  Te  Te37  1  0.49593000  0.30666100  0.56636100  1
  Te  Te38  1  0.92408500  0.06611700  0.18857200  1
  Te  Te39  1  0.49593000  0.19333900  0.43363900  1
  Te  Te40  1  0.01198300  0.18854900  0.56742400  1
  Te  Te41  1  0.42408500  0.43388300  0.68857200  1
  Te  Te42  1  0.50013100  0.94326300  0.43593500  1
  Te  Te43  1  0.50407000  0.69333900  0.43363900  1
  Te  Te44  1  0.99986900  0.05673700  0.93593500  1
  Te  Te45  1  0.50013100  0.55673700  0.56406500  1
  Te  Te46  1  0.92408500  0.43388300  0.81142800  1
  Te  Te47  1  0.00013100  0.55673700  0.93593500  1
  Te  Te48  1  0.50407000  0.80666100  0.56636100  1
  Te  Te49  1  0.51198300  0.18854900  0.93257600  1
  Te  Te50  1  0.48801700  0.68854900  0.93257600  1
  Te  Te51  1  0.98801700  0.81145100  0.43257600  1
  Te  Te52  1  0.99986900  0.44326300  0.06406500  1
  Te  Te53  1  0.48801700  0.81145100  0.06742400  1
  Te  Te54  1  0.07591500  0.56611700  0.18857200  1
  Te  Te55  1  0.99593000  0.30666100  0.93363900  1
  Te  Te56  1  0.57591500  0.56611700  0.31142800  1
  Te  Te57  1  0.99593000  0.19333900  0.06636100  1
  Te  Te58  1  0.00407000  0.80666100  0.93363900  1
  Te  Te59  1  0.51198300  0.31145100  0.06742400  1
  Te  Te60  1  0.00407000  0.69333900  0.06636100  1
  Te  Te61  1  0.00013100  0.94326300  0.06406500  1
  Te  Te62  1  0.57591500  0.93388300  0.68857200  1
  Te  Te63  1  0.01198300  0.31145100  0.43257600  1
  O  O64  1  0.69689500  0.63266000  0.26678700  1
  O  O65  1  0.28214600  0.14251500  0.97382200  1
  O  O66  1  0.75526400  0.00922700  0.53057700  1
  O  O67  1  0.81918900  0.27604500  0.86872600  1
  O  O68  1  0.36323400  0.93815000  0.85606800  1
  O  O69  1  0.13676600  0.06185000  0.35606800  1
  O  O70  1  0.74389200  0.85663700  0.53457500  1
  O  O71  1  0.21196900  0.24480400  0.74932300  1
  O  O72  1  0.81124100  0.27425800  0.37502600  1
  O  O73  1  0.74473600  0.50922700  0.96942300  1
  O  O74  1  0.71196900  0.24480400  0.75067700  1
  O  O75  1  0.78803100  0.75519600  0.25067700  1
  O  O76  1  0.15363400  0.36872300  0.38216300  1
  O  O77  1  0.75526400  0.49077300  0.46942300  1
  O  O78  1  0.20558700  0.62261600  0.74180100  1
  O  O79  1  0.19689500  0.86734000  0.76678700  1
  O  O80  1  0.34636600  0.86872300  0.11783700  1
  O  O81  1  0.31212500  0.63654700  0.39279800  1
  O  O82  1  0.28803100  0.74480400  0.75067700  1
  O  O83  1  0.18787500  0.13654700  0.10720200  1
  O  O84  1  0.21785400  0.64251500  0.52617800  1
  O  O85  1  0.68875900  0.77425800  0.12497400  1
  O  O86  1  0.18081100  0.77604500  0.86872600  1
  O  O87  1  0.68875900  0.72574200  0.87502600  1
  O  O88  1  0.31390700  0.50516200  0.39862700  1
  O  O89  1  0.31124100  0.22574200  0.87502600  1
  O  O90  1  0.31390700  0.99483800  0.60137300  1
  O  O91  1  0.70540200  0.50414200  0.26163100  1
  O  O92  1  0.79441300  0.37738400  0.25819900  1
  O  O93  1  0.31124100  0.27425800  0.12497400  1
  O  O94  1  0.29441300  0.12261600  0.75819900  1
  O  O95  1  0.84636600  0.86872300  0.38216300  1
  O  O96  1  0.70540200  0.99585800  0.73836900  1
  O  O97  1  0.75610800  0.14336300  0.03457500  1
  O  O98  1  0.13819000  0.42178000  0.13764300  1
  O  O99  1  0.68081100  0.77604500  0.63127400  1
  O  O100  1  0.13676600  0.43815000  0.64393200  1
  O  O101  1  0.20540200  0.99585800  0.76163100  1
  O  O102  1  0.86181000  0.92178000  0.13764300  1
  O  O103  1  0.86323400  0.93815000  0.64393200  1
  O  O104  1  0.19689500  0.63266000  0.23321300  1
  O  O105  1  0.31212500  0.86345300  0.60720200  1
  O  O106  1  0.79459800  0.49585800  0.76163100  1
  O  O107  1  0.86323400  0.56185000  0.35606800  1
  O  O108  1  0.78214600  0.14251500  0.52617800  1
  O  O109  1  0.69689500  0.86734000  0.73321300  1
  O  O110  1  0.24389200  0.64336300  0.03457500  1
  O  O111  1  0.13819000  0.07822000  0.86235700  1
  O  O112  1  0.71785400  0.64251500  0.97382200  1
  O  O113  1  0.28214600  0.35748500  0.02617800  1
  O  O114  1  0.79441300  0.12261600  0.74180100  1
  O  O115  1  0.18609300  0.00516200  0.10137300  1
  O  O116  1  0.31918900  0.22395500  0.36872600  1
  O  O117  1  0.70558700  0.87738400  0.24180100  1
  O  O118  1  0.63819000  0.42178000  0.36235700  1
  O  O119  1  0.21196900  0.25519600  0.25067700  1
  O  O120  1  0.18081100  0.72395500  0.13127400  1
  O  O121  1  0.15363400  0.13127700  0.61783700  1
  O  O122  1  0.20540200  0.50414200  0.23836900  1
  O  O123  1  0.21785400  0.85748500  0.47382200  1
  O  O124  1  0.63819000  0.07822000  0.63764300  1
  O  O125  1  0.79459800  0.00414200  0.23836900  1
  O  O126  1  0.70558700  0.62261600  0.75819900  1
  O  O127  1  0.86181000  0.57822000  0.86235700  1
  O  O128  1  0.84636600  0.63127700  0.61783700  1
  O  O129  1  0.36181000  0.92178000  0.36235700  1
  O  O130  1  0.25526400  0.00922700  0.96942300  1
  O  O131  1  0.63676600  0.43815000  0.85606800  1
  O  O132  1  0.65363400  0.13127700  0.88216300  1
  O  O133  1  0.68609300  0.49483800  0.60137300  1
  O  O134  1  0.25610800  0.35663700  0.53457500  1
  O  O135  1  0.18875900  0.72574200  0.62497400  1
  O  O136  1  0.24473600  0.50922700  0.53057700  1
  O  O137  1  0.78214600  0.35748500  0.47382200  1
  O  O138  1  0.29441300  0.37738400  0.24180100  1
  O  O139  1  0.18787500  0.36345300  0.89279800  1
  O  O140  1  0.65363400  0.36872300  0.11783700  1
  O  O141  1  0.68081100  0.72395500  0.36872600  1
  O  O142  1  0.68787500  0.36345300  0.60720200  1
  O  O143  1  0.18875900  0.77425800  0.37502600  1
  O  O144  1  0.74473600  0.99077300  0.03057700  1
  O  O145  1  0.30310500  0.13266000  0.26678700  1
  O  O146  1  0.80310500  0.36734000  0.76678700  1
  O  O147  1  0.24389200  0.85663700  0.96542500  1
  O  O148  1  0.31918900  0.27604500  0.63127400  1
  O  O149  1  0.71196900  0.25519600  0.24932300  1
  O  O150  1  0.34636600  0.63127700  0.88216300  1
  O  O151  1  0.25610800  0.14336300  0.46542500  1
  O  O152  1  0.81390700  0.50516200  0.10137300  1
  O  O153  1  0.81390700  0.99483800  0.89862700  1
  O  O154  1  0.18609300  0.49483800  0.89862700  1
  O  O155  1  0.28803100  0.75519600  0.24932300  1
  O  O156  1  0.74389200  0.64336300  0.46542500  1
  O  O157  1  0.25526400  0.49077300  0.03057700  1
  O  O158  1  0.81124100  0.22574200  0.62497400  1
  O  O159  1  0.63676600  0.06185000  0.14393200  1
  O  O160  1  0.81212500  0.86345300  0.89279800  1
  O  O161  1  0.24473600  0.99077300  0.46942300  1
  O  O162  1  0.68609300  0.00516200  0.39862700  1
  O  O163  1  0.75610800  0.35663700  0.96542500  1
  O  O164  1  0.30310500  0.36734000  0.73321300  1
  O  O165  1  0.36323400  0.56185000  0.14393200  1
  O  O166  1  0.29459800  0.00414200  0.26163100  1
  O  O167  1  0.29459800  0.49585800  0.73836900  1
  O  O168  1  0.81918900  0.22395500  0.13127400  1
  O  O169  1  0.78803100  0.74480400  0.74932300  1
  O  O170  1  0.80310500  0.13266000  0.23321300  1
  O  O171  1  0.71785400  0.85748500  0.02617800  1
  O  O172  1  0.68787500  0.13654700  0.39279800  1
  O  O173  1  0.20558700  0.87738400  0.25819900  1
  O  O174  1  0.81212500  0.63654700  0.10720200  1
  O  O175  1  0.36181000  0.57822000  0.63764300  1
