# generated using pymatgen
data_Nb4Te17I4
_symmetry_space_group_name_H-M   'P 1'
_cell_length_a   9.38845438
_cell_length_b   9.38845438
_cell_length_c   27.12253731
_cell_angle_alpha   76.83717277
_cell_angle_beta   76.83717277
_cell_angle_gamma   54.29900638
_symmetry_Int_Tables_number   1
_chemical_formula_structural   Nb4Te17I4
_chemical_formula_sum   'Nb8 Te34 I8'
_cell_volume   1876.74404163
_cell_formula_units_Z   2
loop_
 _symmetry_equiv_pos_site_id
 _symmetry_equiv_pos_as_xyz
  1  'x, y, z'
loop_
 _atom_site_type_symbol
 _atom_site_label
 _atom_site_symmetry_multiplicity
 _atom_site_fract_x
 _atom_site_fract_y
 _atom_site_fract_z
 _atom_site_occupancy
  Nb  Nb0  1  0.09363600  0.52511200  0.44249900  1
  Nb  Nb1  1  0.90636400  0.47488800  0.55750100  1
  Nb  Nb2  1  0.61966700  0.22570000  0.82826500  1
  Nb  Nb3  1  0.52511200  0.09363600  0.94249900  1
  Nb  Nb4  1  0.77430000  0.38033300  0.67173500  1
  Nb  Nb5  1  0.47488800  0.90636400  0.05750100  1
  Nb  Nb6  1  0.22570000  0.61966700  0.32826500  1
  Nb  Nb7  1  0.38033300  0.77430000  0.17173500  1
  Te  Te8  1  0.41988900  0.45653900  0.90746900  1
  Te  Te9  1  0.07490600  0.66111500  0.52974400  1
  Te  Te10  1  0.09580500  0.35493200  0.64575100  1
  Te  Te11  1  0.33888500  0.92509400  0.97025600  1
  Te  Te12  1  0.58011100  0.54346100  0.09253100  1
  Te  Te13  1  0.66662900  0.73175400  0.63245600  1
  Te  Te14  1  0.61291000  0.19491800  0.72467000  1
  Te  Te15  1  0.79428600  0.76093600  0.98998700  1
  Te  Te16  1  0.96059200  0.88582800  0.82141800  1
  Te  Te17  1  0.54466600  0.45533400  0.25000000  1
  Te  Te18  1  0.76093600  0.79428600  0.48998700  1
  Te  Te19  1  0.90488500  0.15250600  0.59963800  1
  Te  Te20  1  0.33337100  0.26824600  0.36754400  1
  Te  Te21  1  0.45653900  0.41988900  0.40746900  1
  Te  Te22  1  0.23906400  0.20571400  0.51001300  1
  Te  Te23  1  0.03940800  0.11417200  0.17858200  1
  Te  Te24  1  0.11417200  0.03940800  0.67858200  1
  Te  Te25  1  0.19491800  0.61291000  0.22467000  1
  Te  Te26  1  0.45533400  0.54466600  0.75000000  1
  Te  Te27  1  0.80508200  0.38709000  0.77533000  1
  Te  Te28  1  0.26824600  0.33337100  0.86754400  1
  Te  Te29  1  0.88582800  0.96059200  0.32141800  1
  Te  Te30  1  0.20571400  0.23906400  0.01001300  1
  Te  Te31  1  0.38709000  0.80508200  0.27533000  1
  Te  Te32  1  0.92509400  0.33888500  0.47025600  1
  Te  Te33  1  0.66111500  0.07490600  0.02974400  1
  Te  Te34  1  0.64506800  0.90419500  0.85424900  1
  Te  Te35  1  0.84749400  0.09511500  0.90036200  1
  Te  Te36  1  0.35493200  0.09580500  0.14575100  1
  Te  Te37  1  0.73175400  0.66662900  0.13245600  1
  Te  Te38  1  0.09511500  0.84749400  0.40036200  1
  Te  Te39  1  0.54346100  0.58011100  0.59253100  1
  Te  Te40  1  0.15250600  0.90488500  0.09963800  1
  Te  Te41  1  0.90419500  0.64506800  0.35424900  1
  I  I42  1  0.52752700  0.26236600  0.55565400  1
  I  I43  1  0.90475400  0.80099100  0.70517100  1
  I  I44  1  0.19900900  0.09524600  0.79482800  1
  I  I45  1  0.73763400  0.47247300  0.94434600  1
  I  I46  1  0.26236600  0.52752700  0.05565400  1
  I  I47  1  0.09524600  0.19900900  0.29482900  1
  I  I48  1  0.80099100  0.90475400  0.20517200  1
  I  I49  1  0.47247300  0.73763400  0.44434600  1
