# generated using pymatgen
data_YbCoO3
_symmetry_space_group_name_H-M   'P 1'
_cell_length_a   5.18592500
_cell_length_b   5.38854700
_cell_length_c   7.39165000
_cell_angle_alpha   90.00000000
_cell_angle_beta   90.00000000
_cell_angle_gamma   90.00000000
_symmetry_Int_Tables_number   1
_chemical_formula_structural   YbCoO3
_chemical_formula_sum   'Yb4 Co4 O12'
_cell_volume   206.55670703
_cell_formula_units_Z   4
loop_
 _symmetry_equiv_pos_site_id
 _symmetry_equiv_pos_as_xyz
  1  'x, y, z'
loop_
 _atom_site_type_symbol
 _atom_site_label
 _atom_site_symmetry_multiplicity
 _atom_site_fract_x
 _atom_site_fract_y
 _atom_site_fract_z
 _atom_site_occupancy
  Yb  Yb0  1  0.98367900  0.06107400  0.25000000  1
  Yb  Yb1  1  0.51632100  0.56107500  0.25000000  1
  Yb  Yb2  1  0.48367900  0.43892600  0.75000000  1
  Yb  Yb3  1  0.01632100  0.93892500  0.75000000  1
  Co  Co4  1  0.50000000  0.00000000  0.50000000  1
  Co  Co5  1  0.00000000  0.50000000  0.00000000  1
  Co  Co6  1  0.00000000  0.50000000  0.50000000  1
  Co  Co7  1  0.50000000  0.00000000  0.00000000  1
  O  O8  1  0.29978800  0.70325100  0.53979700  1
  O  O9  1  0.42130200  0.98743500  0.25000000  1
  O  O10  1  0.20021200  0.20325100  0.96020300  1
  O  O11  1  0.07869800  0.48743500  0.25000000  1
  O  O12  1  0.79978800  0.79674900  0.03979700  1
  O  O13  1  0.92130200  0.51256500  0.75000000  1
  O  O14  1  0.70021200  0.29674900  0.46020300  1
  O  O15  1  0.57869800  0.01256500  0.75000000  1
  O  O16  1  0.20021200  0.20325100  0.53979700  1
  O  O17  1  0.79978800  0.79674900  0.46020300  1
  O  O18  1  0.29978800  0.70325100  0.96020300  1
  O  O19  1  0.70021200  0.29674900  0.03979700  1
