# generated using pymatgen
data_As3HO6
_symmetry_space_group_name_H-M   'P 1'
_cell_length_a   4.70990900
_cell_length_b   11.42978200
_cell_length_c   12.82578280
_cell_angle_alpha   64.21680726
_cell_angle_beta   90.00000000
_cell_angle_gamma   90.00000000
_symmetry_Int_Tables_number   1
_chemical_formula_structural   As3HO6
_chemical_formula_sum   'As12 H4 O24'
_cell_volume   621.71624086
_cell_formula_units_Z   4
loop_
 _symmetry_equiv_pos_site_id
 _symmetry_equiv_pos_as_xyz
  1  'x, y, z'
loop_
 _atom_site_type_symbol
 _atom_site_label
 _atom_site_symmetry_multiplicity
 _atom_site_fract_x
 _atom_site_fract_y
 _atom_site_fract_z
 _atom_site_occupancy
  As  As0  1  0.24687200  0.32887900  0.02964700  1
  As  As1  1  0.74687200  0.17112100  0.97035300  1
  As  As2  1  0.75312800  0.67112100  0.97035300  1
  As  As3  1  0.25312800  0.82887900  0.02964700  1
  As  As4  1  0.55542900  0.80331800  0.55431400  1
  As  As5  1  0.05542900  0.69668200  0.44568600  1
  As  As6  1  0.44457100  0.19668200  0.44568600  1
  As  As7  1  0.94457100  0.30331800  0.55431400  1
  As  As8  1  0.38076700  0.51242000  0.75121300  1
  As  As9  1  0.88076700  0.98758000  0.24878700  1
  As  As10  1  0.61923300  0.48758000  0.24878700  1
  As  As11  1  0.11923300  0.01242000  0.75121300  1
  H  H12  1  0.84212900  0.44716200  0.72803400  1
  H  H13  1  0.34212900  0.05283800  0.27196600  1
  H  H14  1  0.15787100  0.55283800  0.27196600  1
  H  H15  1  0.65787100  0.94716200  0.72803400  1
  O  O16  1  0.10961400  0.22602800  0.96422800  1
  O  O17  1  0.60961400  0.27397200  0.03577200  1
  O  O18  1  0.89038600  0.77397200  0.03577200  1
  O  O19  1  0.39038600  0.72602800  0.96422800  1
  O  O20  1  0.26755700  0.48191200  0.89083800  1
  O  O21  1  0.76755700  0.01808800  0.10916200  1
  O  O22  1  0.73244300  0.51808800  0.10916200  1
  O  O23  1  0.23244300  0.98191200  0.89083800  1
  O  O24  1  0.53379400  0.66582700  0.70469000  1
  O  O25  1  0.03379400  0.83417300  0.29531000  1
  O  O26  1  0.46620600  0.33417300  0.29531000  1
  O  O27  1  0.96620600  0.16582700  0.70469000  1
  O  O28  1  0.18914400  0.79771800  0.51396500  1
  O  O29  1  0.68914400  0.70228200  0.48603500  1
  O  O30  1  0.81085600  0.20228200  0.48603500  1
  O  O31  1  0.31085600  0.29771800  0.51396500  1
  O  O32  1  0.64898700  0.40098200  0.76510700  1
  O  O33  1  0.14898700  0.09901800  0.23489300  1
  O  O34  1  0.35101300  0.59901800  0.23489300  1
  O  O35  1  0.85101300  0.90098200  0.76510700  1
  O  O36  1  0.10931900  0.50334300  0.66889400  1
  O  O37  1  0.60931900  0.99665700  0.33110600  1
  O  O38  1  0.89068100  0.49665700  0.33110600  1
  O  O39  1  0.39068100  0.00334300  0.66889400  1
