# generated using pymatgen
data_ZrAsPd
_symmetry_space_group_name_H-M   'P 1'
_cell_length_a   3.96142100
_cell_length_b   6.77649300
_cell_length_c   19.68646700
_cell_angle_alpha   90.00000000
_cell_angle_beta   90.00000000
_cell_angle_gamma   90.00000000
_symmetry_Int_Tables_number   1
_chemical_formula_structural   ZrAsPd
_chemical_formula_sum   'Zr10 As10 Pd10'
_cell_volume   528.47418385
_cell_formula_units_Z   10
loop_
 _symmetry_equiv_pos_site_id
 _symmetry_equiv_pos_as_xyz
  1  'x, y, z'
loop_
 _atom_site_type_symbol
 _atom_site_label
 _atom_site_symmetry_multiplicity
 _atom_site_fract_x
 _atom_site_fract_y
 _atom_site_fract_z
 _atom_site_occupancy
  Zr  Zr0  1  0.50000000  0.96865200  0.68072300  1
  Zr  Zr1  1  0.00000000  0.15503900  0.00000000  1
  Zr  Zr2  1  0.00000000  0.54450400  0.87786700  1
  Zr  Zr3  1  0.50000000  0.45549600  0.37786700  1
  Zr  Zr4  1  0.50000000  0.45549600  0.62213300  1
  Zr  Zr5  1  0.00000000  0.54450400  0.12213300  1
  Zr  Zr6  1  0.00000000  0.03134800  0.18072300  1
  Zr  Zr7  1  0.50000000  0.84496100  0.50000000  1
  Zr  Zr8  1  0.00000000  0.03134800  0.81927700  1
  Zr  Zr9  1  0.50000000  0.96865200  0.31927700  1
  As  As10  1  0.00000000  0.75370100  0.40105500  1
  As  As11  1  0.50000000  0.25286600  0.50000000  1
  As  As12  1  0.50000000  0.24629900  0.09894500  1
  As  As13  1  0.00000000  0.25566300  0.30232100  1
  As  As14  1  0.50000000  0.74433700  0.19767900  1
  As  As15  1  0.50000000  0.74433700  0.80232100  1
  As  As16  1  0.50000000  0.24629900  0.90105500  1
  As  As17  1  0.00000000  0.74713400  0.00000000  1
  As  As18  1  0.00000000  0.25566300  0.69767900  1
  As  As19  1  0.00000000  0.75370100  0.59894500  1
  Pd  Pd20  1  0.00000000  0.11912100  0.42412200  1
  Pd  Pd21  1  0.50000000  0.35387200  0.22280700  1
  Pd  Pd22  1  0.50000000  0.48872500  0.00000000  1
  Pd  Pd23  1  0.50000000  0.35387200  0.77719300  1
  Pd  Pd24  1  0.00000000  0.64612800  0.27719300  1
  Pd  Pd25  1  0.00000000  0.64612800  0.72280700  1
  Pd  Pd26  1  0.50000000  0.88087900  0.07587800  1
  Pd  Pd27  1  0.50000000  0.88087900  0.92412200  1
  Pd  Pd28  1  0.00000000  0.11912100  0.57587800  1
  Pd  Pd29  1  0.00000000  0.51127500  0.50000000  1
