# generated using pymatgen
data_EuPPt
_symmetry_space_group_name_H-M   'P 1'
_cell_length_a   4.14017225
_cell_length_b   4.13932669
_cell_length_c   8.58413607
_cell_angle_alpha   90.06657235
_cell_angle_beta   89.90569546
_cell_angle_gamma   120.08009414
_symmetry_Int_Tables_number   1
_chemical_formula_structural   EuPPt
_chemical_formula_sum   'Eu2 P2 Pt2'
_cell_volume   127.29860364
_cell_formula_units_Z   2
loop_
 _symmetry_equiv_pos_site_id
 _symmetry_equiv_pos_as_xyz
  1  'x, y, z'
loop_
 _atom_site_type_symbol
 _atom_site_label
 _atom_site_symmetry_multiplicity
 _atom_site_fract_x
 _atom_site_fract_y
 _atom_site_fract_z
 _atom_site_occupancy
  Eu  Eu0  1  0.00000000  0.00000000  0.99999900  1
  Eu  Eu1  1  0.00000000  0.00000000  0.50000100  1
  P  P2  1  0.33341400  0.66668900  0.74995500  1
  P  P3  1  0.66658600  0.33331100  0.25004500  1
  Pt  Pt4  1  0.66660900  0.33332700  0.74993200  1
  Pt  Pt5  1  0.33339100  0.66667300  0.25006800  1
