# generated using pymatgen
data_Cs2PtS6(O3F)6
_symmetry_space_group_name_H-M   'P 1'
_cell_length_a   9.36696642
_cell_length_b   9.36696642
_cell_length_c   7.91688400
_cell_angle_alpha   90.00000000
_cell_angle_beta   90.00000000
_cell_angle_gamma   120.00000298
_symmetry_Int_Tables_number   1
_chemical_formula_structural   Cs2PtS6(O3F)6
_chemical_formula_sum   'Cs2 Pt1 S6 O18 F6'
_cell_volume   601.56536943
_cell_formula_units_Z   1
loop_
 _symmetry_equiv_pos_site_id
 _symmetry_equiv_pos_as_xyz
  1  'x, y, z'
loop_
 _atom_site_type_symbol
 _atom_site_label
 _atom_site_symmetry_multiplicity
 _atom_site_fract_x
 _atom_site_fract_y
 _atom_site_fract_z
 _atom_site_occupancy
  Cs  Cs0  1  0.33333300  0.66666700  0.33674500  1
  Cs  Cs1  1  0.66666700  0.33333300  0.66325500  1
  Pt  Pt2  1  0.00000000  0.00000000  0.00000000  1
  S  S3  1  0.85251000  0.19754300  0.22472700  1
  S  S4  1  0.19754300  0.85251000  0.77527300  1
  S  S5  1  0.80245700  0.65496700  0.22472700  1
  S  S6  1  0.14749000  0.34503300  0.77527300  1
  S  S7  1  0.34503300  0.14749000  0.22472700  1
  S  S8  1  0.65496700  0.80245700  0.77527300  1
  O  O9  1  0.66949500  0.66103100  0.73715500  1
  O  O10  1  0.95273800  0.81352300  0.16747800  1
  O  O11  1  0.85903200  0.57645200  0.34038400  1
  O  O12  1  0.04726200  0.86078500  0.83252200  1
  O  O13  1  0.28258000  0.42354800  0.65961600  1
  O  O14  1  0.71742000  0.14096800  0.34038400  1
  O  O15  1  0.13921500  0.18647700  0.83252200  1
  O  O16  1  0.99153500  0.33050500  0.73715500  1
  O  O17  1  0.18647700  0.13921500  0.16747800  1
  O  O18  1  0.33050500  0.99153500  0.26284500  1
  O  O19  1  0.57645200  0.85903200  0.65961600  1
  O  O20  1  0.42354800  0.28258000  0.34038400  1
  O  O21  1  0.86078500  0.04726200  0.16747800  1
  O  O22  1  0.33896900  0.00846500  0.73715500  1
  O  O23  1  0.81352300  0.95273800  0.83252200  1
  O  O24  1  0.00846500  0.33896900  0.26284500  1
  O  O25  1  0.14096800  0.71742000  0.65961600  1
  O  O26  1  0.66103100  0.66949500  0.26284500  1
  F  F27  1  0.45308200  0.20990400  0.05492100  1
  F  F28  1  0.54691800  0.75682200  0.94507900  1
  F  F29  1  0.79009600  0.24317800  0.05492100  1
  F  F30  1  0.24317800  0.79009600  0.94507900  1
  F  F31  1  0.75682200  0.54691800  0.05492100  1
  F  F32  1  0.20990400  0.45308200  0.94507900  1
