# generated using pymatgen
data_Ba2(InAs)5
_symmetry_space_group_name_H-M   'P 1'
_cell_length_a   4.37884100
_cell_length_b   17.75060600
_cell_length_c   18.26917900
_cell_angle_alpha   90.00000000
_cell_angle_beta   90.00000000
_cell_angle_gamma   90.00000000
_symmetry_Int_Tables_number   1
_chemical_formula_structural   Ba2(InAs)5
_chemical_formula_sum   'Ba8 In20 As20'
_cell_volume   1420.00996192
_cell_formula_units_Z   4
loop_
 _symmetry_equiv_pos_site_id
 _symmetry_equiv_pos_as_xyz
  1  'x, y, z'
loop_
 _atom_site_type_symbol
 _atom_site_label
 _atom_site_symmetry_multiplicity
 _atom_site_fract_x
 _atom_site_fract_y
 _atom_site_fract_z
 _atom_site_occupancy
  Ba  Ba0  1  0.75000000  0.97897800  0.62049700  1
  Ba  Ba1  1  0.25000000  0.02102200  0.37950300  1
  Ba  Ba2  1  0.75000000  0.47897800  0.87950300  1
  Ba  Ba3  1  0.25000000  0.04298200  0.86966300  1
  Ba  Ba4  1  0.75000000  0.95701800  0.13033700  1
  Ba  Ba5  1  0.25000000  0.52102200  0.12049700  1
  Ba  Ba6  1  0.75000000  0.45701800  0.36966300  1
  Ba  Ba7  1  0.25000000  0.54298200  0.63033700  1
  In  In8  1  0.75000000  0.21128600  0.37304400  1
  In  In9  1  0.25000000  0.67240700  0.94141300  1
  In  In10  1  0.75000000  0.32759300  0.05858700  1
  In  In11  1  0.75000000  0.82759300  0.44141300  1
  In  In12  1  0.75000000  0.34315900  0.68800400  1
  In  In13  1  0.25000000  0.32981300  0.52762500  1
  In  In14  1  0.75000000  0.84315900  0.81199600  1
  In  In15  1  0.25000000  0.82981300  0.97237500  1
  In  In16  1  0.25000000  0.65684100  0.31199600  1
  In  In17  1  0.75000000  0.71128600  0.12695600  1
  In  In18  1  0.25000000  0.17240700  0.55858700  1
  In  In19  1  0.25000000  0.28871400  0.87304400  1
  In  In20  1  0.25000000  0.15684100  0.18800400  1
  In  In21  1  0.75000000  0.67018700  0.47237500  1
  In  In22  1  0.75000000  0.18772200  0.72165800  1
  In  In23  1  0.75000000  0.68772200  0.77834200  1
  In  In24  1  0.25000000  0.78871400  0.62695600  1
  In  In25  1  0.25000000  0.81227800  0.27834200  1
  In  In26  1  0.75000000  0.17018700  0.02762500  1
  In  In27  1  0.25000000  0.31227800  0.22165800  1
  As  As28  1  0.25000000  0.58114200  0.44302500  1
  As  As29  1  0.25000000  0.10248700  0.69070000  1
  As  As30  1  0.75000000  0.69544200  0.62566900  1
  As  As31  1  0.75000000  0.89751300  0.30930000  1
  As  As32  1  0.75000000  0.91885800  0.94302500  1
  As  As33  1  0.75000000  0.10588700  0.26344900  1
  As  As34  1  0.25000000  0.88650700  0.51188000  1
  As  As35  1  0.25000000  0.39411300  0.76344900  1
  As  As36  1  0.75000000  0.61349300  0.01188000  1
  As  As37  1  0.75000000  0.41885800  0.55697500  1
  As  As38  1  0.25000000  0.80455800  0.12566900  1
  As  As39  1  0.25000000  0.60248700  0.80930000  1
  As  As40  1  0.25000000  0.30455800  0.37433100  1
  As  As41  1  0.75000000  0.11349300  0.48812000  1
  As  As42  1  0.25000000  0.38650700  0.98812000  1
  As  As43  1  0.25000000  0.08114200  0.05697500  1
  As  As44  1  0.25000000  0.89411300  0.73655100  1
  As  As45  1  0.75000000  0.60588700  0.23655100  1
  As  As46  1  0.75000000  0.39751300  0.19070000  1
  As  As47  1  0.75000000  0.19544200  0.87433100  1
