# generated using pymatgen
data_Tb5(RuO6)2
_symmetry_space_group_name_H-M   'P 1'
_cell_length_a   6.93043290
_cell_length_b   6.93043290
_cell_length_c   7.32143362
_cell_angle_alpha   74.64139955
_cell_angle_beta   74.64139955
_cell_angle_gamma   49.28484604
_symmetry_Int_Tables_number   1
_chemical_formula_structural   Tb5(RuO6)2
_chemical_formula_sum   'Tb5 Ru2 O12'
_cell_volume   254.97375399
_cell_formula_units_Z   1
loop_
 _symmetry_equiv_pos_site_id
 _symmetry_equiv_pos_as_xyz
  1  'x, y, z'
loop_
 _atom_site_type_symbol
 _atom_site_label
 _atom_site_symmetry_multiplicity
 _atom_site_fract_x
 _atom_site_fract_y
 _atom_site_fract_z
 _atom_site_occupancy
  Tb  Tb0  1  0.69591900  0.69591900  0.66623700  1
  Tb  Tb1  1  0.70026500  0.70026500  0.13854500  1
  Tb  Tb2  1  0.00000000  0.00000000  0.00000000  1
  Tb  Tb3  1  0.29973500  0.29973500  0.86145500  1
  Tb  Tb4  1  0.30408100  0.30408100  0.33376300  1
  Ru  Ru5  1  0.26899700  0.73100300  0.50000000  1
  Ru  Ru6  1  0.73100300  0.26899700  0.50000000  1
  O  O7  1  0.40006200  0.90412000  0.92671200  1
  O  O8  1  0.56404800  0.10485300  0.58467100  1
  O  O9  1  0.89514700  0.43595200  0.41532900  1
  O  O10  1  0.09588000  0.59993800  0.07328800  1
  O  O11  1  0.99957800  0.99957800  0.32939800  1
  O  O12  1  0.50066300  0.50066300  0.70694300  1
  O  O13  1  0.90412000  0.40006200  0.92671200  1
  O  O14  1  0.10485300  0.56404800  0.58467100  1
  O  O15  1  0.43595200  0.89514700  0.41532900  1
  O  O16  1  0.59993800  0.09588000  0.07328800  1
  O  O17  1  0.49933700  0.49933700  0.29305700  1
  O  O18  1  0.00042200  0.00042200  0.67060200  1
