# generated using pymatgen
data_TePCl9
_symmetry_space_group_name_H-M   'P 1'
_cell_length_a   12.47769013
_cell_length_b   12.47769013
_cell_length_c   12.47769013
_cell_angle_alpha   119.94512571
_cell_angle_beta   119.57343364
_cell_angle_gamma   90.41774720
_symmetry_Int_Tables_number   1
_chemical_formula_structural   TePCl9
_chemical_formula_sum   'Te4 P4 Cl36'
_cell_volume   1378.62686044
_cell_formula_units_Z   4
loop_
 _symmetry_equiv_pos_site_id
 _symmetry_equiv_pos_as_xyz
  1  'x, y, z'
loop_
 _atom_site_type_symbol
 _atom_site_label
 _atom_site_symmetry_multiplicity
 _atom_site_fract_x
 _atom_site_fract_y
 _atom_site_fract_z
 _atom_site_occupancy
  Te  Te0  1  0.75106000  0.84586400  0.09692400  1
  Te  Te1  1  0.17552100  0.72034100  0.39586300  1
  Te  Te2  1  0.25106000  0.15413600  0.90519500  1
  Te  Te3  1  0.67552100  0.27965900  0.45518000  1
  P  P4  1  0.20460400  0.73157100  0.95610500  1
  P  P5  1  0.70460400  0.74849900  0.47303400  1
  P  P6  1  0.22453400  0.26842900  0.47303400  1
  P  P7  1  0.72453400  0.25150100  0.95610500  1
  Cl  Cl8  1  0.82837500  0.43346400  0.47102200  1
  Cl  Cl9  1  0.07417700  0.55510600  0.12928300  1
  Cl  Cl10  1  0.23744300  0.34701100  0.08445400  1
  Cl  Cl11  1  0.87982900  0.22624400  0.95562500  1
  Cl  Cl12  1  0.53755800  0.14264700  0.47102200  1
  Cl  Cl13  1  0.15276300  0.69101000  0.75972700  1
  Cl  Cl14  1  0.23593000  0.11740700  0.48343200  1
  Cl  Cl15  1  0.84821400  0.36921000  0.71742300  1
  Cl  Cl16  1  0.48093000  0.17596400  0.15689400  1
  Cl  Cl17  1  0.36602500  0.88259300  0.11852300  1
  Cl  Cl18  1  0.22938200  0.57579700  0.95562500  1
  Cl  Cl19  1  0.65276300  0.89303600  0.46175300  1
  Cl  Cl20  1  0.27361800  0.92482900  0.69844800  1
  Cl  Cl21  1  0.32837500  0.85735300  0.39491100  1
  Cl  Cl22  1  0.89127700  0.98083100  0.08239600  1
  Cl  Cl23  1  0.98093000  0.82403600  0.30496600  1
  Cl  Cl24  1  0.72938200  0.77375600  0.65358500  1
  Cl  Cl25  1  0.56146800  0.86736100  0.92883000  1
  Cl  Cl26  1  0.37982900  0.42420300  0.65358500  1
  Cl  Cl27  1  0.06146800  0.13263900  0.69410700  1
  Cl  Cl28  1  0.73593000  0.25249800  0.11852300  1
  Cl  Cl29  1  0.06634400  0.77279200  0.98684700  1
  Cl  Cl30  1  0.34821400  0.63079000  0.47900400  1
  Cl  Cl31  1  0.10156500  0.01916900  0.91044600  1
  Cl  Cl32  1  0.56634400  0.57949700  0.29355200  1
  Cl  Cl33  1  0.39127700  0.30888100  0.91044600  1
  Cl  Cl34  1  0.60156500  0.69111900  0.08239600  1
  Cl  Cl35  1  0.77361800  0.07517100  0.34878900  1
  Cl  Cl36  1  0.56871700  0.10696400  0.75972700  1
  Cl  Cl37  1  0.71405500  0.42050300  0.98684700  1
  Cl  Cl38  1  0.86602500  0.74750200  0.48343200  1
  Cl  Cl39  1  0.06871700  0.30899000  0.46175300  1
  Cl  Cl40  1  0.03755800  0.56653600  0.39491100  1
  Cl  Cl41  1  0.73744300  0.65298900  0.89043200  1
  Cl  Cl42  1  0.57417700  0.44489400  0.51907100  1
  Cl  Cl43  1  0.21405500  0.22720800  0.29355200  1
