# generated using pymatgen
data_KEr3F10
_symmetry_space_group_name_H-M   'P 1'
_cell_length_a   8.18344663
_cell_length_b   8.18344663
_cell_length_c   27.20730035
_cell_angle_alpha   81.41552307
_cell_angle_beta   81.41552307
_cell_angle_gamma   60.00153101
_symmetry_Int_Tables_number   1
_chemical_formula_structural   KEr3F10
_chemical_formula_sum   'K8 Er24 F80'
_cell_volume   1554.34163881
_cell_formula_units_Z   8
loop_
 _symmetry_equiv_pos_site_id
 _symmetry_equiv_pos_as_xyz
  1  'x, y, z'
loop_
 _atom_site_type_symbol
 _atom_site_label
 _atom_site_symmetry_multiplicity
 _atom_site_fract_x
 _atom_site_fract_y
 _atom_site_fract_z
 _atom_site_occupancy
  K  K0  1  0.65886900  0.65886900  0.49711200  1
  K  K1  1  0.49504600  0.49504600  0.99504200  1
  K  K2  1  0.78960800  0.78960800  0.12182400  1
  K  K3  1  0.28720600  0.28720600  0.61535500  1
  K  K4  1  0.91361800  0.91361800  0.74583700  1
  K  K5  1  0.41068600  0.41068600  0.24526800  1
  K  K6  1  0.03607700  0.03607700  0.37195800  1
  K  K7  1  0.20553200  0.20553200  0.87119600  1
  Er  Er8  1  0.54677600  0.02476500  0.36948500  1
  Er  Er9  1  0.78911600  0.78911600  0.61754000  1
  Er  Er10  1  0.00391800  0.00391800  0.99764300  1
  Er  Er11  1  0.89621000  0.41720000  0.74804400  1
  Er  Er12  1  0.02476500  0.54677600  0.36948500  1
  Er  Er13  1  0.48540900  0.00076400  0.99943500  1
  Er  Er14  1  0.54494900  0.54494900  0.37010300  1
  Er  Er15  1  0.27972800  0.27972800  0.11828700  1
  Er  Er16  1  0.69896400  0.69896400  0.86953200  1
  Er  Er17  1  0.80119600  0.27984900  0.11806300  1
  Er  Er18  1  0.90253700  0.41958300  0.24846500  1
  Er  Er19  1  0.15509400  0.67361300  0.49900800  1
  Er  Er20  1  0.41720000  0.89621000  0.74804400  1
  Er  Er21  1  0.69756100  0.21848800  0.86901900  1
  Er  Er22  1  0.27984900  0.80119600  0.11806300  1
  Er  Er23  1  0.41958300  0.90253700  0.24846500  1
  Er  Er24  1  0.00076400  0.48540900  0.99943500  1
  Er  Er25  1  0.27214500  0.79098600  0.61831800  1
  Er  Er26  1  0.90194700  0.90194700  0.24697400  1
  Er  Er27  1  0.41811000  0.41811000  0.74661700  1
  Er  Er28  1  0.15448400  0.15448400  0.49897400  1
  Er  Er29  1  0.21848800  0.69756100  0.86901900  1
  Er  Er30  1  0.67361300  0.15509400  0.49900800  1
  Er  Er31  1  0.79098600  0.27214500  0.61831800  1
  F  F32  1  0.59307300  0.92353900  0.68164100  1
  F  F33  1  0.59118600  0.26928400  0.68119900  1
  F  F34  1  0.91814500  0.26385700  0.68499500  1
  F  F35  1  0.76961900  0.09162100  0.18159300  1
  F  F36  1  0.98183100  0.43086300  0.08624200  1
  F  F37  1  0.84939100  0.51172900  0.59909300  1
  F  F38  1  0.42563500  0.09262400  0.18290100  1
  F  F39  1  0.86343100  0.86343100  0.33712000  1
  F  F40  1  0.51882300  0.51882300  0.59928400  1
  F  F41  1  0.71523000  0.26835300  0.78050200  1
  F  F42  1  0.12722400  0.46205200  0.76291800  1
  F  F43  1  0.18433700  0.52634600  0.93572900  1
  F  F44  1  0.18474000  0.18474000  0.26708200  1
  F  F45  1  0.85726200  0.18292600  0.93198900  1
  F  F46  1  0.27874400  0.83495000  0.53094700  1
  F  F47  1  0.85077000  0.17908500  0.26478100  1
  F  F48  1  0.04033900  0.71704900  0.01622800  1
  F  F49  1  0.40259300  0.40259300  0.83672600  1
  F  F50  1  0.42345700  0.76522900  0.18411900  1
  F  F51  1  0.09262400  0.42563500  0.18290100  1
  F  F52  1  0.71010900  0.71010900  0.01862400  1
  F  F53  1  0.68090300  0.02017400  0.43410300  1
  F  F54  1  0.12894900  0.12894900  0.76561500  1
  F  F55  1  0.43086300  0.98183100  0.08624200  1
  F  F56  1  0.69685700  0.69685700  0.39409500  1
  F  F57  1  0.26385700  0.91814500  0.68499500  1
  F  F58  1  0.99318700  0.64446900  0.85328600  1
  F  F59  1  0.43286200  0.43286200  0.51719400  1
  F  F60  1  0.11131400  0.11131400  0.58721600  1
  F  F61  1  0.53228600  0.53228600  0.89329200  1
  F  F62  1  0.17908500  0.85077000  0.26478100  1
  F  F63  1  0.11247300  0.11247300  0.14090900  1
  F  F64  1  0.26489300  0.60473000  0.35253000  1
  F  F65  1  0.26928400  0.59118600  0.68119900  1
  F  F66  1  0.56765400  0.56765400  0.10252600  1
  F  F67  1  0.52432600  0.84931800  0.93496000  1
  F  F68  1  0.02017400  0.68090300  0.43410300  1
  F  F69  1  0.64446900  0.99318700  0.85328600  1
  F  F70  1  0.84931800  0.52432600  0.93496000  1
  F  F71  1  0.71703500  0.71703500  0.78051900  1
  F  F72  1  0.17235000  0.17235000  0.97566800  1
  F  F73  1  0.46205200  0.12722400  0.76291800  1
  F  F74  1  0.41879000  0.86381600  0.33721400  1
  F  F75  1  0.26835300  0.71523000  0.78050200  1
  F  F76  1  0.97837000  0.97837000  0.85063600  1
  F  F77  1  0.92353900  0.59307300  0.68164100  1
  F  F78  1  0.02683300  0.58654900  0.28030400  1
  F  F79  1  0.56893200  0.23801900  0.10187700  1
  F  F80  1  0.83495000  0.27874400  0.53094700  1
  F  F81  1  0.35228600  0.68112700  0.43513500  1
  F  F82  1  0.66278900  0.11330300  0.58597600  1
  F  F83  1  0.30082300  0.85206000  0.03018300  1
  F  F84  1  0.58173400  0.58173400  0.28158600  1
  F  F85  1  0.11330300  0.66278900  0.58597600  1
  F  F86  1  0.30121000  0.30121000  0.03148700  1
  F  F87  1  0.10507000  0.42989000  0.51681600  1
  F  F88  1  0.23801900  0.56893200  0.10187700  1
  F  F89  1  0.09162100  0.76961900  0.18159300  1
  F  F90  1  0.02165200  0.35178100  0.43442200  1
  F  F91  1  0.86381600  0.41879000  0.33721400  1
  F  F92  1  0.76522900  0.42345700  0.18411900  1
  F  F93  1  0.39976100  0.84531100  0.83602200  1
  F  F94  1  0.51172900  0.84939100  0.59909300  1
  F  F95  1  0.58482700  0.58482700  0.72454900  1
  F  F96  1  0.60473000  0.26489300  0.35253000  1
  F  F97  1  0.84531100  0.39976100  0.83602200  1
  F  F98  1  0.52634600  0.18433700  0.93572900  1
  F  F99  1  0.74739700  0.74739700  0.22406700  1
  F  F100  1  0.35178100  0.02165200  0.43442200  1
  F  F101  1  0.85206000  0.30082300  0.03018300  1
  F  F102  1  0.42989000  0.10507000  0.51681600  1
  F  F103  1  0.18292600  0.85726200  0.93198900  1
  F  F104  1  0.83328800  0.83328800  0.53070600  1
  F  F105  1  0.00168800  0.00168800  0.47553600  1
  F  F106  1  0.58654900  0.02683300  0.28030400  1
  F  F107  1  0.94157200  0.94157200  0.64102300  1
  F  F108  1  0.27305100  0.27305100  0.35268700  1
  F  F109  1  0.71704900  0.04033900  0.01622800  1
  F  F110  1  0.68112700  0.35228600  0.43513500  1
  F  F111  1  0.98431100  0.98431100  0.08501200  1
