# generated using pymatgen
data_SrNi2Te3(ClO4)2
_symmetry_space_group_name_H-M   'P 1'
_cell_length_a   9.00891400
_cell_length_b   6.73647100
_cell_length_c   19.44312046
_cell_angle_alpha   71.86905749
_cell_angle_beta   90.00000000
_cell_angle_gamma   90.00000000
_symmetry_Int_Tables_number   1
_chemical_formula_structural   SrNi2Te3(ClO4)2
_chemical_formula_sum   'Sr4 Ni8 Te12 Cl8 O32'
_cell_volume   1121.38161596
_cell_formula_units_Z   4
loop_
 _symmetry_equiv_pos_site_id
 _symmetry_equiv_pos_as_xyz
  1  'x, y, z'
loop_
 _atom_site_type_symbol
 _atom_site_label
 _atom_site_symmetry_multiplicity
 _atom_site_fract_x
 _atom_site_fract_y
 _atom_site_fract_z
 _atom_site_occupancy
  Sr  Sr0  1  0.41165000  0.01691600  0.72343300  1
  Sr  Sr1  1  0.58835000  0.98308400  0.27656700  1
  Sr  Sr2  1  0.91165000  0.98308400  0.77656700  1
  Sr  Sr3  1  0.08835000  0.01691600  0.22343300  1
  Ni  Ni4  1  0.25165500  0.57723400  0.31984800  1
  Ni  Ni5  1  0.75165400  0.42276600  0.18015200  1
  Ni  Ni6  1  0.95934800  0.31552800  0.31988600  1
  Ni  Ni7  1  0.04065200  0.68447200  0.68011400  1
  Ni  Ni8  1  0.74834500  0.42276600  0.68015200  1
  Ni  Ni9  1  0.24834500  0.57723400  0.81984800  1
  Ni  Ni10  1  0.45934800  0.68447200  0.18011400  1
  Ni  Ni11  1  0.54065200  0.31552800  0.81988600  1
  Te  Te12  1  0.39415900  0.59524200  0.63509600  1
  Te  Te13  1  0.07442700  0.29177400  0.60746200  1
  Te  Te14  1  0.42557300  0.29177400  0.10746200  1
  Te  Te15  1  0.77616600  0.95735700  0.11223100  1
  Te  Te16  1  0.92557300  0.70822600  0.39253800  1
  Te  Te17  1  0.27616600  0.04264300  0.38776900  1
  Te  Te18  1  0.60584100  0.40475800  0.36490400  1
  Te  Te19  1  0.57442700  0.70822600  0.89253800  1
  Te  Te20  1  0.22383400  0.04264300  0.88776900  1
  Te  Te21  1  0.89415900  0.40475800  0.86490400  1
  Te  Te22  1  0.72383400  0.95735700  0.61223100  1
  Te  Te23  1  0.10584100  0.59524200  0.13509600  1
  Cl  Cl24  1  0.90549000  0.23982300  0.44815600  1
  Cl  Cl25  1  0.79799700  0.55875100  0.05076300  1
  Cl  Cl26  1  0.09451000  0.76017700  0.55184400  1
  Cl  Cl27  1  0.59451000  0.23982300  0.94815600  1
  Cl  Cl28  1  0.40549000  0.76017700  0.05184400  1
  Cl  Cl29  1  0.70200300  0.55875100  0.55076300  1
  Cl  Cl30  1  0.20200300  0.44124900  0.94923700  1
  Cl  Cl31  1  0.29799700  0.44124900  0.44923700  1
  O  O32  1  0.01972000  0.12409300  0.87051500  1
  O  O33  1  0.94441100  0.99131100  0.33544600  1
  O  O34  1  0.98028000  0.87590700  0.12948500  1
  O  O35  1  0.52111300  0.38173400  0.18028700  1
  O  O36  1  0.21372000  0.88993000  0.82069200  1
  O  O37  1  0.23126000  0.67205800  0.20200500  1
  O  O38  1  0.26874000  0.67205800  0.70200500  1
  O  O39  1  0.81101800  0.72134700  0.67985300  1
  O  O40  1  0.76874000  0.32794200  0.79799500  1
  O  O41  1  0.28628000  0.88993000  0.32069200  1
  O  O42  1  0.47566400  0.58658500  0.29562100  1
  O  O43  1  0.02111300  0.61826600  0.31971300  1
  O  O44  1  0.78628000  0.11007000  0.17930800  1
  O  O45  1  0.77132300  0.68361800  0.85764100  1
  O  O46  1  0.73126000  0.32794200  0.29799500  1
  O  O47  1  0.02433600  0.58658500  0.79562100  1
  O  O48  1  0.97566400  0.41341500  0.20437900  1
  O  O49  1  0.72867700  0.68361800  0.35764100  1
  O  O50  1  0.97888700  0.38173400  0.68028700  1
  O  O51  1  0.44441100  0.00868900  0.16455400  1
  O  O52  1  0.47888700  0.61826600  0.81971300  1
  O  O53  1  0.31101800  0.27865300  0.82014700  1
  O  O54  1  0.05558900  0.00868900  0.66455400  1
  O  O55  1  0.55558900  0.99131100  0.83544600  1
  O  O56  1  0.27132300  0.31638200  0.64235900  1
  O  O57  1  0.71372000  0.11007000  0.67930800  1
  O  O58  1  0.48028000  0.12409300  0.37051500  1
  O  O59  1  0.51972000  0.87590700  0.62948500  1
  O  O60  1  0.68898200  0.72134700  0.17985300  1
  O  O61  1  0.22867700  0.31638200  0.14235900  1
  O  O62  1  0.18898200  0.27865300  0.32014700  1
  O  O63  1  0.52433600  0.41341500  0.70437900  1
