# generated using pymatgen
data_KFe(SeO3)2
_symmetry_space_group_name_H-M   'P 1'
_cell_length_a   5.53441700
_cell_length_b   8.26908100
_cell_length_c   13.18260700
_cell_angle_alpha   90.00000000
_cell_angle_beta   90.00000000
_cell_angle_gamma   90.00000000
_symmetry_Int_Tables_number   1
_chemical_formula_structural   KFe(SeO3)2
_chemical_formula_sum   'K4 Fe4 Se8 O24'
_cell_volume   603.29597780
_cell_formula_units_Z   4
loop_
 _symmetry_equiv_pos_site_id
 _symmetry_equiv_pos_as_xyz
  1  'x, y, z'
loop_
 _atom_site_type_symbol
 _atom_site_label
 _atom_site_symmetry_multiplicity
 _atom_site_fract_x
 _atom_site_fract_y
 _atom_site_fract_z
 _atom_site_occupancy
  K  K0  1  0.25000000  0.50648600  0.37372300  1
  K  K1  1  0.25000000  0.99351400  0.87372300  1
  K  K2  1  0.75000000  0.49351400  0.62627700  1
  K  K3  1  0.75000000  0.00648600  0.12627700  1
  Fe  Fe4  1  0.25000000  0.80251600  0.60234700  1
  Fe  Fe5  1  0.75000000  0.30251600  0.89765300  1
  Fe  Fe6  1  0.25000000  0.69748400  0.10234700  1
  Fe  Fe7  1  0.75000000  0.19748400  0.39765300  1
  Se  Se8  1  0.75000000  0.01100000  0.70296900  1
  Se  Se9  1  0.25000000  0.98900000  0.29703100  1
  Se  Se10  1  0.25000000  0.51100000  0.79703100  1
  Se  Se11  1  0.75000000  0.79345400  0.43851600  1
  Se  Se12  1  0.75000000  0.70654600  0.93851600  1
  Se  Se13  1  0.25000000  0.20654600  0.56148400  1
  Se  Se14  1  0.75000000  0.48900000  0.20296900  1
  Se  Se15  1  0.25000000  0.29345400  0.06148400  1
  O  O16  1  0.50671300  0.62059700  0.20599100  1
  O  O17  1  0.00671300  0.37940300  0.79400900  1
  O  O18  1  0.25000000  0.00732500  0.52266600  1
  O  O19  1  0.49301600  0.21226300  0.99580300  1
  O  O20  1  0.25000000  0.57334700  0.67068800  1
  O  O21  1  0.00698400  0.21226300  0.99580300  1
  O  O22  1  0.99328700  0.87940300  0.70599100  1
  O  O23  1  0.25000000  0.49267500  0.02266600  1
  O  O24  1  0.99328700  0.62059700  0.20599100  1
  O  O25  1  0.50698400  0.78773700  0.00419700  1
  O  O26  1  0.75000000  0.50732500  0.97733400  1
  O  O27  1  0.99301600  0.71226300  0.50419700  1
  O  O28  1  0.00671300  0.12059700  0.29400900  1
  O  O29  1  0.25000000  0.92665300  0.17068800  1
  O  O30  1  0.50671300  0.87940300  0.70599100  1
  O  O31  1  0.49328700  0.37940300  0.79400900  1
  O  O32  1  0.99301600  0.78773700  0.00419700  1
  O  O33  1  0.49328700  0.12059700  0.29400900  1
  O  O34  1  0.50698400  0.71226300  0.50419700  1
  O  O35  1  0.75000000  0.99267500  0.47733400  1
  O  O36  1  0.00698400  0.28773700  0.49580300  1
  O  O37  1  0.49301600  0.28773700  0.49580300  1
  O  O38  1  0.75000000  0.42665300  0.32931200  1
  O  O39  1  0.75000000  0.07334700  0.82931200  1
