# generated using pymatgen
data_Zr3S4
_symmetry_space_group_name_H-M   'P 1'
_cell_length_a   7.35249192
_cell_length_b   7.36772572
_cell_length_c   29.33513274
_cell_angle_alpha   59.88007661
_cell_angle_beta   60.09653492
_cell_angle_gamma   59.61160869
_symmetry_Int_Tables_number   1
_chemical_formula_structural   Zr3S4
_chemical_formula_sum   'Zr24 S32'
_cell_volume   1120.13555994
_cell_formula_units_Z   8
loop_
 _symmetry_equiv_pos_site_id
 _symmetry_equiv_pos_as_xyz
  1  'x, y, z'
loop_
 _atom_site_type_symbol
 _atom_site_label
 _atom_site_symmetry_multiplicity
 _atom_site_fract_x
 _atom_site_fract_y
 _atom_site_fract_z
 _atom_site_occupancy
  Zr  Zr0  1  0.98786400  0.00087000  0.99764400  1
  Zr  Zr1  1  0.48485900  0.00276400  0.00340700  1
  Zr  Zr2  1  0.00000000  0.50000000  0.12500000  1
  Zr  Zr3  1  0.98433200  0.01618500  0.36973200  1
  Zr  Zr4  1  0.00000000  0.00000000  0.12500000  1
  Zr  Zr5  1  0.50000000  0.50000000  0.12500000  1
  Zr  Zr6  1  0.01213600  0.99913000  0.25235600  1
  Zr  Zr7  1  0.98600000  0.53463400  0.99912000  1
  Zr  Zr8  1  0.52187500  0.00579600  0.37627300  1
  Zr  Zr9  1  0.52090900  0.46065500  0.37686100  1
  Zr  Zr10  1  0.51514100  0.99723600  0.24659300  1
  Zr  Zr11  1  0.98584200  0.99531700  0.74760200  1
  Zr  Zr12  1  0.01415800  0.00468300  0.50239800  1
  Zr  Zr13  1  0.01400000  0.46536600  0.25088000  1
  Zr  Zr14  1  0.00000000  0.00000000  0.62500000  1
  Zr  Zr15  1  0.50000000  0.50000000  0.62500000  1
  Zr  Zr16  1  0.51285700  0.99014300  0.75198300  1
  Zr  Zr17  1  0.48714300  0.00985700  0.49801700  1
  Zr  Zr18  1  0.01382300  0.46942200  0.50238400  1
  Zr  Zr19  1  0.50000000  0.00000000  0.62500000  1
  Zr  Zr20  1  0.01566800  0.98381500  0.88026800  1
  Zr  Zr21  1  0.47909100  0.53934500  0.87313900  1
  Zr  Zr22  1  0.98617700  0.53057800  0.74761600  1
  Zr  Zr23  1  0.47812500  0.99420400  0.87372700  1
  S  S24  1  0.24726500  0.25596600  0.06246500  1
  S  S25  1  0.27364400  0.23021700  0.18223400  1
  S  S26  1  0.25232000  0.74437100  0.06042000  1
  S  S27  1  0.24874300  0.73953000  0.18993800  1
  S  S28  1  0.26098000  0.23667500  0.31311300  1
  S  S29  1  0.75125700  0.26047000  0.06006200  1
  S  S30  1  0.72635600  0.76978300  0.06776600  1
  S  S31  1  0.26365900  0.74381200  0.31297200  1
  S  S32  1  0.74768000  0.25562900  0.18958000  1
  S  S33  1  0.23819500  0.26274600  0.43291700  1
  S  S34  1  0.25380800  0.74950300  0.43579000  1
  S  S35  1  0.73447400  0.26783800  0.30551300  1
  S  S36  1  0.25276700  0.25286900  0.56376700  1
  S  S37  1  0.75273500  0.74403400  0.18753500  1
  S  S38  1  0.75766400  0.24105700  0.43959100  1
  S  S39  1  0.76208700  0.73599300  0.31398800  1
  S  S40  1  0.23859600  0.25521000  0.68807400  1
  S  S41  1  0.25461200  0.73848200  0.56335500  1
  S  S42  1  0.26333600  0.74104400  0.68895900  1
  S  S43  1  0.73666400  0.25895600  0.56104100  1
  S  S44  1  0.24129500  0.25994800  0.81069400  1
  S  S45  1  0.75870500  0.74005200  0.43930600  1
  S  S46  1  0.74538800  0.26151800  0.68664500  1
  S  S47  1  0.76140400  0.74479000  0.56192600  1
  S  S48  1  0.24233600  0.75894300  0.81040900  1
  S  S49  1  0.23791300  0.26400700  0.93601200  1
  S  S50  1  0.26552600  0.73216200  0.94448700  1
  S  S51  1  0.74619200  0.25049700  0.81421000  1
  S  S52  1  0.74723300  0.74713100  0.68623300  1
  S  S53  1  0.73634100  0.25618800  0.93702800  1
  S  S54  1  0.76180500  0.73725400  0.81708300  1
  S  S55  1  0.73902000  0.76332500  0.93688700  1
