# generated using pymatgen
data_Pr3PtI3
_symmetry_space_group_name_H-M   'P 1'
_cell_length_a   10.96881969
_cell_length_b   10.96881969
_cell_length_c   10.96881969
_cell_angle_alpha   109.47122063
_cell_angle_beta   109.47122063
_cell_angle_gamma   109.47122063
_symmetry_Int_Tables_number   1
_chemical_formula_structural   Pr3PtI3
_chemical_formula_sum   'Pr12 Pt4 I12'
_cell_volume   1015.91600272
_cell_formula_units_Z   4
loop_
 _symmetry_equiv_pos_site_id
 _symmetry_equiv_pos_as_xyz
  1  'x, y, z'
loop_
 _atom_site_type_symbol
 _atom_site_label
 _atom_site_symmetry_multiplicity
 _atom_site_fract_x
 _atom_site_fract_y
 _atom_site_fract_z
 _atom_site_occupancy
  Pr  Pr0  1  0.04072700  0.27036400  0.02036400  1
  Pr  Pr1  1  0.75000000  0.02036400  0.47963600  1
  Pr  Pr2  1  0.27036400  0.75000000  0.22963600  1
  Pr  Pr3  1  0.47963600  0.75000000  0.02036400  1
  Pr  Pr4  1  0.75000000  0.22963600  0.27036400  1
  Pr  Pr5  1  0.02036400  0.47963600  0.75000000  1
  Pr  Pr6  1  0.22963600  0.27036400  0.75000000  1
  Pr  Pr7  1  0.47963600  0.22963600  0.45927300  1
  Pr  Pr8  1  0.45927300  0.47963600  0.22963600  1
  Pr  Pr9  1  0.27036400  0.02036400  0.04072700  1
  Pr  Pr10  1  0.02036400  0.04072700  0.27036400  1
  Pr  Pr11  1  0.22963600  0.45927300  0.47963600  1
  Pt  Pt12  1  0.50000000  0.00000000  0.25000000  1
  Pt  Pt13  1  0.25000000  0.50000000  0.00000000  1
  Pt  Pt14  1  0.25000000  0.25000000  0.25000000  1
  Pt  Pt15  1  0.00000000  0.25000000  0.50000000  1
  I  I16  1  0.75816800  0.74183200  0.25000000  1
  I  I17  1  0.99183200  0.50816800  0.25000000  1
  I  I18  1  0.25000000  0.75816800  0.74183200  1
  I  I19  1  0.75816800  0.51633700  0.50816800  1
  I  I20  1  0.50816800  0.25000000  0.99183200  1
  I  I21  1  0.74183200  0.99183200  0.98366300  1
  I  I22  1  0.99183200  0.98366300  0.74183200  1
  I  I23  1  0.51633700  0.50816800  0.75816800  1
  I  I24  1  0.25000000  0.99183200  0.50816800  1
  I  I25  1  0.74183200  0.25000000  0.75816800  1
  I  I26  1  0.50816800  0.75816800  0.51633700  1
  I  I27  1  0.98366300  0.74183200  0.99183200  1
