# generated using pymatgen
data_CaTa2Ga2(CuO4)3
_symmetry_space_group_name_H-M   'P 1'
_cell_length_a   7.54200300
_cell_length_b   7.55538692
_cell_length_c   15.08828662
_cell_angle_alpha   89.85304202
_cell_angle_beta   89.92442476
_cell_angle_gamma   89.84148327
_symmetry_Int_Tables_number   1
_chemical_formula_structural   CaTa2Ga2(CuO4)3
_chemical_formula_sum   'Ca4 Ta8 Ga8 Cu12 O48'
_cell_volume   859.76521750
_cell_formula_units_Z   4
loop_
 _symmetry_equiv_pos_site_id
 _symmetry_equiv_pos_as_xyz
  1  'x, y, z'
loop_
 _atom_site_type_symbol
 _atom_site_label
 _atom_site_symmetry_multiplicity
 _atom_site_fract_x
 _atom_site_fract_y
 _atom_site_fract_z
 _atom_site_occupancy
  Ca  Ca0  1  0.75260300  0.73246600  0.87562600  1
  Ca  Ca1  1  0.74873100  0.74823500  0.37495300  1
  Ca  Ca2  1  0.25126900  0.25176500  0.62504700  1
  Ca  Ca3  1  0.24739700  0.26753400  0.12437400  1
  Ta  Ta4  1  0.00000000  0.00000000  0.00000000  1
  Ta  Ta5  1  0.99630000  0.00088200  0.74640300  1
  Ta  Ta6  1  0.50000000  0.00000000  0.00000000  1
  Ta  Ta7  1  0.00370000  0.99911800  0.25359700  1
  Ta  Ta8  1  0.50000000  0.00000000  0.50000000  1
  Ta  Ta9  1  0.00000000  0.50000000  0.50000000  1
  Ta  Ta10  1  0.50099600  0.49978900  0.25046200  1
  Ta  Ta11  1  0.49900400  0.50021100  0.74953800  1
  Ga  Ga12  1  0.50032400  0.99928700  0.75093100  1
  Ga  Ga13  1  0.00000000  0.00000000  0.50000000  1
  Ga  Ga14  1  0.49967600  0.00071300  0.24906900  1
  Ga  Ga15  1  0.00000000  0.50000000  0.00000000  1
  Ga  Ga16  1  0.00239700  0.50024100  0.75335200  1
  Ga  Ga17  1  0.99760300  0.49975900  0.24664800  1
  Ga  Ga18  1  0.50000000  0.50000000  0.00000000  1
  Ga  Ga19  1  0.50000000  0.50000000  0.50000000  1
  Cu  Cu20  1  0.74959600  0.74955500  0.62500800  1
  Cu  Cu21  1  0.24910400  0.74275900  0.87528800  1
  Cu  Cu22  1  0.24999900  0.74996300  0.62501500  1
  Cu  Cu23  1  0.74995900  0.74538900  0.12538400  1
  Cu  Cu24  1  0.25069800  0.74826400  0.37505000  1
  Cu  Cu25  1  0.25013100  0.74213300  0.12517600  1
  Cu  Cu26  1  0.74986900  0.25786700  0.87482400  1
  Cu  Cu27  1  0.74930200  0.25173600  0.62495000  1
  Cu  Cu28  1  0.25004100  0.25461100  0.87461600  1
  Cu  Cu29  1  0.75000100  0.25003700  0.37498500  1
  Cu  Cu30  1  0.75089600  0.25724100  0.12471200  1
  Cu  Cu31  1  0.25040400  0.25044500  0.37499200  1
  O  O32  1  0.24888600  0.94630500  0.71370000  1
  O  O33  1  0.25020200  0.94684500  0.53692000  1
  O  O34  1  0.24875900  0.94595000  0.21229800  1
  O  O35  1  0.24931100  0.94649800  0.03734800  1
  O  O36  1  0.44515200  0.92548400  0.87649600  1
  O  O37  1  0.05332300  0.92636600  0.87542800  1
  O  O38  1  0.44639300  0.92630000  0.37519500  1
  O  O39  1  0.05411700  0.92529500  0.37589300  1
  O  O40  1  0.92646400  0.75002500  0.52664200  1
  O  O41  1  0.57354800  0.74967800  0.72316100  1
  O  O42  1  0.92576900  0.75523300  0.02709500  1
  O  O43  1  0.57353700  0.74953500  0.22365100  1
  O  O44  1  0.92683100  0.75150400  0.72314800  1
  O  O45  1  0.92599200  0.75365700  0.22337100  1
  O  O46  1  0.57345300  0.75045400  0.52662400  1
  O  O47  1  0.57446800  0.75270000  0.02703300  1
  O  O48  1  0.44815000  0.57232200  0.87355200  1
  O  O49  1  0.05331000  0.57455800  0.87498100  1
  O  O50  1  0.44669000  0.57359400  0.37539500  1
  O  O51  1  0.05288700  0.57317000  0.37478900  1
  O  O52  1  0.24948300  0.55310500  0.53667200  1
  O  O53  1  0.25035600  0.55272300  0.71227000  1
  O  O54  1  0.25169400  0.55372600  0.03724400  1
  O  O55  1  0.25059500  0.55246600  0.21478500  1
  O  O56  1  0.74940500  0.44753400  0.78521500  1
  O  O57  1  0.74830600  0.44627400  0.96275600  1
  O  O58  1  0.74964400  0.44727700  0.28773000  1
  O  O59  1  0.75051700  0.44689500  0.46332800  1
  O  O60  1  0.94711300  0.42683000  0.62521100  1
  O  O61  1  0.55331000  0.42640600  0.62460500  1
  O  O62  1  0.94669000  0.42544200  0.12501900  1
  O  O63  1  0.55185000  0.42767800  0.12644800  1
  O  O64  1  0.42553200  0.24730000  0.97296700  1
  O  O65  1  0.42654700  0.24954600  0.47337600  1
  O  O66  1  0.07400800  0.24634300  0.77662900  1
  O  O67  1  0.07316900  0.24849600  0.27685200  1
  O  O68  1  0.42646300  0.25046500  0.77634900  1
  O  O69  1  0.07423100  0.24476700  0.97290500  1
  O  O70  1  0.42645200  0.25032200  0.27683900  1
  O  O71  1  0.07353600  0.24997500  0.47335800  1
  O  O72  1  0.94588300  0.07470500  0.62410700  1
  O  O73  1  0.55360700  0.07370000  0.62480500  1
  O  O74  1  0.94667700  0.07363400  0.12457200  1
  O  O75  1  0.55484800  0.07451600  0.12350400  1
  O  O76  1  0.75068900  0.05350200  0.96265200  1
  O  O77  1  0.75124100  0.05405000  0.78770200  1
  O  O78  1  0.74979800  0.05315500  0.46308000  1
  O  O79  1  0.75111400  0.05369500  0.28630000  1
