# generated using pymatgen
data_Li19Ni23O42
_symmetry_space_group_name_H-M   'P 1'
_cell_length_a   8.20609700
_cell_length_b   9.66090253
_cell_length_c   10.48195499
_cell_angle_alpha   78.17900731
_cell_angle_beta   78.84137510
_cell_angle_gamma   65.21902767
_symmetry_Int_Tables_number   1
_chemical_formula_structural   Li19Ni23O42
_chemical_formula_sum   'Li19 Ni23 O42'
_cell_volume   733.03127988
_cell_formula_units_Z   1
loop_
 _symmetry_equiv_pos_site_id
 _symmetry_equiv_pos_as_xyz
  1  'x, y, z'
loop_
 _atom_site_type_symbol
 _atom_site_label
 _atom_site_symmetry_multiplicity
 _atom_site_fract_x
 _atom_site_fract_y
 _atom_site_fract_z
 _atom_site_occupancy
  Li  Li0  1  0.26315100  0.76250000  0.92586700  1
  Li  Li1  1  0.45331600  0.95231400  0.78348200  1
  Li  Li2  1  0.73684900  0.23750000  0.07413300  1
  Li  Li3  1  0.93109000  0.43028800  0.92974200  1
  Li  Li4  1  0.11970100  0.61905500  0.78487900  1
  Li  Li5  1  0.40679400  0.90503300  0.07132100  1
  Li  Li6  1  0.59320600  0.09496700  0.92867900  1
  Li  Li7  1  0.88029900  0.38094500  0.21512100  1
  Li  Li8  1  0.06891000  0.56971200  0.07025800  1
  Li  Li9  1  0.36011300  0.85895700  0.35826900  1
  Li  Li10  1  0.54668400  0.04768600  0.21651800  1
  Li  Li11  1  0.83438900  0.33350800  0.49779300  1
  Li  Li12  1  0.02263600  0.52269400  0.35770400  1
  Li  Li13  1  0.30958500  0.80947700  0.64127400  1
  Li  Li14  1  0.50000000  0.00000000  0.50000000  1
  Li  Li15  1  0.69041500  0.19052300  0.35872600  1
  Li  Li16  1  0.97736400  0.47730600  0.64229600  1
  Li  Li17  1  0.16561100  0.66649200  0.50220700  1
  Li  Li18  1  0.63988700  0.14104300  0.64173100  1
  Ni  Ni19  1  0.95417900  0.95139600  0.78494500  1
  Ni  Ni20  1  0.61734400  0.62004900  0.78532500  1
  Ni  Ni21  1  0.78596600  0.28658700  0.78574200  1
  Ni  Ni22  1  0.09741600  0.09613400  0.92939500  1
  Ni  Ni23  1  0.28459300  0.28707700  0.78457200  1
  Ni  Ni24  1  0.57492700  0.57151300  0.07196100  1
  Ni  Ni25  1  0.76220700  0.76211100  0.92872600  1
  Ni  Ni26  1  0.04582100  0.04860400  0.21505500  1
  Ni  Ni27  1  0.23779300  0.23788900  0.07127400  1
  Ni  Ni28  1  0.42507300  0.42848700  0.92803900  1
  Ni  Ni29  1  0.21403400  0.71341300  0.21425800  1
  Ni  Ni30  1  0.52530200  0.52455400  0.35762200  1
  Ni  Ni31  1  0.71540700  0.71292300  0.21542800  1
  Ni  Ni32  1  0.90258400  0.90386600  0.07060500  1
  Ni  Ni33  1  0.00000000  0.00000000  0.50000000  1
  Ni  Ni34  1  0.19177300  0.18849100  0.35660300  1
  Ni  Ni35  1  0.38265600  0.37995100  0.21467500  1
  Ni  Ni36  1  0.47469800  0.47544600  0.64237800  1
  Ni  Ni37  1  0.66751400  0.66697700  0.50144300  1
  Ni  Ni38  1  0.85450100  0.85718500  0.35681100  1
  Ni  Ni39  1  0.14549900  0.14281500  0.64318900  1
  Ni  Ni40  1  0.33248600  0.33302300  0.49855700  1
  Ni  Ni41  1  0.80822700  0.81150900  0.64339700  1
  O  O42  1  0.37454800  0.60264700  0.79068900  1
  O  O43  1  0.86031400  0.09780700  0.92563100  1
  O  O44  1  0.03484000  0.28485500  0.78590600  1
  O  O45  1  0.53197100  0.74862900  0.93591100  1
  O  O46  1  0.70995500  0.94101000  0.77941900  1
  O  O47  1  0.66243700  0.42756300  0.92566900  1
  O  O48  1  0.00952300  0.22644600  0.06532300  1
  O  O49  1  0.19416900  0.42401200  0.92880400  1
  O  O50  1  0.13968600  0.90219300  0.07436900  1
  O  O51  1  0.32694600  0.10605500  0.93600000  1
  O  O52  1  0.46298600  0.71246500  0.21784900  1
  O  O53  1  0.67305400  0.89394500  0.06400000  1
  O  O54  1  0.62545200  0.39735300  0.20931100  1
  O  O55  1  0.80583100  0.57598800  0.07119600  1
  O  O56  1  0.99047700  0.77355400  0.93467700  1
  O  O57  1  0.94521000  0.17519800  0.36554200  1
  O  O58  1  0.14123200  0.36060200  0.21194800  1
  O  O59  1  0.08949900  0.85537200  0.35358100  1
  O  O60  1  0.33756300  0.57243700  0.07433100  1
  O  O61  1  0.29004500  0.05899000  0.22058100  1
  O  O62  1  0.46802900  0.25137100  0.06408900  1
  O  O63  1  0.43841100  0.65850700  0.49980700  1
  O  O64  1  0.62617700  0.85256400  0.35768100  1
  O  O65  1  0.56158900  0.34149300  0.50019300  1
  O  O66  1  0.80481800  0.03212200  0.20802400  1
  O  O67  1  0.76465600  0.53671100  0.36648300  1
  O  O68  1  0.96516000  0.71514500  0.21409400  1
  O  O69  1  0.91050100  0.14462800  0.64641900  1
  O  O70  1  0.10647800  0.31879900  0.49389400  1
  O  O71  1  0.27614200  0.52563200  0.35409000  1
  O  O72  1  0.23078900  0.01050900  0.49445500  1
  O  O73  1  0.43226600  0.20336600  0.36454700  1
  O  O74  1  0.56773400  0.79663400  0.63545300  1
  O  O75  1  0.76921100  0.98949100  0.50554500  1
  O  O76  1  0.72385800  0.47436800  0.64591000  1
  O  O77  1  0.89352200  0.68120100  0.50610600  1
  O  O78  1  0.23534400  0.46328900  0.63351700  1
  O  O79  1  0.19518200  0.96787800  0.79197600  1
  O  O80  1  0.37382300  0.14743600  0.64231900  1
  O  O81  1  0.85876800  0.63939800  0.78805200  1
  O  O82  1  0.05479000  0.82480200  0.63445800  1
  O  O83  1  0.53701400  0.28753500  0.78215100  1
