# generated using pymatgen
data_Nb2PS10
_symmetry_space_group_name_H-M   'P 1'
_cell_length_a   7.38666300
_cell_length_b   13.13291200
_cell_length_c   14.13431900
_cell_angle_alpha   90.00000000
_cell_angle_beta   90.00000000
_cell_angle_gamma   90.00000000
_symmetry_Int_Tables_number   1
_chemical_formula_structural   Nb2PS10
_chemical_formula_sum   'Nb8 P4 S40'
_cell_volume   1371.14760277
_cell_formula_units_Z   4
loop_
 _symmetry_equiv_pos_site_id
 _symmetry_equiv_pos_as_xyz
  1  'x, y, z'
loop_
 _atom_site_type_symbol
 _atom_site_label
 _atom_site_symmetry_multiplicity
 _atom_site_fract_x
 _atom_site_fract_y
 _atom_site_fract_z
 _atom_site_occupancy
  Nb  Nb0  1  0.93753300  0.91743200  0.25376300  1
  Nb  Nb1  1  0.93168200  0.20823200  0.24792000  1
  Nb  Nb2  1  0.06246700  0.58256800  0.75376300  1
  Nb  Nb3  1  0.06246700  0.41743200  0.24623700  1
  Nb  Nb4  1  0.06831800  0.29176800  0.74792000  1
  Nb  Nb5  1  0.93168200  0.79176800  0.75208000  1
  Nb  Nb6  1  0.93753300  0.08256800  0.74623700  1
  Nb  Nb7  1  0.06831800  0.70823200  0.25208000  1
  P  P8  1  0.62542100  0.05736100  0.15405600  1
  P  P9  1  0.37457900  0.44263900  0.65405600  1
  P  P10  1  0.37457900  0.55736100  0.34594400  1
  P  P11  1  0.62542100  0.94263900  0.84594400  1
  S  S12  1  0.82333300  0.34844000  0.35517200  1
  S  S13  1  0.85938500  0.56515800  0.18794200  1
  S  S14  1  0.10949700  0.56501400  0.12529200  1
  S  S15  1  0.89050300  0.06501400  0.37470800  1
  S  S16  1  0.54930400  0.42962900  0.53306900  1
  S  S17  1  0.83377300  0.22161800  0.63573800  1
  S  S18  1  0.83377300  0.77838200  0.36426200  1
  S  S19  1  0.14061500  0.06515800  0.31205800  1
  S  S20  1  0.57766000  0.80986700  0.77725500  1
  S  S21  1  0.58507300  0.07253100  0.77249500  1
  S  S22  1  0.85938500  0.43484200  0.81205800  1
  S  S23  1  0.89826700  0.05985100  0.12132800  1
  S  S24  1  0.89826700  0.94014900  0.87867200  1
  S  S25  1  0.10173300  0.44014900  0.62132800  1
  S  S26  1  0.10173300  0.55985100  0.37867200  1
  S  S27  1  0.45069600  0.92962900  0.96693100  1
  S  S28  1  0.82333300  0.65156000  0.64482800  1
  S  S29  1  0.16622700  0.27838200  0.13573800  1
  S  S30  1  0.89050300  0.93498600  0.62529200  1
  S  S31  1  0.42234000  0.69013300  0.27725500  1
  S  S32  1  0.07921300  0.29879200  0.38492600  1
  S  S33  1  0.92078700  0.79879200  0.11507400  1
  S  S34  1  0.42234000  0.30986700  0.72274500  1
  S  S35  1  0.90954400  0.32896800  0.10936900  1
  S  S36  1  0.58507300  0.92746900  0.22750500  1
  S  S37  1  0.41492700  0.57253100  0.72750500  1
  S  S38  1  0.45069600  0.07037100  0.03306900  1
  S  S39  1  0.10949700  0.43498600  0.87470800  1
  S  S40  1  0.90954400  0.67103200  0.89063100  1
  S  S41  1  0.16622700  0.72161800  0.86426200  1
  S  S42  1  0.09045600  0.17103200  0.60936900  1
  S  S43  1  0.41492700  0.42746900  0.27249500  1
  S  S44  1  0.07921300  0.70120800  0.61507400  1
  S  S45  1  0.54930400  0.57037100  0.46693100  1
  S  S46  1  0.14061500  0.93484200  0.68794200  1
  S  S47  1  0.17666700  0.84844000  0.14482800  1
  S  S48  1  0.09045600  0.82896800  0.39063100  1
  S  S49  1  0.57766000  0.19013300  0.22274500  1
  S  S50  1  0.17666700  0.15156000  0.85517200  1
  S  S51  1  0.92078700  0.20120800  0.88492600  1
