# generated using pymatgen
data_K2SiH4(NO)2
_symmetry_space_group_name_H-M   'P 1'
_cell_length_a   10.02971900
_cell_length_b   6.88005700
_cell_length_c   7.67621528
_cell_angle_alpha   89.02637020
_cell_angle_beta   90.00000000
_cell_angle_gamma   90.00000000
_symmetry_Int_Tables_number   1
_chemical_formula_structural   K2SiH4(NO)2
_chemical_formula_sum   'K8 Si4 H16 N8 O8'
_cell_volume   529.62105337
_cell_formula_units_Z   4
loop_
 _symmetry_equiv_pos_site_id
 _symmetry_equiv_pos_as_xyz
  1  'x, y, z'
loop_
 _atom_site_type_symbol
 _atom_site_label
 _atom_site_symmetry_multiplicity
 _atom_site_fract_x
 _atom_site_fract_y
 _atom_site_fract_z
 _atom_site_occupancy
  K  K0  1  0.56219400  0.64858500  0.15894700  1
  K  K1  1  0.06219400  0.35141500  0.34105300  1
  K  K2  1  0.43780600  0.35141500  0.84105300  1
  K  K3  1  0.93780600  0.64858500  0.65894700  1
  K  K4  1  0.19613700  0.65615300  0.98133800  1
  K  K5  1  0.69613700  0.34384700  0.51866200  1
  K  K6  1  0.80386300  0.34384700  0.01866200  1
  K  K7  1  0.30386300  0.65615300  0.48133800  1
  Si  Si8  1  0.42524200  0.21444200  0.25607000  1
  Si  Si9  1  0.92524200  0.78555800  0.24393000  1
  Si  Si10  1  0.57475800  0.78555800  0.74393000  1
  Si  Si11  1  0.07475800  0.21444200  0.75607000  1
  H  H12  1  0.88186000  0.04859500  0.43584600  1
  H  H13  1  0.38186000  0.95140500  0.06415400  1
  H  H14  1  0.11814000  0.95140500  0.56415400  1
  H  H15  1  0.61814000  0.04859500  0.93584600  1
  H  H16  1  0.76768500  0.04579700  0.27989000  1
  H  H17  1  0.26768500  0.95420300  0.22011000  1
  H  H18  1  0.23231500  0.95420300  0.72011000  1
  H  H19  1  0.73231500  0.04579700  0.77989000  1
  H  H20  1  0.81772300  0.75318300  0.96350200  1
  H  H21  1  0.31772300  0.24681700  0.53649800  1
  H  H22  1  0.18227700  0.24681700  0.03649800  1
  H  H23  1  0.68227700  0.75318300  0.46350200  1
  H  H24  1  0.94808000  0.89739000  0.94409400  1
  H  H25  1  0.44808000  0.10261000  0.55590600  1
  H  H26  1  0.05192000  0.10261000  0.05590600  1
  H  H27  1  0.55192000  0.89739000  0.44409400  1
  N  N28  1  0.13319400  0.97937600  0.69387200  1
  N  N29  1  0.63319400  0.02062400  0.80612800  1
  N  N30  1  0.86680600  0.02062400  0.30612800  1
  N  N31  1  0.36680600  0.97937600  0.19387200  1
  N  N32  1  0.91133100  0.78056100  0.01278400  1
  N  N33  1  0.41133100  0.21943900  0.48721600  1
  N  N34  1  0.08866900  0.21943900  0.98721600  1
  N  N35  1  0.58866900  0.78056100  0.51278400  1
  O  O36  1  0.83069800  0.60866100  0.31535100  1
  O  O37  1  0.33069800  0.39133900  0.18464900  1
  O  O38  1  0.16930200  0.39133900  0.68464900  1
  O  O39  1  0.66930200  0.60866100  0.81535100  1
  O  O40  1  0.08003200  0.77107000  0.30339100  1
  O  O41  1  0.58003200  0.22893000  0.19660900  1
  O  O42  1  0.91996800  0.22893000  0.69660900  1
  O  O43  1  0.41996800  0.77107000  0.80339100  1
