# generated using pymatgen
data_SrB8O13
_symmetry_space_group_name_H-M   'P 1'
_cell_length_a   16.85018000
_cell_length_b   8.49758800
_cell_length_c   14.05763739
_cell_angle_alpha   73.56897748
_cell_angle_beta   90.00000000
_cell_angle_gamma   90.00000000
_symmetry_Int_Tables_number   1
_chemical_formula_structural   SrB8O13
_chemical_formula_sum   'Sr8 B64 O104'
_cell_volume   1930.65221018
_cell_formula_units_Z   8
loop_
 _symmetry_equiv_pos_site_id
 _symmetry_equiv_pos_as_xyz
  1  'x, y, z'
loop_
 _atom_site_type_symbol
 _atom_site_label
 _atom_site_symmetry_multiplicity
 _atom_site_fract_x
 _atom_site_fract_y
 _atom_site_fract_z
 _atom_site_occupancy
  Sr  Sr0  1  0.50148900  0.48885300  0.27980900  1
  Sr  Sr1  1  0.99851100  0.48885300  0.77980900  1
  Sr  Sr2  1  0.74253400  0.90391100  0.95829800  1
  Sr  Sr3  1  0.49851100  0.51114700  0.72019100  1
  Sr  Sr4  1  0.00148900  0.51114700  0.22019100  1
  Sr  Sr5  1  0.75746600  0.90391100  0.45829800  1
  Sr  Sr6  1  0.25746600  0.09608900  0.04170200  1
  Sr  Sr7  1  0.24253400  0.09608900  0.54170200  1
  B  B8  1  0.90060500  0.57020300  0.52544400  1
  B  B9  1  0.34541200  0.22511700  0.31524600  1
  B  B10  1  0.21492400  0.73263700  0.26954500  1
  B  B11  1  0.46513100  0.07097800  0.38607900  1
  B  B12  1  0.84541200  0.77488300  0.18475400  1
  B  B13  1  0.91301100  0.05026300  0.55426100  1
  B  B14  1  0.31648300  0.61182900  0.38422700  1
  B  B15  1  0.52497800  0.05831100  0.84404500  1
  B  B16  1  0.85097800  0.17002300  0.25956800  1
  B  B17  1  0.28549600  0.29598500  0.75137800  1
  B  B18  1  0.14902200  0.82997700  0.74043200  1
  B  B19  1  0.58792500  0.75444800  0.14475100  1
  B  B20  1  0.32995100  0.38985100  0.13736700  1
  B  B21  1  0.87530200  0.34034500  0.46501900  1
  B  B22  1  0.96513100  0.92902200  0.11392100  1
  B  B23  1  0.89190800  0.54849200  0.97143200  1
  B  B24  1  0.15316500  0.72328100  0.02446200  1
  B  B25  1  0.71492400  0.26736300  0.23045500  1
  B  B26  1  0.44600100  0.15448500  0.60273000  1
  B  B27  1  0.35097800  0.82997700  0.24043200  1
  B  B28  1  0.58698900  0.05026300  0.05426100  1
  B  B29  1  0.47502200  0.94168900  0.15595500  1
  B  B30  1  0.67004900  0.61014900  0.86263300  1
  B  B31  1  0.68351700  0.38817100  0.61577300  1
  B  B32  1  0.21450400  0.29598500  0.25137800  1
  B  B33  1  0.89071000  0.13221000  0.84897200  1
  B  B34  1  0.62469800  0.34034500  0.96501900  1
  B  B35  1  0.41207500  0.24555200  0.85524900  1
  B  B36  1  0.59939500  0.57020300  0.02544400  1
  B  B37  1  0.78507600  0.26736300  0.73045500  1
  B  B38  1  0.94600100  0.84551500  0.89727000  1
  B  B39  1  0.91207500  0.75444800  0.64475100  1
  B  B40  1  0.15458800  0.22511700  0.81524600  1
  B  B41  1  0.53486900  0.92902200  0.61392100  1
  B  B42  1  0.39071000  0.86779000  0.65102800  1
  B  B43  1  0.08792500  0.24555200  0.35524900  1
  B  B44  1  0.81648300  0.38817100  0.11577300  1
  B  B45  1  0.82995100  0.61014900  0.36263300  1
  B  B46  1  0.28507600  0.73263700  0.76954500  1
  B  B47  1  0.03486900  0.07097800  0.88607900  1
  B  B48  1  0.60809200  0.54849200  0.47143200  1
  B  B49  1  0.60929000  0.13221000  0.34897200  1
  B  B50  1  0.40060500  0.42979700  0.97455600  1
  B  B51  1  0.34683500  0.72328100  0.52446200  1
  B  B52  1  0.02497800  0.94168900  0.65595500  1
  B  B53  1  0.71450400  0.70401500  0.24862200  1
  B  B54  1  0.97502200  0.05831100  0.34404500  1
  B  B55  1  0.17004900  0.38985100  0.63736700  1
  B  B56  1  0.55399900  0.84551500  0.39727000  1
  B  B57  1  0.78549600  0.70401500  0.74862200  1
  B  B58  1  0.05399900  0.15448500  0.10273000  1
  B  B59  1  0.10929000  0.86779000  0.15102800  1
  B  B60  1  0.37530200  0.65965500  0.03498100  1
  B  B61  1  0.64902200  0.17002300  0.75956800  1
  B  B62  1  0.84683500  0.27671900  0.97553800  1
  B  B63  1  0.09939500  0.42979700  0.47455600  1
  B  B64  1  0.41301100  0.94973700  0.94573900  1
  B  B65  1  0.39190800  0.45150800  0.52856800  1
  B  B66  1  0.65458800  0.77488300  0.68475400  1
  B  B67  1  0.08698900  0.94973700  0.44573900  1
  B  B68  1  0.18351700  0.61182900  0.88422700  1
  B  B69  1  0.10809200  0.45150800  0.02856800  1
  B  B70  1  0.12469800  0.65965500  0.53498100  1
  B  B71  1  0.65316500  0.27671900  0.47553800  1
  O  O72  1  0.43985600  0.32236600  0.57772400  1
  O  O73  1  0.60357600  0.41370000  0.43354700  1
  O  O74  1  0.10357600  0.58630000  0.06645300  1
  O  O75  1  0.88475700  0.95021400  0.85923900  1
  O  O76  1  0.58419400  0.40811200  0.02881700  1
  O  O77  1  0.35611300  0.33165700  0.05163400  1
  O  O78  1  0.47915700  0.90443300  0.41185300  1
  O  O79  1  0.51419800  0.07535000  0.09343500  1
  O  O80  1  0.85135100  0.54689300  0.05574900  1
  O  O81  1  0.62180800  0.30991700  0.69420500  1
  O  O82  1  0.52493500  0.18071200  0.35593300  1
  O  O83  1  0.69754400  0.27469100  0.55563400  1
  O  O84  1  0.30245600  0.72530900  0.44436600  1
  O  O85  1  0.73538400  0.77329300  0.66713600  1
  O  O86  1  0.62260900  0.89935400  0.07550300  1
  O  O87  1  0.60209000  0.04036700  0.81470900  1
  O  O88  1  0.23538400  0.22670700  0.83286400  1
  O  O89  1  0.93985600  0.67763400  0.92227600  1
  O  O90  1  0.87739100  0.89935400  0.57550300  1
  O  O91  1  0.24160600  0.59294300  0.33643900  1
  O  O92  1  0.62747500  0.17024400  0.98502700  1
  O  O93  1  0.51073400  0.79308700  0.18484900  1
  O  O94  1  0.01419800  0.92465000  0.40656500  1
  O  O95  1  0.74160600  0.40705700  0.16356100  1
  O  O96  1  0.86306900  0.24170100  0.75601200  1
  O  O97  1  0.37739100  0.10064600  0.92449700  1
  O  O98  1  0.87252500  0.17024400  0.48502700  1
  O  O99  1  0.12180800  0.69008300  0.80579500  1
  O  O100  1  0.37819200  0.69008300  0.30579500  1
  O  O101  1  0.89791000  0.04036700  0.31470900  1
  O  O102  1  0.85611300  0.66834300  0.44836600  1
  O  O103  1  0.25350600  0.33536700  0.65725100  1
  O  O104  1  0.84220800  0.15127900  0.93262000  1
  O  O105  1  0.66267500  0.43221200  0.88306100  1
  O  O106  1  0.35135100  0.45310700  0.44425100  1
  O  O107  1  0.37252500  0.82975600  0.01497300  1
  O  O108  1  0.11524300  0.04978600  0.14076100  1
  O  O109  1  0.75839400  0.40705700  0.66356100  1
  O  O110  1  0.41580600  0.59188800  0.97118300  1
  O  O111  1  0.11170600  0.12430400  0.89273800  1
  O  O112  1  0.39642400  0.58630000  0.56645300  1
  O  O113  1  0.16267500  0.56778800  0.61693900  1
  O  O114  1  0.36362300  0.31456100  0.76628000  1
  O  O115  1  0.75350600  0.66463300  0.84274900  1
  O  O116  1  0.43110100  0.37936800  0.89806800  1
  O  O117  1  0.89642400  0.41370000  0.93354700  1
  O  O118  1  0.02493500  0.81928800  0.14406700  1
  O  O119  1  0.23001700  0.85905700  0.72356700  1
  O  O120  1  0.98926600  0.79308700  0.68484900  1
  O  O121  1  0.97915700  0.09556700  0.08814700  1
  O  O122  1  0.38475700  0.04978600  0.64076100  1
  O  O123  1  0.97506500  0.18071200  0.85593300  1
  O  O124  1  0.33732500  0.56778800  0.11693900  1
  O  O125  1  0.11987800  0.31348800  0.72891100  1
  O  O126  1  0.38829400  0.12430400  0.39273800  1
  O  O127  1  0.01073400  0.20691300  0.31515100  1
  O  O128  1  0.12747500  0.82975600  0.51497300  1
  O  O129  1  0.61170600  0.87569600  0.60726200  1
  O  O130  1  0.36306900  0.75829900  0.74398800  1
  O  O131  1  0.88829400  0.87569600  0.10726200  1
  O  O132  1  0.73001700  0.14094300  0.77643300  1
  O  O133  1  0.65779200  0.15127900  0.43262000  1
  O  O134  1  0.34220800  0.84872100  0.56738000  1
  O  O135  1  0.08419400  0.59188800  0.47118300  1
  O  O136  1  0.26998300  0.85905700  0.22356700  1
  O  O137  1  0.14864900  0.45310700  0.94425100  1
  O  O138  1  0.87819200  0.30991700  0.19420500  1
  O  O139  1  0.64388700  0.66834300  0.94836600  1
  O  O140  1  0.83732500  0.43221200  0.38306100  1
  O  O141  1  0.12260900  0.10064600  0.42449700  1
  O  O142  1  0.63693100  0.24170100  0.25601200  1
  O  O143  1  0.98580200  0.07535000  0.59343500  1
  O  O144  1  0.63637700  0.68543900  0.23372000  1
  O  O145  1  0.13637700  0.31456100  0.26628000  1
  O  O146  1  0.26461600  0.22670700  0.33286400  1
  O  O147  1  0.48926600  0.20691300  0.81515100  1
  O  O148  1  0.38012200  0.31348800  0.22891100  1
  O  O149  1  0.06014400  0.32236600  0.07772400  1
  O  O150  1  0.91580600  0.40811200  0.52881700  1
  O  O151  1  0.61524300  0.95021400  0.35923900  1
  O  O152  1  0.39791000  0.95963300  0.18529100  1
  O  O153  1  0.02084300  0.90443300  0.91185300  1
  O  O154  1  0.61987800  0.68651200  0.77108900  1
  O  O155  1  0.48580200  0.92465000  0.90656500  1
  O  O156  1  0.47506500  0.81928800  0.64406700  1
  O  O157  1  0.74649400  0.66463300  0.34274900  1
  O  O158  1  0.56889900  0.62063200  0.10193200  1
  O  O159  1  0.76461600  0.77329300  0.16713600  1
  O  O160  1  0.25839400  0.59294300  0.83643900  1
  O  O161  1  0.80245600  0.27469100  0.05563400  1
  O  O162  1  0.52084300  0.09556700  0.58814700  1
  O  O163  1  0.76998300  0.14094300  0.27643300  1
  O  O164  1  0.88012200  0.68651200  0.27108900  1
  O  O165  1  0.10209000  0.95963300  0.68529100  1
  O  O166  1  0.19754400  0.72530900  0.94436600  1
  O  O167  1  0.56014400  0.67763400  0.42227600  1
  O  O168  1  0.24649400  0.33536700  0.15725200  1
  O  O169  1  0.93110100  0.62063200  0.60193200  1
  O  O170  1  0.86362300  0.68543900  0.73372000  1
  O  O171  1  0.06889900  0.37936800  0.39806800  1
  O  O172  1  0.15779200  0.84872100  0.06738000  1
  O  O173  1  0.14388700  0.33165700  0.55163400  1
  O  O174  1  0.13693100  0.75829900  0.24398800  1
  O  O175  1  0.64864900  0.54689300  0.55574900  1
