# generated using pymatgen
data_Pr4NiI5
_symmetry_space_group_name_H-M   'P 1'
_cell_length_a   4.22540900
_cell_length_b   9.13763700
_cell_length_c   19.13484300
_cell_angle_alpha   90.00000000
_cell_angle_beta   90.00000000
_cell_angle_gamma   90.00000000
_symmetry_Int_Tables_number   1
_chemical_formula_structural   Pr4NiI5
_chemical_formula_sum   'Pr8 Ni2 I10'
_cell_volume   738.80114118
_cell_formula_units_Z   2
loop_
 _symmetry_equiv_pos_site_id
 _symmetry_equiv_pos_as_xyz
  1  'x, y, z'
loop_
 _atom_site_type_symbol
 _atom_site_label
 _atom_site_symmetry_multiplicity
 _atom_site_fract_x
 _atom_site_fract_y
 _atom_site_fract_z
 _atom_site_occupancy
  Pr  Pr0  1  0.00000000  0.36941700  0.85318600  1
  Pr  Pr1  1  0.50000000  0.58154200  0.00000000  1
  Pr  Pr2  1  0.00000000  0.36941700  0.14681400  1
  Pr  Pr3  1  0.00000000  0.83793300  0.50000000  1
  Pr  Pr4  1  0.50000000  0.63058300  0.35318600  1
  Pr  Pr5  1  0.00000000  0.41845800  0.50000000  1
  Pr  Pr6  1  0.50000000  0.63058300  0.64681400  1
  Pr  Pr7  1  0.50000000  0.16206700  0.00000000  1
  Ni  Ni8  1  0.50000000  0.62594500  0.50000000  1
  Ni  Ni9  1  0.00000000  0.37405500  0.00000000  1
  I  I10  1  0.50000000  0.10595700  0.17031500  1
  I  I11  1  0.00000000  0.35992800  0.67389000  1
  I  I12  1  0.00000000  0.87114200  0.00000000  1
  I  I13  1  0.00000000  0.89404300  0.32968500  1
  I  I14  1  0.50000000  0.10595700  0.82968500  1
  I  I15  1  0.50000000  0.64007200  0.82611000  1
  I  I16  1  0.00000000  0.89404300  0.67031500  1
  I  I17  1  0.00000000  0.35992800  0.32611000  1
  I  I18  1  0.50000000  0.64007200  0.17389000  1
  I  I19  1  0.50000000  0.12885800  0.50000000  1
