# generated using pymatgen
data_Cs2SiSe4
_symmetry_space_group_name_H-M   'P 1'
_cell_length_a   8.68154145
_cell_length_b   8.68154145
_cell_length_c   10.35810362
_cell_angle_alpha   61.91864049
_cell_angle_beta   61.91864049
_cell_angle_gamma   53.61922417
_symmetry_Int_Tables_number   1
_chemical_formula_structural   Cs2SiSe4
_chemical_formula_sum   'Cs4 Si2 Se8'
_cell_volume   533.99578549
_cell_formula_units_Z   2
loop_
 _symmetry_equiv_pos_site_id
 _symmetry_equiv_pos_as_xyz
  1  'x, y, z'
loop_
 _atom_site_type_symbol
 _atom_site_label
 _atom_site_symmetry_multiplicity
 _atom_site_fract_x
 _atom_site_fract_y
 _atom_site_fract_z
 _atom_site_occupancy
  Cs  Cs0  1  0.40805800  0.40805800  0.85678200  1
  Cs  Cs1  1  0.84123900  0.84123900  0.28428600  1
  Cs  Cs2  1  0.59194200  0.59194200  0.14321800  1
  Cs  Cs3  1  0.15876100  0.15876100  0.71571400  1
  Si  Si4  1  0.15436300  0.15436300  0.30013100  1
  Si  Si5  1  0.84563700  0.84563700  0.69986900  1
  Se  Se6  1  0.69088700  0.69088700  0.72990500  1
  Se  Se7  1  0.84990400  0.32766800  0.46044700  1
  Se  Se8  1  0.30911300  0.30911300  0.27009500  1
  Se  Se9  1  0.67233200  0.15009600  0.53955300  1
  Se  Se10  1  0.12552000  0.12552000  0.11168000  1
  Se  Se11  1  0.87448000  0.87448000  0.88832000  1
  Se  Se12  1  0.15009600  0.67233200  0.53955300  1
  Se  Se13  1  0.32766800  0.84990400  0.46044700  1
