# generated using pymatgen
data_Yb8In3
_symmetry_space_group_name_H-M   'P 1'
_cell_length_a   18.77604717
_cell_length_b   18.77604717
_cell_length_c   18.77604777
_cell_angle_alpha   29.58232828
_cell_angle_beta   29.58232828
_cell_angle_gamma   29.58232789
_symmetry_Int_Tables_number   1
_chemical_formula_structural   Yb8In3
_chemical_formula_sum   'Yb32 In12'
_cell_volume   1428.07863821
_cell_formula_units_Z   4
loop_
 _symmetry_equiv_pos_site_id
 _symmetry_equiv_pos_as_xyz
  1  'x, y, z'
loop_
 _atom_site_type_symbol
 _atom_site_label
 _atom_site_symmetry_multiplicity
 _atom_site_fract_x
 _atom_site_fract_y
 _atom_site_fract_z
 _atom_site_occupancy
  Yb  Yb0  1  0.38158100  0.14032100  0.63421300  1
  Yb  Yb1  1  0.63421300  0.38158100  0.14032100  1
  Yb  Yb2  1  0.14032100  0.63421300  0.38158100  1
  Yb  Yb3  1  0.13421300  0.64032100  0.88158100  1
  Yb  Yb4  1  0.88158100  0.13421300  0.64032100  1
  Yb  Yb5  1  0.64032100  0.88158100  0.13421300  1
  Yb  Yb6  1  0.61841900  0.85967900  0.36578700  1
  Yb  Yb7  1  0.36578700  0.61841900  0.85967900  1
  Yb  Yb8  1  0.85967900  0.36578700  0.61841900  1
  Yb  Yb9  1  0.86578700  0.35967900  0.11841900  1
  Yb  Yb10  1  0.11841900  0.86578700  0.35967900  1
  Yb  Yb11  1  0.35967900  0.11841900  0.86578700  1
  Yb  Yb12  1  0.28833700  0.01655200  0.64160300  1
  Yb  Yb13  1  0.64160300  0.28833700  0.01655200  1
  Yb  Yb14  1  0.01655200  0.64160300  0.28833700  1
  Yb  Yb15  1  0.14160300  0.51655200  0.78833700  1
  Yb  Yb16  1  0.78833700  0.14160300  0.51655200  1
  Yb  Yb17  1  0.51655200  0.78833700  0.14160300  1
  Yb  Yb18  1  0.71166300  0.98344800  0.35839700  1
  Yb  Yb19  1  0.35839700  0.71166300  0.98344800  1
  Yb  Yb20  1  0.98344800  0.35839700  0.71166300  1
  Yb  Yb21  1  0.85839700  0.48344800  0.21166300  1
  Yb  Yb22  1  0.21166300  0.85839700  0.48344800  1
  Yb  Yb23  1  0.48344800  0.21166300  0.85839700  1
  Yb  Yb24  1  0.43900400  0.43900400  0.43900400  1
  Yb  Yb25  1  0.93900400  0.93900400  0.93900400  1
  Yb  Yb26  1  0.56099600  0.56099600  0.56099600  1
  Yb  Yb27  1  0.06099600  0.06099600  0.06099600  1
  Yb  Yb28  1  0.27981300  0.27981300  0.27981300  1
  Yb  Yb29  1  0.77981300  0.77981300  0.77981300  1
  Yb  Yb30  1  0.72018700  0.72018700  0.72018700  1
  Yb  Yb31  1  0.22018700  0.22018700  0.22018700  1
  In  In32  1  0.93133300  0.56866700  0.25000000  1
  In  In33  1  0.25000000  0.93133300  0.56866700  1
  In  In34  1  0.56866700  0.25000000  0.93133300  1
  In  In35  1  0.75000000  0.06866700  0.43133300  1
  In  In36  1  0.43133300  0.75000000  0.06866700  1
  In  In37  1  0.06866700  0.43133300  0.75000000  1
  In  In38  1  0.33986700  0.33986700  0.33986700  1
  In  In39  1  0.83986700  0.83986700  0.83986700  1
  In  In40  1  0.66013300  0.66013300  0.66013300  1
  In  In41  1  0.16013300  0.16013300  0.16013300  1
  In  In42  1  0.50000000  0.50000000  0.50000000  1
  In  In43  1  0.00000000  0.00000000  0.00000000  1
