# generated using pymatgen
data_Gd10S19
_symmetry_space_group_name_H-M   'P 1'
_cell_length_a   8.74634800
_cell_length_b   8.74634800
_cell_length_c   15.87897900
_cell_angle_alpha   90.00000000
_cell_angle_beta   90.00000000
_cell_angle_gamma   90.00000000
_symmetry_Int_Tables_number   1
_chemical_formula_structural   Gd10S19
_chemical_formula_sum   'Gd20 S38'
_cell_volume   1214.71971592
_cell_formula_units_Z   2
loop_
 _symmetry_equiv_pos_site_id
 _symmetry_equiv_pos_as_xyz
  1  'x, y, z'
loop_
 _atom_site_type_symbol
 _atom_site_label
 _atom_site_symmetry_multiplicity
 _atom_site_fract_x
 _atom_site_fract_y
 _atom_site_fract_z
 _atom_site_occupancy
  Gd  Gd0  1  0.55443600  0.85444400  0.39705000  1
  Gd  Gd1  1  0.25000000  0.75000000  0.11420900  1
  Gd  Gd2  1  0.15129500  0.04100200  0.37811800  1
  Gd  Gd3  1  0.05443600  0.35444400  0.60295000  1
  Gd  Gd4  1  0.95899800  0.65129500  0.87811800  1
  Gd  Gd5  1  0.34870500  0.45899800  0.37811800  1
  Gd  Gd6  1  0.84870500  0.95899800  0.62188200  1
  Gd  Gd7  1  0.75000000  0.25000000  0.38579100  1
  Gd  Gd8  1  0.65129500  0.54100200  0.62188200  1
  Gd  Gd9  1  0.44556400  0.14555600  0.60295000  1
  Gd  Gd10  1  0.45899800  0.15129500  0.12188200  1
  Gd  Gd11  1  0.25000000  0.75000000  0.61420900  1
  Gd  Gd12  1  0.75000000  0.25000000  0.88579100  1
  Gd  Gd13  1  0.54100200  0.84870500  0.87811800  1
  Gd  Gd14  1  0.04100200  0.34870500  0.12188200  1
  Gd  Gd15  1  0.85444400  0.94556400  0.10295000  1
  Gd  Gd16  1  0.64555600  0.55443600  0.10295000  1
  Gd  Gd17  1  0.94556400  0.64555600  0.39705000  1
  Gd  Gd18  1  0.14555600  0.05443600  0.89705000  1
  Gd  Gd19  1  0.35444400  0.44556400  0.89705000  1
  S  S20  1  0.54855600  0.84843500  0.57310200  1
  S  S21  1  0.94620600  0.64875700  0.06215500  1
  S  S22  1  0.84843500  0.95144400  0.92689800  1
  S  S23  1  0.04855600  0.34843500  0.42689800  1
  S  S24  1  0.11514700  0.57429900  0.24989600  1
  S  S25  1  0.85124300  0.94620600  0.43784500  1
  S  S26  1  0.38485300  0.92570100  0.24989600  1
  S  S27  1  0.25000000  0.75000000  0.93428600  1
  S  S28  1  0.14875700  0.05379400  0.56215500  1
  S  S29  1  0.57429900  0.38485300  0.25010400  1
  S  S30  1  0.92570100  0.11514700  0.25010400  1
  S  S31  1  0.64875700  0.55379400  0.43784500  1
  S  S32  1  0.69523500  0.02840700  0.25029100  1
  S  S33  1  0.34843500  0.45144400  0.07310200  1
  S  S34  1  0.52840700  0.30476500  0.75029100  1
  S  S35  1  0.19523500  0.52840700  0.74970900  1
  S  S36  1  0.80476500  0.47159300  0.25029100  1
  S  S37  1  0.05379400  0.35124300  0.93784500  1
  S  S38  1  0.02840700  0.80476500  0.24970900  1
  S  S39  1  0.35124300  0.44620600  0.56215500  1
  S  S40  1  0.55379400  0.85124300  0.06215500  1
  S  S41  1  0.44620600  0.14875700  0.93784500  1
  S  S42  1  0.15156500  0.04855600  0.07310200  1
  S  S43  1  0.65156500  0.54855600  0.92689800  1
  S  S44  1  0.30476500  0.97159300  0.74970900  1
  S  S45  1  0.75000000  0.75000000  0.75000000  1
  S  S46  1  0.75000000  0.25000000  0.56571400  1
  S  S47  1  0.75000000  0.25000000  0.06571400  1
  S  S48  1  0.61514700  0.07429900  0.75010400  1
  S  S49  1  0.95144400  0.65156500  0.57310200  1
  S  S50  1  0.88485300  0.42570100  0.75010400  1
  S  S51  1  0.42570100  0.61514700  0.74989600  1
  S  S52  1  0.07429900  0.88485300  0.74989600  1
  S  S53  1  0.47159300  0.69523500  0.24970900  1
  S  S54  1  0.97159300  0.19523500  0.75029100  1
  S  S55  1  0.25000000  0.75000000  0.43428600  1
  S  S56  1  0.45144400  0.15156500  0.42689800  1
  S  S57  1  0.25000000  0.25000000  0.25000000  1
