# generated using pymatgen
data_Sb2H20(Cl4O3)3
_symmetry_space_group_name_H-M   'P 1'
_cell_length_a   11.95252712
_cell_length_b   11.95252712
_cell_length_c   12.64130305
_cell_angle_alpha   59.95107665
_cell_angle_beta   59.95107665
_cell_angle_gamma   61.05837975
_symmetry_Int_Tables_number   1
_chemical_formula_structural   Sb2H20(Cl4O3)3
_chemical_formula_sum   'Sb4 H40 Cl24 O18'
_cell_volume   1285.94762423
_cell_formula_units_Z   2
loop_
 _symmetry_equiv_pos_site_id
 _symmetry_equiv_pos_as_xyz
  1  'x, y, z'
loop_
 _atom_site_type_symbol
 _atom_site_label
 _atom_site_symmetry_multiplicity
 _atom_site_fract_x
 _atom_site_fract_y
 _atom_site_fract_z
 _atom_site_occupancy
  Sb  Sb0  1  0.35076100  0.85533100  0.93661500  1
  Sb  Sb1  1  0.64923900  0.14466900  0.06338500  1
  Sb  Sb2  1  0.85533100  0.35076100  0.43661500  1
  Sb  Sb3  1  0.14466900  0.64923900  0.56338500  1
  H  H4  1  0.15414000  0.49324800  0.33080300  1
  H  H5  1  0.84586000  0.50675200  0.66919700  1
  H  H6  1  0.49324800  0.15414000  0.83080300  1
  H  H7  1  0.50675200  0.84586000  0.16919700  1
  H  H8  1  0.29466800  0.50231300  0.22225800  1
  H  H9  1  0.70533200  0.49768700  0.77774200  1
  H  H10  1  0.50231300  0.29466800  0.72225800  1
  H  H11  1  0.49768700  0.70533200  0.27774200  1
  H  H12  1  0.29115000  0.29828700  0.39174400  1
  H  H13  1  0.70885000  0.70171300  0.60825600  1
  H  H14  1  0.29828700  0.29115000  0.89174400  1
  H  H15  1  0.70171300  0.70885000  0.10825600  1
  H  H16  1  0.29152200  0.12455400  0.49962000  1
  H  H17  1  0.70847800  0.87544600  0.50038000  1
  H  H18  1  0.12455400  0.29152200  0.99962000  1
  H  H19  1  0.87544600  0.70847800  0.00038000  1
  H  H20  1  0.38351300  0.21785200  0.48895000  1
  H  H21  1  0.61648700  0.78214800  0.51105000  1
  H  H22  1  0.21785200  0.38351300  0.98895000  1
  H  H23  1  0.78214800  0.61648700  0.01105000  1
  H  H24  1  0.34234800  0.94132200  0.50164500  1
  H  H25  1  0.65765200  0.05867800  0.49835500  1
  H  H26  1  0.94132200  0.34234800  0.00164500  1
  H  H27  1  0.05867800  0.65765200  0.99835500  1
  H  H28  1  0.19972600  0.98820500  0.61447000  1
  H  H29  1  0.80027400  0.01179500  0.38553000  1
  H  H30  1  0.98820500  0.19972600  0.11447000  1
  H  H31  1  0.01179500  0.80027400  0.88553000  1
  H  H32  1  0.52733800  0.80380100  0.37970400  1
  H  H33  1  0.47266200  0.19619900  0.62029600  1
  H  H34  1  0.80380100  0.52733800  0.87970400  1
  H  H35  1  0.19619900  0.47266200  0.12029600  1
  H  H36  1  0.46443100  0.72121900  0.52538800  1
  H  H37  1  0.53556900  0.27878100  0.47461200  1
  H  H38  1  0.72121900  0.46443100  0.02538800  1
  H  H39  1  0.27878100  0.53556900  0.97461200  1
  H  H40  1  0.00941700  0.01680500  0.79693000  1
  H  H41  1  0.99058300  0.98319500  0.20307000  1
  H  H42  1  0.01680500  0.00941700  0.29693000  1
  H  H43  1  0.98319500  0.99058300  0.70307000  1
  Cl  Cl44  1  0.38201600  0.73627300  0.80906300  1
  Cl  Cl45  1  0.61798400  0.26372700  0.19093700  1
  Cl  Cl46  1  0.73627300  0.38201600  0.30906300  1
  Cl  Cl47  1  0.26372700  0.61798400  0.69093700  1
  Cl  Cl48  1  0.57213400  0.88168200  0.80347900  1
  Cl  Cl49  1  0.42786600  0.11831800  0.19652100  1
  Cl  Cl50  1  0.88168200  0.57213400  0.30347900  1
  Cl  Cl51  1  0.11831800  0.42786600  0.69652100  1
  Cl  Cl52  1  0.45231300  0.63645000  0.07880300  1
  Cl  Cl53  1  0.54768700  0.36355000  0.92119700  1
  Cl  Cl54  1  0.63645000  0.45231300  0.57880300  1
  Cl  Cl55  1  0.36355000  0.54768700  0.42119700  1
  Cl  Cl56  1  0.32127000  0.96779300  0.06696800  1
  Cl  Cl57  1  0.67873000  0.03220700  0.93303200  1
  Cl  Cl58  1  0.96779300  0.32127000  0.56696800  1
  Cl  Cl59  1  0.03220700  0.67873000  0.43303200  1
  Cl  Cl60  1  0.13057200  0.82362700  0.07254000  1
  Cl  Cl61  1  0.86942800  0.17637300  0.92746000  1
  Cl  Cl62  1  0.82362700  0.13057200  0.57254000  1
  Cl  Cl63  1  0.17637300  0.86942800  0.42746000  1
  Cl  Cl64  1  0.24774000  0.06788300  0.79691600  1
  Cl  Cl65  1  0.75226000  0.93211700  0.20308400  1
  Cl  Cl66  1  0.06788300  0.24774000  0.29691600  1
  Cl  Cl67  1  0.93211700  0.75226000  0.70308400  1
  O  O68  1  0.23502000  0.44504700  0.27327100  1
  O  O69  1  0.76498000  0.55495300  0.72672900  1
  O  O70  1  0.44504700  0.23502000  0.77327100  1
  O  O71  1  0.55495300  0.76498000  0.22672900  1
  O  O72  1  0.30406800  0.22523500  0.47519300  1
  O  O73  1  0.69593200  0.77476500  0.52480700  1
  O  O74  1  0.22523500  0.30406800  0.97519300  1
  O  O75  1  0.77476500  0.69593200  0.02480700  1
  O  O76  1  0.26591200  0.01958000  0.52672500  1
  O  O77  1  0.73408800  0.98042000  0.47327500  1
  O  O78  1  0.01958000  0.26591200  0.02672500  1
  O  O79  1  0.98042000  0.73408800  0.97327500  1
  O  O80  1  0.49160100  0.80374900  0.46931500  1
  O  O81  1  0.50839900  0.19625100  0.53068500  1
  O  O82  1  0.80374900  0.49160100  0.96931500  1
  O  O83  1  0.19625100  0.50839900  0.03068500  1
  O  O84  1  0.04535400  0.95464600  0.75000000  1
  O  O85  1  0.95464600  0.04535400  0.25000000  1
