# generated using pymatgen
data_Zr(TiH2)2
_symmetry_space_group_name_H-M   'P 1'
_cell_length_a   5.76457631
_cell_length_b   5.76457631
_cell_length_c   5.76457631
_cell_angle_alpha   60.00000000
_cell_angle_beta   60.00000000
_cell_angle_gamma   60.00000000
_symmetry_Int_Tables_number   1
_chemical_formula_structural   Zr(TiH2)2
_chemical_formula_sum   'Zr2 Ti4 H8'
_cell_volume   135.45254840
_cell_formula_units_Z   2
loop_
 _symmetry_equiv_pos_site_id
 _symmetry_equiv_pos_as_xyz
  1  'x, y, z'
loop_
 _atom_site_type_symbol
 _atom_site_label
 _atom_site_symmetry_multiplicity
 _atom_site_fract_x
 _atom_site_fract_y
 _atom_site_fract_z
 _atom_site_occupancy
  Zr  Zr0  1  0.75000000  0.75000000  0.75000000  1
  Zr  Zr1  1  0.50000000  0.50000000  0.50000000  1
  Ti  Ti2  1  0.12500000  0.12500000  0.62500000  1
  Ti  Ti3  1  0.12500000  0.62500000  0.12500000  1
  Ti  Ti4  1  0.62500000  0.12500000  0.12500000  1
  Ti  Ti5  1  0.12500000  0.12500000  0.12500000  1
  H  H6  1  0.35561100  0.35561100  0.93316700  1
  H  H7  1  0.35561100  0.93316700  0.35561100  1
  H  H8  1  0.93316700  0.35561100  0.35561100  1
  H  H9  1  0.35561100  0.35561100  0.35561100  1
  H  H10  1  0.89438900  0.89438900  0.31683300  1
  H  H11  1  0.89438900  0.31683300  0.89438900  1
  H  H12  1  0.31683300  0.89438900  0.89438900  1
  H  H13  1  0.89438900  0.89438900  0.89438900  1
