# generated using pymatgen
data_Np2InRh2
_symmetry_space_group_name_H-M   'P 1'
_cell_length_a   7.74233900
_cell_length_b   7.74233900
_cell_length_c   3.38895400
_cell_angle_alpha   90.00000000
_cell_angle_beta   90.00000000
_cell_angle_gamma   90.00000000
_symmetry_Int_Tables_number   1
_chemical_formula_structural   Np2InRh2
_chemical_formula_sum   'Np4 In2 Rh4'
_cell_volume   203.14682549
_cell_formula_units_Z   2
loop_
 _symmetry_equiv_pos_site_id
 _symmetry_equiv_pos_as_xyz
  1  'x, y, z'
loop_
 _atom_site_type_symbol
 _atom_site_label
 _atom_site_symmetry_multiplicity
 _atom_site_fract_x
 _atom_site_fract_y
 _atom_site_fract_z
 _atom_site_occupancy
  Np  Np0  1  0.66310000  0.83690000  0.50000000  1
  Np  Np1  1  0.33690000  0.16310000  0.50000000  1
  Np  Np2  1  0.83690000  0.33690000  0.50000000  1
  Np  Np3  1  0.16310000  0.66310000  0.50000000  1
  In  In4  1  0.50000000  0.50000000  0.00000000  1
  In  In5  1  0.00000000  0.00000000  0.00000000  1
  Rh  Rh6  1  0.85822200  0.64177800  0.00000000  1
  Rh  Rh7  1  0.64177800  0.14177800  0.00000000  1
  Rh  Rh8  1  0.14177800  0.35822200  0.00000000  1
  Rh  Rh9  1  0.35822200  0.85822200  0.00000000  1
