# generated using pymatgen
data_Cs4Re6Se13
_symmetry_space_group_name_H-M   'P 1'
_cell_length_a   10.51273076
_cell_length_b   10.51273076
_cell_length_c   14.52127447
_cell_angle_alpha   84.62533578
_cell_angle_beta   84.62533578
_cell_angle_gamma   120.23978482
_symmetry_Int_Tables_number   1
_chemical_formula_structural   Cs4Re6Se13
_chemical_formula_sum   'Cs8 Re12 Se26'
_cell_volume   1361.74793861
_cell_formula_units_Z   2
loop_
 _symmetry_equiv_pos_site_id
 _symmetry_equiv_pos_as_xyz
  1  'x, y, z'
loop_
 _atom_site_type_symbol
 _atom_site_label
 _atom_site_symmetry_multiplicity
 _atom_site_fract_x
 _atom_site_fract_y
 _atom_site_fract_z
 _atom_site_occupancy
  Cs  Cs0  1  0.33959100  0.10013000  0.58157000  1
  Cs  Cs1  1  0.10013000  0.33959100  0.08157000  1
  Cs  Cs2  1  0.27805000  0.31757000  0.77779100  1
  Cs  Cs3  1  0.31757000  0.27805000  0.27779100  1
  Cs  Cs4  1  0.66040900  0.89987000  0.41843000  1
  Cs  Cs5  1  0.89987000  0.66040900  0.91843000  1
  Cs  Cs6  1  0.68243000  0.72195000  0.72220900  1
  Cs  Cs7  1  0.72195000  0.68243000  0.22220900  1
  Re  Re8  1  0.68475000  0.00756200  0.97829500  1
  Re  Re9  1  0.41808000  0.85017200  0.92553800  1
  Re  Re10  1  0.31525000  0.99243800  0.02170500  1
  Re  Re11  1  0.58192000  0.14982800  0.07446200  1
  Re  Re12  1  0.85017200  0.41808000  0.42553800  1
  Re  Re13  1  0.14982800  0.58192000  0.57446200  1
  Re  Re14  1  0.00756200  0.68475000  0.47829500  1
  Re  Re15  1  0.14785100  0.56188800  0.39317100  1
  Re  Re16  1  0.99243800  0.31525000  0.52170500  1
  Re  Re17  1  0.85214900  0.43811200  0.60682900  1
  Re  Re18  1  0.56188800  0.14785100  0.89317100  1
  Re  Re19  1  0.43811200  0.85214900  0.10682900  1
  Se  Se20  1  0.18565200  0.70966600  0.05415200  1
  Se  Se21  1  0.69620500  0.01170900  0.15261500  1
  Se  Se22  1  0.34415400  0.99134800  0.19533800  1
  Se  Se23  1  0.70966600  0.18565200  0.55415200  1
  Se  Se24  1  0.63858100  0.36141900  0.75000000  1
  Se  Se25  1  0.46152000  0.27911600  0.99255300  1
  Se  Se26  1  0.65584600  0.00865200  0.80466200  1
  Se  Se27  1  0.29033400  0.81434800  0.44584800  1
  Se  Se28  1  0.01170900  0.69620500  0.65261500  1
  Se  Se29  1  0.94870900  0.02704900  0.93187800  1
  Se  Se30  1  0.72972000  0.36534800  0.16650800  1
  Se  Se31  1  0.05129100  0.97295100  0.06812200  1
  Se  Se32  1  0.72088400  0.53848000  0.50744700  1
  Se  Se33  1  0.30379500  0.98829100  0.84738500  1
  Se  Se34  1  0.81434800  0.29033400  0.94584800  1
  Se  Se35  1  0.00865200  0.65584600  0.30466200  1
  Se  Se36  1  0.36534800  0.72972000  0.66650800  1
  Se  Se37  1  0.36141900  0.63858100  0.25000000  1
  Se  Se38  1  0.99134800  0.34415400  0.69533800  1
  Se  Se39  1  0.27911600  0.46152000  0.49255300  1
  Se  Se40  1  0.53848000  0.72088400  0.00744700  1
  Se  Se41  1  0.27028000  0.63465200  0.83349200  1
  Se  Se42  1  0.02704900  0.94870900  0.43187800  1
  Se  Se43  1  0.63465200  0.27028000  0.33349200  1
  Se  Se44  1  0.97295100  0.05129100  0.56812200  1
  Se  Se45  1  0.98829100  0.30379500  0.34738500  1
