# generated using pymatgen
data_Na3Al2P2O8F3
_symmetry_space_group_name_H-M   'P 1'
_cell_length_a   6.88502796
_cell_length_b   6.88502796
_cell_length_c   8.85687800
_cell_angle_alpha   90.00000000
_cell_angle_beta   90.00000000
_cell_angle_gamma   99.71440106
_symmetry_Int_Tables_number   1
_chemical_formula_structural   Na3Al2P2O8F3
_chemical_formula_sum   'Na6 Al4 P4 O16 F6'
_cell_volume   413.82782788
_cell_formula_units_Z   2
loop_
 _symmetry_equiv_pos_site_id
 _symmetry_equiv_pos_as_xyz
  1  'x, y, z'
loop_
 _atom_site_type_symbol
 _atom_site_label
 _atom_site_symmetry_multiplicity
 _atom_site_fract_x
 _atom_site_fract_y
 _atom_site_fract_z
 _atom_site_occupancy
  Na  Na0  1  0.52537100  0.52537100  0.98914700  1
  Na  Na1  1  0.76119600  0.76119600  0.22189000  1
  Na  Na2  1  0.11134200  0.11134200  0.35562900  1
  Na  Na3  1  0.23880400  0.23880400  0.72189000  1
  Na  Na4  1  0.47462900  0.47462900  0.48914700  1
  Na  Na5  1  0.88865800  0.88865800  0.85562900  1
  Al  Al6  1  0.42612500  0.06610000  0.00445000  1
  Al  Al7  1  0.06610000  0.42612500  0.00445000  1
  Al  Al8  1  0.93390000  0.57387500  0.50445000  1
  Al  Al9  1  0.57387500  0.93390000  0.50445000  1
  P  P10  1  0.74761700  0.25111200  0.24839500  1
  P  P11  1  0.25111200  0.74761700  0.24839500  1
  P  P12  1  0.25238300  0.74888800  0.74839500  1
  P  P13  1  0.74888800  0.25238300  0.74839500  1
  O  O14  1  0.56471700  0.24209100  0.14774100  1
  O  O15  1  0.73662700  0.06354500  0.34846600  1
  O  O16  1  0.93686500  0.25815500  0.15409900  1
  O  O17  1  0.76181200  0.43917100  0.34812300  1
  O  O18  1  0.24209100  0.56471700  0.14774100  1
  O  O19  1  0.06354500  0.73662700  0.34846600  1
  O  O20  1  0.25815500  0.93686500  0.15409900  1
  O  O21  1  0.43917100  0.76181200  0.34812300  1
  O  O22  1  0.06313500  0.74184500  0.65409900  1
  O  O23  1  0.23818800  0.56082900  0.84812300  1
  O  O24  1  0.43528300  0.75790900  0.64774100  1
  O  O25  1  0.26337300  0.93645500  0.84846600  1
  O  O26  1  0.74184500  0.06313500  0.65409900  1
  O  O27  1  0.56082900  0.23818800  0.84812300  1
  O  O28  1  0.75790900  0.43528300  0.64774100  1
  O  O29  1  0.93645500  0.26337300  0.84846600  1
  F  F30  1  0.24979500  0.24979500  0.99609000  1
  F  F31  1  0.59879200  0.88795700  0.00446100  1
  F  F32  1  0.88795700  0.59879200  0.00446100  1
  F  F33  1  0.75020500  0.75020500  0.49609000  1
  F  F34  1  0.11204300  0.40120800  0.50446100  1
  F  F35  1  0.40120800  0.11204300  0.50446100  1
