# generated using pymatgen
data_Rb14Si10O17
_symmetry_space_group_name_H-M   'P 1'
_cell_length_a   8.00023300
_cell_length_b   14.73044300
_cell_length_c   32.97298900
_cell_angle_alpha   77.82478716
_cell_angle_beta   90.00000000
_cell_angle_gamma   90.00000000
_symmetry_Int_Tables_number   1
_chemical_formula_structural   Rb14Si10O17
_chemical_formula_sum   'Rb56 Si40 O68'
_cell_volume   3798.36536842
_cell_formula_units_Z   4
loop_
 _symmetry_equiv_pos_site_id
 _symmetry_equiv_pos_as_xyz
  1  'x, y, z'
loop_
 _atom_site_type_symbol
 _atom_site_label
 _atom_site_symmetry_multiplicity
 _atom_site_fract_x
 _atom_site_fract_y
 _atom_site_fract_z
 _atom_site_occupancy
  Rb  Rb0  1  0.94643800  0.20404900  0.74249500  1
  Rb  Rb1  1  0.40234000  0.42093700  0.28766700  1
  Rb  Rb2  1  0.36144800  0.79944000  0.63931100  1
  Rb  Rb3  1  0.03060400  0.17793600  0.62854900  1
  Rb  Rb4  1  0.13666800  0.57402400  0.21534100  1
  Rb  Rb5  1  0.09766000  0.92093700  0.78766700  1
  Rb  Rb6  1  0.86144800  0.70056000  0.86068900  1
  Rb  Rb7  1  0.09871500  0.20904000  0.85541800  1
  Rb  Rb8  1  0.40128500  0.70904000  0.35541800  1
  Rb  Rb9  1  0.01103700  0.70551200  0.74186600  1
  Rb  Rb10  1  0.63230000  0.85655900  0.52775600  1
  Rb  Rb11  1  0.45735800  0.05099900  0.93387600  1
  Rb  Rb12  1  0.90234000  0.07906300  0.21233300  1
  Rb  Rb13  1  0.50975600  0.49175500  0.06635900  1
  Rb  Rb14  1  0.36333200  0.07402400  0.71534100  1
  Rb  Rb15  1  0.59766000  0.57906300  0.71233300  1
  Rb  Rb16  1  0.62931700  0.62662200  0.46706300  1
  Rb  Rb17  1  0.49024400  0.50824500  0.93364100  1
  Rb  Rb18  1  0.87068300  0.12662200  0.96706300  1
  Rb  Rb19  1  0.04264200  0.55099900  0.43387600  1
  Rb  Rb20  1  0.44497600  0.55252000  0.60985200  1
  Rb  Rb21  1  0.59871500  0.29096000  0.64458200  1
  Rb  Rb22  1  0.37068300  0.37337800  0.53293700  1
  Rb  Rb23  1  0.94790700  0.68053600  0.61561400  1
  Rb  Rb24  1  0.12931700  0.87337800  0.03293700  1
  Rb  Rb25  1  0.46939600  0.67793600  0.12854900  1
  Rb  Rb26  1  0.13230000  0.64344100  0.97224400  1
  Rb  Rb27  1  0.55356200  0.70404900  0.24249500  1
  Rb  Rb28  1  0.90128500  0.79096000  0.14458200  1
  Rb  Rb29  1  0.86333200  0.42597600  0.78465900  1
  Rb  Rb30  1  0.55209300  0.18053600  0.11561400  1
  Rb  Rb31  1  0.96939600  0.82206400  0.37145100  1
  Rb  Rb32  1  0.51622500  0.05040000  0.60818500  1
  Rb  Rb33  1  0.05209300  0.31946400  0.38438600  1
  Rb  Rb34  1  0.48896300  0.20551200  0.24186600  1
  Rb  Rb35  1  0.86770000  0.35655900  0.02775600  1
  Rb  Rb36  1  0.36770000  0.14344100  0.47224400  1
  Rb  Rb37  1  0.94497600  0.94748000  0.89014800  1
  Rb  Rb38  1  0.53060400  0.32206400  0.87145100  1
  Rb  Rb39  1  0.63855200  0.20056000  0.36068900  1
  Rb  Rb40  1  0.98377500  0.55040000  0.10818500  1
  Rb  Rb41  1  0.48377500  0.94960000  0.39181500  1
  Rb  Rb42  1  0.00975600  0.00824500  0.43364100  1
  Rb  Rb43  1  0.05356200  0.79595100  0.25750500  1
  Rb  Rb44  1  0.55502400  0.44748000  0.39014800  1
  Rb  Rb45  1  0.51103700  0.79448800  0.75813400  1
  Rb  Rb46  1  0.13855200  0.29944000  0.13931100  1
  Rb  Rb47  1  0.05502400  0.05252000  0.10985200  1
  Rb  Rb48  1  0.99024400  0.99175500  0.56635900  1
  Rb  Rb49  1  0.63666800  0.92597600  0.28465900  1
  Rb  Rb50  1  0.01622500  0.44960000  0.89181500  1
  Rb  Rb51  1  0.44643800  0.29595100  0.75750500  1
  Rb  Rb52  1  0.98896300  0.29448800  0.25813400  1
  Rb  Rb53  1  0.54264200  0.94900100  0.06612400  1
  Rb  Rb54  1  0.95735800  0.44900100  0.56612400  1
  Rb  Rb55  1  0.44790700  0.81946400  0.88438600  1
  Si  Si56  1  0.10462300  0.93539300  0.67584000  1
  Si  Si57  1  0.81636600  0.47447800  0.30134500  1
  Si  Si58  1  0.76223800  0.85430800  0.65404400  1
  Si  Si59  1  0.70688100  0.14565000  0.84055900  1
  Si  Si60  1  0.39537700  0.43539300  0.17584000  1
  Si  Si61  1  0.27084500  0.15420300  0.02017100  1
  Si  Si62  1  0.29311900  0.85435000  0.15944100  1
  Si  Si63  1  0.23776200  0.14569200  0.34595600  1
  Si  Si64  1  0.22750600  0.98557100  0.29821400  1
  Si  Si65  1  0.89537700  0.06460700  0.32416000  1
  Si  Si66  1  0.73776200  0.35430800  0.15404400  1
  Si  Si67  1  0.64113300  0.93972200  0.17367500  1
  Si  Si68  1  0.51434300  0.24788200  0.99251500  1
  Si  Si69  1  0.77249400  0.01442900  0.70178600  1
  Si  Si70  1  0.48565700  0.75211800  0.00748500  1
  Si  Si71  1  0.78905200  0.18052100  0.47634000  1
  Si  Si72  1  0.21094800  0.81947900  0.52366000  1
  Si  Si73  1  0.71094800  0.68052100  0.97634000  1
  Si  Si74  1  0.26223800  0.64569200  0.84595600  1
  Si  Si75  1  0.25591400  0.77244500  0.45746400  1
  Si  Si76  1  0.85886700  0.43972200  0.67367500  1
  Si  Si77  1  0.72750600  0.51442900  0.20178600  1
  Si  Si78  1  0.77084500  0.34579700  0.47982900  1
  Si  Si79  1  0.60462300  0.56460700  0.82416000  1
  Si  Si80  1  0.18363400  0.52552200  0.69865500  1
  Si  Si81  1  0.14113300  0.56027800  0.32632500  1
  Si  Si82  1  0.74408600  0.22755500  0.54253600  1
  Si  Si83  1  0.22915500  0.65420300  0.52017100  1
  Si  Si84  1  0.20688100  0.35435000  0.65944100  1
  Si  Si85  1  0.98565700  0.74788200  0.49251500  1
  Si  Si86  1  0.72915500  0.84579700  0.97982900  1
  Si  Si87  1  0.01434300  0.25211800  0.50748500  1
  Si  Si88  1  0.75591400  0.72755500  0.04253600  1
  Si  Si89  1  0.28905200  0.31947900  0.02366000  1
  Si  Si90  1  0.79311900  0.64565000  0.34055900  1
  Si  Si91  1  0.31636600  0.02552200  0.19865500  1
  Si  Si92  1  0.27249400  0.48557100  0.79821400  1
  Si  Si93  1  0.35886700  0.06027800  0.82632500  1
  Si  Si94  1  0.24408600  0.27244500  0.95746400  1
  Si  Si95  1  0.68363400  0.97447800  0.80134500  1
  O  O96  1  0.70659400  0.88574900  0.60575000  1
  O  O97  1  0.24729800  0.62202100  0.67137300  1
  O  O98  1  0.00411100  0.63680500  0.33981200  1
  O  O99  1  0.72324800  0.98093400  0.75148700  1
  O  O100  1  0.52073900  0.50424700  0.19893600  1
  O  O101  1  0.76222800  0.24727000  0.81523100  1
  O  O102  1  0.73777200  0.74727000  0.31523100  1
  O  O103  1  0.79082600  0.61717300  0.18273600  1
  O  O104  1  0.97867200  0.51184700  0.69586000  1
  O  O105  1  0.72297100  0.62503100  0.78897600  1
  O  O106  1  0.80339300  0.99760200  0.36298700  1
  O  O107  1  0.49588900  0.13680500  0.83981200  1
  O  O108  1  0.26431300  0.61444400  0.29049100  1
  O  O109  1  0.02073900  0.99575300  0.30106400  1
  O  O110  1  0.22324800  0.51906600  0.74851300  1
  O  O111  1  0.75270200  0.37797900  0.32862700  1
  O  O112  1  0.47867200  0.98815300  0.80414000  1
  O  O113  1  0.02803100  0.13586100  0.34228400  1
  O  O114  1  0.79340600  0.38574900  0.10575000  1
  O  O115  1  0.22297100  0.87496900  0.71102400  1
  O  O116  1  0.27702900  0.37496900  0.21102400  1
  O  O117  1  0.77348100  0.49981800  0.63208600  1
  O  O118  1  0.18560700  0.56548000  0.82019500  1
  O  O119  1  0.69660700  0.49760200  0.86298700  1
  O  O120  1  0.23777200  0.75273000  0.18476900  1
  O  O121  1  0.76431300  0.88555600  0.20950900  1
  O  O122  1  0.52132800  0.01184700  0.19586000  1
  O  O123  1  0.68560700  0.93452000  0.67980500  1
  O  O124  1  0.73568700  0.38555600  0.70950900  1
  O  O125  1  0.97926100  0.00424700  0.69893600  1
  O  O126  1  0.20917400  0.38282700  0.81726400  1
  O  O127  1  0.26222800  0.25273000  0.68476900  1
  O  O128  1  0.97196900  0.86413900  0.65771600  1
  O  O129  1  0.81439300  0.43452000  0.17980500  1
  O  O130  1  0.74729800  0.87797900  0.82862700  1
  O  O131  1  0.29701600  0.24730500  0.32216100  1
  O  O132  1  0.23568700  0.11444400  0.79049100  1
  O  O133  1  0.25270200  0.12202100  0.17137300  1
  O  O134  1  0.27348100  0.00018200  0.86791400  1
  O  O135  1  0.29082600  0.88282700  0.31726400  1
  O  O136  1  0.77297400  0.11955300  0.88803400  1
  O  O137  1  0.27647000  0.43466800  0.68583100  1
  O  O138  1  0.20659400  0.61425100  0.89425000  1
  O  O139  1  0.27297400  0.38044700  0.61196600  1
  O  O140  1  0.22353000  0.93466800  0.18583100  1
  O  O141  1  0.30339300  0.50239800  0.13701300  1
  O  O142  1  0.72702600  0.61955300  0.38803400  1
  O  O143  1  0.47196900  0.63586100  0.84228400  1
  O  O144  1  0.70917400  0.11717300  0.68273600  1
  O  O145  1  0.47926100  0.49575300  0.80106400  1
  O  O146  1  0.77702900  0.12503100  0.28897600  1
  O  O147  1  0.99588900  0.36319500  0.66018800  1
  O  O148  1  0.70298400  0.75269500  0.67783900  1
  O  O149  1  0.19660700  0.00239800  0.63701300  1
  O  O150  1  0.77647000  0.06533200  0.81416900  1
  O  O151  1  0.27675200  0.01906600  0.24851300  1
  O  O152  1  0.77675200  0.48093400  0.25148700  1
  O  O153  1  0.31439300  0.06548000  0.32019500  1
  O  O154  1  0.22651900  0.50018200  0.36791400  1
  O  O155  1  0.52803100  0.36413900  0.15771600  1
  O  O156  1  0.72353000  0.56533200  0.31416900  1
  O  O157  1  0.29340600  0.11425100  0.39425000  1
  O  O158  1  0.02132800  0.48815300  0.30414000  1
  O  O159  1  0.79701600  0.25269500  0.17783900  1
  O  O160  1  0.50411100  0.86319500  0.16018800  1
  O  O161  1  0.72651900  0.99981800  0.13208600  1
  O  O162  1  0.20298400  0.74730500  0.82216100  1
  O  O163  1  0.22702600  0.88044700  0.11196600  1
