# generated using pymatgen
data_NaLiGe4O9
_symmetry_space_group_name_H-M   'P 1'
_cell_length_a   4.74219200
_cell_length_b   9.47570600
_cell_length_c   16.18773600
_cell_angle_alpha   90.00000000
_cell_angle_beta   90.00000000
_cell_angle_gamma   90.00000000
_symmetry_Int_Tables_number   1
_chemical_formula_structural   NaLiGe4O9
_chemical_formula_sum   'Na4 Li4 Ge16 O36'
_cell_volume   727.40590803
_cell_formula_units_Z   4
loop_
 _symmetry_equiv_pos_site_id
 _symmetry_equiv_pos_as_xyz
  1  'x, y, z'
loop_
 _atom_site_type_symbol
 _atom_site_label
 _atom_site_symmetry_multiplicity
 _atom_site_fract_x
 _atom_site_fract_y
 _atom_site_fract_z
 _atom_site_occupancy
  Na  Na0  1  0.52384000  0.98149600  0.04548200  1
  Na  Na1  1  0.52384000  0.48149600  0.45451800  1
  Na  Na2  1  0.47616000  0.98149600  0.54548200  1
  Na  Na3  1  0.47616000  0.48149600  0.95451800  1
  Li  Li4  1  0.45706700  0.26703100  0.26510000  1
  Li  Li5  1  0.54293300  0.76703100  0.73490000  1
  Li  Li6  1  0.54293300  0.26703100  0.76510000  1
  Li  Li7  1  0.45706700  0.76703100  0.23490000  1
  Ge  Ge8  1  0.00764300  0.29029600  0.59544300  1
  Ge  Ge9  1  0.99235700  0.79029600  0.40455700  1
  Ge  Ge10  1  0.99235700  0.29029600  0.09544300  1
  Ge  Ge11  1  0.00764300  0.79029600  0.90455700  1
  Ge  Ge12  1  0.50181800  0.49926300  0.65490500  1
  Ge  Ge13  1  0.49818200  0.99926300  0.34509500  1
  Ge  Ge14  1  0.49818200  0.49926300  0.15490500  1
  Ge  Ge15  1  0.50181800  0.99926300  0.84509500  1
  Ge  Ge16  1  0.99141600  0.70780800  0.59788900  1
  Ge  Ge17  1  0.99141600  0.20780800  0.90211100  1
  Ge  Ge18  1  0.00858400  0.70780800  0.09788900  1
  Ge  Ge19  1  0.00858400  0.20780800  0.40211100  1
  Ge  Ge20  1  0.99942000  0.50112300  0.29347000  1
  Ge  Ge21  1  0.00058000  0.00112300  0.70653000  1
  Ge  Ge22  1  0.00058000  0.50112300  0.79347000  1
  Ge  Ge23  1  0.99942000  0.00112300  0.20653000  1
  O  O24  1  0.73514300  0.33701700  0.66361500  1
  O  O25  1  0.26485700  0.83701700  0.33638500  1
  O  O26  1  0.26485700  0.33701700  0.16361500  1
  O  O27  1  0.73514300  0.83701700  0.83638500  1
  O  O28  1  0.73532700  0.58758500  0.73787900  1
  O  O29  1  0.26467300  0.08758500  0.26212100  1
  O  O30  1  0.85544900  0.62184100  0.36935000  1
  O  O31  1  0.73532700  0.08758500  0.76212100  1
  O  O32  1  0.72854000  0.58506600  0.57120600  1
  O  O33  1  0.27146000  0.08506600  0.42879400  1
  O  O34  1  0.27146000  0.58506600  0.07120600  1
  O  O35  1  0.26467300  0.58758500  0.23787900  1
  O  O36  1  0.15719100  0.26193900  0.99668500  1
  O  O37  1  0.84280900  0.76193900  0.00331500  1
  O  O38  1  0.84280900  0.26193900  0.49668500  1
  O  O39  1  0.15719100  0.76193900  0.50331500  1
  O  O40  1  0.17130300  0.86534900  0.14320700  1
  O  O41  1  0.82869700  0.36534900  0.85679300  1
  O  O42  1  0.82869700  0.86534900  0.64320700  1
  O  O43  1  0.17130300  0.36534900  0.35679300  1
  O  O44  1  0.27725700  0.91256100  0.92715100  1
  O  O45  1  0.72274300  0.41256100  0.07284900  1
  O  O46  1  0.72274300  0.91256100  0.42715100  1
  O  O47  1  0.27725700  0.41256100  0.57284900  1
  O  O48  1  0.27865800  0.91662100  0.75812300  1
  O  O49  1  0.72134200  0.41662100  0.24187700  1
  O  O50  1  0.72134200  0.91662100  0.25812300  1
  O  O51  1  0.27865800  0.41662100  0.74187700  1
  O  O52  1  0.27546500  0.16400300  0.83746300  1
  O  O53  1  0.72453500  0.66400300  0.16253700  1
  O  O54  1  0.72453500  0.16400300  0.33746300  1
  O  O55  1  0.27546500  0.66400300  0.66253700  1
  O  O56  1  0.85544900  0.12184100  0.13065000  1
  O  O57  1  0.14455100  0.62184100  0.86935000  1
  O  O58  1  0.14455100  0.12184100  0.63065000  1
  O  O59  1  0.72854000  0.08506600  0.92879400  1
