# generated using pymatgen
data_KVHSe2O7
_symmetry_space_group_name_H-M   'P 1'
_cell_length_a   10.62278500
_cell_length_b   4.15925100
_cell_length_c   7.95907151
_cell_angle_alpha   83.16250003
_cell_angle_beta   90.00000000
_cell_angle_gamma   90.00000000
_symmetry_Int_Tables_number   1
_chemical_formula_structural   KVHSe2O7
_chemical_formula_sum   'K2 V2 H2 Se4 O14'
_cell_volume   349.15326083
_cell_formula_units_Z   2
loop_
 _symmetry_equiv_pos_site_id
 _symmetry_equiv_pos_as_xyz
  1  'x, y, z'
loop_
 _atom_site_type_symbol
 _atom_site_label
 _atom_site_symmetry_multiplicity
 _atom_site_fract_x
 _atom_site_fract_y
 _atom_site_fract_z
 _atom_site_occupancy
  K  K0  1  0.25000000  0.89987700  0.55287700  1
  K  K1  1  0.75000000  0.10012300  0.44712300  1
  V  V2  1  0.75000000  0.94954400  0.94257100  1
  V  V3  1  0.25000000  0.05045600  0.05742900  1
  H  H4  1  0.00000000  0.50000000  0.50000000  1
  H  H5  1  0.50000000  0.50000000  0.50000000  1
  Se  Se6  1  0.98873500  0.70950500  0.18952300  1
  Se  Se7  1  0.48873500  0.29049500  0.81047700  1
  Se  Se8  1  0.01126500  0.29049500  0.81047700  1
  Se  Se9  1  0.51126500  0.70950500  0.18952300  1
  O  O10  1  0.75000000  0.54744700  0.95209400  1
  O  O11  1  0.25000000  0.45255300  0.04790600  1
  O  O12  1  0.88292300  0.01589200  0.11949800  1
  O  O13  1  0.38292300  0.98410800  0.88050200  1
  O  O14  1  0.11707700  0.98410800  0.88050200  1
  O  O15  1  0.61707700  0.01589200  0.11949800  1
  O  O16  1  0.12078900  0.92713100  0.23946400  1
  O  O17  1  0.62078900  0.07286900  0.76053600  1
  O  O18  1  0.87921100  0.07286900  0.76053600  1
  O  O19  1  0.37921100  0.92713100  0.23946400  1
  O  O20  1  0.92647600  0.61525200  0.39211300  1
  O  O21  1  0.42647600  0.38474800  0.60788700  1
  O  O22  1  0.07352400  0.38474800  0.60788700  1
  O  O23  1  0.57352400  0.61525200  0.39211300  1
