# generated using pymatgen
data_Gd4Au2O9
_symmetry_space_group_name_H-M   'P 1'
_cell_length_a   6.02102200
_cell_length_b   11.89697400
_cell_length_c   11.91201800
_cell_angle_alpha   90.00000000
_cell_angle_beta   90.00000000
_cell_angle_gamma   90.00000000
_symmetry_Int_Tables_number   1
_chemical_formula_structural   Gd4Au2O9
_chemical_formula_sum   'Gd16 Au8 O36'
_cell_volume   853.28098471
_cell_formula_units_Z   4
loop_
 _symmetry_equiv_pos_site_id
 _symmetry_equiv_pos_as_xyz
  1  'x, y, z'
loop_
 _atom_site_type_symbol
 _atom_site_label
 _atom_site_symmetry_multiplicity
 _atom_site_fract_x
 _atom_site_fract_y
 _atom_site_fract_z
 _atom_site_occupancy
  Gd  Gd0  1  0.24051000  0.41017000  0.51071100  1
  Gd  Gd1  1  0.74051000  0.08983000  0.01071100  1
  Gd  Gd2  1  0.25949000  0.58983000  0.01071100  1
  Gd  Gd3  1  0.75949000  0.91017000  0.51071100  1
  Gd  Gd4  1  0.30323700  0.26408800  0.15933400  1
  Gd  Gd5  1  0.74051000  0.41017000  0.98928900  1
  Gd  Gd6  1  0.69676300  0.76408800  0.15933400  1
  Gd  Gd7  1  0.69676300  0.73591200  0.84066600  1
  Gd  Gd8  1  0.75949000  0.58983000  0.48928900  1
  Gd  Gd9  1  0.30323700  0.23591200  0.84066600  1
  Gd  Gd10  1  0.25949000  0.91017000  0.98928900  1
  Gd  Gd11  1  0.19676300  0.76408800  0.34066600  1
  Gd  Gd12  1  0.19676300  0.73591200  0.65933400  1
  Gd  Gd13  1  0.80323700  0.26408800  0.34066600  1
  Gd  Gd14  1  0.24051000  0.08983000  0.48928900  1
  Gd  Gd15  1  0.80323700  0.23591200  0.65933400  1
  Au  Au16  1  0.07838200  0.48891000  0.77107400  1
  Au  Au17  1  0.92161800  0.98891000  0.77107400  1
  Au  Au18  1  0.42161800  0.98891000  0.72892600  1
  Au  Au19  1  0.57838200  0.48891000  0.72892600  1
  Au  Au20  1  0.92161800  0.51109000  0.22892600  1
  Au  Au21  1  0.07838200  0.01109000  0.22892600  1
  Au  Au22  1  0.42161800  0.51109000  0.27107400  1
  Au  Au23  1  0.57838200  0.01109000  0.27107400  1
  O  O24  1  0.94042200  0.35081300  0.16287500  1
  O  O25  1  0.12463300  0.16088700  0.30369000  1
  O  O26  1  0.43970200  0.05489400  0.88685500  1
  O  O27  1  0.93970200  0.05489400  0.61314500  1
  O  O28  1  0.62463300  0.16088700  0.19631000  1
  O  O29  1  0.06029800  0.55489400  0.61314500  1
  O  O30  1  0.11088000  0.08887500  0.07595000  1
  O  O31  1  0.61088000  0.08887500  0.42405000  1
  O  O32  1  0.94042200  0.14918700  0.83712500  1
  O  O33  1  0.37536700  0.83911300  0.80369000  1
  O  O34  1  0.88912000  0.58887500  0.07595000  1
  O  O35  1  0.87536700  0.66088700  0.30369000  1
  O  O36  1  0.61088000  0.41112500  0.57595000  1
  O  O37  1  0.38912000  0.58887500  0.42405000  1
  O  O38  1  0.55957800  0.85081300  0.33712500  1
  O  O39  1  0.44042200  0.14918700  0.66287500  1
  O  O40  1  0.47651900  0.75000000  0.00000000  1
  O  O41  1  0.56029800  0.94510600  0.11314500  1
  O  O42  1  0.88912000  0.91112500  0.92405000  1
  O  O43  1  0.97651900  0.75000000  0.50000000  1
  O  O44  1  0.43970200  0.44510600  0.11314500  1
  O  O45  1  0.44042200  0.35081300  0.33712500  1
  O  O46  1  0.12463300  0.33911300  0.69631000  1
  O  O47  1  0.02348100  0.25000000  0.50000000  1
  O  O48  1  0.05957800  0.64918700  0.83712500  1
  O  O49  1  0.37536700  0.66088700  0.19631000  1
  O  O50  1  0.87536700  0.83911300  0.69631000  1
  O  O51  1  0.11088000  0.41112500  0.92405000  1
  O  O52  1  0.05957800  0.85081300  0.16287500  1
  O  O53  1  0.56029800  0.55489400  0.88685500  1
  O  O54  1  0.62463300  0.33911300  0.80369000  1
  O  O55  1  0.93970200  0.44510600  0.38685500  1
  O  O56  1  0.55957800  0.64918700  0.66287500  1
  O  O57  1  0.52348100  0.25000000  0.00000000  1
  O  O58  1  0.38912000  0.91112500  0.57595000  1
  O  O59  1  0.06029800  0.94510600  0.38685500  1
