# generated using pymatgen
data_Cs2Cu3(P2O7)2
_symmetry_space_group_name_H-M   'P 1'
_cell_length_a   11.04684000
_cell_length_b   7.89249200
_cell_length_c   8.01528452
_cell_angle_alpha   75.93669141
_cell_angle_beta   90.00000000
_cell_angle_gamma   90.00000000
_symmetry_Int_Tables_number   1
_chemical_formula_structural   Cs2Cu3(P2O7)2
_chemical_formula_sum   'Cs4 Cu6 P8 O28'
_cell_volume   677.88394610
_cell_formula_units_Z   2
loop_
 _symmetry_equiv_pos_site_id
 _symmetry_equiv_pos_as_xyz
  1  'x, y, z'
loop_
 _atom_site_type_symbol
 _atom_site_label
 _atom_site_symmetry_multiplicity
 _atom_site_fract_x
 _atom_site_fract_y
 _atom_site_fract_z
 _atom_site_occupancy
  Cs  Cs0  1  0.68564700  0.46008200  0.74482200  1
  Cs  Cs1  1  0.81435300  0.96008200  0.74482200  1
  Cs  Cs2  1  0.31435300  0.53991800  0.25517800  1
  Cs  Cs3  1  0.18564700  0.03991800  0.25517800  1
  Cu  Cu4  1  0.89165300  0.72818500  0.28269400  1
  Cu  Cu5  1  0.50000000  0.00000000  0.00000000  1
  Cu  Cu6  1  0.39165300  0.77181500  0.71730600  1
  Cu  Cu7  1  0.60834700  0.22818500  0.28269400  1
  Cu  Cu8  1  0.00000000  0.50000000  0.00000000  1
  Cu  Cu9  1  0.10834700  0.27181500  0.71730600  1
  P  P10  1  0.95104200  0.33737600  0.38091200  1
  P  P11  1  0.34206100  0.34651300  0.86815000  1
  P  P12  1  0.04895800  0.66262400  0.61908800  1
  P  P13  1  0.45104200  0.16262400  0.61908800  1
  P  P14  1  0.84206100  0.15348700  0.13185000  1
  P  P15  1  0.15793900  0.84651300  0.86815000  1
  P  P16  1  0.54895800  0.83737600  0.38091200  1
  P  P17  1  0.65793900  0.65348700  0.13185000  1
  O  O18  1  0.09128400  0.71252600  0.00972700  1
  O  O19  1  0.60154600  0.47362800  0.15249400  1
  O  O20  1  0.64626700  0.71318900  0.31324900  1
  O  O21  1  0.12427600  0.51476800  0.57732200  1
  O  O22  1  0.79616000  0.65959300  0.09975100  1
  O  O23  1  0.95400400  0.60344900  0.76150500  1
  O  O24  1  0.10154600  0.02637200  0.84750600  1
  O  O25  1  0.40871600  0.21252600  0.00972700  1
  O  O26  1  0.70384000  0.15959300  0.09975100  1
  O  O27  1  0.54599600  0.10344900  0.76150500  1
  O  O28  1  0.35373300  0.28681100  0.68675100  1
  O  O29  1  0.29616000  0.84040700  0.90024900  1
  O  O30  1  0.20384000  0.34040700  0.90024900  1
  O  O31  1  0.49494800  0.71311000  0.54121200  1
  O  O32  1  0.37572400  0.01476800  0.57732200  1
  O  O33  1  0.99494800  0.78689000  0.45878800  1
  O  O34  1  0.62427600  0.98523200  0.42267800  1
  O  O35  1  0.90871600  0.28747400  0.99027300  1
  O  O36  1  0.85373300  0.21318900  0.31324900  1
  O  O37  1  0.04599600  0.39655100  0.23849500  1
  O  O38  1  0.39845400  0.52637200  0.84750600  1
  O  O39  1  0.89845400  0.97362800  0.15249400  1
  O  O40  1  0.45400400  0.89655100  0.23849500  1
  O  O41  1  0.14626700  0.78681100  0.68675100  1
  O  O42  1  0.50505200  0.28689000  0.45878800  1
  O  O43  1  0.00505200  0.21311000  0.54121200  1
  O  O44  1  0.87572400  0.48523200  0.42267800  1
  O  O45  1  0.59128400  0.78747400  0.99027300  1
