# generated using pymatgen
data_Cs3H5Pt
_symmetry_space_group_name_H-M   'P 1'
_cell_length_a   8.39819800
_cell_length_b   8.39819800
_cell_length_c   6.20662500
_cell_angle_alpha   90.00000000
_cell_angle_beta   90.00000000
_cell_angle_gamma   90.00000000
_symmetry_Int_Tables_number   1
_chemical_formula_structural   Cs3H5Pt
_chemical_formula_sum   'Cs6 H10 Pt2'
_cell_volume   437.75158327
_cell_formula_units_Z   2
loop_
 _symmetry_equiv_pos_site_id
 _symmetry_equiv_pos_as_xyz
  1  'x, y, z'
loop_
 _atom_site_type_symbol
 _atom_site_label
 _atom_site_symmetry_multiplicity
 _atom_site_fract_x
 _atom_site_fract_y
 _atom_site_fract_z
 _atom_site_occupancy
  Cs  Cs0  1  0.50000000  0.50000000  0.00000000  1
  Cs  Cs1  1  0.00000000  0.00000000  0.00000000  1
  Cs  Cs2  1  0.18648800  0.68648800  0.50000000  1
  Cs  Cs3  1  0.81351200  0.31351200  0.50000000  1
  Cs  Cs4  1  0.68648800  0.81351200  0.50000000  1
  Cs  Cs5  1  0.31351200  0.18648800  0.50000000  1
  H  H6  1  0.50000000  0.50000000  0.50000000  1
  H  H7  1  0.00000000  0.00000000  0.50000000  1
  H  H8  1  0.59871200  0.09871200  0.81008800  1
  H  H9  1  0.40128800  0.90128800  0.81008800  1
  H  H10  1  0.09871200  0.40128800  0.81008800  1
  H  H11  1  0.90128800  0.59871200  0.81008800  1
  H  H12  1  0.40128800  0.90128800  0.18991200  1
  H  H13  1  0.59871200  0.09871200  0.18991200  1
  H  H14  1  0.90128800  0.59871200  0.18991200  1
  H  H15  1  0.09871200  0.40128800  0.18991200  1
  Pt  Pt16  1  0.50000000  0.00000000  0.00000000  1
  Pt  Pt17  1  0.00000000  0.50000000  0.00000000  1
