# generated using pymatgen
data_Y2Si4CN6
_symmetry_space_group_name_H-M   'P 1'
_cell_length_a   9.99955100
_cell_length_b   5.96069800
_cell_length_c   11.95648890
_cell_angle_alpha   60.37591530
_cell_angle_beta   90.00000000
_cell_angle_gamma   90.00000000
_symmetry_Int_Tables_number   1
_chemical_formula_structural   Y2Si4CN6
_chemical_formula_sum   'Y8 Si16 C4 N24'
_cell_volume   619.50466128
_cell_formula_units_Z   4
loop_
 _symmetry_equiv_pos_site_id
 _symmetry_equiv_pos_as_xyz
  1  'x, y, z'
loop_
 _atom_site_type_symbol
 _atom_site_label
 _atom_site_symmetry_multiplicity
 _atom_site_fract_x
 _atom_site_fract_y
 _atom_site_fract_z
 _atom_site_occupancy
  Y  Y0  1  0.41287100  0.34415000  0.41805800  1
  Y  Y1  1  0.91287100  0.65585000  0.08194200  1
  Y  Y2  1  0.58712900  0.65585000  0.58194200  1
  Y  Y3  1  0.08712900  0.34415000  0.91805800  1
  Y  Y4  1  0.56739900  0.67081400  0.09432700  1
  Y  Y5  1  0.06739900  0.32918600  0.40567300  1
  Y  Y6  1  0.43260100  0.32918600  0.90567300  1
  Y  Y7  1  0.93260100  0.67081400  0.59432700  1
  Si  Si8  1  0.22725500  0.32249200  0.15887100  1
  Si  Si9  1  0.72725500  0.67750800  0.34112900  1
  Si  Si10  1  0.77274500  0.67750800  0.84112900  1
  Si  Si11  1  0.27274500  0.32249200  0.65887100  1
  Si  Si12  1  0.20607300  0.79942400  0.17613600  1
  Si  Si13  1  0.70607300  0.20057600  0.32386400  1
  Si  Si14  1  0.79392700  0.20057600  0.82386400  1
  Si  Si15  1  0.29392700  0.79942400  0.67613600  1
  Si  Si16  1  0.21252100  0.83612000  0.42046900  1
  Si  Si17  1  0.71252100  0.16388000  0.07953100  1
  Si  Si18  1  0.78747900  0.16388000  0.57953100  1
  Si  Si19  1  0.28747900  0.83612000  0.92046900  1
  Si  Si20  1  0.47986500  0.99599500  0.24993600  1
  Si  Si21  1  0.97986500  0.00400500  0.25006400  1
  Si  Si22  1  0.52013500  0.00400500  0.75006400  1
  Si  Si23  1  0.02013500  0.99599500  0.74993600  1
  C  C24  1  0.29194800  0.97668500  0.25291100  1
  C  C25  1  0.79194800  0.02331500  0.24708900  1
  C  C26  1  0.70805200  0.02331500  0.74708900  1
  C  C27  1  0.20805200  0.97668500  0.75291100  1
  N  N28  1  0.05383400  0.29754700  0.13696200  1
  N  N29  1  0.55383400  0.70245300  0.36303800  1
  N  N30  1  0.94616600  0.70245300  0.86303800  1
  N  N31  1  0.44616600  0.29754700  0.63696200  1
  N  N32  1  0.26259300  0.48159400  0.24524900  1
  N  N33  1  0.76259300  0.51840600  0.25475100  1
  N  N34  1  0.73740700  0.51840600  0.75475100  1
  N  N35  1  0.23740700  0.48159400  0.74524900  1
  N  N36  1  0.28897000  0.49605500  0.00113900  1
  N  N37  1  0.78897000  0.50394500  0.49886100  1
  N  N38  1  0.71103000  0.50394500  0.99886100  1
  N  N39  1  0.21103000  0.49605500  0.50113900  1
  N  N40  1  0.03648200  0.75843900  0.22204000  1
  N  N41  1  0.53648200  0.24156100  0.27796000  1
  N  N42  1  0.96351800  0.24156100  0.77796000  1
  N  N43  1  0.46351800  0.75843900  0.72204000  1
  N  N44  1  0.04475700  0.93977800  0.39888000  1
  N  N45  1  0.54475700  0.06022200  0.10112000  1
  N  N46  1  0.95524300  0.06022200  0.60112000  1
  N  N47  1  0.45524300  0.93977800  0.89888000  1
  N  N48  1  0.28544000  0.96170600  0.50954600  1
  N  N49  1  0.78544000  0.03829400  0.99045400  1
  N  N50  1  0.71456000  0.03829400  0.49045400  1
  N  N51  1  0.21456000  0.96170600  0.00954600  1
