# generated using pymatgen
data_Hf(MoO4)2
_symmetry_space_group_name_H-M   'P 1'
_cell_length_a   10.23590632
_cell_length_b   10.23590632
_cell_length_c   12.06327500
_cell_angle_alpha   90.00000000
_cell_angle_beta   90.00000000
_cell_angle_gamma   120.00000209
_symmetry_Int_Tables_number   1
_chemical_formula_structural   Hf(MoO4)2
_chemical_formula_sum   'Hf6 Mo12 O48'
_cell_volume   1094.58238851
_cell_formula_units_Z   6
loop_
 _symmetry_equiv_pos_site_id
 _symmetry_equiv_pos_as_xyz
  1  'x, y, z'
loop_
 _atom_site_type_symbol
 _atom_site_label
 _atom_site_symmetry_multiplicity
 _atom_site_fract_x
 _atom_site_fract_y
 _atom_site_fract_z
 _atom_site_occupancy
  Hf  Hf0  1  0.66666700  0.33333300  0.48413300  1
  Hf  Hf1  1  0.66666700  0.33333300  0.01586700  1
  Hf  Hf2  1  0.33333300  0.66666700  0.98413300  1
  Hf  Hf3  1  0.00000000  0.00000000  0.00000000  1
  Hf  Hf4  1  0.00000000  0.00000000  0.50000000  1
  Hf  Hf5  1  0.33333300  0.66666700  0.51586700  1
  Mo  Mo6  1  0.66928600  0.66176000  0.85320400  1
  Mo  Mo7  1  0.00752500  0.66928600  0.14679600  1
  Mo  Mo8  1  0.99247500  0.33071400  0.85320400  1
  Mo  Mo9  1  0.33071400  0.99247500  0.35320400  1
  Mo  Mo10  1  0.99247500  0.66176000  0.64679600  1
  Mo  Mo11  1  0.00752500  0.33824000  0.35320400  1
  Mo  Mo12  1  0.33824000  0.00752500  0.85320400  1
  Mo  Mo13  1  0.33071400  0.33824000  0.14679600  1
  Mo  Mo14  1  0.66928600  0.00752500  0.64679600  1
  Mo  Mo15  1  0.66176000  0.99247500  0.14679600  1
  Mo  Mo16  1  0.66176000  0.66928600  0.35320400  1
  Mo  Mo17  1  0.33824000  0.33071400  0.64679600  1
  O  O18  1  0.49948400  0.32982300  0.11520300  1
  O  O19  1  0.49948400  0.16966200  0.38479700  1
  O  O20  1  0.33959100  0.50193700  0.07980400  1
  O  O21  1  0.32188000  0.35121600  0.28967200  1
  O  O22  1  0.83588900  0.83086100  0.40207500  1
  O  O23  1  0.35121600  0.02933700  0.71032800  1
  O  O24  1  0.83086100  0.83588900  0.90207500  1
  O  O25  1  0.67017700  0.16966200  0.11520300  1
  O  O26  1  0.83588900  0.00502700  0.09792500  1
  O  O27  1  0.66040900  0.16234600  0.57980400  1
  O  O28  1  0.83765400  0.33959100  0.92019600  1
  O  O29  1  0.67812000  0.64878400  0.71032800  1
  O  O30  1  0.16913900  0.16411100  0.09792500  1
  O  O31  1  0.02933700  0.67812000  0.28967200  1
  O  O32  1  0.97066300  0.64878400  0.78967200  1
  O  O33  1  0.32982300  0.49948400  0.61520300  1
  O  O34  1  0.16411100  0.16913900  0.59792500  1
  O  O35  1  0.35121600  0.32188000  0.78967200  1
  O  O36  1  0.83086100  0.99497300  0.59792500  1
  O  O37  1  0.32188000  0.97066300  0.21032800  1
  O  O38  1  0.49806300  0.66040900  0.42019600  1
  O  O39  1  0.00502700  0.16913900  0.90207500  1
  O  O40  1  0.97066300  0.32188000  0.71032800  1
  O  O41  1  0.16411100  0.99497300  0.90207500  1
  O  O42  1  0.83765400  0.49806300  0.57980400  1
  O  O43  1  0.64878400  0.67812000  0.21032800  1
  O  O44  1  0.00502700  0.83588900  0.59792500  1
  O  O45  1  0.67017700  0.50051600  0.38479700  1
  O  O46  1  0.16234600  0.50193700  0.42019600  1
  O  O47  1  0.50051600  0.83033800  0.61520300  1
  O  O48  1  0.16234600  0.66040900  0.07980400  1
  O  O49  1  0.33959100  0.83765400  0.42019600  1
  O  O50  1  0.50193700  0.33959100  0.57980400  1
  O  O51  1  0.50193700  0.16234600  0.92019600  1
  O  O52  1  0.16966200  0.49948400  0.88479700  1
  O  O53  1  0.99497300  0.16411100  0.40207500  1
  O  O54  1  0.50051600  0.67017700  0.88479700  1
  O  O55  1  0.83033800  0.32982300  0.38479700  1
  O  O56  1  0.16966200  0.67017700  0.61520300  1
  O  O57  1  0.66040900  0.49806300  0.92019600  1
  O  O58  1  0.32982300  0.83033800  0.88479700  1
  O  O59  1  0.67812000  0.02933700  0.78967200  1
  O  O60  1  0.64878400  0.97066300  0.28967200  1
  O  O61  1  0.83033800  0.50051600  0.11520300  1
  O  O62  1  0.16913900  0.00502700  0.40207500  1
  O  O63  1  0.49806300  0.83765400  0.07980400  1
  O  O64  1  0.02933700  0.35121600  0.21032800  1
  O  O65  1  0.99497300  0.83086100  0.09792500  1
