# generated using pymatgen
data_Re2P2O11
_symmetry_space_group_name_H-M   'P 1'
_cell_length_a   6.40049400
_cell_length_b   7.92530700
_cell_length_c   15.49332400
_cell_angle_alpha   90.00000000
_cell_angle_beta   90.00000000
_cell_angle_gamma   90.00000000
_symmetry_Int_Tables_number   1
_chemical_formula_structural   Re2P2O11
_chemical_formula_sum   'Re8 P8 O44'
_cell_volume   785.91249250
_cell_formula_units_Z   4
loop_
 _symmetry_equiv_pos_site_id
 _symmetry_equiv_pos_as_xyz
  1  'x, y, z'
loop_
 _atom_site_type_symbol
 _atom_site_label
 _atom_site_symmetry_multiplicity
 _atom_site_fract_x
 _atom_site_fract_y
 _atom_site_fract_z
 _atom_site_occupancy
  Re  Re0  1  0.25000000  0.25775800  0.47026300  1
  Re  Re1  1  0.75000000  0.05155400  0.21355300  1
  Re  Re2  1  0.25000000  0.24224200  0.97026300  1
  Re  Re3  1  0.75000000  0.75775800  0.02973700  1
  Re  Re4  1  0.25000000  0.94844600  0.78644700  1
  Re  Re5  1  0.25000000  0.55155400  0.28644700  1
  Re  Re6  1  0.75000000  0.44844600  0.71355300  1
  Re  Re7  1  0.75000000  0.74224200  0.52973700  1
  P  P8  1  0.75000000  0.87689000  0.73894100  1
  P  P9  1  0.75000000  0.14106300  0.43337700  1
  P  P10  1  0.25000000  0.37689000  0.76105900  1
  P  P11  1  0.75000000  0.35893800  0.93337700  1
  P  P12  1  0.75000000  0.62311000  0.23894100  1
  P  P13  1  0.25000000  0.64106200  0.06662300  1
  P  P14  1  0.25000000  0.12311000  0.26105900  1
  P  P15  1  0.25000000  0.85893800  0.56662300  1
  O  O16  1  0.75000000  0.54227600  0.96523100  1
  O  O17  1  0.75000000  0.93394900  0.10942700  1
  O  O18  1  0.25000000  0.38538900  0.55931800  1
  O  O19  1  0.25000000  0.43394900  0.39057300  1
  O  O20  1  0.75000000  0.95772400  0.46523100  1
  O  O21  1  0.93934900  0.24006100  0.46750400  1
  O  O22  1  0.93934900  0.25993900  0.96750400  1
  O  O23  1  0.25000000  0.86125900  0.66594000  1
  O  O24  1  0.75000000  0.88538900  0.94068200  1
  O  O25  1  0.25000000  0.39247400  0.86057700  1
  O  O26  1  0.55911500  0.52765100  0.27755600  1
  O  O27  1  0.75000000  0.69118800  0.76832200  1
  O  O28  1  0.75000000  0.25301300  0.66696500  1
  O  O29  1  0.25000000  0.30881200  0.23167800  1
  O  O30  1  0.05911500  0.47234900  0.72244400  1
  O  O31  1  0.94088500  0.97234900  0.77755600  1
  O  O32  1  0.06065100  0.75993900  0.53249600  1
  O  O33  1  0.75000000  0.36125900  0.83406000  1
  O  O34  1  0.75000000  0.61461100  0.44068200  1
  O  O35  1  0.44088500  0.02765100  0.22244400  1
  O  O36  1  0.44088500  0.47234900  0.72244400  1
  O  O37  1  0.05911500  0.02765100  0.22244400  1
  O  O38  1  0.25000000  0.11461100  0.05931800  1
  O  O39  1  0.75000000  0.80881200  0.26832200  1
  O  O40  1  0.25000000  0.74698700  0.33303500  1
  O  O41  1  0.56065100  0.25993900  0.96750400  1
  O  O42  1  0.75000000  0.89247400  0.63942300  1
  O  O43  1  0.25000000  0.04227600  0.53476900  1
  O  O44  1  0.94088500  0.52765100  0.27755600  1
  O  O45  1  0.75000000  0.60752600  0.13942300  1
  O  O46  1  0.43934900  0.74006100  0.03249600  1
  O  O47  1  0.25000000  0.63874100  0.16594000  1
  O  O48  1  0.25000000  0.10752600  0.36057700  1
  O  O49  1  0.06065100  0.74006100  0.03249600  1
  O  O50  1  0.75000000  0.13874100  0.33406000  1
  O  O51  1  0.25000000  0.45772400  0.03476900  1
  O  O52  1  0.25000000  0.06605100  0.89057300  1
  O  O53  1  0.25000000  0.75301300  0.83303500  1
  O  O54  1  0.56065100  0.24006100  0.46750400  1
  O  O55  1  0.75000000  0.56605100  0.60942700  1
  O  O56  1  0.75000000  0.24698700  0.16696500  1
  O  O57  1  0.43934900  0.75993900  0.53249600  1
  O  O58  1  0.25000000  0.19118800  0.73167800  1
  O  O59  1  0.55911500  0.97234900  0.77755600  1
