# generated using pymatgen
data_Pr2(SeO3)3
_symmetry_space_group_name_H-M   'P 1'
_cell_length_a   7.15428500
_cell_length_b   17.09215200
_cell_length_c   22.00450565
_cell_angle_alpha   77.96987516
_cell_angle_beta   90.00000000
_cell_angle_gamma   90.00000000
_symmetry_Int_Tables_number   1
_chemical_formula_structural   Pr2(SeO3)3
_chemical_formula_sum   'Pr24 Se36 O108'
_cell_volume   2631.66372950
_cell_formula_units_Z   12
loop_
 _symmetry_equiv_pos_site_id
 _symmetry_equiv_pos_as_xyz
  1  'x, y, z'
loop_
 _atom_site_type_symbol
 _atom_site_label
 _atom_site_symmetry_multiplicity
 _atom_site_fract_x
 _atom_site_fract_y
 _atom_site_fract_z
 _atom_site_occupancy
  Pr  Pr0  1  0.33285400  0.60104200  0.94754300  1
  Pr  Pr1  1  0.32811700  0.17710400  0.73810700  1
  Pr  Pr2  1  0.35178100  0.86352400  0.08752900  1
  Pr  Pr3  1  0.32058400  0.26457100  0.28674500  1
  Pr  Pr4  1  0.85824000  0.53977900  0.86287000  1
  Pr  Pr5  1  0.64176000  0.03977900  0.36287000  1
  Pr  Pr6  1  0.85178100  0.63647600  0.41247100  1
  Pr  Pr7  1  0.64821900  0.13647600  0.91247100  1
  Pr  Pr8  1  0.66714600  0.39895800  0.05245700  1
  Pr  Pr9  1  0.82811700  0.32289600  0.76189300  1
  Pr  Pr10  1  0.14882300  0.03276400  0.91091400  1
  Pr  Pr11  1  0.64882300  0.46723600  0.58908600  1
  Pr  Pr12  1  0.17941600  0.76457100  0.78674500  1
  Pr  Pr13  1  0.35824000  0.96022100  0.63713000  1
  Pr  Pr14  1  0.85117700  0.96723600  0.08908600  1
  Pr  Pr15  1  0.14821900  0.36352400  0.58752900  1
  Pr  Pr16  1  0.16714600  0.10104200  0.44754300  1
  Pr  Pr17  1  0.14176000  0.46022100  0.13713000  1
  Pr  Pr18  1  0.17188300  0.67710400  0.23810700  1
  Pr  Pr19  1  0.67188300  0.82289600  0.26189300  1
  Pr  Pr20  1  0.83285400  0.89895800  0.55245700  1
  Pr  Pr21  1  0.67941600  0.73542900  0.71325500  1
  Pr  Pr22  1  0.82058400  0.23542900  0.21325500  1
  Pr  Pr23  1  0.35117700  0.53276400  0.41091400  1
  Se  Se24  1  0.61687700  0.69570200  0.54924100  1
  Se  Se25  1  0.09145300  0.46152400  0.29077700  1
  Se  Se26  1  0.90854700  0.53847600  0.70922300  1
  Se  Se27  1  0.85455800  0.93124600  0.69946700  1
  Se  Se28  1  0.59145300  0.03847600  0.20922300  1
  Se  Se29  1  0.19397000  0.73958300  0.63776400  1
  Se  Se30  1  0.32193500  0.89702900  0.48431800  1
  Se  Se31  1  0.14544200  0.06875400  0.30053300  1
  Se  Se32  1  0.57909500  0.36515700  0.88676800  1
  Se  Se33  1  0.83246100  0.76655600  0.10399200  1
  Se  Se34  1  0.66753900  0.26655600  0.60399200  1
  Se  Se35  1  0.82470500  0.10874400  0.76929200  1
  Se  Se36  1  0.35455800  0.56875400  0.80053300  1
  Se  Se37  1  0.81886900  0.43392700  0.44632100  1
  Se  Se38  1  0.80603000  0.26041700  0.36223600  1
  Se  Se39  1  0.82193500  0.60297100  0.01568200  1
  Se  Se40  1  0.11687700  0.80429800  0.95075900  1
  Se  Se41  1  0.16753900  0.23344400  0.89600800  1
  Se  Se42  1  0.30603000  0.23958300  0.13776400  1
  Se  Se43  1  0.32470500  0.39125600  0.73070800  1
  Se  Se44  1  0.68113100  0.93392700  0.94632100  1
  Se  Se45  1  0.18113100  0.56607300  0.55367900  1
  Se  Se46  1  0.88312300  0.19570200  0.04924100  1
  Se  Se47  1  0.64544200  0.43124600  0.19946700  1
  Se  Se48  1  0.33246100  0.73344400  0.39600800  1
  Se  Se49  1  0.92090500  0.86515700  0.38676800  1
  Se  Se50  1  0.67806500  0.10297100  0.51568200  1
  Se  Se51  1  0.40854700  0.96152400  0.79077700  1
  Se  Se52  1  0.17529500  0.89125600  0.23070800  1
  Se  Se53  1  0.07909500  0.13484300  0.61323200  1
  Se  Se54  1  0.69397000  0.76041700  0.86223600  1
  Se  Se55  1  0.42090500  0.63484300  0.11323200  1
  Se  Se56  1  0.38312300  0.30429800  0.45075900  1
  Se  Se57  1  0.31886900  0.06607300  0.05367900  1
  Se  Se58  1  0.17806500  0.39702900  0.98431800  1
  Se  Se59  1  0.67529500  0.60874400  0.26929200  1
  O  O60  1  0.52323300  0.01264500  0.72569100  1
  O  O61  1  0.51520000  0.56589800  0.86045700  1
  O  O62  1  0.16469200  0.30257100  0.17354200  1
  O  O63  1  0.58957800  0.60388700  0.59858600  1
  O  O64  1  0.82608500  0.38915800  0.16159400  1
  O  O65  1  0.85851100  0.66470300  0.29199600  1
  O  O66  1  0.63995800  0.88520300  0.02152800  1
  O  O67  1  0.98851200  0.59808800  0.95975900  1
  O  O68  1  0.33032100  0.49271100  0.53279100  1
  O  O69  1  0.51087400  0.68484200  0.25996400  1
  O  O70  1  0.17000500  0.22277400  0.62760100  1
  O  O71  1  0.20160200  0.74589700  0.89991300  1
  O  O72  1  0.66967900  0.50728900  0.46720900  1
  O  O73  1  0.51148800  0.09808800  0.45975900  1
  O  O74  1  0.77456900  0.45989900  0.69333000  1
  O  O75  1  0.49082100  0.33781300  0.58285200  1
  O  O76  1  0.81189800  0.68144900  0.50848900  1
  O  O77  1  0.42029200  0.80359600  0.33778700  1
  O  O78  1  0.18810200  0.31855100  0.49151100  1
  O  O79  1  0.97738100  0.28049000  0.30421700  1
  O  O80  1  0.52261900  0.78049000  0.80421700  1
  O  O81  1  0.75465300  0.59130200  0.74672300  1
  O  O82  1  0.01520000  0.93410200  0.63954300  1
  O  O83  1  0.10384900  0.15679900  0.24748600  1
  O  O84  1  0.02323300  0.48735500  0.77430900  1
  O  O85  1  0.79839800  0.25410300  0.10008700  1
  O  O86  1  0.63485600  0.55231200  0.34296600  1
  O  O87  1  0.29839800  0.24589700  0.39991300  1
  O  O88  1  0.82999500  0.77722600  0.37239900  1
  O  O89  1  0.11445700  0.46434500  0.91819700  1
  O  O90  1  0.07970800  0.30359600  0.83778700  1
  O  O91  1  0.98912600  0.18484200  0.75996400  1
  O  O92  1  0.72543100  0.95989900  0.19333000  1
  O  O93  1  0.57970800  0.19640400  0.66221300  1
  O  O94  1  0.34791600  0.45679300  0.00973500  1
  O  O95  1  0.22543100  0.54010100  0.30667000  1
  O  O96  1  0.01087400  0.81515800  0.24003600  1
  O  O97  1  0.31144400  0.17412000  0.85767700  1
  O  O98  1  0.50640500  0.00393400  0.07759800  1
  O  O99  1  0.00640500  0.49606600  0.42240200  1
  O  O100  1  0.02261900  0.71951000  0.69578300  1
  O  O101  1  0.84791600  0.04320700  0.49026500  1
  O  O102  1  0.64148900  0.16470300  0.79199600  1
  O  O103  1  0.35851100  0.83529700  0.20800400  1
  O  O104  1  0.67391500  0.88915800  0.66159400  1
  O  O105  1  0.74534700  0.09130200  0.24672300  1
  O  O106  1  0.68810200  0.18144900  0.00848900  1
  O  O107  1  0.13995800  0.61479700  0.47847200  1
  O  O108  1  0.32608500  0.11084200  0.33840600  1
  O  O109  1  0.01148800  0.40191200  0.04024100  1
  O  O110  1  0.31189800  0.81855100  0.99151100  1
  O  O111  1  0.88554300  0.53565500  0.08180300  1
  O  O112  1  0.98480000  0.06589800  0.36045700  1
  O  O113  1  0.86514400  0.05231200  0.84296600  1
  O  O114  1  0.28521000  0.60959100  0.05534800  1
  O  O115  1  0.09476500  0.80286900  0.57717400  1
  O  O116  1  0.65208400  0.54320700  0.99026500  1
  O  O117  1  0.68855600  0.82588000  0.14232300  1
  O  O118  1  0.60384900  0.34320100  0.25251400  1
  O  O119  1  0.70160200  0.75410300  0.60008700  1
  O  O120  1  0.18060600  0.07329700  0.67648800  1
  O  O121  1  0.78521000  0.89040900  0.44465200  1
  O  O122  1  0.99082100  0.16218700  0.91714800  1
  O  O123  1  0.48912600  0.31515800  0.74003600  1
  O  O124  1  0.48480000  0.43410200  0.13954300  1
  O  O125  1  0.47676700  0.98735500  0.27430900  1
  O  O126  1  0.32999500  0.72277400  0.12760100  1
  O  O127  1  0.66469200  0.19742900  0.32645800  1
  O  O128  1  0.38554300  0.96434500  0.41819700  1
  O  O129  1  0.83530800  0.69742900  0.82645800  1
  O  O130  1  0.59476500  0.69713100  0.92282600  1
  O  O131  1  0.17391500  0.61084200  0.83840600  1
  O  O132  1  0.41042200  0.39611300  0.40141400  1
  O  O133  1  0.83032100  0.00728900  0.96720900  1
  O  O134  1  0.49359500  0.99606600  0.92240200  1
  O  O135  1  0.90523500  0.19713100  0.42282600  1
  O  O136  1  0.92029200  0.69640400  0.16221300  1
  O  O137  1  0.61445700  0.03565500  0.58180300  1
  O  O138  1  0.81939400  0.92670300  0.32351200  1
  O  O139  1  0.89615100  0.84320100  0.75251400  1
  O  O140  1  0.00917900  0.83781300  0.08285200  1
  O  O141  1  0.97676700  0.51264500  0.22569100  1
  O  O142  1  0.39615100  0.65679900  0.74748600  1
  O  O143  1  0.24534700  0.40869800  0.25327700  1
  O  O144  1  0.21479000  0.10959100  0.55534800  1
  O  O145  1  0.36514400  0.44768800  0.65703400  1
  O  O146  1  0.81144400  0.32588000  0.64232300  1
  O  O147  1  0.67000500  0.27722600  0.87239900  1
  O  O148  1  0.40523500  0.30286900  0.07717400  1
  O  O149  1  0.99359500  0.50393400  0.57759800  1
  O  O150  1  0.18855600  0.67412000  0.35767700  1
  O  O151  1  0.27456900  0.04010100  0.80667000  1
  O  O152  1  0.25465300  0.90869800  0.75327700  1
  O  O153  1  0.71479000  0.39040900  0.94465200  1
  O  O154  1  0.86004200  0.38520300  0.52152800  1
  O  O155  1  0.47738100  0.21951000  0.19578300  1
  O  O156  1  0.31939400  0.57329700  0.17648800  1
  O  O157  1  0.14148900  0.33529700  0.70800400  1
  O  O158  1  0.08957800  0.89611300  0.90141400  1
  O  O159  1  0.15208400  0.95679300  0.50973500  1
  O  O160  1  0.33530800  0.80257100  0.67354200  1
  O  O161  1  0.91042200  0.10388700  0.09858600  1
  O  O162  1  0.36004200  0.11479700  0.97847200  1
  O  O163  1  0.50917900  0.66218700  0.41714800  1
  O  O164  1  0.68060600  0.42670300  0.82351200  1
  O  O165  1  0.48851200  0.90191200  0.54024100  1
  O  O166  1  0.13485600  0.94768800  0.15703400  1
  O  O167  1  0.16967900  0.99271100  0.03279100  1
