# generated using pymatgen
data_CsTb2Cu3Se5
_symmetry_space_group_name_H-M   'P 1'
_cell_length_a   7.63987211
_cell_length_b   7.63987211
_cell_length_c   17.50683800
_cell_angle_alpha   90.00000000
_cell_angle_beta   90.00000000
_cell_angle_gamma   148.47636302
_symmetry_Int_Tables_number   1
_chemical_formula_structural   CsTb2Cu3Se5
_chemical_formula_sum   'Cs2 Tb4 Cu6 Se10'
_cell_volume   534.26561925
_cell_formula_units_Z   2
loop_
 _symmetry_equiv_pos_site_id
 _symmetry_equiv_pos_as_xyz
  1  'x, y, z'
loop_
 _atom_site_type_symbol
 _atom_site_label
 _atom_site_symmetry_multiplicity
 _atom_site_fract_x
 _atom_site_fract_y
 _atom_site_fract_z
 _atom_site_occupancy
  Cs  Cs0  1  0.93937800  0.06062200  0.25000000  1
  Cs  Cs1  1  0.06062200  0.93937800  0.75000000  1
  Tb  Tb2  1  0.19211000  0.80789000  0.40896200  1
  Tb  Tb3  1  0.19211000  0.80789000  0.09103800  1
  Tb  Tb4  1  0.80789000  0.19211000  0.59103800  1
  Tb  Tb5  1  0.80789000  0.19211000  0.90896200  1
  Cu  Cu6  1  0.58468200  0.41531800  0.52966900  1
  Cu  Cu7  1  0.41531800  0.58468200  0.47033100  1
  Cu  Cu8  1  0.34110200  0.65889800  0.75000000  1
  Cu  Cu9  1  0.65889800  0.34110200  0.25000000  1
  Cu  Cu10  1  0.58468200  0.41531800  0.97033100  1
  Cu  Cu11  1  0.41531800  0.58468200  0.02966900  1
  Se  Se12  1  0.43993000  0.56007000  0.88823700  1
  Se  Se13  1  0.83289100  0.16710900  0.07011800  1
  Se  Se14  1  0.43993000  0.56007000  0.61176300  1
  Se  Se15  1  0.16710900  0.83289100  0.57011800  1
  Se  Se16  1  0.83289100  0.16710900  0.42988200  1
  Se  Se17  1  0.16710900  0.83289100  0.92988200  1
  Se  Se18  1  0.76242000  0.23758000  0.75000000  1
  Se  Se19  1  0.23758000  0.76242000  0.25000000  1
  Se  Se20  1  0.56007000  0.43993000  0.38823700  1
  Se  Se21  1  0.56007000  0.43993000  0.11176300  1
