# generated using pymatgen
data_HCl
_symmetry_space_group_name_H-M   'P 1'
_cell_length_a   4.38379929
_cell_length_b   4.38379929
_cell_length_c   5.36819200
_cell_angle_alpha   90.00000000
_cell_angle_beta   90.00000000
_cell_angle_gamma   105.38490036
_symmetry_Int_Tables_number   1
_chemical_formula_structural   HCl
_chemical_formula_sum   'H2 Cl2'
_cell_volume   99.46742755
_cell_formula_units_Z   2
loop_
 _symmetry_equiv_pos_site_id
 _symmetry_equiv_pos_as_xyz
  1  'x, y, z'
loop_
 _atom_site_type_symbol
 _atom_site_label
 _atom_site_symmetry_multiplicity
 _atom_site_fract_x
 _atom_site_fract_y
 _atom_site_fract_z
 _atom_site_occupancy
  H  H0  1  0.06583800  0.06583800  0.67920500  1
  H  H1  1  0.93416200  0.93416200  0.17920500  1
  Cl  Cl2  1  0.22075200  0.22075200  0.49079500  1
  Cl  Cl3  1  0.77924800  0.77924800  0.99079500  1
