# generated using pymatgen
data_Cs10(Mo2N5)3
_symmetry_space_group_name_H-M   'P 1'
_cell_length_a   12.30917994
_cell_length_b   12.30917994
_cell_length_c   12.30917941
_cell_angle_alpha   65.52872328
_cell_angle_beta   65.52872328
_cell_angle_gamma   65.52872507
_symmetry_Int_Tables_number   1
_chemical_formula_structural   Cs10(Mo2N5)3
_chemical_formula_sum   'Cs20 Mo12 N30'
_cell_volume   1477.24888657
_cell_formula_units_Z   2
loop_
 _symmetry_equiv_pos_site_id
 _symmetry_equiv_pos_as_xyz
  1  'x, y, z'
loop_
 _atom_site_type_symbol
 _atom_site_label
 _atom_site_symmetry_multiplicity
 _atom_site_fract_x
 _atom_site_fract_y
 _atom_site_fract_z
 _atom_site_occupancy
  Cs  Cs0  1  0.44350800  0.55685600  0.17450500  1
  Cs  Cs1  1  0.17450500  0.44350800  0.55685600  1
  Cs  Cs2  1  0.55685600  0.17450500  0.44350800  1
  Cs  Cs3  1  0.25000000  0.42282800  0.07717200  1
  Cs  Cs4  1  0.07717200  0.25000000  0.42282800  1
  Cs  Cs5  1  0.42282800  0.07717200  0.25000000  1
  Cs  Cs6  1  0.05649200  0.32549500  0.94314400  1
  Cs  Cs7  1  0.94314400  0.05649200  0.32549500  1
  Cs  Cs8  1  0.32549500  0.94314400  0.05649200  1
  Cs  Cs9  1  0.00000000  0.00000000  0.00000000  1
  Cs  Cs10  1  0.67450500  0.05685600  0.94350800  1
  Cs  Cs11  1  0.05685600  0.94350800  0.67450500  1
  Cs  Cs12  1  0.94350800  0.67450500  0.05685600  1
  Cs  Cs13  1  0.57717200  0.92282800  0.75000000  1
  Cs  Cs14  1  0.92282800  0.75000000  0.57717200  1
  Cs  Cs15  1  0.75000000  0.57717200  0.92282800  1
  Cs  Cs16  1  0.44314400  0.82549500  0.55649200  1
  Cs  Cs17  1  0.82549500  0.55649200  0.44314400  1
  Cs  Cs18  1  0.55649200  0.44314400  0.82549500  1
  Cs  Cs19  1  0.50000000  0.50000000  0.50000000  1
  Mo  Mo20  1  0.25336500  0.79358700  0.40094600  1
  Mo  Mo21  1  0.79358700  0.40094600  0.25336500  1
  Mo  Mo22  1  0.40094600  0.25336500  0.79358700  1
  Mo  Mo23  1  0.70641300  0.24663500  0.09905400  1
  Mo  Mo24  1  0.90094600  0.29358700  0.75336500  1
  Mo  Mo25  1  0.24663500  0.09905400  0.70641300  1
  Mo  Mo26  1  0.75336500  0.90094600  0.29358700  1
  Mo  Mo27  1  0.09905400  0.70641300  0.24663500  1
  Mo  Mo28  1  0.29358700  0.75336500  0.90094600  1
  Mo  Mo29  1  0.59905400  0.74663500  0.20641300  1
  Mo  Mo30  1  0.20641300  0.59905400  0.74663500  1
  Mo  Mo31  1  0.74663500  0.20641300  0.59905400  1
  N  N32  1  0.42740300  0.76419400  0.30575400  1
  N  N33  1  0.30575400  0.42740300  0.76419400  1
  N  N34  1  0.76419400  0.30575400  0.42740300  1
  N  N35  1  0.10687800  0.54559900  0.31206700  1
  N  N36  1  0.25000000  0.66800900  0.83199100  1
  N  N37  1  0.54559900  0.31206700  0.10687800  1
  N  N38  1  0.95440100  0.39312200  0.18793300  1
  N  N39  1  0.83199100  0.25000000  0.66800900  1
  N  N40  1  0.31206700  0.10687800  0.54559900  1
  N  N41  1  0.39312200  0.18793300  0.95440100  1
  N  N42  1  0.66800900  0.83199100  0.25000000  1
  N  N43  1  0.18793300  0.95440100  0.39312200  1
  N  N44  1  0.80575400  0.26419400  0.92740300  1
  N  N45  1  0.07259700  0.19424600  0.73580600  1
  N  N46  1  0.73580600  0.07259700  0.19424600  1
  N  N47  1  0.26419400  0.92740300  0.80575400  1
  N  N48  1  0.92740300  0.80575400  0.26419400  1
  N  N49  1  0.19424600  0.73580600  0.07259700  1
  N  N50  1  0.81206700  0.04559900  0.60687800  1
  N  N51  1  0.33199100  0.16800900  0.75000000  1
  N  N52  1  0.60687800  0.81206700  0.04559900  1
  N  N53  1  0.68793300  0.89312200  0.45440100  1
  N  N54  1  0.16800900  0.75000000  0.33199100  1
  N  N55  1  0.04559900  0.60687800  0.81206700  1
  N  N56  1  0.45440100  0.68793300  0.89312200  1
  N  N57  1  0.75000000  0.33199100  0.16800900  1
  N  N58  1  0.89312200  0.45440100  0.68793300  1
  N  N59  1  0.23580600  0.69424600  0.57259700  1
  N  N60  1  0.69424600  0.57259700  0.23580600  1
  N  N61  1  0.57259700  0.23580600  0.69424600  1
