# generated using pymatgen
data_CeTl2P2S7
_symmetry_space_group_name_H-M   'P 1'
_cell_length_a   6.78721800
_cell_length_b   9.39871400
_cell_length_c   20.90288211
_cell_angle_alpha   71.09155895
_cell_angle_beta   90.00000000
_cell_angle_gamma   90.00000000
_symmetry_Int_Tables_number   1
_chemical_formula_structural   CeTl2P2S7
_chemical_formula_sum   'Ce4 Tl8 P8 S28'
_cell_volume   1261.46386474
_cell_formula_units_Z   4
loop_
 _symmetry_equiv_pos_site_id
 _symmetry_equiv_pos_as_xyz
  1  'x, y, z'
loop_
 _atom_site_type_symbol
 _atom_site_label
 _atom_site_symmetry_multiplicity
 _atom_site_fract_x
 _atom_site_fract_y
 _atom_site_fract_z
 _atom_site_occupancy
  Ce  Ce0  1  0.97579300  0.33838800  0.84780100  1
  Ce  Ce1  1  0.47579300  0.66161200  0.65219900  1
  Ce  Ce2  1  0.02420700  0.66161200  0.15219900  1
  Ce  Ce3  1  0.52420700  0.33838800  0.34780100  1
  Tl  Tl4  1  0.49141600  0.82240500  0.31408700  1
  Tl  Tl5  1  0.98633500  0.75424900  0.49021800  1
  Tl  Tl6  1  0.51366500  0.75424900  0.99021800  1
  Tl  Tl7  1  0.00858400  0.82240500  0.81408700  1
  Tl  Tl8  1  0.01366500  0.24575100  0.50978200  1
  Tl  Tl9  1  0.50858400  0.17759500  0.68591300  1
  Tl  Tl10  1  0.99141600  0.17759500  0.18591300  1
  Tl  Tl11  1  0.48633500  0.24575100  0.00978200  1
  P  P12  1  0.01095500  0.43168900  0.66606800  1
  P  P13  1  0.50689500  0.03297500  0.54693900  1
  P  P14  1  0.51095500  0.56831100  0.83393200  1
  P  P15  1  0.48904500  0.43168900  0.16606800  1
  P  P16  1  0.99310500  0.03297500  0.04693900  1
  P  P17  1  0.00689500  0.96702500  0.95306100  1
  P  P18  1  0.98904500  0.56831100  0.33393200  1
  P  P19  1  0.49310500  0.96702500  0.45306100  1
  S  S20  1  0.74360200  0.92555700  0.59942700  1
  S  S21  1  0.75639800  0.92555700  0.09942700  1
  S  S22  1  0.24360200  0.07444300  0.90057300  1
  S  S23  1  0.00131400  0.77705200  0.26516800  1
  S  S24  1  0.05766500  0.58706100  0.71673000  1
  S  S25  1  0.76191900  0.47537800  0.60719900  1
  S  S26  1  0.75952800  0.05355200  0.89968400  1
  S  S27  1  0.26191900  0.52462200  0.89280100  1
  S  S28  1  0.74047200  0.05355200  0.39968400  1
  S  S29  1  0.02068600  0.74246800  0.98852600  1
  S  S30  1  0.55766500  0.41293900  0.78327000  1
  S  S31  1  0.52068600  0.25753200  0.51147400  1
  S  S32  1  0.23808100  0.52462200  0.39280100  1
  S  S33  1  0.25952800  0.94644800  0.60031600  1
  S  S34  1  0.25310900  0.45137800  0.10209200  1
  S  S35  1  0.74689100  0.54862200  0.89790800  1
  S  S36  1  0.24689100  0.45137800  0.60209200  1
  S  S37  1  0.24047200  0.94644800  0.10031600  1
  S  S38  1  0.50131400  0.22294800  0.23483200  1
  S  S39  1  0.73808100  0.47537800  0.10719900  1
  S  S40  1  0.44233500  0.58706100  0.21673000  1
  S  S41  1  0.97931400  0.25753200  0.01147400  1
  S  S42  1  0.49868600  0.77705200  0.76516800  1
  S  S43  1  0.47931400  0.74246800  0.48852600  1
  S  S44  1  0.94233500  0.41293900  0.28327000  1
  S  S45  1  0.99868600  0.22294800  0.73483200  1
  S  S46  1  0.75310900  0.54862200  0.39790800  1
  S  S47  1  0.25639800  0.07444300  0.40057300  1
