# generated using pymatgen
data_Sr11In3Ga4
_symmetry_space_group_name_H-M   'P 1'
_cell_length_a   12.34468291
_cell_length_b   12.34468291
_cell_length_c   12.34468291
_cell_angle_alpha   60.00000000
_cell_angle_beta   60.00000000
_cell_angle_gamma   60.00000000
_symmetry_Int_Tables_number   1
_chemical_formula_structural   Sr11In3Ga4
_chemical_formula_sum   'Sr22 In6 Ga8'
_cell_volume   1330.22412354
_cell_formula_units_Z   2
loop_
 _symmetry_equiv_pos_site_id
 _symmetry_equiv_pos_as_xyz
  1  'x, y, z'
loop_
 _atom_site_type_symbol
 _atom_site_label
 _atom_site_symmetry_multiplicity
 _atom_site_fract_x
 _atom_site_fract_y
 _atom_site_fract_z
 _atom_site_occupancy
  Sr  Sr0  1  0.00000000  0.66464200  0.00000000  1
  Sr  Sr1  1  0.00000000  0.66464200  0.33535800  1
  Sr  Sr2  1  0.66464200  0.00000000  0.00000000  1
  Sr  Sr3  1  0.10202400  0.63265900  0.63265900  1
  Sr  Sr4  1  0.89797600  0.36734100  0.36734100  1
  Sr  Sr5  1  0.63265900  0.63265900  0.10202400  1
  Sr  Sr6  1  0.00000000  0.33535800  0.66464200  1
  Sr  Sr7  1  0.63265900  0.63265900  0.63265900  1
  Sr  Sr8  1  0.63265900  0.10202400  0.63265900  1
  Sr  Sr9  1  0.00000000  0.00000000  0.00000000  1
  Sr  Sr10  1  0.66464200  0.00000000  0.33535800  1
  Sr  Sr11  1  0.00000000  0.00000000  0.33535800  1
  Sr  Sr12  1  0.33535800  0.66464200  0.00000000  1
  Sr  Sr13  1  0.33535800  0.00000000  0.00000000  1
  Sr  Sr14  1  0.36734100  0.36734100  0.89797600  1
  Sr  Sr15  1  0.00000000  0.33535800  0.00000000  1
  Sr  Sr16  1  0.33535800  0.00000000  0.66464200  1
  Sr  Sr17  1  0.00000000  0.00000000  0.66464200  1
  Sr  Sr18  1  0.66464200  0.33535800  0.00000000  1
  Sr  Sr19  1  0.36734100  0.89797600  0.36734100  1
  Sr  Sr20  1  0.50000000  0.50000000  0.50000000  1
  Sr  Sr21  1  0.36734100  0.36734100  0.36734100  1
  In  In22  1  0.71720900  0.71720900  0.28279100  1
  In  In23  1  0.28279100  0.71720900  0.28279100  1
  In  In24  1  0.28279100  0.71720900  0.71720900  1
  In  In25  1  0.28279100  0.28279100  0.71720900  1
  In  In26  1  0.71720900  0.28279100  0.71720900  1
  In  In27  1  0.71720900  0.28279100  0.28279100  1
  Ga  Ga28  1  0.80618400  0.80618400  0.58144700  1
  Ga  Ga29  1  0.19381600  0.19381600  0.19381600  1
  Ga  Ga30  1  0.19381600  0.41855300  0.19381600  1
  Ga  Ga31  1  0.80618400  0.58144700  0.80618400  1
  Ga  Ga32  1  0.58144700  0.80618400  0.80618400  1
  Ga  Ga33  1  0.41855300  0.19381600  0.19381600  1
  Ga  Ga34  1  0.80618400  0.80618400  0.80618400  1
  Ga  Ga35  1  0.19381600  0.19381600  0.41855300  1
