# generated using pymatgen
data_Mg7P2(HO2)8
_symmetry_space_group_name_H-M   'P 1'
_cell_length_a   11.74683000
_cell_length_b   5.31895700
_cell_length_c   10.60147642
_cell_angle_alpha   66.66735707
_cell_angle_beta   90.00000000
_cell_angle_gamma   90.00000000
_symmetry_Int_Tables_number   1
_chemical_formula_structural   Mg7P2(HO2)8
_chemical_formula_sum   'Mg14 P4 H16 O32'
_cell_volume   608.21997451
_cell_formula_units_Z   2
loop_
 _symmetry_equiv_pos_site_id
 _symmetry_equiv_pos_as_xyz
  1  'x, y, z'
loop_
 _atom_site_type_symbol
 _atom_site_label
 _atom_site_symmetry_multiplicity
 _atom_site_fract_x
 _atom_site_fract_y
 _atom_site_fract_z
 _atom_site_occupancy
  Mg  Mg0  1  0.50000000  0.00000000  0.50000000  1
  Mg  Mg1  1  0.00000000  0.00000000  0.00000000  1
  Mg  Mg2  1  0.67488500  0.95003100  0.28911000  1
  Mg  Mg3  1  0.82511500  0.95003100  0.78911000  1
  Mg  Mg4  1  0.32511500  0.04996900  0.71089000  1
  Mg  Mg5  1  0.17488500  0.04996900  0.21089000  1
  Mg  Mg6  1  0.92954100  0.74719400  0.50390600  1
  Mg  Mg7  1  0.57045900  0.74719400  0.00390600  1
  Mg  Mg8  1  0.07045900  0.25280600  0.49609400  1
  Mg  Mg9  1  0.42954100  0.25280600  0.99609400  1
  Mg  Mg10  1  0.71018600  0.25248900  0.00559700  1
  Mg  Mg11  1  0.78981400  0.25248900  0.50559700  1
  Mg  Mg12  1  0.28981400  0.74751100  0.99440300  1
  Mg  Mg13  1  0.21018600  0.74751100  0.49440300  1
  P  P14  1  0.08053000  0.68271700  0.78804700  1
  P  P15  1  0.41947000  0.68271700  0.28804700  1
  P  P16  1  0.91947000  0.31728300  0.21195300  1
  P  P17  1  0.58053000  0.31728300  0.71195300  1
  H  H18  1  0.52369800  0.30057400  0.19581900  1
  H  H19  1  0.97630200  0.30057400  0.69581900  1
  H  H20  1  0.47630200  0.69942600  0.80418100  1
  H  H21  1  0.02369800  0.69942600  0.30418100  1
  H  H22  1  0.37215400  0.65732300  0.64938200  1
  H  H23  1  0.12784600  0.65732300  0.14938200  1
  H  H24  1  0.62784600  0.34267700  0.35061800  1
  H  H25  1  0.87215400  0.34267700  0.85061800  1
  H  H26  1  0.83637300  0.67444200  0.30763900  1
  H  H27  1  0.66362700  0.67444200  0.80763900  1
  H  H28  1  0.16362700  0.32555800  0.69236100  1
  H  H29  1  0.33637300  0.32555800  0.19236100  1
  H  H30  1  0.75261500  0.74304200  0.12397600  1
  H  H31  1  0.74738500  0.74304200  0.62397600  1
  H  H32  1  0.24738500  0.25695800  0.87602400  1
  H  H33  1  0.25261500  0.25695800  0.37602400  1
  O  O34  1  0.79633800  0.66547200  0.39092300  1
  O  O35  1  0.70366200  0.66547200  0.89092300  1
  O  O36  1  0.20366200  0.33452800  0.60907700  1
  O  O37  1  0.29633800  0.33452800  0.10907700  1
  O  O38  1  0.07023700  0.81415200  0.62502200  1
  O  O39  1  0.42976300  0.81415200  0.12502200  1
  O  O40  1  0.92976300  0.18584800  0.37497800  1
  O  O41  1  0.57023700  0.18584800  0.87497800  1
  O  O42  1  0.34705600  0.83918400  0.58751500  1
  O  O43  1  0.15294400  0.83918400  0.08751500  1
  O  O44  1  0.65294400  0.16081600  0.41248500  1
  O  O45  1  0.84705600  0.16081600  0.91248500  1
  O  O46  1  0.19917500  0.75657000  0.82600200  1
  O  O47  1  0.30082500  0.75657000  0.32600200  1
  O  O48  1  0.80082500  0.24343000  0.17399800  1
  O  O49  1  0.69917500  0.24343000  0.67399800  1
  O  O50  1  0.56249200  0.31758500  0.11076600  1
  O  O51  1  0.93750800  0.31758500  0.61076600  1
  O  O52  1  0.43750800  0.68241500  0.88923400  1
  O  O53  1  0.06249200  0.68241500  0.38923400  1
  O  O54  1  0.68193600  0.84042600  0.12374600  1
  O  O55  1  0.81806400  0.84042600  0.62374600  1
  O  O56  1  0.31806400  0.15957400  0.87625400  1
  O  O57  1  0.18193600  0.15957400  0.37625400  1
  O  O58  1  0.98661200  0.79908100  0.85326800  1
  O  O59  1  0.51338800  0.79908100  0.35326800  1
  O  O60  1  0.01338800  0.20091900  0.14673200  1
  O  O61  1  0.48661200  0.20091900  0.64673200  1
  O  O62  1  0.06931900  0.36708600  0.83475500  1
  O  O63  1  0.43068100  0.36708600  0.33475500  1
  O  O64  1  0.93068100  0.63291400  0.16524500  1
  O  O65  1  0.56931900  0.63291400  0.66524500  1
