# generated using pymatgen
data_K3SnHF8
_symmetry_space_group_name_H-M   'P 1'
_cell_length_a   8.44870933
_cell_length_b   8.44870933
_cell_length_c   6.95966777
_cell_angle_alpha   88.71384291
_cell_angle_beta   88.71384291
_cell_angle_gamma   115.15692499
_symmetry_Int_Tables_number   1
_chemical_formula_structural   K3SnHF8
_chemical_formula_sum   'K6 Sn2 H2 F16'
_cell_volume   449.26996549
_cell_formula_units_Z   2
loop_
 _symmetry_equiv_pos_site_id
 _symmetry_equiv_pos_as_xyz
  1  'x, y, z'
loop_
 _atom_site_type_symbol
 _atom_site_label
 _atom_site_symmetry_multiplicity
 _atom_site_fract_x
 _atom_site_fract_y
 _atom_site_fract_z
 _atom_site_occupancy
  K  K0  1  0.65471400  0.34528600  0.75000000  1
  K  K1  1  0.34528600  0.65471400  0.25000000  1
  K  K2  1  0.67780300  0.87486300  0.72092000  1
  K  K3  1  0.12513700  0.32219700  0.77908000  1
  K  K4  1  0.32219700  0.12513700  0.27908000  1
  K  K5  1  0.87486300  0.67780300  0.22092000  1
  Sn  Sn6  1  0.82238900  0.17761100  0.25000000  1
  Sn  Sn7  1  0.17761100  0.82238900  0.75000000  1
  H  H8  1  0.50000000  0.50000000  0.50000000  1
  H  H9  1  0.50000000  0.50000000  0.00000000  1
  F  F10  1  0.60106000  0.96301300  0.31273300  1
  F  F11  1  0.03698700  0.39894000  0.18726700  1
  F  F12  1  0.39894000  0.03698700  0.68726700  1
  F  F13  1  0.96301300  0.60106000  0.81273300  1
  F  F14  1  0.60276100  0.64133800  0.01546100  1
  F  F15  1  0.35866200  0.39723900  0.48453900  1
  F  F16  1  0.39723900  0.35866200  0.98453900  1
  F  F17  1  0.64133800  0.60276100  0.51546100  1
  F  F18  1  0.96288900  0.03711100  0.25000000  1
  F  F19  1  0.03711100  0.96288900  0.75000000  1
  F  F20  1  0.68175100  0.31824900  0.25000000  1
  F  F21  1  0.31824900  0.68175100  0.75000000  1
  F  F22  1  0.78516900  0.14503400  0.96545700  1
  F  F23  1  0.85496600  0.21483100  0.53454300  1
  F  F24  1  0.21483100  0.85496600  0.03454300  1
  F  F25  1  0.14503400  0.78516900  0.46545700  1
