# generated using pymatgen
data_NaHoF4
_symmetry_space_group_name_H-M   'P 1'
_cell_length_a   6.62571305
_cell_length_b   6.62571305
_cell_length_c   6.62571305
_cell_angle_alpha   131.27738516
_cell_angle_beta   131.27738516
_cell_angle_gamma   71.37274117
_symmetry_Int_Tables_number   1
_chemical_formula_structural   NaHoF4
_chemical_formula_sum   'Na2 Ho2 F8'
_cell_volume   160.78970450
_cell_formula_units_Z   2
loop_
 _symmetry_equiv_pos_site_id
 _symmetry_equiv_pos_as_xyz
  1  'x, y, z'
loop_
 _atom_site_type_symbol
 _atom_site_label
 _atom_site_symmetry_multiplicity
 _atom_site_fract_x
 _atom_site_fract_y
 _atom_site_fract_z
 _atom_site_occupancy
  Na  Na0  1  0.00000000  0.00000000  0.00000000  1
  Na  Na1  1  0.75000000  0.25000000  0.50000000  1
  Ho  Ho2  1  0.50000000  0.50000000  0.00000000  1
  Ho  Ho3  1  0.25000000  0.75000000  0.50000000  1
  F  F4  1  0.60456100  0.12500000  0.97956100  1
  F  F5  1  0.87500000  0.39543900  0.02043900  1
  F  F6  1  0.37500000  0.39543900  0.52043900  1
  F  F7  1  0.14543900  0.62500000  0.02043900  1
  F  F8  1  0.37500000  0.85456100  0.97956100  1
  F  F9  1  0.87500000  0.85456100  0.47956100  1
  F  F10  1  0.14543900  0.12500000  0.52043900  1
  F  F11  1  0.60456100  0.62500000  0.47956100  1
