# generated using pymatgen
data_Dy3Co
_symmetry_space_group_name_H-M   'P 1'
_cell_length_a   6.22285200
_cell_length_b   6.90262200
_cell_length_c   9.38809800
_cell_angle_alpha   90.00000000
_cell_angle_beta   90.00000000
_cell_angle_gamma   90.00000000
_symmetry_Int_Tables_number   1
_chemical_formula_structural   Dy3Co
_chemical_formula_sum   'Dy12 Co4'
_cell_volume   403.25631566
_cell_formula_units_Z   4
loop_
 _symmetry_equiv_pos_site_id
 _symmetry_equiv_pos_as_xyz
  1  'x, y, z'
loop_
 _atom_site_type_symbol
 _atom_site_label
 _atom_site_symmetry_multiplicity
 _atom_site_fract_x
 _atom_site_fract_y
 _atom_site_fract_z
 _atom_site_occupancy
  Dy  Dy0  1  0.13918900  0.45560700  0.75000000  1
  Dy  Dy1  1  0.67562800  0.32301100  0.93281200  1
  Dy  Dy2  1  0.36081100  0.95560700  0.75000000  1
  Dy  Dy3  1  0.86081100  0.54439300  0.25000000  1
  Dy  Dy4  1  0.63918900  0.04439300  0.25000000  1
  Dy  Dy5  1  0.17562800  0.17698900  0.43281200  1
  Dy  Dy6  1  0.82437200  0.82301100  0.56718800  1
  Dy  Dy7  1  0.17562800  0.17698900  0.06718800  1
  Dy  Dy8  1  0.82437200  0.82301100  0.93281200  1
  Dy  Dy9  1  0.67562800  0.32301100  0.56718800  1
  Dy  Dy10  1  0.32437200  0.67698900  0.06718800  1
  Dy  Dy11  1  0.32437200  0.67698900  0.43281200  1
  Co  Co12  1  0.54713300  0.60856900  0.75000000  1
  Co  Co13  1  0.95286700  0.10856900  0.75000000  1
  Co  Co14  1  0.04713300  0.89143100  0.25000000  1
  Co  Co15  1  0.45286700  0.39143100  0.25000000  1
