# generated using pymatgen
data_Zn3As2
_symmetry_space_group_name_H-M   'P 1'
_cell_length_a   11.91786100
_cell_length_b   11.91786100
_cell_length_c   23.87169300
_cell_angle_alpha   90.00000000
_cell_angle_beta   90.00000000
_cell_angle_gamma   90.00000000
_symmetry_Int_Tables_number   1
_chemical_formula_structural   Zn3As2
_chemical_formula_sum   'Zn96 As64'
_cell_volume   3390.62572211
_cell_formula_units_Z   32
loop_
 _symmetry_equiv_pos_site_id
 _symmetry_equiv_pos_as_xyz
  1  'x, y, z'
loop_
 _atom_site_type_symbol
 _atom_site_label
 _atom_site_symmetry_multiplicity
 _atom_site_fract_x
 _atom_site_fract_y
 _atom_site_fract_z
 _atom_site_occupancy
  Zn  Zn0  1  0.13730900  0.89133200  0.07087800  1
  Zn  Zn1  1  0.63839400  0.86164100  0.55461700  1
  Zn  Zn2  1  0.39534000  0.62645800  0.93747500  1
  Zn  Zn3  1  0.36164100  0.36160600  0.94538300  1
  Zn  Zn4  1  0.85965400  0.14010800  0.19564000  1
  Zn  Zn5  1  0.88654600  0.63260200  0.32016200  1
  Zn  Zn6  1  0.14034600  0.64010800  0.19564000  1
  Zn  Zn7  1  0.36269100  0.89133200  0.92912200  1
  Zn  Zn8  1  0.87354200  0.39534000  0.43747500  1
  Zn  Zn9  1  0.12645800  0.60466000  0.56252500  1
  Zn  Zn10  1  0.37354200  0.60466000  0.43747500  1
  Zn  Zn11  1  0.63730900  0.10866800  0.07087800  1
  Zn  Zn12  1  0.13839400  0.13835900  0.55461700  1
  Zn  Zn13  1  0.63730900  0.39133200  0.92912200  1
  Zn  Zn14  1  0.10466000  0.87354200  0.93747500  1
  Zn  Zn15  1  0.87008800  0.89631800  0.31203600  1
  Zn  Zn16  1  0.10466000  0.62645800  0.06252500  1
  Zn  Zn17  1  0.89534000  0.37354200  0.93747500  1
  Zn  Zn18  1  0.62645800  0.39534000  0.56252500  1
  Zn  Zn19  1  0.60866800  0.36269100  0.42912200  1
  Zn  Zn20  1  0.35989200  0.64034600  0.30436000  1
  Zn  Zn21  1  0.86739800  0.88654600  0.82016200  1
  Zn  Zn22  1  0.12991200  0.39631800  0.31203600  1
  Zn  Zn23  1  0.35965400  0.64010800  0.80436000  1
  Zn  Zn24  1  0.63839400  0.63835900  0.44538300  1
  Zn  Zn25  1  0.13839400  0.36164100  0.44538300  1
  Zn  Zn26  1  0.39631800  0.37008800  0.81203600  1
  Zn  Zn27  1  0.88654600  0.86739800  0.67983800  1
  Zn  Zn28  1  0.89534000  0.12645800  0.06252500  1
  Zn  Zn29  1  0.11345400  0.36739800  0.67983800  1
  Zn  Zn30  1  0.86269100  0.39133200  0.07087800  1
  Zn  Zn31  1  0.63835900  0.86160600  0.94538300  1
  Zn  Zn32  1  0.35965400  0.85989200  0.19564000  1
  Zn  Zn33  1  0.64010800  0.35965400  0.69564000  1
  Zn  Zn34  1  0.36269100  0.60866800  0.07087800  1
  Zn  Zn35  1  0.35989200  0.85965400  0.69564000  1
  Zn  Zn36  1  0.10866800  0.86269100  0.57087800  1
  Zn  Zn37  1  0.14034600  0.85989200  0.80436000  1
  Zn  Zn38  1  0.87008800  0.60368200  0.68796400  1
  Zn  Zn39  1  0.13835900  0.13839400  0.94538300  1
  Zn  Zn40  1  0.89631800  0.62991200  0.81203600  1
  Zn  Zn41  1  0.13260200  0.11345400  0.17983800  1
  Zn  Zn42  1  0.60368200  0.87008800  0.81203600  1
  Zn  Zn43  1  0.14010800  0.85965400  0.30436000  1
  Zn  Zn44  1  0.39534000  0.87354200  0.06252500  1
  Zn  Zn45  1  0.89133200  0.13730900  0.42912200  1
  Zn  Zn46  1  0.85989200  0.35965400  0.30436000  1
  Zn  Zn47  1  0.86160600  0.86164100  0.44538300  1
  Zn  Zn48  1  0.85965400  0.35989200  0.80436000  1
  Zn  Zn49  1  0.62991200  0.60368200  0.31203600  1
  Zn  Zn50  1  0.86160600  0.63835900  0.55461700  1
  Zn  Zn51  1  0.13835900  0.36160600  0.05461700  1
  Zn  Zn52  1  0.62645800  0.10466000  0.43747500  1
  Zn  Zn53  1  0.89631800  0.87008800  0.18796400  1
  Zn  Zn54  1  0.10866800  0.63730900  0.42912200  1
  Zn  Zn55  1  0.36160600  0.36164100  0.55461700  1
  Zn  Zn56  1  0.61345400  0.63260200  0.67983800  1
  Zn  Zn57  1  0.86739800  0.61345400  0.17983800  1
  Zn  Zn58  1  0.60466000  0.12645800  0.93747500  1
  Zn  Zn59  1  0.36739800  0.11345400  0.82016200  1
  Zn  Zn60  1  0.86269100  0.10866800  0.92912200  1
  Zn  Zn61  1  0.60466000  0.37354200  0.06252500  1
  Zn  Zn62  1  0.13730900  0.60866800  0.92912200  1
  Zn  Zn63  1  0.89133200  0.36269100  0.57087800  1
  Zn  Zn64  1  0.11345400  0.13260200  0.32016200  1
  Zn  Zn65  1  0.13260200  0.38654600  0.82016200  1
  Zn  Zn66  1  0.86164100  0.86160600  0.05461700  1
  Zn  Zn67  1  0.64034600  0.35989200  0.19564000  1
  Zn  Zn68  1  0.63835900  0.63839400  0.05461700  1
  Zn  Zn69  1  0.14010800  0.64034600  0.69564000  1
  Zn  Zn70  1  0.37008800  0.39631800  0.68796400  1
  Zn  Zn71  1  0.37008800  0.10368200  0.31203600  1
  Zn  Zn72  1  0.37354200  0.89534000  0.56252500  1
  Zn  Zn73  1  0.38654600  0.13260200  0.67983800  1
  Zn  Zn74  1  0.60368200  0.62991200  0.18796400  1
  Zn  Zn75  1  0.36164100  0.13839400  0.05461700  1
  Zn  Zn76  1  0.12645800  0.89534000  0.43747500  1
  Zn  Zn77  1  0.87354200  0.10466000  0.56252500  1
  Zn  Zn78  1  0.62991200  0.89631800  0.68796400  1
  Zn  Zn79  1  0.60866800  0.13730900  0.57087800  1
  Zn  Zn80  1  0.64034600  0.14010800  0.80436000  1
  Zn  Zn81  1  0.85989200  0.14034600  0.69564000  1
  Zn  Zn82  1  0.39133200  0.63730900  0.57087800  1
  Zn  Zn83  1  0.39631800  0.12991200  0.18796400  1
  Zn  Zn84  1  0.38654600  0.36739800  0.32016200  1
  Zn  Zn85  1  0.64010800  0.14034600  0.30436000  1
  Zn  Zn86  1  0.61345400  0.86739800  0.32016200  1
  Zn  Zn87  1  0.86164100  0.63839400  0.94538300  1
  Zn  Zn88  1  0.36160600  0.13835900  0.44538300  1
  Zn  Zn89  1  0.36739800  0.38654600  0.17983800  1
  Zn  Zn90  1  0.10368200  0.12991200  0.81203600  1
  Zn  Zn91  1  0.10368200  0.37008800  0.18796400  1
  Zn  Zn92  1  0.63260200  0.61345400  0.82016200  1
  Zn  Zn93  1  0.12991200  0.10368200  0.68796400  1
  Zn  Zn94  1  0.39133200  0.86269100  0.42912200  1
  Zn  Zn95  1  0.63260200  0.88654600  0.17983800  1
  As  As96  1  0.75526700  0.99868100  0.75247100  1
  As  As97  1  0.25000000  0.75000000  0.62458600  1
  As  As98  1  0.50059000  0.75000000  0.00000000  1
  As  As99  1  0.00118500  0.00453600  0.62543700  1
  As  As100  1  0.49546400  0.00118500  0.12543700  1
  As  As101  1  0.99736800  0.25000000  0.50000000  1
  As  As102  1  0.99868100  0.74473300  0.25247100  1
  As  As103  1  0.49868100  0.25526700  0.25247100  1
  As  As104  1  0.25000000  0.25000000  0.62520900  1
  As  As105  1  0.75000000  0.99941000  0.50000000  1
  As  As106  1  0.24473300  0.00131900  0.24752900  1
  As  As107  1  0.49736800  0.75000000  0.50000000  1
  As  As108  1  0.00059000  0.25000000  0.00000000  1
  As  As109  1  0.99546400  0.50118500  0.87456300  1
  As  As110  1  0.25000000  0.99736800  0.00000000  1
  As  As111  1  0.75000000  0.25000000  0.62458600  1
  As  As112  1  0.25000000  0.49941000  0.50000000  1
  As  As113  1  0.49881500  0.00453600  0.37456300  1
  As  As114  1  0.74473300  0.50131900  0.75247100  1
  As  As115  1  0.99868100  0.75526700  0.74752900  1
  As  As116  1  0.99546400  0.99881500  0.12543700  1
  As  As117  1  0.25526700  0.00131900  0.75247100  1
  As  As118  1  0.00263200  0.75000000  0.50000000  1
  As  As119  1  0.49881500  0.49546400  0.62543700  1
  As  As120  1  0.75000000  0.75000000  0.62520900  1
  As  As121  1  0.25000000  0.50263200  0.00000000  1
  As  As122  1  0.99941000  0.75000000  0.00000000  1
  As  As123  1  0.25000000  0.25000000  0.87479100  1
  As  As124  1  0.25000000  0.00059000  0.50000000  1
  As  As125  1  0.75000000  0.75000000  0.37479100  1
  As  As126  1  0.24473300  0.49868100  0.75247100  1
  As  As127  1  0.75000000  0.49736800  0.00000000  1
  As  As128  1  0.75000000  0.50059000  0.50000000  1
  As  As129  1  0.00118500  0.49546400  0.37456300  1
  As  As130  1  0.00453600  0.00118500  0.87456300  1
  As  As131  1  0.75000000  0.75000000  0.87479100  1
  As  As132  1  0.00131900  0.24473300  0.25247100  1
  As  As133  1  0.99881500  0.99546400  0.37456300  1
  As  As134  1  0.50131900  0.75526700  0.25247100  1
  As  As135  1  0.75000000  0.25000000  0.37541400  1
  As  As136  1  0.25000000  0.75000000  0.37541400  1
  As  As137  1  0.49546400  0.49881500  0.87456300  1
  As  As138  1  0.50453600  0.50118500  0.12543700  1
  As  As139  1  0.99881500  0.50453600  0.62543700  1
  As  As140  1  0.50453600  0.99881500  0.87456300  1
  As  As141  1  0.25526700  0.49868100  0.24752900  1
  As  As142  1  0.25000000  0.75000000  0.87541400  1
  As  As143  1  0.74473300  0.99868100  0.24752900  1
  As  As144  1  0.50131900  0.74473300  0.74752900  1
  As  As145  1  0.75000000  0.25000000  0.12458600  1
  As  As146  1  0.75000000  0.25000000  0.87541400  1
  As  As147  1  0.50118500  0.99546400  0.62543700  1
  As  As148  1  0.49868100  0.24473300  0.74752900  1
  As  As149  1  0.00453600  0.49881500  0.12543700  1
  As  As150  1  0.75000000  0.00263200  0.00000000  1
  As  As151  1  0.75000000  0.75000000  0.12520900  1
  As  As152  1  0.25000000  0.25000000  0.12520900  1
  As  As153  1  0.00131900  0.25526700  0.74752900  1
  As  As154  1  0.50118500  0.50453600  0.37456300  1
  As  As155  1  0.49941000  0.25000000  0.00000000  1
  As  As156  1  0.75526700  0.50131900  0.24752900  1
  As  As157  1  0.25000000  0.75000000  0.12458600  1
  As  As158  1  0.25000000  0.25000000  0.37479100  1
  As  As159  1  0.50263200  0.25000000  0.50000000  1
