# generated using pymatgen
data_Sm10Pd21
_symmetry_space_group_name_H-M   'P 1'
_cell_length_a   5.85822704
_cell_length_b   12.93272275
_cell_length_c   16.74887994
_cell_angle_alpha   90.76199335
_cell_angle_beta   90.01206766
_cell_angle_gamma   103.08606454
_symmetry_Int_Tables_number   1
_chemical_formula_structural   Sm10Pd21
_chemical_formula_sum   'Sm20 Pd42'
_cell_volume   1235.87332669
_cell_formula_units_Z   2
loop_
 _symmetry_equiv_pos_site_id
 _symmetry_equiv_pos_as_xyz
  1  'x, y, z'
loop_
 _atom_site_type_symbol
 _atom_site_label
 _atom_site_symmetry_multiplicity
 _atom_site_fract_x
 _atom_site_fract_y
 _atom_site_fract_z
 _atom_site_occupancy
  Sm  Sm0  1  0.53421100  0.06739400  0.27984900  1
  Sm  Sm1  1  0.31449200  0.62826500  0.19845000  1
  Sm  Sm2  1  0.46923500  0.93216500  0.72007300  1
  Sm  Sm3  1  0.42988300  0.85772000  0.01901200  1
  Sm  Sm4  1  0.72203500  0.44810800  0.07905900  1
  Sm  Sm5  1  0.23581700  0.47328400  0.64827500  1
  Sm  Sm6  1  0.27408900  0.55233700  0.92147000  1
  Sm  Sm7  1  0.14270000  0.28769800  0.35578100  1
  Sm  Sm8  1  0.64689700  0.29689500  0.51962500  1
  Sm  Sm9  1  0.88211300  0.76267700  0.86976700  1
  Sm  Sm10  1  0.04373600  0.08421200  0.59421000  1
  Sm  Sm11  1  0.34933800  0.70287900  0.48114200  1
  Sm  Sm12  1  0.92561100  0.85156000  0.18656200  1
  Sm  Sm13  1  0.57124100  0.14305500  0.98078400  1
  Sm  Sm14  1  0.07263900  0.14759700  0.81331600  1
  Sm  Sm15  1  0.95791500  0.91534100  0.40602500  1
  Sm  Sm16  1  0.11884400  0.23761700  0.13094700  1
  Sm  Sm17  1  0.76151600  0.52496100  0.35249600  1
  Sm  Sm18  1  0.68687300  0.37147800  0.80306300  1
  Sm  Sm19  1  0.85404900  0.71225500  0.64444000  1
  Pd  Pd20  1  0.06856000  0.66928700  0.04663100  1
  Pd  Pd21  1  0.14899000  0.30175800  0.52473200  1
  Pd  Pd22  1  0.38412200  0.76703900  0.83902400  1
  Pd  Pd23  1  0.03792100  0.07438800  0.27245600  1
  Pd  Pd24  1  0.31241800  0.11235300  0.43989500  1
  Pd  Pd25  1  0.63966800  0.28126200  0.33685600  1
  Pd  Pd26  1  0.61585900  0.23226300  0.16088500  1
  Pd  Pd27  1  0.73785200  0.47743800  0.64504900  1
  Pd  Pd28  1  0.96572900  0.92512500  0.72833100  1
  Pd  Pd29  1  0.37791900  0.25502300  0.67684400  1
  Pd  Pd30  1  0.25976300  0.52206100  0.35618600  1
  Pd  Pd31  1  0.05981500  0.12012100  0.98299400  1
  Pd  Pd32  1  0.81315600  0.62468200  0.19702000  1
  Pd  Pd33  1  0.84623500  0.69735700  0.47541800  1
  Pd  Pd34  1  0.76720400  0.53982000  0.92163500  1
  Pd  Pd35  1  0.27225700  0.03198400  0.11645000  1
  Pd  Pd36  1  0.59972500  0.66945100  0.04722100  1
  Pd  Pd37  1  0.44722000  0.40603300  0.22735600  1
  Pd  Pd38  1  0.35605200  0.71769800  0.66381300  1
  Pd  Pd39  1  0.76278200  0.03229000  0.11730300  1
  Pd  Pd40  1  0.56644200  0.13510200  0.79112300  1
  Pd  Pd41  1  0.54552200  0.08804400  0.59195400  1
  Pd  Pd42  1  0.18835200  0.37401300  0.80387400  1
  Pd  Pd43  1  0.87633800  0.25496600  0.67671100  1
  Pd  Pd44  1  0.24022600  0.96829700  0.88297600  1
  Pd  Pd45  1  0.99805600  0.50005600  0.50068000  1
  Pd  Pd46  1  0.20132400  0.88757400  0.55987900  1
  Pd  Pd47  1  0.62160800  0.74401600  0.32376000  1
  Pd  Pd48  1  0.95576900  0.40623000  0.22714300  1
  Pd  Pd49  1  0.39929700  0.33205000  0.95422800  1
  Pd  Pd50  1  0.22917800  0.46212300  0.07947700  1
  Pd  Pd51  1  0.94259100  0.88253600  0.01706100  1
  Pd  Pd52  1  0.43169700  0.86437000  0.20911100  1
  Pd  Pd53  1  0.12212400  0.74418700  0.32381400  1
  Pd  Pd54  1  0.45600100  0.91107700  0.40724100  1
  Pd  Pd55  1  0.80021900  0.11253600  0.44007000  1
  Pd  Pd56  1  0.93067100  0.33206600  0.95415800  1
  Pd  Pd57  1  0.73021800  0.96804200  0.88333000  1
  Pd  Pd58  1  0.49799700  0.49960900  0.50045200  1
  Pd  Pd59  1  0.04054700  0.59294600  0.77325700  1
  Pd  Pd60  1  0.54962800  0.59305800  0.77317700  1
  Pd  Pd61  1  0.68863500  0.88742700  0.55963600  1
