# generated using pymatgen
data_Na2Cd3Si3O10
_symmetry_space_group_name_H-M   'P 1'
_cell_length_a   8.79468504
_cell_length_b   8.79468504
_cell_length_c   11.15158499
_cell_angle_alpha   85.80098076
_cell_angle_beta   85.80098076
_cell_angle_gamma   34.30727356
_symmetry_Int_Tables_number   1
_chemical_formula_structural   Na2Cd3Si3O10
_chemical_formula_sum   'Na4 Cd6 Si6 O20'
_cell_volume   484.72242413
_cell_formula_units_Z   2
loop_
 _symmetry_equiv_pos_site_id
 _symmetry_equiv_pos_as_xyz
  1  'x, y, z'
loop_
 _atom_site_type_symbol
 _atom_site_label
 _atom_site_symmetry_multiplicity
 _atom_site_fract_x
 _atom_site_fract_y
 _atom_site_fract_z
 _atom_site_occupancy
  Na  Na0  1  0.18875200  0.71539100  0.46781900  1
  Na  Na1  1  0.28460900  0.81124800  0.03218100  1
  Na  Na2  1  0.81124800  0.28460900  0.53218100  1
  Na  Na3  1  0.71539100  0.18875200  0.96781900  1
  Cd  Cd4  1  0.37056800  0.94640600  0.29488500  1
  Cd  Cd5  1  0.05359400  0.62943200  0.20511500  1
  Cd  Cd6  1  0.62943200  0.05359400  0.70511500  1
  Cd  Cd7  1  0.94640600  0.37056800  0.79488500  1
  Cd  Cd8  1  0.00000000  0.50000000  0.50000000  1
  Cd  Cd9  1  0.50000000  0.00000000  0.00000000  1
  Si  Si10  1  0.54155600  0.15734200  0.39844200  1
  Si  Si11  1  0.84265800  0.45844400  0.10155800  1
  Si  Si12  1  0.45844400  0.84265800  0.60155800  1
  Si  Si13  1  0.15734200  0.54155600  0.89844200  1
  Si  Si14  1  0.81943500  0.18056500  0.25000000  1
  Si  Si15  1  0.18056500  0.81943500  0.75000000  1
  O  O16  1  0.84829300  0.83648400  0.39595200  1
  O  O17  1  0.16351600  0.15170700  0.10404800  1
  O  O18  1  0.15170700  0.16351600  0.60404800  1
  O  O19  1  0.83648400  0.84829300  0.89595200  1
  O  O20  1  0.31485500  0.24659600  0.32876600  1
  O  O21  1  0.75340400  0.68514500  0.17123400  1
  O  O22  1  0.68514500  0.75340400  0.67123400  1
  O  O23  1  0.24659600  0.31485500  0.82876600  1
  O  O24  1  0.55129500  0.32451600  0.32668900  1
  O  O25  1  0.67548400  0.44870500  0.17331100  1
  O  O26  1  0.44870500  0.67548400  0.67331100  1
  O  O27  1  0.32451600  0.55129500  0.82668900  1
  O  O28  1  0.03170400  0.05955800  0.34773500  1
  O  O29  1  0.94044200  0.96829600  0.15226500  1
  O  O30  1  0.96829600  0.94044200  0.65226500  1
  O  O31  1  0.05955800  0.03170400  0.84773500  1
  O  O32  1  0.70888000  0.58749400  0.96785000  1
  O  O33  1  0.41250600  0.29112000  0.53215000  1
  O  O34  1  0.29112000  0.41250600  0.03215000  1
  O  O35  1  0.58749400  0.70888000  0.46785000  1
