# generated using pymatgen
data_Hf6Fe16Si7
_symmetry_space_group_name_H-M   'P 1'
_cell_length_a   8.06112903
_cell_length_b   8.06112903
_cell_length_c   8.06112903
_cell_angle_alpha   60.00000000
_cell_angle_beta   60.00000000
_cell_angle_gamma   60.00000000
_symmetry_Int_Tables_number   1
_chemical_formula_structural   Hf6Fe16Si7
_chemical_formula_sum   'Hf6 Fe16 Si7'
_cell_volume   370.40140047
_cell_formula_units_Z   1
loop_
 _symmetry_equiv_pos_site_id
 _symmetry_equiv_pos_as_xyz
  1  'x, y, z'
loop_
 _atom_site_type_symbol
 _atom_site_label
 _atom_site_symmetry_multiplicity
 _atom_site_fract_x
 _atom_site_fract_y
 _atom_site_fract_z
 _atom_site_occupancy
  Hf  Hf0  1  0.29528400  0.70471600  0.70471600  1
  Hf  Hf1  1  0.70471600  0.70471600  0.29528400  1
  Hf  Hf2  1  0.29528400  0.29528400  0.70471600  1
  Hf  Hf3  1  0.70471600  0.29528400  0.29528400  1
  Hf  Hf4  1  0.70471600  0.29528400  0.70471600  1
  Hf  Hf5  1  0.29528400  0.70471600  0.29528400  1
  Fe  Fe6  1  0.87895700  0.87895700  0.87895700  1
  Fe  Fe7  1  0.02648100  0.32450600  0.32450600  1
  Fe  Fe8  1  0.12104300  0.12104300  0.63687000  1
  Fe  Fe9  1  0.32450600  0.02648100  0.32450600  1
  Fe  Fe10  1  0.32450600  0.32450600  0.32450600  1
  Fe  Fe11  1  0.67549400  0.67549400  0.97351900  1
  Fe  Fe12  1  0.87895700  0.87895700  0.36313000  1
  Fe  Fe13  1  0.67549400  0.67549400  0.67549400  1
  Fe  Fe14  1  0.67549400  0.97351900  0.67549400  1
  Fe  Fe15  1  0.32450600  0.32450600  0.02648100  1
  Fe  Fe16  1  0.87895700  0.36313000  0.87895700  1
  Fe  Fe17  1  0.63687000  0.12104300  0.12104300  1
  Fe  Fe18  1  0.12104300  0.63687000  0.12104300  1
  Fe  Fe19  1  0.12104300  0.12104300  0.12104300  1
  Fe  Fe20  1  0.97351900  0.67549400  0.67549400  1
  Fe  Fe21  1  0.36313000  0.87895700  0.87895700  1
  Si  Si22  1  0.00000000  0.00000000  0.50000000  1
  Si  Si23  1  0.00000000  0.50000000  0.00000000  1
  Si  Si24  1  0.00000000  0.00000000  0.00000000  1
  Si  Si25  1  0.50000000  0.00000000  0.50000000  1
  Si  Si26  1  0.00000000  0.50000000  0.50000000  1
  Si  Si27  1  0.50000000  0.00000000  0.00000000  1
  Si  Si28  1  0.50000000  0.50000000  0.00000000  1
