# generated using pymatgen
data_KCaNd(PO4)2
_symmetry_space_group_name_H-M   'P 1'
_cell_length_a   7.09125167
_cell_length_b   7.09125167
_cell_length_c   12.90141300
_cell_angle_alpha   90.00000000
_cell_angle_beta   90.00000000
_cell_angle_gamma   119.99999696
_symmetry_Int_Tables_number   1
_chemical_formula_structural   KCaNd(PO4)2
_chemical_formula_sum   'K3 Ca3 Nd3 P6 O24'
_cell_volume   561.84137889
_cell_formula_units_Z   3
loop_
 _symmetry_equiv_pos_site_id
 _symmetry_equiv_pos_as_xyz
  1  'x, y, z'
loop_
 _atom_site_type_symbol
 _atom_site_label
 _atom_site_symmetry_multiplicity
 _atom_site_fract_x
 _atom_site_fract_y
 _atom_site_fract_z
 _atom_site_occupancy
  K  K0  1  0.00000000  0.00000000  0.24721000  1
  K  K1  1  0.00000000  0.00000000  0.58054400  1
  K  K2  1  0.00000000  0.00000000  0.91387700  1
  Ca  Ca3  1  0.00000000  0.50000000  0.83144200  1
  Ca  Ca4  1  0.50000000  0.50000000  0.16477500  1
  Ca  Ca5  1  0.50000000  0.00000000  0.49810800  1
  Nd  Nd6  1  0.50000000  0.50000000  0.66845800  1
  Nd  Nd7  1  0.50000000  0.00000000  0.00179100  1
  Nd  Nd8  1  0.00000000  0.50000000  0.33512500  1
  P  P9  1  0.50000000  0.50000000  0.41908800  1
  P  P10  1  0.50000000  0.50000000  0.91468700  1
  P  P11  1  0.50000000  0.00000000  0.24802000  1
  P  P12  1  0.50000000  0.00000000  0.75242200  1
  P  P13  1  0.00000000  0.50000000  0.08575500  1
  P  P14  1  0.00000000  0.50000000  0.58135400  1
  O  O15  1  0.13418600  0.69722600  0.01314100  1
  O  O16  1  0.13559800  0.69665200  0.50804500  1
  O  O17  1  0.30209200  0.86569900  0.32018100  1
  O  O18  1  0.30392200  0.86455900  0.82652400  1
  O  O19  1  0.13544100  0.43936300  0.15985700  1
  O  O20  1  0.13430100  0.43639300  0.65351400  1
  O  O21  1  0.30277400  0.43696100  0.34647400  1
  O  O22  1  0.30334800  0.43894600  0.84137800  1
  O  O23  1  0.56105400  0.86440200  0.17471200  1
  O  O24  1  0.56303900  0.86581400  0.67980700  1
  O  O25  1  0.56063700  0.69607800  0.49319100  1
  O  O26  1  0.56360700  0.69790800  0.98684700  1
  O  O27  1  0.43936300  0.30392200  0.49319100  1
  O  O28  1  0.43639300  0.30209200  0.98684700  1
  O  O29  1  0.43894600  0.13559800  0.17471200  1
  O  O30  1  0.43696100  0.13418600  0.67980700  1
  O  O31  1  0.69722600  0.56303900  0.34647400  1
  O  O32  1  0.69665200  0.56105400  0.84137800  1
  O  O33  1  0.86455900  0.56063700  0.15985700  1
  O  O34  1  0.86569900  0.56360700  0.65351400  1
  O  O35  1  0.69790800  0.13430100  0.32018100  1
  O  O36  1  0.69607800  0.13544100  0.82652400  1
  O  O37  1  0.86440200  0.30334800  0.50804500  1
  O  O38  1  0.86581400  0.30277400  0.01314100  1
