# generated using pymatgen
data_LiEuPS4
_symmetry_space_group_name_H-M   'P 1'
_cell_length_a   12.92306501
_cell_length_b   12.92306501
_cell_length_c   12.92306501
_cell_angle_alpha   126.86211881
_cell_angle_beta   126.86211881
_cell_angle_gamma   78.47574411
_symmetry_Int_Tables_number   1
_chemical_formula_structural   LiEuPS4
_chemical_formula_sum   'Li8 Eu8 P8 S32'
_cell_volume   1337.64478554
_cell_formula_units_Z   8
loop_
 _symmetry_equiv_pos_site_id
 _symmetry_equiv_pos_as_xyz
  1  'x, y, z'
loop_
 _atom_site_type_symbol
 _atom_site_label
 _atom_site_symmetry_multiplicity
 _atom_site_fract_x
 _atom_site_fract_y
 _atom_site_fract_z
 _atom_site_occupancy
  Li  Li0  1  0.90845700  0.37500000  0.03345700  1
  Li  Li1  1  0.62500000  0.15845700  0.03345700  1
  Li  Li2  1  0.12500000  0.59154300  0.96654300  1
  Li  Li3  1  0.84154300  0.87500000  0.46654300  1
  Li  Li4  1  0.34154300  0.87500000  0.96654300  1
  Li  Li5  1  0.62500000  0.65845700  0.53345700  1
  Li  Li6  1  0.12500000  0.09154300  0.46654300  1
  Li  Li7  1  0.40845700  0.37500000  0.53345700  1
  Eu  Eu8  1  0.25000000  0.25000000  0.00000000  1
  Eu  Eu9  1  0.75000000  0.75000000  0.00000000  1
  Eu  Eu10  1  0.25000000  0.75000000  0.50000000  1
  Eu  Eu11  1  0.75000000  0.25000000  0.50000000  1
  Eu  Eu12  1  0.00000000  0.00000000  0.00000000  1
  Eu  Eu13  1  0.50000000  0.50000000  0.00000000  1
  Eu  Eu14  1  0.00000000  0.50000000  0.50000000  1
  Eu  Eu15  1  0.50000000  0.00000000  0.50000000  1
  P  P16  1  0.65967200  0.37500000  0.78467200  1
  P  P17  1  0.09032800  0.87500000  0.71532800  1
  P  P18  1  0.62500000  0.40967200  0.28467200  1
  P  P19  1  0.62500000  0.90967200  0.78467200  1
  P  P20  1  0.15967200  0.37500000  0.28467200  1
  P  P21  1  0.12500000  0.34032800  0.71532800  1
  P  P22  1  0.12500000  0.84032800  0.21532800  1
  P  P23  1  0.59032800  0.87500000  0.21532800  1
  S  S24  1  0.03732100  0.35647900  0.81372600  1
  S  S25  1  0.49336100  0.72886900  0.96737700  1
  S  S26  1  0.27598400  0.74336100  0.26449200  1
  S  S27  1  0.21267900  0.52640500  0.81915800  1
  S  S28  1  0.47886900  0.01149200  0.73550800  1
  S  S29  1  0.97886900  0.24336100  0.46737700  1
  S  S30  1  0.27113100  0.23850800  0.76449200  1
  S  S31  1  0.77113100  0.00663900  0.03262300  1
  S  S32  1  0.98850800  0.72401600  0.46737700  1
  S  S33  1  0.48850800  0.02113100  0.26449200  1
  S  S34  1  0.75663900  0.22401600  0.73550800  1
  S  S35  1  0.77640500  0.96267900  0.31915800  1
  S  S36  1  0.77598400  0.51149200  0.53262300  1
  S  S37  1  0.14352100  0.46267900  0.18627400  1
  S  S38  1  0.71267900  0.89352100  0.68627400  1
  S  S39  1  0.04275200  0.85647900  0.31915800  1
  S  S40  1  0.27640500  0.95724800  0.81372600  1
  S  S41  1  0.76149200  0.52598400  0.03262300  1
  S  S42  1  0.20724800  0.02640500  0.31372600  1
  S  S43  1  0.25663900  0.52113100  0.53262300  1
  S  S44  1  0.47401600  0.50663900  0.23550800  1
  S  S45  1  0.60647900  0.78732100  0.31372600  1
  S  S46  1  0.64352100  0.45724800  0.68084200  1
  S  S47  1  0.53732100  0.72359500  0.68084200  1
  S  S48  1  0.26149200  0.22886900  0.23550800  1
  S  S49  1  0.47359500  0.29275200  0.68627400  1
  S  S50  1  0.54275200  0.22359500  0.18627400  1
  S  S51  1  0.99336100  0.02598400  0.76449200  1
  S  S52  1  0.10647900  0.79275200  0.81915800  1
  S  S53  1  0.97359500  0.28732100  0.18084200  1
  S  S54  1  0.70724800  0.39352100  0.18084200  1
  S  S55  1  0.97401600  0.73850800  0.96737700  1
