# generated using pymatgen
data_Li4H6Os
_symmetry_space_group_name_H-M   'P 1'
_cell_length_a   5.86375349
_cell_length_b   5.86375349
_cell_length_c   5.86375354
_cell_angle_alpha   89.77692222
_cell_angle_beta   89.77692222
_cell_angle_gamma   89.77691347
_symmetry_Int_Tables_number   1
_chemical_formula_structural   Li4H6Os
_chemical_formula_sum   'Li8 H12 Os2'
_cell_volume   201.61241305
_cell_formula_units_Z   2
loop_
 _symmetry_equiv_pos_site_id
 _symmetry_equiv_pos_as_xyz
  1  'x, y, z'
loop_
 _atom_site_type_symbol
 _atom_site_label
 _atom_site_symmetry_multiplicity
 _atom_site_fract_x
 _atom_site_fract_y
 _atom_site_fract_z
 _atom_site_occupancy
  Li  Li0  1  0.25000000  0.25000000  0.25000000  1
  Li  Li1  1  0.75000000  0.75000000  0.75000000  1
  Li  Li2  1  0.84167900  0.65832100  0.25000000  1
  Li  Li3  1  0.25000000  0.84167900  0.65832100  1
  Li  Li4  1  0.65832100  0.25000000  0.84167900  1
  Li  Li5  1  0.75000000  0.15832100  0.34167900  1
  Li  Li6  1  0.34167900  0.75000000  0.15832100  1
  Li  Li7  1  0.15832100  0.34167900  0.75000000  1
  H  H8  1  0.21212500  0.54198900  0.45057300  1
  H  H9  1  0.45057300  0.21212500  0.54198900  1
  H  H10  1  0.54198900  0.45057300  0.21212500  1
  H  H11  1  0.95057300  0.04198900  0.71212500  1
  H  H12  1  0.71212500  0.95057300  0.04198900  1
  H  H13  1  0.04198900  0.71212500  0.95057300  1
  H  H14  1  0.78787500  0.45801100  0.54942700  1
  H  H15  1  0.54942700  0.78787500  0.45801100  1
  H  H16  1  0.45801100  0.54942700  0.78787500  1
  H  H17  1  0.04942700  0.95801100  0.28787500  1
  H  H18  1  0.28787500  0.04942700  0.95801100  1
  H  H19  1  0.95801100  0.28787500  0.04942700  1
  Os  Os20  1  0.50000000  0.50000000  0.50000000  1
  Os  Os21  1  0.00000000  0.00000000  0.00000000  1
