# generated using pymatgen
data_Rb2Cd2(SO4)3
_symmetry_space_group_name_H-M   'P 1'
_cell_length_a   10.59517800
_cell_length_b   10.59517800
_cell_length_c   10.59517800
_cell_angle_alpha   90.00000000
_cell_angle_beta   90.00000000
_cell_angle_gamma   90.00000000
_symmetry_Int_Tables_number   1
_chemical_formula_structural   Rb2Cd2(SO4)3
_chemical_formula_sum   'Rb8 Cd8 S12 O48'
_cell_volume   1189.39133953
_cell_formula_units_Z   4
loop_
 _symmetry_equiv_pos_site_id
 _symmetry_equiv_pos_as_xyz
  1  'x, y, z'
loop_
 _atom_site_type_symbol
 _atom_site_label
 _atom_site_symmetry_multiplicity
 _atom_site_fract_x
 _atom_site_fract_y
 _atom_site_fract_z
 _atom_site_occupancy
  Rb  Rb0  1  0.43776000  0.93776000  0.56224000  1
  Rb  Rb1  1  0.56224000  0.43776000  0.93776000  1
  Rb  Rb2  1  0.69849600  0.80150400  0.19849600  1
  Rb  Rb3  1  0.93776000  0.56224000  0.43776000  1
  Rb  Rb4  1  0.30150400  0.30150400  0.30150400  1
  Rb  Rb5  1  0.19849600  0.69849600  0.80150400  1
  Rb  Rb6  1  0.80150400  0.19849600  0.69849600  1
  Rb  Rb7  1  0.06224000  0.06224000  0.06224000  1
  Cd  Cd8  1  0.41891000  0.08109000  0.91891000  1
  Cd  Cd9  1  0.91891000  0.41891000  0.08109000  1
  Cd  Cd10  1  0.08109000  0.91891000  0.41891000  1
  Cd  Cd11  1  0.58109000  0.58109000  0.58109000  1
  Cd  Cd12  1  0.16432900  0.33567100  0.66432900  1
  Cd  Cd13  1  0.33567100  0.66432900  0.16432900  1
  Cd  Cd14  1  0.83567100  0.83567100  0.83567100  1
  Cd  Cd15  1  0.66432900  0.16432900  0.33567100  1
  S  S16  1  0.37432600  0.97633800  0.23639900  1
  S  S17  1  0.87432600  0.52366200  0.76360100  1
  S  S18  1  0.62567400  0.47633800  0.26360100  1
  S  S19  1  0.52366200  0.76360100  0.87432600  1
  S  S20  1  0.26360100  0.62567400  0.47633800  1
  S  S21  1  0.76360100  0.87432600  0.52366200  1
  S  S22  1  0.97633800  0.23639900  0.37432600  1
  S  S23  1  0.23639900  0.37432600  0.97633800  1
  S  S24  1  0.47633800  0.26360100  0.62567400  1
  S  S25  1  0.12567400  0.02366200  0.73639900  1
  S  S26  1  0.73639900  0.12567400  0.02366200  1
  S  S27  1  0.02366200  0.73639900  0.12567400  1
  O  O28  1  0.33660900  0.00350500  0.10379600  1
  O  O29  1  0.83660900  0.49649500  0.89620400  1
  O  O30  1  0.66339100  0.50350500  0.39620400  1
  O  O31  1  0.49649500  0.89620400  0.83660900  1
  O  O32  1  0.39620400  0.66339100  0.50350500  1
  O  O33  1  0.89620400  0.83660900  0.49649500  1
  O  O34  1  0.00350500  0.10379600  0.33660900  1
  O  O35  1  0.10379600  0.33660900  0.00350500  1
  O  O36  1  0.50350500  0.39620400  0.66339100  1
  O  O37  1  0.99649500  0.60379600  0.16339100  1
  O  O38  1  0.60379600  0.16339100  0.99649500  1
  O  O39  1  0.16339100  0.99649500  0.60379600  1
  O  O40  1  0.26174200  0.99406200  0.31899800  1
  O  O41  1  0.76174200  0.50593800  0.68100200  1
  O  O42  1  0.73825800  0.49406200  0.18100200  1
  O  O43  1  0.50593800  0.68100200  0.76174200  1
  O  O44  1  0.18100200  0.73825800  0.49406200  1
  O  O45  1  0.68100200  0.76174200  0.50593800  1
  O  O46  1  0.25225300  0.57643900  0.34416100  1
  O  O47  1  0.99406200  0.31899800  0.26174200  1
  O  O48  1  0.49406200  0.18100200  0.73825800  1
  O  O49  1  0.00593800  0.81899800  0.23825800  1
  O  O50  1  0.81899800  0.23825800  0.00593800  1
  O  O51  1  0.23825800  0.00593800  0.81899800  1
  O  O52  1  0.42356100  0.84416100  0.24774700  1
  O  O53  1  0.92356100  0.65583900  0.75225300  1
  O  O54  1  0.57643900  0.34416100  0.25225300  1
  O  O55  1  0.65583900  0.75225300  0.92356100  1
  O  O56  1  0.02654600  0.93492300  0.78031100  1
  O  O57  1  0.78031100  0.02654600  0.93492300  1
  O  O58  1  0.93492300  0.78031100  0.02654600  1
  O  O59  1  0.56507700  0.21968900  0.52654600  1
  O  O60  1  0.28031100  0.47345400  0.06507700  1
  O  O61  1  0.06507700  0.28031100  0.47345400  1
  O  O62  1  0.71968900  0.97345400  0.43492300  1
  O  O63  1  0.21968900  0.52654600  0.56507700  1
  O  O64  1  0.43492300  0.71968900  0.97345400  1
  O  O65  1  0.52654600  0.56507700  0.21968900  1
  O  O66  1  0.97345400  0.43492300  0.71968900  1
  O  O67  1  0.47345400  0.06507700  0.28031100  1
  O  O68  1  0.07643900  0.15583900  0.74774700  1
  O  O69  1  0.74774700  0.07643900  0.15583900  1
  O  O70  1  0.15583900  0.74774700  0.07643900  1
  O  O71  1  0.34416100  0.25225300  0.57643900  1
  O  O72  1  0.24774700  0.42356100  0.84416100  1
  O  O73  1  0.84416100  0.24774700  0.42356100  1
  O  O74  1  0.75225300  0.92356100  0.65583900  1
  O  O75  1  0.31899800  0.26174200  0.99406200  1
