# generated using pymatgen
data_Al2Si(O2F)2
_symmetry_space_group_name_H-M   'P 1'
_cell_length_a   4.70801500
_cell_length_b   8.49746300
_cell_length_c   8.88879200
_cell_angle_alpha   90.00000000
_cell_angle_beta   90.00000000
_cell_angle_gamma   90.00000000
_symmetry_Int_Tables_number   1
_chemical_formula_structural   Al2Si(O2F)2
_chemical_formula_sum   'Al8 Si4 O16 F8'
_cell_volume   355.60664176
_cell_formula_units_Z   4
loop_
 _symmetry_equiv_pos_site_id
 _symmetry_equiv_pos_as_xyz
  1  'x, y, z'
loop_
 _atom_site_type_symbol
 _atom_site_label
 _atom_site_symmetry_multiplicity
 _atom_site_fract_x
 _atom_site_fract_y
 _atom_site_fract_z
 _atom_site_occupancy
  Al  Al0  1  0.09716000  0.91675800  0.13049400  1
  Al  Al1  1  0.59716000  0.08324200  0.36950600  1
  Al  Al2  1  0.90284000  0.41675800  0.86950600  1
  Al  Al3  1  0.40284000  0.58324200  0.63049400  1
  Al  Al4  1  0.59716000  0.41675800  0.36950600  1
  Al  Al5  1  0.09716000  0.58324200  0.13049400  1
  Al  Al6  1  0.40284000  0.91675800  0.63049400  1
  Al  Al7  1  0.90284000  0.08324200  0.86950600  1
  Si  Si8  1  0.60365500  0.75000000  0.93994800  1
  Si  Si9  1  0.10365500  0.25000000  0.56005200  1
  Si  Si10  1  0.39634500  0.25000000  0.06005200  1
  Si  Si11  1  0.89634500  0.75000000  0.43994800  1
  O  O12  1  0.45992700  0.25000000  0.24404200  1
  O  O13  1  0.79157600  0.59285300  0.98851700  1
  O  O14  1  0.70842400  0.90714700  0.48851700  1
  O  O15  1  0.20842400  0.09285300  0.01148300  1
  O  O16  1  0.95992700  0.75000000  0.25595800  1
  O  O17  1  0.29157600  0.40714700  0.51148300  1
  O  O18  1  0.04007300  0.25000000  0.74404200  1
  O  O19  1  0.54007300  0.75000000  0.75595800  1
  O  O20  1  0.70842400  0.59285300  0.48851700  1
  O  O21  1  0.20842400  0.40714700  0.01148300  1
  O  O22  1  0.29157600  0.09285300  0.51148300  1
  O  O23  1  0.79157600  0.90714700  0.98851700  1
  O  O24  1  0.20126300  0.75000000  0.53269700  1
  O  O25  1  0.70126300  0.25000000  0.96730300  1
  O  O26  1  0.79873700  0.25000000  0.46730300  1
  O  O27  1  0.29873700  0.75000000  0.03269700  1
  F  F28  1  0.09866700  0.94432200  0.75239500  1
  F  F29  1  0.59866700  0.05567800  0.74760500  1
  F  F30  1  0.59866700  0.44432200  0.74760500  1
  F  F31  1  0.40133300  0.55567800  0.25239500  1
  F  F32  1  0.90133300  0.05567800  0.24760500  1
  F  F33  1  0.40133300  0.94432200  0.25239500  1
  F  F34  1  0.09866700  0.55567800  0.75239500  1
  F  F35  1  0.90133300  0.44432200  0.24760500  1
