# generated using pymatgen
data_YB4
_symmetry_space_group_name_H-M   'P 1'
_cell_length_a   7.11262800
_cell_length_b   7.11262800
_cell_length_c   4.02709000
_cell_angle_alpha   90.00000000
_cell_angle_beta   90.00000000
_cell_angle_gamma   90.00000000
_symmetry_Int_Tables_number   1
_chemical_formula_structural   YB4
_chemical_formula_sum   'Y4 B16'
_cell_volume   203.72837720
_cell_formula_units_Z   4
loop_
 _symmetry_equiv_pos_site_id
 _symmetry_equiv_pos_as_xyz
  1  'x, y, z'
loop_
 _atom_site_type_symbol
 _atom_site_label
 _atom_site_symmetry_multiplicity
 _atom_site_fract_x
 _atom_site_fract_y
 _atom_site_fract_z
 _atom_site_occupancy
  Y  Y0  1  0.18198500  0.68198500  0.00000000  1
  Y  Y1  1  0.68198500  0.81801500  0.00000000  1
  Y  Y2  1  0.31801500  0.18198500  0.00000000  1
  Y  Y3  1  0.81801500  0.31801500  0.00000000  1
  B  B4  1  0.32401700  0.46138300  0.50000000  1
  B  B5  1  0.67598300  0.53861700  0.50000000  1
  B  B6  1  0.53861700  0.32401700  0.50000000  1
  B  B7  1  0.46138300  0.67598300  0.50000000  1
  B  B8  1  0.00000000  0.00000000  0.20306800  1
  B  B9  1  0.50000000  0.50000000  0.79693200  1
  B  B10  1  0.00000000  0.00000000  0.79693200  1
  B  B11  1  0.50000000  0.50000000  0.20306800  1
  B  B12  1  0.58710400  0.08710400  0.50000000  1
  B  B13  1  0.08710400  0.41289600  0.50000000  1
  B  B14  1  0.91289600  0.58710400  0.50000000  1
  B  B15  1  0.41289600  0.91289600  0.50000000  1
  B  B16  1  0.03861700  0.17598300  0.50000000  1
  B  B17  1  0.17598300  0.96138300  0.50000000  1
  B  B18  1  0.82401700  0.03861700  0.50000000  1
  B  B19  1  0.96138300  0.82401700  0.50000000  1
