# generated using pymatgen
data_YbSeClO3
_symmetry_space_group_name_H-M   'P 1'
_cell_length_a   7.24369400
_cell_length_b   7.45258800
_cell_length_c   8.66533000
_cell_angle_alpha   90.00000000
_cell_angle_beta   90.00000000
_cell_angle_gamma   90.00000000
_symmetry_Int_Tables_number   1
_chemical_formula_structural   YbSeClO3
_chemical_formula_sum   'Yb4 Se4 Cl4 O12'
_cell_volume   467.79148819
_cell_formula_units_Z   4
loop_
 _symmetry_equiv_pos_site_id
 _symmetry_equiv_pos_as_xyz
  1  'x, y, z'
loop_
 _atom_site_type_symbol
 _atom_site_label
 _atom_site_symmetry_multiplicity
 _atom_site_fract_x
 _atom_site_fract_y
 _atom_site_fract_z
 _atom_site_occupancy
  Yb  Yb0  1  0.75000000  0.10996600  0.55332300  1
  Yb  Yb1  1  0.75000000  0.60996600  0.94667700  1
  Yb  Yb2  1  0.25000000  0.89003400  0.44667700  1
  Yb  Yb3  1  0.25000000  0.39003400  0.05332300  1
  Se  Se4  1  0.25000000  0.77026600  0.88134900  1
  Se  Se5  1  0.75000000  0.72973400  0.38134900  1
  Se  Se6  1  0.75000000  0.22973400  0.11865100  1
  Se  Se7  1  0.25000000  0.27026600  0.61865100  1
  Cl  Cl8  1  0.25000000  0.52731000  0.35298100  1
  Cl  Cl9  1  0.75000000  0.47269000  0.64701900  1
  Cl  Cl10  1  0.25000000  0.02731000  0.14701900  1
  Cl  Cl11  1  0.75000000  0.97269000  0.85298100  1
  O  O12  1  0.07111400  0.13992000  0.55820700  1
  O  O13  1  0.07111400  0.63992000  0.94179300  1
  O  O14  1  0.92888600  0.86008000  0.44179300  1
  O  O15  1  0.57111400  0.36008000  0.05820700  1
  O  O16  1  0.57111400  0.86008000  0.44179300  1
  O  O17  1  0.75000000  0.22799300  0.31293500  1
  O  O18  1  0.42888600  0.13992000  0.55820700  1
  O  O19  1  0.75000000  0.72799300  0.18706500  1
  O  O20  1  0.25000000  0.77200700  0.68706500  1
  O  O21  1  0.25000000  0.27200700  0.81293500  1
  O  O22  1  0.92888600  0.36008000  0.05820700  1
  O  O23  1  0.42888600  0.63992000  0.94179300  1
