# generated using pymatgen
data_Lu5(In2Ni)2
_symmetry_space_group_name_H-M   'P 1'
_cell_length_a   3.53172500
_cell_length_b   7.88045300
_cell_length_c   17.66641600
_cell_angle_alpha   90.00000000
_cell_angle_beta   90.00000000
_cell_angle_gamma   90.00000000
_symmetry_Int_Tables_number   1
_chemical_formula_structural   Lu5(In2Ni)2
_chemical_formula_sum   'Lu10 In8 Ni4'
_cell_volume   491.68449761
_cell_formula_units_Z   2
loop_
 _symmetry_equiv_pos_site_id
 _symmetry_equiv_pos_as_xyz
  1  'x, y, z'
loop_
 _atom_site_type_symbol
 _atom_site_label
 _atom_site_symmetry_multiplicity
 _atom_site_fract_x
 _atom_site_fract_y
 _atom_site_fract_z
 _atom_site_occupancy
  Lu  Lu0  1  0.00000000  0.88399600  0.08806900  1
  Lu  Lu1  1  0.00000000  0.75459700  0.27935000  1
  Lu  Lu2  1  0.00000000  0.74540300  0.77935000  1
  Lu  Lu3  1  0.00000000  0.38399600  0.41193100  1
  Lu  Lu4  1  0.00000000  0.11600400  0.91193100  1
  Lu  Lu5  1  0.00000000  0.24540300  0.72065000  1
  Lu  Lu6  1  0.00000000  0.50000000  0.00000000  1
  Lu  Lu7  1  0.00000000  0.25459700  0.22065000  1
  Lu  Lu8  1  0.00000000  0.61600400  0.58806900  1
  Lu  Lu9  1  0.00000000  0.00000000  0.50000000  1
  In  In10  1  0.50000000  0.20634900  0.06777400  1
  In  In11  1  0.50000000  0.42486800  0.84807000  1
  In  In12  1  0.50000000  0.57513200  0.15193000  1
  In  In13  1  0.50000000  0.07513200  0.34807000  1
  In  In14  1  0.50000000  0.92486800  0.65193000  1
  In  In15  1  0.50000000  0.79365100  0.93222600  1
  In  In16  1  0.50000000  0.70634900  0.43222600  1
  In  In17  1  0.50000000  0.29365100  0.56777400  1
  Ni  Ni18  1  0.50000000  0.97587600  0.19646300  1
  Ni  Ni19  1  0.50000000  0.02412400  0.80353700  1
  Ni  Ni20  1  0.50000000  0.52412400  0.69646300  1
  Ni  Ni21  1  0.50000000  0.47587600  0.30353700  1
