# generated using pymatgen
data_Pd(XeF8)2
_symmetry_space_group_name_H-M   'P 1'
_cell_length_a   9.56117100
_cell_length_b   9.62557300
_cell_length_c   13.14248700
_cell_angle_alpha   90.00000000
_cell_angle_beta   90.00000000
_cell_angle_gamma   90.00000000
_symmetry_Int_Tables_number   1
_chemical_formula_structural   Pd(XeF8)2
_chemical_formula_sum   'Pd4 Xe8 F64'
_cell_volume   1209.52607042
_cell_formula_units_Z   4
loop_
 _symmetry_equiv_pos_site_id
 _symmetry_equiv_pos_as_xyz
  1  'x, y, z'
loop_
 _atom_site_type_symbol
 _atom_site_label
 _atom_site_symmetry_multiplicity
 _atom_site_fract_x
 _atom_site_fract_y
 _atom_site_fract_z
 _atom_site_occupancy
  Pd  Pd0  1  0.67585900  0.24867600  0.24209600  1
  Pd  Pd1  1  0.82414100  0.74867600  0.24209600  1
  Pd  Pd2  1  0.32414100  0.74867600  0.75790400  1
  Pd  Pd3  1  0.17585900  0.24867600  0.75790400  1
  Xe  Xe4  1  0.96733500  0.96754800  0.87822500  1
  Xe  Xe5  1  0.51071400  0.02547000  0.61451000  1
  Xe  Xe6  1  0.46733500  0.96754800  0.12177500  1
  Xe  Xe7  1  0.98928600  0.52547000  0.61451000  1
  Xe  Xe8  1  0.03266500  0.46754800  0.12177500  1
  Xe  Xe9  1  0.01071400  0.02547000  0.38549000  1
  Xe  Xe10  1  0.53266500  0.46754800  0.87822500  1
  Xe  Xe11  1  0.48928600  0.52547000  0.38549000  1
  F  F12  1  0.63003100  0.39934300  0.75360500  1
  F  F13  1  0.32544100  0.58212800  0.46912000  1
  F  F14  1  0.99998400  0.76877800  0.91407200  1
  F  F15  1  0.56208800  0.47795300  0.52318300  1
  F  F16  1  0.67944400  0.33787000  0.37566300  1
  F  F17  1  0.98549900  0.50412200  0.97687700  1
  F  F18  1  0.48549900  0.50412200  0.02312300  1
  F  F19  1  0.45951900  0.61098000  0.71489000  1
  F  F20  1  0.84512000  0.66061100  0.10942800  1
  F  F21  1  0.95951900  0.61098000  0.28511000  1
  F  F22  1  0.71493400  0.41530300  0.93988800  1
  F  F23  1  0.32783600  0.11531900  0.73009600  1
  F  F24  1  0.00001600  0.26877800  0.08592800  1
  F  F25  1  0.51450100  0.00412200  0.97687700  1
  F  F26  1  0.17944400  0.33787000  0.62433700  1
  F  F27  1  0.49998400  0.76877800  0.08592800  1
  F  F28  1  0.46095200  0.22037400  0.57714000  1
  F  F29  1  0.86996900  0.89934300  0.75360500  1
  F  F30  1  0.69095600  0.89053300  0.19318500  1
  F  F31  1  0.12217000  0.85061900  0.38829500  1
  F  F32  1  0.37783000  0.35061900  0.38829500  1
  F  F33  1  0.34512000  0.66061100  0.89057200  1
  F  F34  1  0.01450100  0.00412200  0.02312300  1
  F  F35  1  0.50001600  0.26877800  0.91407200  1
  F  F36  1  0.32055600  0.83787000  0.62433700  1
  F  F37  1  0.43791200  0.97795300  0.47681700  1
  F  F38  1  0.52628000  0.38024400  0.21644000  1
  F  F39  1  0.30904400  0.39053300  0.80681500  1
  F  F40  1  0.36727200  0.60069600  0.27578400  1
  F  F41  1  0.82544100  0.58212800  0.53088000  1
  F  F42  1  0.28506600  0.91530300  0.06011200  1
  F  F43  1  0.13003100  0.39934300  0.24639500  1
  F  F44  1  0.82055600  0.83787000  0.37566300  1
  F  F45  1  0.36996900  0.89934300  0.24639500  1
  F  F46  1  0.93791200  0.97795300  0.52318300  1
  F  F47  1  0.03904800  0.72037400  0.57714000  1
  F  F48  1  0.36268500  0.14653400  0.12541700  1
  F  F49  1  0.67216400  0.61531900  0.26990400  1
  F  F50  1  0.86268500  0.14653400  0.87458300  1
  F  F51  1  0.13272800  0.10069600  0.27578400  1
  F  F52  1  0.80904400  0.39053300  0.19318500  1
  F  F53  1  0.02628000  0.38024400  0.78356000  1
  F  F54  1  0.53904800  0.72037400  0.42286000  1
  F  F55  1  0.17455900  0.08212800  0.46912000  1
  F  F56  1  0.65488000  0.16061100  0.10942800  1
  F  F57  1  0.82783600  0.11531900  0.26990400  1
  F  F58  1  0.63272800  0.10069600  0.72421600  1
  F  F59  1  0.78506600  0.91530300  0.93988800  1
  F  F60  1  0.47372000  0.88024400  0.78356000  1
  F  F61  1  0.15488000  0.16061100  0.89057200  1
  F  F62  1  0.62217000  0.85061900  0.61170500  1
  F  F63  1  0.06208800  0.47795300  0.47681700  1
  F  F64  1  0.04048100  0.11098000  0.71489000  1
  F  F65  1  0.63731500  0.64653400  0.87458300  1
  F  F66  1  0.19095600  0.89053300  0.80681500  1
  F  F67  1  0.13731500  0.64653400  0.12541700  1
  F  F68  1  0.67455900  0.08212800  0.53088000  1
  F  F69  1  0.86727200  0.60069600  0.72421600  1
  F  F70  1  0.17216400  0.61531900  0.73009600  1
  F  F71  1  0.87783000  0.35061900  0.61170500  1
  F  F72  1  0.97372000  0.88024400  0.21644000  1
  F  F73  1  0.54048100  0.11098000  0.28511000  1
  F  F74  1  0.21493400  0.41530300  0.06011200  1
  F  F75  1  0.96095200  0.22037400  0.42286000  1
