# generated using pymatgen
data_Li2SiN2
_symmetry_space_group_name_H-M   'P 1'
_cell_length_a   9.95502700
_cell_length_b   9.96700900
_cell_length_c   15.08437200
_cell_angle_alpha   90.00000000
_cell_angle_beta   90.00000000
_cell_angle_gamma   90.00000000
_symmetry_Int_Tables_number   1
_chemical_formula_structural   Li2SiN2
_chemical_formula_sum   'Li64 Si32 N64'
_cell_volume   1496.69920096
_cell_formula_units_Z   32
loop_
 _symmetry_equiv_pos_site_id
 _symmetry_equiv_pos_as_xyz
  1  'x, y, z'
loop_
 _atom_site_type_symbol
 _atom_site_label
 _atom_site_symmetry_multiplicity
 _atom_site_fract_x
 _atom_site_fract_y
 _atom_site_fract_z
 _atom_site_occupancy
  Li  Li0  1  0.39915000  0.84781600  0.62246800  1
  Li  Li1  1  0.29171500  0.02770300  0.87545700  1
  Li  Li2  1  0.63806600  0.70432100  0.12134000  1
  Li  Li3  1  0.95755200  0.61924000  0.87357500  1
  Li  Li4  1  0.39686000  0.93876900  0.47865200  1
  Li  Li5  1  0.67157900  0.16213200  0.22780100  1
  Li  Li6  1  0.20828500  0.97229700  0.37545700  1
  Li  Li7  1  0.80866700  0.39407500  0.28424300  1
  Li  Li8  1  0.36398000  0.42208900  0.53742300  1
  Li  Li9  1  0.70828500  0.97229700  0.12454300  1
  Li  Li10  1  0.63602000  0.57791100  0.46257700  1
  Li  Li11  1  0.13806600  0.70432100  0.37866000  1
  Li  Li12  1  0.13806600  0.79567900  0.87866000  1
  Li  Li13  1  0.70828500  0.52770300  0.62454300  1
  Li  Li14  1  0.60314000  0.43876900  0.02134800  1
  Li  Li15  1  0.82842100  0.66213200  0.22780100  1
  Li  Li16  1  0.32842100  0.66213200  0.27219900  1
  Li  Li17  1  0.86398000  0.42208900  0.96257700  1
  Li  Li18  1  0.04244800  0.38076000  0.12642500  1
  Li  Li19  1  0.69133300  0.89407500  0.28424300  1
  Li  Li20  1  0.13602000  0.92208900  0.53742300  1
  Li  Li21  1  0.82842100  0.83786800  0.72780100  1
  Li  Li22  1  0.17157900  0.16213200  0.27219900  1
  Li  Li23  1  0.60314000  0.06123100  0.52134800  1
  Li  Li24  1  0.80866700  0.10592500  0.78424300  1
  Li  Li25  1  0.19133300  0.60592500  0.71575700  1
  Li  Li26  1  0.63806600  0.79567900  0.62134000  1
  Li  Li27  1  0.89915000  0.84781600  0.87753200  1
  Li  Li28  1  0.29171500  0.47229700  0.37545700  1
  Li  Li29  1  0.60085000  0.34781600  0.87753200  1
  Li  Li30  1  0.04244800  0.11924000  0.62642500  1
  Li  Li31  1  0.20828500  0.52770300  0.87545700  1
  Li  Li32  1  0.32842100  0.83786800  0.77219900  1
  Li  Li33  1  0.45755200  0.88076000  0.12642500  1
  Li  Li34  1  0.10085000  0.34781600  0.62246800  1
  Li  Li35  1  0.30866700  0.10592500  0.71575700  1
  Li  Li36  1  0.10314000  0.43876900  0.47865200  1
  Li  Li37  1  0.39915000  0.65218400  0.12246800  1
  Li  Li38  1  0.36398000  0.07791100  0.03742300  1
  Li  Li39  1  0.67157900  0.33786800  0.72780100  1
  Li  Li40  1  0.39686000  0.56123100  0.97865200  1
  Li  Li41  1  0.13602000  0.57791100  0.03742300  1
  Li  Li42  1  0.36193400  0.20432100  0.37866000  1
  Li  Li43  1  0.19133300  0.89407500  0.21575700  1
  Li  Li44  1  0.45755200  0.61924000  0.62642500  1
  Li  Li45  1  0.63602000  0.92208900  0.96257700  1
  Li  Li46  1  0.86193400  0.20432100  0.12134000  1
  Li  Li47  1  0.54244800  0.11924000  0.87357500  1
  Li  Li48  1  0.10085000  0.15218400  0.12246800  1
  Li  Li49  1  0.95755200  0.88076000  0.37357500  1
  Li  Li50  1  0.79171500  0.02770300  0.62454300  1
  Li  Li51  1  0.69133300  0.60592500  0.78424300  1
  Li  Li52  1  0.86193400  0.29567900  0.62134000  1
  Li  Li53  1  0.89686000  0.56123100  0.52134800  1
  Li  Li54  1  0.79171500  0.47229700  0.12454300  1
  Li  Li55  1  0.17157900  0.33786800  0.77219900  1
  Li  Li56  1  0.10314000  0.06123100  0.97865200  1
  Li  Li57  1  0.30866700  0.39407500  0.21575700  1
  Li  Li58  1  0.54244800  0.38076000  0.37357500  1
  Li  Li59  1  0.36193400  0.29567900  0.87866000  1
  Li  Li60  1  0.86398000  0.07791100  0.46257700  1
  Li  Li61  1  0.60085000  0.15218400  0.37753200  1
  Li  Li62  1  0.89686000  0.93876900  0.02134800  1
  Li  Li63  1  0.89915000  0.65218400  0.37753200  1
  Si  Si64  1  0.85837900  0.16717200  0.94342600  1
  Si  Si65  1  0.85837900  0.33282800  0.44342600  1
  Si  Si66  1  0.43359900  0.60476300  0.81335300  1
  Si  Si67  1  0.56640100  0.39523700  0.18664700  1
  Si  Si68  1  0.56640100  0.10476300  0.68664700  1
  Si  Si69  1  0.39120700  0.68069600  0.44267800  1
  Si  Si70  1  0.06640100  0.39523700  0.31335300  1
  Si  Si71  1  0.89120700  0.81930400  0.55732200  1
  Si  Si72  1  0.06640100  0.10476300  0.81335300  1
  Si  Si73  1  0.41376400  0.14397900  0.19956800  1
  Si  Si74  1  0.60879300  0.18069600  0.05732200  1
  Si  Si75  1  0.58623600  0.64397900  0.30043200  1
  Si  Si76  1  0.91376400  0.14397900  0.30043200  1
  Si  Si77  1  0.08623600  0.85602100  0.69956800  1
  Si  Si78  1  0.10879300  0.31930400  0.94267800  1
  Si  Si79  1  0.93359900  0.60476300  0.68664700  1
  Si  Si80  1  0.91376400  0.35602100  0.80043200  1
  Si  Si81  1  0.43359900  0.89523700  0.31335300  1
  Si  Si82  1  0.89120700  0.68069600  0.05732200  1
  Si  Si83  1  0.58623600  0.85602100  0.80043200  1
  Si  Si84  1  0.93359900  0.89523700  0.18664700  1
  Si  Si85  1  0.08623600  0.64397900  0.19956800  1
  Si  Si86  1  0.35837900  0.16717200  0.55657400  1
  Si  Si87  1  0.35837900  0.33282800  0.05657400  1
  Si  Si88  1  0.41376400  0.35602100  0.69956800  1
  Si  Si89  1  0.60879300  0.31930400  0.55732200  1
  Si  Si90  1  0.14162100  0.66717200  0.55657400  1
  Si  Si91  1  0.64162100  0.83282800  0.44342600  1
  Si  Si92  1  0.39120700  0.81930400  0.94267800  1
  Si  Si93  1  0.10879300  0.18069600  0.44267800  1
  Si  Si94  1  0.14162100  0.83282800  0.05657400  1
  Si  Si95  1  0.64162100  0.66717200  0.94342600  1
  N  N96  1  0.16234500  0.97502100  0.76751500  1
  N  N97  1  0.66234500  0.52497900  0.23248500  1
  N  N98  1  0.28930900  0.28136300  0.63248600  1
  N  N99  1  0.44297500  0.04087000  0.61511600  1
  N  N100  1  0.21069100  0.78136300  0.63248600  1
  N  N101  1  0.71069100  0.71863700  0.36751400  1
  N  N102  1  0.03135100  0.43356900  0.86992100  1
  N  N103  1  0.49339000  0.27481300  0.26190700  1
  N  N104  1  0.05702500  0.95913000  0.11511600  1
  N  N105  1  0.94297500  0.45913000  0.38488400  1
  N  N106  1  0.66234500  0.97502100  0.73248500  1
  N  N107  1  0.26329100  0.58863100  0.49241100  1
  N  N108  1  0.94297500  0.04087000  0.88488400  1
  N  N109  1  0.33765500  0.47502100  0.76751500  1
  N  N110  1  0.96864900  0.93356900  0.63007900  1
  N  N111  1  0.99339000  0.27481300  0.23809300  1
  N  N112  1  0.51636500  0.75011300  0.01278500  1
  N  N113  1  0.26329100  0.91136900  0.99241100  1
  N  N114  1  0.28930900  0.21863700  0.13248600  1
  N  N115  1  0.98363500  0.24988700  0.51278500  1
  N  N116  1  0.48363500  0.25011300  0.48721500  1
  N  N117  1  0.55702500  0.54087000  0.88488400  1
  N  N118  1  0.31576300  0.80659700  0.37805400  1
  N  N119  1  0.83765500  0.47502100  0.73248500  1
  N  N120  1  0.68423700  0.30659700  0.12194600  1
  N  N121  1  0.49339000  0.22518700  0.76190700  1
  N  N122  1  0.98363500  0.25011300  0.01278500  1
  N  N123  1  0.71069100  0.78136300  0.86751400  1
  N  N124  1  0.05702500  0.54087000  0.61511600  1
  N  N125  1  0.46864900  0.93356900  0.86992100  1
  N  N126  1  0.55702500  0.95913000  0.38488400  1
  N  N127  1  0.01636500  0.74988700  0.98721500  1
  N  N128  1  0.48363500  0.24988700  0.98721500  1
  N  N129  1  0.81576300  0.69340300  0.62194600  1
  N  N130  1  0.78930900  0.28136300  0.86751400  1
  N  N131  1  0.73670900  0.08863100  0.00758900  1
  N  N132  1  0.46864900  0.56643100  0.36992100  1
  N  N133  1  0.31576300  0.69340300  0.87805400  1
  N  N134  1  0.18423700  0.30659700  0.37805400  1
  N  N135  1  0.01636500  0.75011300  0.48721500  1
  N  N136  1  0.53135100  0.06643100  0.13007900  1
  N  N137  1  0.00661000  0.72518700  0.76190700  1
  N  N138  1  0.53135100  0.43356900  0.63007900  1
  N  N139  1  0.99339000  0.22518700  0.73809300  1
  N  N140  1  0.33765500  0.02497900  0.26751500  1
  N  N141  1  0.16234500  0.52497900  0.26751500  1
  N  N142  1  0.21069100  0.71863700  0.13248600  1
  N  N143  1  0.23670900  0.08863100  0.49241100  1
  N  N144  1  0.76329100  0.58863100  0.00758900  1
  N  N145  1  0.76329100  0.91136900  0.50758900  1
  N  N146  1  0.50661000  0.77481300  0.23809300  1
  N  N147  1  0.78930900  0.21863700  0.36751400  1
  N  N148  1  0.96864900  0.56643100  0.13007900  1
  N  N149  1  0.03135100  0.06643100  0.36992100  1
  N  N150  1  0.51636500  0.74988700  0.51278500  1
  N  N151  1  0.50661000  0.72518700  0.73809300  1
  N  N152  1  0.23670900  0.41136900  0.99241100  1
  N  N153  1  0.73670900  0.41136900  0.50758900  1
  N  N154  1  0.18423700  0.19340300  0.87805400  1
  N  N155  1  0.83765500  0.02497900  0.23248500  1
  N  N156  1  0.00661000  0.77481300  0.26190700  1
  N  N157  1  0.81576300  0.80659700  0.12194600  1
  N  N158  1  0.44297500  0.45913000  0.11511600  1
  N  N159  1  0.68423700  0.19340300  0.62194600  1
