# generated using pymatgen
data_Mn7SbAsO12
_symmetry_space_group_name_H-M   'P 1'
_cell_length_a   11.09484173
_cell_length_b   11.09484173
_cell_length_c   11.09484173
_cell_angle_alpha   147.44298436
_cell_angle_beta   132.35902235
_cell_angle_gamma   58.89350231
_symmetry_Int_Tables_number   1
_chemical_formula_structural   Mn7SbAsO12
_chemical_formula_sum   'Mn14 Sb2 As2 O24'
_cell_volume   538.54978978
_cell_formula_units_Z   2
loop_
 _symmetry_equiv_pos_site_id
 _symmetry_equiv_pos_as_xyz
  1  'x, y, z'
loop_
 _atom_site_type_symbol
 _atom_site_label
 _atom_site_symmetry_multiplicity
 _atom_site_fract_x
 _atom_site_fract_y
 _atom_site_fract_z
 _atom_site_occupancy
  Mn  Mn0  1  0.79492600  0.92569700  0.86922900  1
  Mn  Mn1  1  0.15839400  0.15839400  0.50000000  1
  Mn  Mn2  1  0.81041500  0.33389400  0.47652100  1
  Mn  Mn3  1  0.15839400  0.65839400  0.00000000  1
  Mn  Mn4  1  0.64262700  0.16610600  0.47652100  1
  Mn  Mn5  1  0.84160600  0.34160600  0.00000000  1
  Mn  Mn6  1  0.55646800  0.42569700  0.13077100  1
  Mn  Mn7  1  0.00000000  0.00000000  0.50000000  1
  Mn  Mn8  1  0.35737300  0.83389400  0.52347900  1
  Mn  Mn9  1  0.84160600  0.84160600  0.50000000  1
  Mn  Mn10  1  0.18958500  0.66610600  0.52347900  1
  Mn  Mn11  1  0.20507400  0.07430300  0.13077100  1
  Mn  Mn12  1  0.44353200  0.57430300  0.86922900  1
  Mn  Mn13  1  0.00000000  0.50000000  0.00000000  1
  Sb  Sb14  1  0.50000000  0.00000000  0.50000000  1
  Sb  Sb15  1  0.00000000  0.50000000  0.50000000  1
  As  As16  1  0.37047000  0.25000000  0.12047000  1
  As  As17  1  0.62953000  0.75000000  0.87953000  1
  O  O18  1  0.26654300  0.99088500  0.27565700  1
  O  O19  1  0.11106500  0.82902100  0.28204400  1
  O  O20  1  0.73868000  0.51782400  0.75650300  1
  O  O21  1  0.78477200  0.50911500  0.27565700  1
  O  O22  1  0.73868000  0.98217600  0.22085600  1
  O  O23  1  0.40567500  0.17598100  0.22969400  1
  O  O24  1  0.44628800  0.67598100  0.77030600  1
  O  O25  1  0.55371200  0.32401900  0.22969400  1
  O  O26  1  0.73345700  0.00911500  0.72434300  1
  O  O27  1  0.91973300  0.20095800  0.27440600  1
  O  O28  1  0.26132000  0.48217600  0.24349700  1
  O  O29  1  0.95302300  0.67097900  0.28204400  1
  O  O30  1  0.59432500  0.82401900  0.77030600  1
  O  O31  1  0.57344800  0.29904200  0.71877500  1
  O  O32  1  0.08026700  0.35467300  0.28122500  1
  O  O33  1  0.88893500  0.17097900  0.71795600  1
  O  O34  1  0.21522800  0.49088500  0.72434300  1
  O  O35  1  0.91973300  0.64532700  0.71877500  1
  O  O36  1  0.04697700  0.32902100  0.71795600  1
  O  O37  1  0.42655200  0.70095800  0.28122500  1
  O  O38  1  0.57344800  0.85467300  0.27440600  1
  O  O39  1  0.26132000  0.01782400  0.77914400  1
  O  O40  1  0.42655200  0.14532700  0.72559400  1
  O  O41  1  0.08026700  0.79904200  0.72559400  1
