# generated using pymatgen
data_K2Mg2(SO4)3
_symmetry_space_group_name_H-M   'P 1'
_cell_length_a   10.07214000
_cell_length_b   10.07214000
_cell_length_c   10.07214000
_cell_angle_alpha   90.00000000
_cell_angle_beta   90.00000000
_cell_angle_gamma   90.00000000
_symmetry_Int_Tables_number   1
_chemical_formula_structural   K2Mg2(SO4)3
_chemical_formula_sum   'K8 Mg8 S12 O48'
_cell_volume   1021.79850082
_cell_formula_units_Z   4
loop_
 _symmetry_equiv_pos_site_id
 _symmetry_equiv_pos_as_xyz
  1  'x, y, z'
loop_
 _atom_site_type_symbol
 _atom_site_label
 _atom_site_symmetry_multiplicity
 _atom_site_fract_x
 _atom_site_fract_y
 _atom_site_fract_z
 _atom_site_occupancy
  K  K0  1  0.20060700  0.29939300  0.70060700  1
  K  K1  1  0.29939300  0.70060700  0.20060700  1
  K  K2  1  0.70060700  0.20060700  0.29939300  1
  K  K3  1  0.79939300  0.79939300  0.79939300  1
  K  K4  1  0.43311700  0.06688300  0.93311700  1
  K  K5  1  0.06688300  0.93311700  0.43311700  1
  K  K6  1  0.93311700  0.43311700  0.06688300  1
  K  K7  1  0.56688300  0.56688300  0.56688300  1
  Mg  Mg8  1  0.15097100  0.65097100  0.84902900  1
  Mg  Mg9  1  0.08557600  0.08557600  0.08557600  1
  Mg  Mg10  1  0.41442400  0.91442400  0.58557600  1
  Mg  Mg11  1  0.58557600  0.41442400  0.91442400  1
  Mg  Mg12  1  0.91442400  0.58557600  0.41442400  1
  Mg  Mg13  1  0.34902900  0.34902900  0.34902900  1
  Mg  Mg14  1  0.84902900  0.15097100  0.65097100  1
  Mg  Mg15  1  0.65097100  0.84902900  0.15097100  1
  S  S16  1  0.46624100  0.73100000  0.87395800  1
  S  S17  1  0.26900000  0.37395800  0.03375900  1
  S  S18  1  0.37395800  0.03375900  0.26900000  1
  S  S19  1  0.03375900  0.26900000  0.37395800  1
  S  S20  1  0.87395800  0.46624100  0.73100000  1
  S  S21  1  0.73100000  0.87395800  0.46624100  1
  S  S22  1  0.23100000  0.62604200  0.53375900  1
  S  S23  1  0.12604200  0.96624100  0.76900000  1
  S  S24  1  0.62604200  0.53375900  0.23100000  1
  S  S25  1  0.76900000  0.12604200  0.96624100  1
  S  S26  1  0.96624100  0.76900000  0.12604200  1
  S  S27  1  0.53375900  0.23100000  0.62604200  1
  O  O28  1  0.50375200  0.59138300  0.84836200  1
  O  O29  1  0.00375200  0.90861700  0.15163800  1
  O  O30  1  0.49624800  0.09138300  0.65163800  1
  O  O31  1  0.90861700  0.15163800  0.00375200  1
  O  O32  1  0.65163800  0.49624800  0.09138300  1
  O  O33  1  0.15163800  0.00375200  0.90861700  1
  O  O34  1  0.59138300  0.84836200  0.50375200  1
  O  O35  1  0.84836200  0.50375200  0.59138300  1
  O  O36  1  0.09138300  0.65163800  0.49624800  1
  O  O37  1  0.40861700  0.34836200  0.99624800  1
  O  O38  1  0.34836200  0.99624800  0.40861700  1
  O  O39  1  0.99624800  0.40861700  0.34836200  1
  O  O40  1  0.47527800  0.94590600  0.20768500  1
  O  O41  1  0.97527800  0.55409400  0.79231500  1
  O  O42  1  0.52472200  0.44590600  0.29231500  1
  O  O43  1  0.55409400  0.79231500  0.97527800  1
  O  O44  1  0.29231500  0.52472200  0.44590600  1
  O  O45  1  0.79231500  0.97527800  0.55409400  1
  O  O46  1  0.57924400  0.67395700  0.23943900  1
  O  O47  1  0.94590600  0.20768500  0.47527800  1
  O  O48  1  0.44590600  0.29231500  0.52472200  1
  O  O49  1  0.05409400  0.70768500  0.02472200  1
  O  O50  1  0.70768500  0.02472200  0.05409400  1
  O  O51  1  0.02472200  0.05409400  0.70768500  1
  O  O52  1  0.32604300  0.73943900  0.92075600  1
  O  O53  1  0.82604300  0.76056100  0.07924400  1
  O  O54  1  0.67395700  0.23943900  0.57924400  1
  O  O55  1  0.76056100  0.07924400  0.82604300  1
  O  O56  1  0.01568100  0.19255100  0.24895300  1
  O  O57  1  0.24895300  0.01568100  0.19255100  1
  O  O58  1  0.19255100  0.24895300  0.01568100  1
  O  O59  1  0.30744900  0.75104700  0.51568100  1
  O  O60  1  0.74895300  0.48431900  0.80744900  1
  O  O61  1  0.80744900  0.74895300  0.48431900  1
  O  O62  1  0.25104700  0.98431900  0.69255100  1
  O  O63  1  0.75104700  0.51568100  0.30744900  1
  O  O64  1  0.69255100  0.25104700  0.98431900  1
  O  O65  1  0.51568100  0.30744900  0.75104700  1
  O  O66  1  0.98431900  0.69255100  0.25104700  1
  O  O67  1  0.48431900  0.80744900  0.74895300  1
  O  O68  1  0.17395700  0.26056100  0.42075600  1
  O  O69  1  0.42075600  0.17395700  0.26056100  1
  O  O70  1  0.26056100  0.42075600  0.17395700  1
  O  O71  1  0.23943900  0.57924400  0.67395700  1
  O  O72  1  0.92075600  0.32604300  0.73943900  1
  O  O73  1  0.73943900  0.92075600  0.32604300  1
  O  O74  1  0.07924400  0.82604300  0.76056100  1
  O  O75  1  0.20768500  0.47527800  0.94590600  1
