# generated using pymatgen
data_KAlGeO4
_symmetry_space_group_name_H-M   'P 1'
_cell_length_a   18.66103083
_cell_length_b   18.66103083
_cell_length_c   8.73094400
_cell_angle_alpha   90.00000000
_cell_angle_beta   90.00000000
_cell_angle_gamma   120.00000295
_symmetry_Int_Tables_number   1
_chemical_formula_structural   KAlGeO4
_chemical_formula_sum   'K24 Al24 Ge24 O96'
_cell_volume   2633.07410650
_cell_formula_units_Z   24
loop_
 _symmetry_equiv_pos_site_id
 _symmetry_equiv_pos_as_xyz
  1  'x, y, z'
loop_
 _atom_site_type_symbol
 _atom_site_label
 _atom_site_symmetry_multiplicity
 _atom_site_fract_x
 _atom_site_fract_y
 _atom_site_fract_z
 _atom_site_occupancy
  K  K0  1  0.33333300  0.66666700  0.98368700  1
  K  K1  1  0.18500300  0.33296400  0.49022200  1
  K  K2  1  0.66666700  0.33333300  0.48368700  1
  K  K3  1  0.66750100  0.80392600  0.98615000  1
  K  K4  1  0.33296400  0.14796100  0.99022200  1
  K  K5  1  0.47103100  0.99424900  0.98987400  1
  K  K6  1  0.81499700  0.66703600  0.99022200  1
  K  K7  1  0.66703600  0.85203900  0.49022200  1
  K  K8  1  0.13642400  0.33249900  0.98615000  1
  K  K9  1  0.80392600  0.13642400  0.48615000  1
  K  K10  1  0.33333300  0.66666700  0.48103300  1
  K  K11  1  0.00575100  0.47678200  0.98987400  1
  K  K12  1  0.66666700  0.33333300  0.98103300  1
  K  K13  1  0.99424900  0.52321800  0.48987400  1
  K  K14  1  0.00000000  0.00000000  0.50116300  1
  K  K15  1  0.52896900  0.00575100  0.48987400  1
  K  K16  1  0.14796100  0.81499700  0.49022200  1
  K  K17  1  0.85203900  0.18500300  0.99022200  1
  K  K18  1  0.19607400  0.86357600  0.98615000  1
  K  K19  1  0.86357600  0.66750100  0.48615000  1
  K  K20  1  0.47678200  0.47103100  0.48987400  1
  K  K21  1  0.33249900  0.19607400  0.48615000  1
  K  K22  1  0.00000000  0.00000000  0.00116300  1
  K  K23  1  0.52321800  0.52896900  0.98987400  1
  Al  Al24  1  0.50057400  0.17911800  0.68954800  1
  Al  Al25  1  0.01077800  0.83968200  0.17005300  1
  Al  Al26  1  0.83968200  0.82890500  0.67005300  1
  Al  Al27  1  0.16031800  0.17109500  0.17005300  1
  Al  Al28  1  0.65189800  0.16219000  0.19009300  1
  Al  Al29  1  0.16219000  0.51029200  0.69009300  1
  Al  Al30  1  0.48970800  0.65189800  0.69009300  1
  Al  Al31  1  0.51029200  0.34810200  0.19009300  1
  Al  Al32  1  0.33033800  0.33052800  0.79280400  1
  Al  Al33  1  0.82088200  0.32145600  0.68954800  1
  Al  Al34  1  0.33052800  0.00019000  0.29280400  1
  Al  Al35  1  0.34810200  0.83781000  0.69009300  1
  Al  Al36  1  0.66947200  0.99981000  0.79280400  1
  Al  Al37  1  0.99981000  0.33033800  0.29280400  1
  Al  Al38  1  0.66966200  0.66947200  0.29280400  1
  Al  Al39  1  0.82890500  0.98922200  0.17005300  1
  Al  Al40  1  0.98922200  0.16031800  0.67005300  1
  Al  Al41  1  0.00019000  0.66966200  0.79280400  1
  Al  Al42  1  0.17911800  0.67854400  0.18954800  1
  Al  Al43  1  0.83781000  0.48970800  0.19009300  1
  Al  Al44  1  0.32145600  0.50057400  0.18954800  1
  Al  Al45  1  0.67854400  0.49942600  0.68954800  1
  Al  Al46  1  0.17109500  0.01077800  0.67005300  1
  Al  Al47  1  0.49942600  0.82088200  0.18954800  1
  Ge  Ge48  1  0.33516700  0.00075700  0.68517400  1
  Ge  Ge49  1  0.68115600  0.50369700  0.30859800  1
  Ge  Ge50  1  0.15703800  0.16816200  0.78647000  1
  Ge  Ge51  1  0.01112400  0.84296200  0.78647000  1
  Ge  Ge52  1  0.33441000  0.33516700  0.18517400  1
  Ge  Ge53  1  0.49402200  0.65600100  0.30912500  1
  Ge  Ge54  1  0.50597800  0.34399900  0.80912500  1
  Ge  Ge55  1  0.50369700  0.82254200  0.80859800  1
  Ge  Ge56  1  0.66559000  0.66483300  0.68517400  1
  Ge  Ge57  1  0.65600100  0.16197900  0.80912500  1
  Ge  Ge58  1  0.84296200  0.83183800  0.28647000  1
  Ge  Ge59  1  0.82254200  0.31884400  0.30859800  1
  Ge  Ge60  1  0.83183800  0.98887600  0.78647000  1
  Ge  Ge61  1  0.49630300  0.17745800  0.30859800  1
  Ge  Ge62  1  0.17745800  0.68115600  0.80859800  1
  Ge  Ge63  1  0.34399900  0.83802100  0.30912500  1
  Ge  Ge64  1  0.99924300  0.33441000  0.68517400  1
  Ge  Ge65  1  0.16816200  0.01112400  0.28647000  1
  Ge  Ge66  1  0.83802100  0.49402200  0.80912500  1
  Ge  Ge67  1  0.98887600  0.15703800  0.28647000  1
  Ge  Ge68  1  0.66483300  0.99924300  0.18517400  1
  Ge  Ge69  1  0.16197900  0.50597800  0.30912500  1
  Ge  Ge70  1  0.00075700  0.66559000  0.18517400  1
  Ge  Ge71  1  0.31884400  0.49630300  0.80859800  1
  O  O72  1  0.73252500  0.46232000  0.20298800  1
  O  O73  1  0.02968800  0.26029800  0.22149200  1
  O  O74  1  0.81275600  0.95391100  0.97811100  1
  O  O75  1  0.23061000  0.97031200  0.22149200  1
  O  O76  1  0.92703000  0.36484700  0.73780600  1
  O  O77  1  0.40850500  0.31222900  0.26192700  1
  O  O78  1  0.29568300  0.39885800  0.73259200  1
  O  O79  1  0.39904300  0.60532500  0.20999900  1
  O  O80  1  0.61593500  0.14187300  0.99813100  1
  O  O81  1  0.59149500  0.68777100  0.76192700  1
  O  O82  1  0.95391100  0.14115500  0.47811100  1
  O  O83  1  0.72979500  0.26747500  0.20298800  1
  O  O84  1  0.73507200  0.97029500  0.26016200  1
  O  O85  1  0.47260600  0.23722800  0.81113300  1
  O  O86  1  0.56218300  0.92703000  0.23780600  1
  O  O87  1  0.32157700  0.98806700  0.48880000  1
  O  O88  1  0.13922600  0.57377800  0.80674900  1
  O  O89  1  0.67842300  0.01193300  0.98880000  1
  O  O90  1  0.80532300  0.90146600  0.67122300  1
  O  O91  1  0.60532500  0.20628200  0.70999900  1
  O  O92  1  0.10317400  0.70431700  0.73259200  1
  O  O93  1  0.68777100  0.09627600  0.26192700  1
  O  O94  1  0.76462200  0.52739400  0.81113300  1
  O  O95  1  0.09627600  0.40850500  0.76192700  1
  O  O96  1  0.97031200  0.73970200  0.72149200  1
  O  O97  1  0.42622200  0.56544800  0.80674900  1
  O  O98  1  0.38406500  0.85812700  0.49813100  1
  O  O99  1  0.63515300  0.56218300  0.73780600  1
  O  O100  1  0.36484700  0.43781700  0.23780600  1
  O  O101  1  0.98806700  0.66649000  0.98880000  1
  O  O102  1  0.26747500  0.53768000  0.70298800  1
  O  O103  1  0.39885800  0.10317400  0.23259200  1
  O  O104  1  0.90385700  0.80532300  0.17122300  1
  O  O105  1  0.85812700  0.47406200  0.99813100  1
  O  O106  1  0.39467500  0.79371800  0.20999900  1
  O  O107  1  0.27020500  0.73252500  0.70298800  1
  O  O108  1  0.43781700  0.07297000  0.73780600  1
  O  O109  1  0.23522300  0.26492800  0.26016200  1
  O  O110  1  0.60095700  0.39467500  0.70999900  1
  O  O111  1  0.09853400  0.90385700  0.67122300  1
  O  O112  1  0.53768000  0.27020500  0.20298800  1
  O  O113  1  0.36112300  0.93073100  0.21868400  1
  O  O114  1  0.26492800  0.02970500  0.76016200  1
  O  O115  1  0.06466400  0.12751600  0.26828600  1
  O  O116  1  0.26029800  0.23061000  0.72149200  1
  O  O117  1  0.56960700  0.63887700  0.21868400  1
  O  O118  1  0.63887700  0.06926900  0.71868400  1
  O  O119  1  0.02970500  0.76477700  0.26016200  1
  O  O120  1  0.90372400  0.59149500  0.26192700  1
  O  O121  1  0.85884500  0.81275600  0.47811100  1
  O  O122  1  0.89682600  0.29568300  0.23259200  1
  O  O123  1  0.46232000  0.72979500  0.70298800  1
  O  O124  1  0.07297000  0.63515300  0.23780600  1
  O  O125  1  0.20147500  0.71716800  0.99964900  1
  O  O126  1  0.23537800  0.47260600  0.31113300  1
  O  O127  1  0.70431700  0.60114200  0.23259200  1
  O  O128  1  0.76477700  0.73507200  0.76016200  1
  O  O129  1  0.71716800  0.51569200  0.49964900  1
  O  O130  1  0.43455200  0.86077400  0.80674900  1
  O  O131  1  0.52593800  0.38406500  0.99813100  1
  O  O132  1  0.23722800  0.76462200  0.31113300  1
  O  O133  1  0.51569200  0.79852500  0.99964900  1
  O  O134  1  0.18724400  0.04608900  0.47811100  1
  O  O135  1  0.09614300  0.19467700  0.67122300  1
  O  O136  1  0.06285200  0.93533600  0.26828600  1
  O  O137  1  0.20628200  0.60095700  0.20999900  1
  O  O138  1  0.73970200  0.76939000  0.22149200  1
  O  O139  1  0.76939000  0.02968800  0.72149200  1
  O  O140  1  0.01193300  0.33351000  0.48880000  1
  O  O141  1  0.90146600  0.09614300  0.17122300  1
  O  O142  1  0.56544800  0.13922600  0.30674900  1
  O  O143  1  0.60114200  0.89682600  0.73259200  1
  O  O144  1  0.14115500  0.18724400  0.97811100  1
  O  O145  1  0.93073100  0.56960700  0.71868400  1
  O  O146  1  0.52739400  0.76277200  0.31113300  1
  O  O147  1  0.76277200  0.23537800  0.81113300  1
  O  O148  1  0.19467700  0.09853400  0.17122300  1
  O  O149  1  0.93714800  0.06466400  0.76828600  1
  O  O150  1  0.97029500  0.23522300  0.76016200  1
  O  O151  1  0.48430800  0.20147500  0.49964900  1
  O  O152  1  0.12751600  0.06285200  0.76828600  1
  O  O153  1  0.33351000  0.32157700  0.98880000  1
  O  O154  1  0.66649000  0.67842300  0.48880000  1
  O  O155  1  0.14187300  0.52593800  0.49813100  1
  O  O156  1  0.86077400  0.42622200  0.30674900  1
  O  O157  1  0.47406200  0.61593500  0.49813100  1
  O  O158  1  0.28283200  0.48430800  0.99964900  1
  O  O159  1  0.57377800  0.43455200  0.30674900  1
  O  O160  1  0.43039300  0.36112300  0.71868400  1
  O  O161  1  0.79371800  0.39904300  0.70999900  1
  O  O162  1  0.87248400  0.93714800  0.26828600  1
  O  O163  1  0.31222900  0.90372400  0.76192700  1
  O  O164  1  0.79852500  0.28283200  0.49964900  1
  O  O165  1  0.93533600  0.87248400  0.76828600  1
  O  O166  1  0.06926900  0.43039300  0.21868400  1
  O  O167  1  0.04608900  0.85884500  0.97811100  1
