# generated using pymatgen
data_Nd4MgRu
_symmetry_space_group_name_H-M   'P 1'
_cell_length_a   10.01572349
_cell_length_b   10.01572349
_cell_length_c   10.01572349
_cell_angle_alpha   60.00000000
_cell_angle_beta   60.00000000
_cell_angle_gamma   60.00000000
_symmetry_Int_Tables_number   1
_chemical_formula_structural   Nd4MgRu
_chemical_formula_sum   'Nd16 Mg4 Ru4'
_cell_volume   710.44748488
_cell_formula_units_Z   4
loop_
 _symmetry_equiv_pos_site_id
 _symmetry_equiv_pos_as_xyz
  1  'x, y, z'
loop_
 _atom_site_type_symbol
 _atom_site_label
 _atom_site_symmetry_multiplicity
 _atom_site_fract_x
 _atom_site_fract_y
 _atom_site_fract_z
 _atom_site_occupancy
  Nd  Nd0  1  0.56155100  0.56155100  0.93844900  1
  Nd  Nd1  1  0.18878000  0.81122000  0.18878000  1
  Nd  Nd2  1  0.81122000  0.81122000  0.18878000  1
  Nd  Nd3  1  0.18878000  0.18878000  0.81122000  1
  Nd  Nd4  1  0.40551900  0.78344300  0.40551900  1
  Nd  Nd5  1  0.81122000  0.18878000  0.81122000  1
  Nd  Nd6  1  0.93844900  0.93844900  0.56155100  1
  Nd  Nd7  1  0.81122000  0.18878000  0.18878000  1
  Nd  Nd8  1  0.93844900  0.56155100  0.93844900  1
  Nd  Nd9  1  0.78344300  0.40551900  0.40551900  1
  Nd  Nd10  1  0.56155100  0.93844900  0.93844900  1
  Nd  Nd11  1  0.18878000  0.81122000  0.81122000  1
  Nd  Nd12  1  0.56155100  0.93844900  0.56155100  1
  Nd  Nd13  1  0.40551900  0.40551900  0.40551900  1
  Nd  Nd14  1  0.93844900  0.56155100  0.56155100  1
  Nd  Nd15  1  0.40551900  0.40551900  0.78344300  1
  Mg  Mg16  1  0.17145800  0.48562700  0.17145800  1
  Mg  Mg17  1  0.17145800  0.17145800  0.48562700  1
  Mg  Mg18  1  0.48562700  0.17145800  0.17145800  1
  Mg  Mg19  1  0.17145800  0.17145800  0.17145800  1
  Ru  Ru20  1  0.16404700  0.61198400  0.61198400  1
  Ru  Ru21  1  0.61198400  0.61198400  0.16404700  1
  Ru  Ru22  1  0.61198400  0.61198400  0.61198400  1
  Ru  Ru23  1  0.61198400  0.16404700  0.61198400  1
