# generated using pymatgen
data_Sr(H2N)2
_symmetry_space_group_name_H-M   'P 1'
_cell_length_a   7.77998000
_cell_length_b   6.69307200
_cell_length_c   6.75549084
_cell_angle_alpha   70.54917420
_cell_angle_beta   90.00000000
_cell_angle_gamma   90.00000000
_symmetry_Int_Tables_number   1
_chemical_formula_structural   Sr(H2N)2
_chemical_formula_sum   'Sr4 H16 N8'
_cell_volume   331.69524893
_cell_formula_units_Z   4
loop_
 _symmetry_equiv_pos_site_id
 _symmetry_equiv_pos_as_xyz
  1  'x, y, z'
loop_
 _atom_site_type_symbol
 _atom_site_label
 _atom_site_symmetry_multiplicity
 _atom_site_fract_x
 _atom_site_fract_y
 _atom_site_fract_z
 _atom_site_occupancy
  Sr  Sr0  1  0.37758800  0.99835600  0.75060300  1
  Sr  Sr1  1  0.87758800  0.50164400  0.24939700  1
  Sr  Sr2  1  0.62241200  0.00164400  0.24939700  1
  Sr  Sr3  1  0.12241200  0.49835600  0.75060300  1
  H  H4  1  0.03433100  0.87923200  0.93430300  1
  H  H5  1  0.53433100  0.62076800  0.06569700  1
  H  H6  1  0.96566900  0.12076800  0.06569700  1
  H  H7  1  0.46566900  0.37923200  0.93430300  1
  H  H8  1  0.17765100  0.75789100  0.10783400  1
  H  H9  1  0.67765100  0.74210900  0.89216600  1
  H  H10  1  0.82234900  0.24210900  0.89216600  1
  H  H11  1  0.32234900  0.25789100  0.10783400  1
  H  H12  1  0.22569100  0.32787100  0.37381300  1
  H  H13  1  0.72569100  0.17212900  0.62618700  1
  H  H14  1  0.77430900  0.67212900  0.62618700  1
  H  H15  1  0.27430900  0.82787200  0.37381300  1
  H  H16  1  0.08840400  0.14017400  0.47610300  1
  H  H17  1  0.58840400  0.35982600  0.52389700  1
  H  H18  1  0.91159600  0.85982600  0.52389700  1
  H  H19  1  0.41159600  0.64017400  0.47610300  1
  N  N20  1  0.11519600  0.74970700  0.97606700  1
  N  N21  1  0.61519600  0.75029300  0.02393300  1
  N  N22  1  0.88480400  0.25029300  0.02393300  1
  N  N23  1  0.38480400  0.24970700  0.97606700  1
  N  N24  1  0.14002200  0.27380600  0.49675300  1
  N  N25  1  0.64002200  0.22619400  0.50324700  1
  N  N26  1  0.85997800  0.72619400  0.50324700  1
  N  N27  1  0.35997800  0.77380600  0.49675300  1
