# generated using pymatgen
data_K3ZrH2S(OF)5
_symmetry_space_group_name_H-M   'P 1'
_cell_length_a   16.97985900
_cell_length_b   6.86724600
_cell_length_c   11.12204679
_cell_angle_alpha   53.21834947
_cell_angle_beta   90.00000000
_cell_angle_gamma   90.00000000
_symmetry_Int_Tables_number   1
_chemical_formula_structural   K3ZrH2S(OF)5
_chemical_formula_sum   'K12 Zr4 H8 S4 O20 F20'
_cell_volume   1038.70509379
_cell_formula_units_Z   4
loop_
 _symmetry_equiv_pos_site_id
 _symmetry_equiv_pos_as_xyz
  1  'x, y, z'
loop_
 _atom_site_type_symbol
 _atom_site_label
 _atom_site_symmetry_multiplicity
 _atom_site_fract_x
 _atom_site_fract_y
 _atom_site_fract_z
 _atom_site_occupancy
  K  K0  1  0.16734700  0.71693900  0.67714900  1
  K  K1  1  0.33265300  0.71693900  0.17714900  1
  K  K2  1  0.83265300  0.28306100  0.32285100  1
  K  K3  1  0.66734700  0.28306100  0.82285100  1
  K  K4  1  0.38496300  0.41715300  0.95720200  1
  K  K5  1  0.11503700  0.41715300  0.45720200  1
  K  K6  1  0.61503700  0.58284700  0.04279800  1
  K  K7  1  0.88496300  0.58284700  0.54279800  1
  K  K8  1  0.38220500  0.91893000  0.46868000  1
  K  K9  1  0.11779500  0.91893000  0.96868000  1
  K  K10  1  0.61779500  0.08107000  0.53132000  1
  K  K11  1  0.88220500  0.08107000  0.03132000  1
  Zr  Zr12  1  0.69256700  0.77716300  0.30164900  1
  Zr  Zr13  1  0.80743300  0.77716300  0.80164900  1
  Zr  Zr14  1  0.30743300  0.22283700  0.69835100  1
  Zr  Zr15  1  0.19256700  0.22283700  0.19835100  1
  H  H16  1  0.99683000  0.50380200  0.79940900  1
  H  H17  1  0.50317000  0.50380200  0.29940900  1
  H  H18  1  0.00317000  0.49619800  0.20059100  1
  H  H19  1  0.49683000  0.49619800  0.70059100  1
  H  H20  1  0.05965300  0.38338300  0.92391500  1
  H  H21  1  0.44034700  0.38338300  0.42391500  1
  H  H22  1  0.94034700  0.61661700  0.07608500  1
  H  H23  1  0.55965300  0.61661700  0.57608500  1
  S  S24  1  0.03899100  0.98074300  0.32689400  1
  S  S25  1  0.46100900  0.98074300  0.82689400  1
  S  S26  1  0.96100900  0.01925700  0.67310600  1
  S  S27  1  0.53899100  0.01925700  0.17310600  1
  O  O28  1  0.92043900  0.81479200  0.67776700  1
  O  O29  1  0.57956100  0.81479200  0.17776700  1
  O  O30  1  0.07956100  0.18520800  0.32223300  1
  O  O31  1  0.42043900  0.18520800  0.82223300  1
  O  O32  1  0.59195100  0.03333600  0.27830800  1
  O  O33  1  0.90804900  0.03333600  0.77830800  1
  O  O34  1  0.40804900  0.96666400  0.72169200  1
  O  O35  1  0.09195100  0.96666400  0.22169200  1
  O  O36  1  0.54235000  0.24843900  0.02066900  1
  O  O37  1  0.95765000  0.24843900  0.52066900  1
  O  O38  1  0.45765000  0.75156100  0.97933100  1
  O  O39  1  0.04235000  0.75156100  0.47933100  1
  O  O40  1  0.95819000  0.05032000  0.27082100  1
  O  O41  1  0.54181000  0.05032000  0.77082100  1
  O  O42  1  0.04181000  0.94968000  0.72917900  1
  O  O43  1  0.45819000  0.94968000  0.22917900  1
  O  O44  1  0.52828200  0.64515400  0.63836100  1
  O  O45  1  0.97171800  0.64515400  0.13836100  1
  O  O46  1  0.47171800  0.35484600  0.36163900  1
  O  O47  1  0.02828200  0.35484600  0.86163900  1
  F  F48  1  0.81028600  0.49368000  0.78209900  1
  F  F49  1  0.68971400  0.49368000  0.28209900  1
  F  F50  1  0.18971400  0.50632000  0.21790100  1
  F  F51  1  0.31028600  0.50632000  0.71790100  1
  F  F52  1  0.69019200  0.69756600  0.80459900  1
  F  F53  1  0.80980800  0.69756600  0.30459900  1
  F  F54  1  0.30980800  0.30243400  0.19540100  1
  F  F55  1  0.19019200  0.30243400  0.69540100  1
  F  F56  1  0.73887100  0.89697700  0.41768600  1
  F  F57  1  0.76112900  0.89697700  0.91768600  1
  F  F58  1  0.26112900  0.10302300  0.58231400  1
  F  F59  1  0.23887100  0.10302300  0.08231400  1
  F  F60  1  0.14099100  0.47756200  0.99094900  1
  F  F61  1  0.35900900  0.47756200  0.49094900  1
  F  F62  1  0.85900900  0.52243800  0.00905100  1
  F  F63  1  0.64099100  0.52243800  0.50905100  1
  F  F64  1  0.22276200  0.90696600  0.40027800  1
  F  F65  1  0.27723800  0.90696600  0.90027800  1
  F  F66  1  0.77723800  0.09303400  0.59972200  1
  F  F67  1  0.72276200  0.09303400  0.09972200  1
