# generated using pymatgen
data_V3Pb5ClO12
_symmetry_space_group_name_H-M   'P 1'
_cell_length_a   10.61964668
_cell_length_b   10.61964668
_cell_length_c   7.32577200
_cell_angle_alpha   90.00000000
_cell_angle_beta   90.00000000
_cell_angle_gamma   120.00000423
_symmetry_Int_Tables_number   1
_chemical_formula_structural   V3Pb5ClO12
_chemical_formula_sum   'V6 Pb10 Cl2 O24'
_cell_volume   715.49095313
_cell_formula_units_Z   2
loop_
 _symmetry_equiv_pos_site_id
 _symmetry_equiv_pos_as_xyz
  1  'x, y, z'
loop_
 _atom_site_type_symbol
 _atom_site_label
 _atom_site_symmetry_multiplicity
 _atom_site_fract_x
 _atom_site_fract_y
 _atom_site_fract_z
 _atom_site_occupancy
  V  V0  1  0.97070600  0.58622600  0.25000000  1
  V  V1  1  0.58622600  0.61552000  0.75000000  1
  V  V2  1  0.41377400  0.38448000  0.25000000  1
  V  V3  1  0.61552000  0.02929400  0.25000000  1
  V  V4  1  0.38448000  0.97070600  0.75000000  1
  V  V5  1  0.02929400  0.41377400  0.75000000  1
  Pb  Pb6  1  0.66666700  0.33333300  0.99055200  1
  Pb  Pb7  1  0.66666700  0.33333300  0.50944800  1
  Pb  Pb8  1  0.73862300  0.97671600  0.75000000  1
  Pb  Pb9  1  0.97671600  0.23809400  0.25000000  1
  Pb  Pb10  1  0.23809400  0.26137700  0.75000000  1
  Pb  Pb11  1  0.33333300  0.66666700  0.49055200  1
  Pb  Pb12  1  0.76190600  0.73862300  0.25000000  1
  Pb  Pb13  1  0.33333300  0.66666700  0.00944800  1
  Pb  Pb14  1  0.02328400  0.76190600  0.75000000  1
  Pb  Pb15  1  0.26137700  0.02328400  0.25000000  1
  Cl  Cl16  1  0.00000000  0.00000000  0.00000000  1
  Cl  Cl17  1  0.00000000  0.00000000  0.50000000  1
  O  O18  1  0.63924700  0.73039200  0.56115700  1
  O  O19  1  0.12413000  0.60661700  0.75000000  1
  O  O20  1  0.09114500  0.36075300  0.56115700  1
  O  O21  1  0.26960800  0.90885500  0.56115700  1
  O  O22  1  0.34381500  0.50255600  0.25000000  1
  O  O23  1  0.15874200  0.65618500  0.25000000  1
  O  O24  1  0.60661700  0.48248700  0.25000000  1
  O  O25  1  0.65618500  0.49744400  0.75000000  1
  O  O26  1  0.36075300  0.26960800  0.06115700  1
  O  O27  1  0.48248700  0.87587000  0.75000000  1
  O  O28  1  0.90885500  0.63924700  0.43884300  1
  O  O29  1  0.49744400  0.84125800  0.25000000  1
  O  O30  1  0.50255600  0.15874200  0.75000000  1
  O  O31  1  0.39338300  0.51751300  0.75000000  1
  O  O32  1  0.73039200  0.09114500  0.06115700  1
  O  O33  1  0.51751300  0.12413000  0.25000000  1
  O  O34  1  0.90885500  0.63924700  0.06115700  1
  O  O35  1  0.84125800  0.34381500  0.75000000  1
  O  O36  1  0.26960800  0.90885500  0.93884300  1
  O  O37  1  0.73039200  0.09114500  0.43884300  1
  O  O38  1  0.87587000  0.39338300  0.25000000  1
  O  O39  1  0.09114500  0.36075300  0.93884300  1
  O  O40  1  0.63924700  0.73039200  0.93884300  1
  O  O41  1  0.36075300  0.26960800  0.43884300  1
