# generated using pymatgen
data_Na2ZnH4(SeO5)2
_symmetry_space_group_name_H-M   'P 1'
_cell_length_a   5.69296100
_cell_length_b   5.99225767
_cell_length_c   7.34929972
_cell_angle_alpha   108.46125542
_cell_angle_beta   99.08060897
_cell_angle_gamma   107.61369011
_symmetry_Int_Tables_number   1
_chemical_formula_structural   Na2ZnH4(SeO5)2
_chemical_formula_sum   'Na2 Zn1 H4 Se2 O10'
_cell_volume   217.55722667
_cell_formula_units_Z   1
loop_
 _symmetry_equiv_pos_site_id
 _symmetry_equiv_pos_as_xyz
  1  'x, y, z'
loop_
 _atom_site_type_symbol
 _atom_site_label
 _atom_site_symmetry_multiplicity
 _atom_site_fract_x
 _atom_site_fract_y
 _atom_site_fract_z
 _atom_site_occupancy
  Na  Na0  1  0.33882900  0.71106300  0.25087400  1
  Na  Na1  1  0.66117100  0.28893700  0.74912600  1
  Zn  Zn2  1  0.00000000  0.00000000  0.00000000  1
  H  H3  1  0.85718900  0.87325900  0.61352600  1
  H  H4  1  0.14281100  0.12674100  0.38647400  1
  H  H5  1  0.07837000  0.15024700  0.70256800  1
  H  H6  1  0.92163000  0.84975300  0.29743200  1
  Se  Se7  1  0.33264900  0.66225800  0.75959700  1
  Se  Se8  1  0.66735100  0.33774200  0.24040300  1
  O  O9  1  0.09530300  0.66374800  0.87204600  1
  O  O10  1  0.90469700  0.33625200  0.12795400  1
  O  O11  1  0.60752000  0.75655800  0.93979100  1
  O  O12  1  0.39248000  0.24344200  0.06020900  1
  O  O13  1  0.35159400  0.83285100  0.62071600  1
  O  O14  1  0.64840600  0.16714900  0.37928400  1
  O  O15  1  0.27646800  0.35665700  0.62351600  1
  O  O16  1  0.72353200  0.64334300  0.37648400  1
  O  O17  1  0.92932400  0.03869100  0.73017000  1
  O  O18  1  0.07067600  0.96130900  0.26983000  1
