# generated using pymatgen
data_Li3Sc2(PO4)3
_symmetry_space_group_name_H-M   'P 1'
_cell_length_a   8.91245400
_cell_length_b   8.95835600
_cell_length_c   15.31493893
_cell_angle_alpha   54.17746886
_cell_angle_beta   90.00000000
_cell_angle_gamma   90.00000000
_symmetry_Int_Tables_number   1
_chemical_formula_structural   Li3Sc2(PO4)3
_chemical_formula_sum   'Li12 Sc8 P12 O48'
_cell_volume   991.45428117
_cell_formula_units_Z   4
loop_
 _symmetry_equiv_pos_site_id
 _symmetry_equiv_pos_as_xyz
  1  'x, y, z'
loop_
 _atom_site_type_symbol
 _atom_site_label
 _atom_site_symmetry_multiplicity
 _atom_site_fract_x
 _atom_site_fract_y
 _atom_site_fract_z
 _atom_site_occupancy
  Li  Li0  1  0.79371000  0.31903500  0.25554500  1
  Li  Li1  1  0.29371000  0.68096500  0.24445500  1
  Li  Li2  1  0.20629000  0.68096500  0.74445500  1
  Li  Li3  1  0.70629000  0.31903500  0.75554500  1
  Li  Li4  1  0.91517900  0.62131900  0.29998700  1
  Li  Li5  1  0.41517900  0.37868100  0.20001300  1
  Li  Li6  1  0.08482100  0.37868100  0.70001300  1
  Li  Li7  1  0.58482100  0.62131900  0.79998700  1
  Li  Li8  1  0.76764900  0.03118000  0.17960800  1
  Li  Li9  1  0.26764900  0.96882000  0.32039200  1
  Li  Li10  1  0.23235100  0.96882000  0.82039200  1
  Li  Li11  1  0.73235100  0.03118000  0.67960800  1
  Sc  Sc12  1  0.96590800  0.64044300  0.10567600  1
  Sc  Sc13  1  0.46590800  0.35955700  0.39432400  1
  Sc  Sc14  1  0.03409200  0.35955700  0.89432400  1
  Sc  Sc15  1  0.53409200  0.64044300  0.60567600  1
  Sc  Sc16  1  0.95238600  0.86202400  0.39341500  1
  Sc  Sc17  1  0.45238600  0.13797600  0.10658500  1
  Sc  Sc18  1  0.04761400  0.13797600  0.60658500  1
  Sc  Sc19  1  0.54761400  0.86202400  0.89341500  1
  P  P20  1  0.74554700  0.45246900  0.00961100  1
  P  P21  1  0.24554700  0.54753100  0.49038900  1
  P  P22  1  0.25445300  0.54753100  0.99038900  1
  P  P23  1  0.75445300  0.45246900  0.50961100  1
  P  P24  1  0.61316000  0.74530600  0.15287100  1
  P  P25  1  0.11316000  0.25469400  0.34712900  1
  P  P26  1  0.38684000  0.25469400  0.84712900  1
  P  P27  1  0.88684000  0.74530600  0.65287100  1
  P  P28  1  0.59499500  0.05012800  0.34753400  1
  P  P29  1  0.09499500  0.94987200  0.15246600  1
  P  P30  1  0.40500500  0.94987200  0.65246600  1
  P  P31  1  0.90500500  0.05012800  0.84753400  1
  O  O32  1  0.77371200  0.66511700  0.19002000  1
  O  O33  1  0.27371200  0.33488300  0.30998000  1
  O  O34  1  0.22628800  0.33488300  0.80998000  1
  O  O35  1  0.72628800  0.66511700  0.69002000  1
  O  O36  1  0.75447600  0.03409100  0.31127200  1
  O  O37  1  0.25447600  0.96590900  0.18872800  1
  O  O38  1  0.24552400  0.96590900  0.68872800  1
  O  O39  1  0.74552400  0.03409100  0.81127200  1
  O  O40  1  0.62907700  0.44640300  0.44307700  1
  O  O41  1  0.12907700  0.55359700  0.05692300  1
  O  O42  1  0.37092300  0.55359700  0.55692300  1
  O  O43  1  0.87092300  0.44640300  0.94307700  1
  O  O44  1  0.66142200  0.26559700  0.07196500  1
  O  O45  1  0.16142200  0.73440300  0.42803500  1
  O  O46  1  0.33857800  0.73440300  0.92803500  1
  O  O47  1  0.83857800  0.26559700  0.57196500  1
  O  O48  1  0.80754000  0.47835200  0.09447900  1
  O  O49  1  0.30754000  0.52164800  0.40552100  1
  O  O50  1  0.19246000  0.52164800  0.90552100  1
  O  O51  1  0.69246000  0.47835200  0.59447900  1
  O  O52  1  0.86076300  0.61335900  0.42902500  1
  O  O53  1  0.36076300  0.38664100  0.07097500  1
  O  O54  1  0.13923700  0.38664100  0.57097500  1
  O  O55  1  0.63923700  0.61335900  0.92902500  1
  O  O56  1  0.59027200  0.81248900  0.03535700  1
  O  O57  1  0.09027200  0.18751100  0.46464300  1
  O  O58  1  0.40972800  0.18751100  0.96464300  1
  O  O59  1  0.90972800  0.81248900  0.53535700  1
  O  O60  1  0.56153300  0.88494700  0.46209700  1
  O  O61  1  0.06153300  0.11505300  0.03790300  1
  O  O62  1  0.43846700  0.11505300  0.53790300  1
  O  O63  1  0.93846700  0.88494700  0.96209700  1
  O  O64  1  0.99020700  0.40312300  0.27666300  1
  O  O65  1  0.49020700  0.59687700  0.22333700  1
  O  O66  1  0.00979300  0.59687700  0.72333700  1
  O  O67  1  0.50979300  0.40312300  0.77666300  1
  O  O68  1  0.97152400  0.92849600  0.23076000  1
  O  O69  1  0.47152400  0.07150400  0.26924000  1
  O  O70  1  0.02847600  0.07150400  0.76924000  1
  O  O71  1  0.52847600  0.92849600  0.73076000  1
  O  O72  1  0.59742800  0.23660100  0.33463100  1
  O  O73  1  0.09742800  0.76339900  0.16536900  1
  O  O74  1  0.40257200  0.76339900  0.66536900  1
  O  O75  1  0.90257200  0.23660100  0.83463100  1
  O  O76  1  0.59390500  0.90663700  0.16315000  1
  O  O77  1  0.09390500  0.09336300  0.33685000  1
  O  O78  1  0.40609500  0.09336300  0.83685000  1
  O  O79  1  0.90609500  0.90663700  0.66315000  1
