# generated using pymatgen
data_U2Zn17
_symmetry_space_group_name_H-M   'P 1'
_cell_length_a   8.99198933
_cell_length_b   8.99198933
_cell_length_c   26.34572400
_cell_angle_alpha   90.00000000
_cell_angle_beta   90.00000000
_cell_angle_gamma   119.99999509
_symmetry_Int_Tables_number   1
_chemical_formula_structural   U2Zn17
_chemical_formula_sum   'U12 Zn102'
_cell_volume   1844.81302837
_cell_formula_units_Z   6
loop_
 _symmetry_equiv_pos_site_id
 _symmetry_equiv_pos_as_xyz
  1  'x, y, z'
loop_
 _atom_site_type_symbol
 _atom_site_label
 _atom_site_symmetry_multiplicity
 _atom_site_fract_x
 _atom_site_fract_y
 _atom_site_fract_z
 _atom_site_occupancy
  U  U0  1  0.33333300  0.66666700  0.75000000  1
  U  U1  1  0.33333300  0.66666700  0.41479500  1
  U  U2  1  0.66666700  0.33333300  0.25000000  1
  U  U3  1  0.33333300  0.66666700  0.25000000  1
  U  U4  1  0.00000000  0.00000000  0.91862600  1
  U  U5  1  0.00000000  0.00000000  0.41862600  1
  U  U6  1  0.00000000  0.00000000  0.08137400  1
  U  U7  1  0.66666700  0.33333300  0.91479500  1
  U  U8  1  0.66666700  0.33333300  0.75000000  1
  U  U9  1  0.66666700  0.33333300  0.58520500  1
  U  U10  1  0.33333300  0.66666700  0.08520500  1
  U  U11  1  0.00000000  0.00000000  0.58137400  1
  Zn  Zn12  1  0.82907400  0.65814800  0.65933400  1
  Zn  Zn13  1  0.16231300  0.32462500  0.49266500  1
  Zn  Zn14  1  0.63148900  0.96498100  0.58348700  1
  Zn  Zn15  1  0.66650800  0.63148900  0.41651300  1
  Zn  Zn16  1  0.32462500  0.16231300  0.99266500  1
  Zn  Zn17  1  0.33333300  0.66666700  0.86690400  1
  Zn  Zn18  1  0.17092600  0.82907400  0.34066600  1
  Zn  Zn19  1  0.50475000  0.00949900  0.67417700  1
  Zn  Zn20  1  0.32462500  0.16231300  0.50733500  1
  Zn  Zn21  1  0.49525000  0.99050100  0.17417700  1
  Zn  Zn22  1  0.83337700  0.66675400  0.33320000  1
  Zn  Zn23  1  0.36851100  0.33349200  0.41651300  1
  Zn  Zn24  1  0.00000000  0.00000000  0.69945100  1
  Zn  Zn25  1  0.33349200  0.36851100  0.91651300  1
  Zn  Zn26  1  0.50000000  0.50000000  0.00000000  1
  Zn  Zn27  1  0.65814800  0.82907400  0.15933400  1
  Zn  Zn28  1  0.33349200  0.96498100  0.58348700  1
  Zn  Zn29  1  0.96498100  0.63148900  0.08348700  1
  Zn  Zn30  1  0.82907400  0.65814800  0.84066600  1
  Zn  Zn31  1  0.63148900  0.66650800  0.91651300  1
  Zn  Zn32  1  0.96498100  0.33349200  0.41651300  1
  Zn  Zn33  1  0.66650800  0.63148900  0.08348700  1
  Zn  Zn34  1  0.65814800  0.82907400  0.34066600  1
  Zn  Zn35  1  0.99050100  0.49525000  0.67417700  1
  Zn  Zn36  1  0.16231300  0.32462500  0.00733500  1
  Zn  Zn37  1  0.83768700  0.67537500  0.99266500  1
  Zn  Zn38  1  0.30017200  0.00412500  0.75000000  1
  Zn  Zn39  1  0.99587500  0.69982800  0.75000000  1
  Zn  Zn40  1  0.16231300  0.83768700  0.49266500  1
  Zn  Zn41  1  0.83337700  0.66675400  0.16680000  1
  Zn  Zn42  1  0.33324600  0.16662300  0.33320000  1
  Zn  Zn43  1  0.00000000  0.00000000  0.80054900  1
  Zn  Zn44  1  0.83768700  0.16231300  0.50733500  1
  Zn  Zn45  1  0.49525000  0.50475000  0.17417700  1
  Zn  Zn46  1  0.03501900  0.36851100  0.58348700  1
  Zn  Zn47  1  0.83768700  0.16231300  0.99266500  1
  Zn  Zn48  1  0.50475000  0.00949900  0.82582300  1
  Zn  Zn49  1  0.33333300  0.66666700  0.96758000  1
  Zn  Zn50  1  0.03501900  0.36851100  0.91651300  1
  Zn  Zn51  1  0.33349200  0.96498100  0.91651300  1
  Zn  Zn52  1  0.63148900  0.96498100  0.91651300  1
  Zn  Zn53  1  0.36851100  0.03501900  0.41651300  1
  Zn  Zn54  1  0.16662300  0.33324600  0.66680000  1
  Zn  Zn55  1  0.83768700  0.67537500  0.50733500  1
  Zn  Zn56  1  0.33333300  0.66666700  0.53242000  1
  Zn  Zn57  1  0.66675400  0.83337700  0.83320000  1
  Zn  Zn58  1  0.00000000  0.00000000  0.30054900  1
  Zn  Zn59  1  0.33349200  0.36851100  0.58348700  1
  Zn  Zn60  1  0.29604800  0.99587500  0.25000000  1
  Zn  Zn61  1  0.34185200  0.17092600  0.65933400  1
  Zn  Zn62  1  0.66666700  0.33333300  0.46758000  1
  Zn  Zn63  1  0.66666700  0.33333300  0.36690400  1
  Zn  Zn64  1  0.00412500  0.30017200  0.25000000  1
  Zn  Zn65  1  0.63148900  0.66650800  0.58348700  1
  Zn  Zn66  1  0.66650800  0.03501900  0.41651300  1
  Zn  Zn67  1  0.67537500  0.83768700  0.00733500  1
  Zn  Zn68  1  0.29604800  0.30017200  0.25000000  1
  Zn  Zn69  1  0.50000000  0.00000000  0.50000000  1
  Zn  Zn70  1  0.99587500  0.29604800  0.75000000  1
  Zn  Zn71  1  0.16231300  0.83768700  0.00733500  1
  Zn  Zn72  1  0.82907400  0.17092600  0.65933400  1
  Zn  Zn73  1  0.17092600  0.82907400  0.15933400  1
  Zn  Zn74  1  0.00000000  0.50000000  0.00000000  1
  Zn  Zn75  1  0.16662300  0.83337700  0.83320000  1
  Zn  Zn76  1  0.69982800  0.70395200  0.25000000  1
  Zn  Zn77  1  0.50475000  0.49525000  0.82582300  1
  Zn  Zn78  1  0.96498100  0.33349200  0.08348700  1
  Zn  Zn79  1  0.82907400  0.17092600  0.84066600  1
  Zn  Zn80  1  0.70395200  0.69982800  0.75000000  1
  Zn  Zn81  1  0.16662300  0.33324600  0.83320000  1
  Zn  Zn82  1  0.00000000  0.00000000  0.19945100  1
  Zn  Zn83  1  0.00949900  0.50475000  0.17417700  1
  Zn  Zn84  1  0.67537500  0.83768700  0.49266500  1
  Zn  Zn85  1  0.66650800  0.03501900  0.08348700  1
  Zn  Zn86  1  0.03501900  0.66650800  0.58348700  1
  Zn  Zn87  1  0.00000000  0.50000000  0.50000000  1
  Zn  Zn88  1  0.50000000  0.00000000  0.00000000  1
  Zn  Zn89  1  0.00949900  0.50475000  0.32582300  1
  Zn  Zn90  1  0.99050100  0.49525000  0.82582300  1
  Zn  Zn91  1  0.96498100  0.63148900  0.41651300  1
  Zn  Zn92  1  0.03501900  0.66650800  0.91651300  1
  Zn  Zn93  1  0.49525000  0.99050100  0.32582300  1
  Zn  Zn94  1  0.49525000  0.50475000  0.32582300  1
  Zn  Zn95  1  0.17092600  0.34185200  0.15933400  1
  Zn  Zn96  1  0.36851100  0.33349200  0.08348700  1
  Zn  Zn97  1  0.30017200  0.29604800  0.75000000  1
  Zn  Zn98  1  0.83337700  0.16662300  0.33320000  1
  Zn  Zn99  1  0.33324600  0.16662300  0.16680000  1
  Zn  Zn100  1  0.33333300  0.66666700  0.63309600  1
  Zn  Zn101  1  0.34185200  0.17092600  0.84066600  1
  Zn  Zn102  1  0.00412500  0.70395200  0.25000000  1
  Zn  Zn103  1  0.17092600  0.34185200  0.34066600  1
  Zn  Zn104  1  0.16662300  0.83337700  0.66680000  1
  Zn  Zn105  1  0.70395200  0.00412500  0.75000000  1
  Zn  Zn106  1  0.83337700  0.16662300  0.16680000  1
  Zn  Zn107  1  0.50000000  0.50000000  0.50000000  1
  Zn  Zn108  1  0.66675400  0.83337700  0.66680000  1
  Zn  Zn109  1  0.36851100  0.03501900  0.08348700  1
  Zn  Zn110  1  0.50475000  0.49525000  0.67417700  1
  Zn  Zn111  1  0.69982800  0.99587500  0.25000000  1
  Zn  Zn112  1  0.66666700  0.33333300  0.13309600  1
  Zn  Zn113  1  0.66666700  0.33333300  0.03242000  1
