# generated using pymatgen
data_K2LiTa6(PO8)3
_symmetry_space_group_name_H-M   'P 1'
_cell_length_a   8.47202500
_cell_length_b   8.48089852
_cell_length_c   8.48235566
_cell_angle_alpha   104.03099078
_cell_angle_beta   104.14174800
_cell_angle_gamma   104.13255181
_symmetry_Int_Tables_number   1
_chemical_formula_structural   K2LiTa6(PO8)3
_chemical_formula_sum   'K2 Li1 Ta6 P3 O24'
_cell_volume   542.72216874
_cell_formula_units_Z   1
loop_
 _symmetry_equiv_pos_site_id
 _symmetry_equiv_pos_as_xyz
  1  'x, y, z'
loop_
 _atom_site_type_symbol
 _atom_site_label
 _atom_site_symmetry_multiplicity
 _atom_site_fract_x
 _atom_site_fract_y
 _atom_site_fract_z
 _atom_site_occupancy
  K  K0  1  0.70355100  0.08710700  0.40039100  1
  K  K1  1  0.29605900  0.59933500  0.91349500  1
  Li  Li2  1  0.56641500  0.56636800  0.56465100  1
  Ta  Ta3  1  0.35125700  0.16068600  0.03568600  1
  Ta  Ta4  1  0.03730800  0.35391300  0.16312800  1
  Ta  Ta5  1  0.97043000  0.84360000  0.65194000  1
  Ta  Ta6  1  0.16129800  0.03614400  0.35338000  1
  Ta  Ta7  1  0.65430700  0.97187800  0.84578600  1
  Ta  Ta8  1  0.84509400  0.65246200  0.97155200  1
  P  P9  1  0.72371900  0.49962400  0.27509700  1
  P  P10  1  0.27522500  0.72396600  0.49897800  1
  P  P11  1  0.49924300  0.27562600  0.72362300  1
  O  O12  1  0.97403000  0.50086800  0.02899400  1
  O  O13  1  0.00128700  0.84785700  0.15365800  1
  O  O14  1  0.70874000  0.58173200  0.13098300  1
  O  O15  1  0.20831800  0.31468300  0.06544600  1
  O  O16  1  0.86872100  0.41836900  0.29062800  1
  O  O17  1  0.55258700  0.35679100  0.23786000  1
  O  O18  1  0.75480800  0.63560100  0.44934300  1
  O  O19  1  0.31464900  0.06607300  0.20835800  1
  O  O20  1  0.29237600  0.87021900  0.42026400  1
  O  O21  1  0.23608700  0.55194000  0.35794400  1
  O  O22  1  0.06332400  0.20496300  0.31069500  1
  O  O23  1  0.02504500  0.97006700  0.49711400  1
  O  O24  1  0.78924500  0.92960800  0.68394900  1
  O  O25  1  0.44861400  0.75263400  0.63655500  1
  O  O26  1  0.13270500  0.71049000  0.58363300  1
  O  O27  1  0.93153800  0.68801100  0.79261300  1
  O  O28  1  0.35883300  0.23641000  0.55070200  1
  O  O29  1  0.63457100  0.45055100  0.75425400  1
  O  O30  1  0.58230200  0.13168500  0.70810600  1
  O  O31  1  0.68384900  0.78929700  0.92886800  1
  O  O32  1  0.41977800  0.29310000  0.86955200  1
  O  O33  1  0.84766100  0.15386800  0.00222200  1
  O  O34  1  0.15396800  0.00033600  0.84769300  1
  O  O35  1  0.49905900  0.02713600  0.97185800  1
