# generated using pymatgen
data_RbHO
_symmetry_space_group_name_H-M   'P 1'
_cell_length_a   6.14856453
_cell_length_b   6.14856453
_cell_length_c   4.19343400
_cell_angle_alpha   90.00000000
_cell_angle_beta   90.00000000
_cell_angle_gamma   139.65379733
_symmetry_Int_Tables_number   1
_chemical_formula_structural   RbHO
_chemical_formula_sum   'Rb2 H2 O2'
_cell_volume   102.63442357
_cell_formula_units_Z   2
loop_
 _symmetry_equiv_pos_site_id
 _symmetry_equiv_pos_as_xyz
  1  'x, y, z'
loop_
 _atom_site_type_symbol
 _atom_site_label
 _atom_site_symmetry_multiplicity
 _atom_site_fract_x
 _atom_site_fract_y
 _atom_site_fract_z
 _atom_site_occupancy
  Rb  Rb0  1  0.64177700  0.35822300  0.26320400  1
  Rb  Rb1  1  0.35822300  0.64177700  0.76320400  1
  H  H2  1  0.95701100  0.04298900  0.38742600  1
  H  H3  1  0.04298900  0.95701100  0.88742600  1
  O  O4  1  0.88955000  0.11045000  0.24476200  1
  O  O5  1  0.11045000  0.88955000  0.74476200  1
