# generated using pymatgen
data_Eu2GeO5
_symmetry_space_group_name_H-M   'P 1'
_cell_length_a   7.27437500
_cell_length_b   7.00208000
_cell_length_c   9.47768645
_cell_angle_alpha   74.34477616
_cell_angle_beta   90.00000000
_cell_angle_gamma   90.00000000
_symmetry_Int_Tables_number   1
_chemical_formula_structural   Eu2GeO5
_chemical_formula_sum   'Eu8 Ge4 O20'
_cell_volume   464.84439261
_cell_formula_units_Z   4
loop_
 _symmetry_equiv_pos_site_id
 _symmetry_equiv_pos_as_xyz
  1  'x, y, z'
loop_
 _atom_site_type_symbol
 _atom_site_label
 _atom_site_symmetry_multiplicity
 _atom_site_fract_x
 _atom_site_fract_y
 _atom_site_fract_z
 _atom_site_occupancy
  Eu  Eu0  1  0.62888200  0.26478100  0.51887000  1
  Eu  Eu1  1  0.86480000  0.94818000  0.87044100  1
  Eu  Eu2  1  0.87111800  0.76478100  0.51887000  1
  Eu  Eu3  1  0.12888200  0.23521900  0.48113000  1
  Eu  Eu4  1  0.13520000  0.05182000  0.12955900  1
  Eu  Eu5  1  0.63520000  0.44818000  0.87044100  1
  Eu  Eu6  1  0.37111800  0.73521900  0.48113000  1
  Eu  Eu7  1  0.36480000  0.55182000  0.12955900  1
  Ge  Ge8  1  0.58922300  0.02310900  0.19871400  1
  Ge  Ge9  1  0.08922300  0.47689100  0.80128600  1
  Ge  Ge10  1  0.41077700  0.97689100  0.80128600  1
  Ge  Ge11  1  0.91077700  0.52310900  0.19871400  1
  O  O12  1  0.63464400  0.99427900  0.39034500  1
  O  O13  1  0.05465700  0.72352200  0.10870100  1
  O  O14  1  0.20710400  0.00445800  0.89025900  1
  O  O15  1  0.41718600  0.83134000  0.21601500  1
  O  O16  1  0.58281400  0.16866000  0.78398500  1
  O  O17  1  0.70710400  0.49554200  0.10974100  1
  O  O18  1  0.29289600  0.50445800  0.89025900  1
  O  O19  1  0.44534300  0.22352200  0.10870100  1
  O  O20  1  0.79289600  0.99554200  0.10974100  1
  O  O21  1  0.38335100  0.43091300  0.39218700  1
  O  O22  1  0.86535600  0.49427900  0.39034500  1
  O  O23  1  0.08281400  0.33134000  0.21601500  1
  O  O24  1  0.55465700  0.77647800  0.89129900  1
  O  O25  1  0.91718600  0.66866000  0.78398500  1
  O  O26  1  0.88335100  0.06908700  0.60781300  1
  O  O27  1  0.13464400  0.50572100  0.60965500  1
  O  O28  1  0.94534300  0.27647800  0.89129900  1
  O  O29  1  0.11664900  0.93091300  0.39218700  1
  O  O30  1  0.61664900  0.56908700  0.60781300  1
  O  O31  1  0.36535600  0.00572100  0.60965500  1
