# generated using pymatgen
data_Ho10Te7S10
_symmetry_space_group_name_H-M   'P 1'
_cell_length_a   7.62224000
_cell_length_b   9.65513254
_cell_length_c   11.36074355
_cell_angle_alpha   91.02384700
_cell_angle_beta   102.50674168
_cell_angle_gamma   111.41117528
_symmetry_Int_Tables_number   1
_chemical_formula_structural   Ho10Te7S10
_chemical_formula_sum   'Ho10 Te7 S10'
_cell_volume   755.57360927
_cell_formula_units_Z   1
loop_
 _symmetry_equiv_pos_site_id
 _symmetry_equiv_pos_as_xyz
  1  'x, y, z'
loop_
 _atom_site_type_symbol
 _atom_site_label
 _atom_site_symmetry_multiplicity
 _atom_site_fract_x
 _atom_site_fract_y
 _atom_site_fract_z
 _atom_site_occupancy
  Ho  Ho0  1  0.98840700  0.29257500  0.07198100  1
  Ho  Ho1  1  0.36998000  0.68867600  0.26669600  1
  Ho  Ho2  1  0.41256000  0.10610100  0.13437400  1
  Ho  Ho3  1  0.75715000  0.09919900  0.46552900  1
  Ho  Ho4  1  0.81318800  0.49654400  0.33055800  1
  Ho  Ho5  1  0.16120100  0.50176700  0.66744200  1
  Ho  Ho6  1  0.23049500  0.89457200  0.53679400  1
  Ho  Ho7  1  0.58314800  0.90143900  0.87483000  1
  Ho  Ho8  1  0.63751200  0.29649000  0.74101500  1
  Ho  Ho9  1  0.03121400  0.70804000  0.93999400  1
  Te  Te10  1  0.46286900  0.46031700  0.09682000  1
  Te  Te11  1  0.93857600  0.93948000  0.10603000  1
  Te  Te12  1  0.34223800  0.34483600  0.30615100  1
  Te  Te13  1  0.19821100  0.19942900  0.60179600  1
  Te  Te14  1  0.59103700  0.58993300  0.81537800  1
  Te  Te15  1  0.78966500  0.79164600  0.42260800  1
  Te  Te16  1  0.05521500  0.05137300  0.89701000  1
  S  S17  1  0.99790200  0.56345900  0.14389400  1
  S  S18  1  0.40236000  0.83423400  0.06312400  1
  S  S19  1  0.38503300  0.96402800  0.34349000  1
  S  S20  1  0.78971500  0.22283900  0.25806700  1
  S  S21  1  0.78543300  0.37507400  0.54588500  1
  S  S22  1  0.19440100  0.61943300  0.45762800  1
  S  S23  1  0.20169500  0.77746500  0.74797100  1
  S  S24  1  0.60664600  0.02111000  0.66012800  1
  S  S25  1  0.61041300  0.17457600  0.94955700  1
  S  S26  1  0.01045500  0.43208500  0.86180800  1
