# generated using pymatgen
data_Fe(PO3)2
_symmetry_space_group_name_H-M   'P 1'
_cell_length_a   7.40862620
_cell_length_b   7.40862620
_cell_length_c   10.02562043
_cell_angle_alpha   67.19138552
_cell_angle_beta   67.19138552
_cell_angle_gamma   70.11472227
_symmetry_Int_Tables_number   1
_chemical_formula_structural   Fe(PO3)2
_chemical_formula_sum   'Fe4 P8 O24'
_cell_volume   455.76765553
_cell_formula_units_Z   4
loop_
 _symmetry_equiv_pos_site_id
 _symmetry_equiv_pos_as_xyz
  1  'x, y, z'
loop_
 _atom_site_type_symbol
 _atom_site_label
 _atom_site_symmetry_multiplicity
 _atom_site_fract_x
 _atom_site_fract_y
 _atom_site_fract_z
 _atom_site_occupancy
  Fe  Fe0  1  0.94918400  0.05081600  0.75000000  1
  Fe  Fe1  1  0.05081600  0.94918400  0.25000000  1
  Fe  Fe2  1  0.00000000  0.50000000  0.50000000  1
  Fe  Fe3  1  0.50000000  0.00000000  0.00000000  1
  P  P4  1  0.69809500  0.68648600  0.80609100  1
  P  P5  1  0.74414800  0.27387600  0.02454000  1
  P  P6  1  0.72612400  0.25585200  0.47546000  1
  P  P7  1  0.25585200  0.72612400  0.97546000  1
  P  P8  1  0.30190500  0.31351400  0.19390900  1
  P  P9  1  0.27387600  0.74414800  0.52454000  1
  P  P10  1  0.68648600  0.69809500  0.30609100  1
  P  P11  1  0.31351400  0.30190500  0.69390900  1
  O  O12  1  0.19513500  0.35993900  0.34167400  1
  O  O13  1  0.87346900  0.71851600  0.31918500  1
  O  O14  1  0.08953800  0.83674100  0.90799900  1
  O  O15  1  0.64006100  0.80486500  0.15832600  1
  O  O16  1  0.71502100  0.19326800  0.91733700  1
  O  O17  1  0.53564100  0.30258300  0.15822300  1
  O  O18  1  0.35993900  0.19513500  0.84167400  1
  O  O19  1  0.28148400  0.12653100  0.18081500  1
  O  O20  1  0.76741900  0.50277300  0.94219800  1
  O  O21  1  0.30258300  0.53564100  0.65822300  1
  O  O22  1  0.50277300  0.76741900  0.44219800  1
  O  O23  1  0.12653100  0.28148400  0.68081500  1
  O  O24  1  0.83674100  0.08953800  0.40799900  1
  O  O25  1  0.16325900  0.91046200  0.59200100  1
  O  O26  1  0.69741700  0.46435900  0.34177700  1
  O  O27  1  0.80673200  0.28497900  0.58266300  1
  O  O28  1  0.71851600  0.87346900  0.81918500  1
  O  O29  1  0.23258100  0.49722700  0.05780200  1
  O  O30  1  0.91046200  0.16325900  0.09200100  1
  O  O31  1  0.28497900  0.80673200  0.08266300  1
  O  O32  1  0.46435900  0.69741700  0.84177700  1
  O  O33  1  0.19326800  0.71502100  0.41733700  1
  O  O34  1  0.49722700  0.23258100  0.55780200  1
  O  O35  1  0.80486500  0.64006100  0.65832600  1
