# generated using pymatgen
data_EuZn2
_symmetry_space_group_name_H-M   'P 1'
_cell_length_a   5.85623425
_cell_length_b   5.85623425
_cell_length_c   5.85623425
_cell_angle_alpha   132.97255802
_cell_angle_beta   100.14594945
_cell_angle_gamma   98.17492722
_symmetry_Int_Tables_number   1
_chemical_formula_structural   EuZn2
_chemical_formula_sum   'Eu2 Zn4'
_cell_volume   134.72265514
_cell_formula_units_Z   2
loop_
 _symmetry_equiv_pos_site_id
 _symmetry_equiv_pos_as_xyz
  1  'x, y, z'
loop_
 _atom_site_type_symbol
 _atom_site_label
 _atom_site_symmetry_multiplicity
 _atom_site_fract_x
 _atom_site_fract_y
 _atom_site_fract_z
 _atom_site_occupancy
  Eu  Eu0  1  0.70112100  0.45112100  0.25000000  1
  Eu  Eu1  1  0.29887900  0.54887900  0.75000000  1
  Zn  Zn2  1  0.72596700  0.16425600  0.56171100  1
  Zn  Zn3  1  0.27403300  0.83574400  0.43828900  1
  Zn  Zn4  1  0.10254500  0.16425600  0.93828900  1
  Zn  Zn5  1  0.89745500  0.83574400  0.06171100  1
