# generated using pymatgen
data_YHO2
_symmetry_space_group_name_H-M   'P 1'
_cell_length_a   3.67079700
_cell_length_b   4.34605200
_cell_length_c   6.14608908
_cell_angle_alpha   67.93599398
_cell_angle_beta   90.00000000
_cell_angle_gamma   90.00000000
_symmetry_Int_Tables_number   1
_chemical_formula_structural   YHO2
_chemical_formula_sum   'Y2 H2 O4'
_cell_volume   90.87065655
_cell_formula_units_Z   2
loop_
 _symmetry_equiv_pos_site_id
 _symmetry_equiv_pos_as_xyz
  1  'x, y, z'
loop_
 _atom_site_type_symbol
 _atom_site_label
 _atom_site_symmetry_multiplicity
 _atom_site_fract_x
 _atom_site_fract_y
 _atom_site_fract_z
 _atom_site_occupancy
  Y  Y0  1  0.75000000  0.35309900  0.31069500  1
  Y  Y1  1  0.25000000  0.64690100  0.68930500  1
  H  H2  1  0.25000000  0.88839600  0.09770600  1
  H  H3  1  0.75000000  0.11160400  0.90229400  1
  O  O4  1  0.25000000  0.21471700  0.55020800  1
  O  O5  1  0.75000000  0.78528300  0.44979200  1
  O  O6  1  0.25000000  0.68346100  0.06753500  1
  O  O7  1  0.75000000  0.31653900  0.93246500  1
