# generated using pymatgen
data_Ca5NbN5
_symmetry_space_group_name_H-M   'P 1'
_cell_length_a   6.97795323
_cell_length_b   6.97795323
_cell_length_c   8.84469449
_cell_angle_alpha   80.85568366
_cell_angle_beta   80.85568366
_cell_angle_gamma   60.13884191
_symmetry_Int_Tables_number   1
_chemical_formula_structural   Ca5NbN5
_chemical_formula_sum   'Ca10 Nb2 N10'
_cell_volume   367.13561739
_cell_formula_units_Z   2
loop_
 _symmetry_equiv_pos_site_id
 _symmetry_equiv_pos_as_xyz
  1  'x, y, z'
loop_
 _atom_site_type_symbol
 _atom_site_label
 _atom_site_symmetry_multiplicity
 _atom_site_fract_x
 _atom_site_fract_y
 _atom_site_fract_z
 _atom_site_occupancy
  Ca  Ca0  1  0.87416500  0.35874900  0.83910100  1
  Ca  Ca1  1  0.87266800  0.87266800  0.82602000  1
  Ca  Ca2  1  0.73447300  0.73447300  0.53262900  1
  Ca  Ca3  1  0.74802500  0.25813900  0.50724000  1
  Ca  Ca4  1  0.61886000  0.14267700  0.14997800  1
  Ca  Ca5  1  0.35874900  0.87416500  0.83910100  1
  Ca  Ca6  1  0.25813900  0.74802500  0.50724000  1
  Ca  Ca7  1  0.24033500  0.24033500  0.49179000  1
  Ca  Ca8  1  0.14491400  0.14491400  0.16467100  1
  Ca  Ca9  1  0.14267700  0.61886000  0.14997800  1
  Nb  Nb10  1  0.63370700  0.63370700  0.21939100  1
  Nb  Nb11  1  0.36950700  0.36950700  0.77087100  1
  N  N12  1  0.91785700  0.46881200  0.32291400  1
  N  N13  1  0.99412400  0.99412400  0.03187000  1
  N  N14  1  0.68121200  0.68121200  0.99744600  1
  N  N15  1  0.53730800  0.53730800  0.69146900  1
  N  N16  1  0.46881200  0.91785700  0.32291400  1
  N  N17  1  0.53907000  0.08575000  0.67248100  1
  N  N18  1  0.46725100  0.46725100  0.29859600  1
  N  N19  1  0.31780400  0.31780400  0.99197400  1
  N  N20  1  0.05688000  0.05688000  0.64565100  1
  N  N21  1  0.08575000  0.53907000  0.67248100  1
