# generated using pymatgen
data_Nd2(MoO4)3
_symmetry_space_group_name_H-M   'P 1'
_cell_length_a   7.02374570
_cell_length_b   7.02374570
_cell_length_c   11.99712208
_cell_angle_alpha   80.13800156
_cell_angle_beta   80.13800156
_cell_angle_gamma   114.39376391
_symmetry_Int_Tables_number   1
_chemical_formula_structural   Nd2(MoO4)3
_chemical_formula_sum   'Nd4 Mo6 O24'
_cell_volume   511.37170109
_cell_formula_units_Z   2
loop_
 _symmetry_equiv_pos_site_id
 _symmetry_equiv_pos_as_xyz
  1  'x, y, z'
loop_
 _atom_site_type_symbol
 _atom_site_label
 _atom_site_symmetry_multiplicity
 _atom_site_fract_x
 _atom_site_fract_y
 _atom_site_fract_z
 _atom_site_occupancy
  Nd  Nd0  1  0.79169600  0.54562700  0.41112900  1
  Nd  Nd1  1  0.45437300  0.20830400  0.08887100  1
  Nd  Nd2  1  0.20830400  0.45437300  0.58887100  1
  Nd  Nd3  1  0.54562700  0.79169600  0.91112900  1
  Mo  Mo4  1  0.37416800  0.62583200  0.25000000  1
  Mo  Mo5  1  0.03725600  0.28269400  0.92591600  1
  Mo  Mo6  1  0.62583200  0.37416800  0.75000000  1
  Mo  Mo7  1  0.71730600  0.96274400  0.57408400  1
  Mo  Mo8  1  0.28269400  0.03725600  0.42591600  1
  Mo  Mo9  1  0.96274400  0.71730600  0.07408400  1
  O  O10  1  0.16844500  0.57695500  0.38441400  1
  O  O11  1  0.62561700  0.70233400  0.28359100  1
  O  O12  1  0.42304500  0.83155500  0.11558600  1
  O  O13  1  0.07424200  0.98218700  0.09974400  1
  O  O14  1  0.83500300  0.27795400  0.04047800  1
  O  O15  1  0.92575800  0.01781300  0.90025600  1
  O  O16  1  0.30816100  0.39304100  0.95654700  1
  O  O17  1  0.06656900  0.45538500  0.78908800  1
  O  O18  1  0.57695500  0.16844500  0.88441400  1
  O  O19  1  0.37438300  0.29766600  0.71640900  1
  O  O20  1  0.70233400  0.62561700  0.78359100  1
  O  O21  1  0.54461500  0.93343100  0.71091200  1
  O  O22  1  0.83155500  0.42304500  0.61558600  1
  O  O23  1  0.60695900  0.69183900  0.54345300  1
  O  O24  1  0.98218700  0.07424200  0.59974400  1
  O  O25  1  0.72204600  0.16499700  0.45952200  1
  O  O26  1  0.27795400  0.83500300  0.54047800  1
  O  O27  1  0.01781300  0.92575800  0.40025600  1
  O  O28  1  0.39304100  0.30816100  0.45654700  1
  O  O29  1  0.45538500  0.06656900  0.28908800  1
  O  O30  1  0.29766600  0.37438300  0.21640900  1
  O  O31  1  0.93343100  0.54461500  0.21091200  1
  O  O32  1  0.69183900  0.60695900  0.04345300  1
  O  O33  1  0.16499700  0.72204600  0.95952200  1
