# generated using pymatgen
data_Cs3MnH5
_symmetry_space_group_name_H-M   'P 1'
_cell_length_a   8.69208910
_cell_length_b   8.69208910
_cell_length_c   8.69208910
_cell_angle_alpha   121.90306205
_cell_angle_beta   121.90306205
_cell_angle_gamma   86.73423977
_symmetry_Int_Tables_number   1
_chemical_formula_structural   Cs3MnH5
_chemical_formula_sum   'Cs6 Mn2 H10'
_cell_volume   450.20986924
_cell_formula_units_Z   2
loop_
 _symmetry_equiv_pos_site_id
 _symmetry_equiv_pos_as_xyz
  1  'x, y, z'
loop_
 _atom_site_type_symbol
 _atom_site_label
 _atom_site_symmetry_multiplicity
 _atom_site_fract_x
 _atom_site_fract_y
 _atom_site_fract_z
 _atom_site_occupancy
  Cs  Cs0  1  0.25000000  0.25000000  0.00000000  1
  Cs  Cs1  1  0.75000000  0.75000000  0.00000000  1
  Cs  Cs2  1  0.18337600  0.68337600  0.86675100  1
  Cs  Cs3  1  0.81662400  0.31662400  0.13324900  1
  Cs  Cs4  1  0.68337600  0.81662400  0.50000000  1
  Cs  Cs5  1  0.31662400  0.18337600  0.50000000  1
  Mn  Mn6  1  0.25000000  0.75000000  0.50000000  1
  Mn  Mn7  1  0.75000000  0.25000000  0.50000000  1
  H  H8  1  0.45328600  0.95328600  0.73849800  1
  H  H9  1  0.21478800  0.71478800  0.26150200  1
  H  H10  1  0.95328600  0.21478800  0.50000000  1
  H  H11  1  0.71478800  0.45328600  0.50000000  1
  H  H12  1  0.54671400  0.04671400  0.26150200  1
  H  H13  1  0.78521200  0.28521200  0.73849800  1
  H  H14  1  0.04671400  0.78521200  0.50000000  1
  H  H15  1  0.28521200  0.54671400  0.50000000  1
  H  H16  1  0.50000000  0.50000000  0.00000000  1
  H  H17  1  0.00000000  0.00000000  0.00000000  1
