# generated using pymatgen
data_U2CuP2(H4O5)4
_symmetry_space_group_name_H-M   'P 1'
_cell_length_a   7.02630700
_cell_length_b   7.02630700
_cell_length_c   17.68682000
_cell_angle_alpha   90.00000000
_cell_angle_beta   90.00000000
_cell_angle_gamma   90.00000000
_symmetry_Int_Tables_number   1
_chemical_formula_structural   U2CuP2(H4O5)4
_chemical_formula_sum   'U4 Cu2 P4 H32 O40'
_cell_volume   873.18044074
_cell_formula_units_Z   2
loop_
 _symmetry_equiv_pos_site_id
 _symmetry_equiv_pos_as_xyz
  1  'x, y, z'
loop_
 _atom_site_type_symbol
 _atom_site_label
 _atom_site_symmetry_multiplicity
 _atom_site_fract_x
 _atom_site_fract_y
 _atom_site_fract_z
 _atom_site_occupancy
  U  U0  1  0.00000000  0.50000000  0.94838800  1
  U  U1  1  0.50000000  0.00000000  0.05161200  1
  U  U2  1  0.00000000  0.50000000  0.45053900  1
  U  U3  1  0.50000000  0.00000000  0.54946100  1
  Cu  Cu4  1  0.00000000  0.50000000  0.68760700  1
  Cu  Cu5  1  0.50000000  0.00000000  0.31239300  1
  P  P6  1  0.50000000  0.50000000  0.00000000  1
  P  P7  1  0.00000000  0.00000000  0.00000000  1
  P  P8  1  0.50000000  0.50000000  0.50000000  1
  P  P9  1  0.00000000  0.00000000  0.50000000  1
  H  H10  1  0.66912200  0.61792800  0.14202000  1
  H  H11  1  0.33087800  0.38207200  0.14202000  1
  H  H12  1  0.11792800  0.83087800  0.14202000  1
  H  H13  1  0.88207200  0.16912200  0.14202000  1
  H  H14  1  0.83087800  0.88207200  0.85798000  1
  H  H15  1  0.16912200  0.11792800  0.85798000  1
  H  H16  1  0.38207200  0.66912200  0.85798000  1
  H  H17  1  0.61792800  0.33087800  0.85798000  1
  H  H18  1  0.88883800  0.83048600  0.64551700  1
  H  H19  1  0.11116200  0.16951400  0.64551700  1
  H  H20  1  0.33048600  0.61116200  0.64551700  1
  H  H21  1  0.66951400  0.38883800  0.64551700  1
  H  H22  1  0.61116200  0.66951400  0.35448300  1
  H  H23  1  0.38883800  0.33048600  0.35448300  1
  H  H24  1  0.16951400  0.88883800  0.35448300  1
  H  H25  1  0.83048600  0.11116200  0.35448300  1
  H  H26  1  0.87652900  0.82628100  0.73637900  1
  H  H27  1  0.12347100  0.17371900  0.73637900  1
  H  H28  1  0.32628100  0.62347100  0.73637900  1
  H  H29  1  0.67371900  0.37652900  0.73637900  1
  H  H30  1  0.62347100  0.67371900  0.26362100  1
  H  H31  1  0.37652900  0.32628100  0.26362100  1
  H  H32  1  0.17371900  0.87652900  0.26362100  1
  H  H33  1  0.82628100  0.12347100  0.26362100  1
  H  H34  1  0.78172100  0.46310600  0.18978800  1
  H  H35  1  0.21827900  0.53689400  0.18978800  1
  H  H36  1  0.96310600  0.71827900  0.18978800  1
  H  H37  1  0.03689400  0.28172100  0.18978800  1
  H  H38  1  0.71827900  0.03689400  0.81021200  1
  H  H39  1  0.28172100  0.96310600  0.81021200  1
  H  H40  1  0.53689400  0.78172100  0.81021200  1
  H  H41  1  0.46310600  0.21827900  0.81021200  1
  O  O42  1  0.00000000  0.50000000  0.55413600  1
  O  O43  1  0.50000000  0.00000000  0.44586400  1
  O  O44  1  0.00000000  0.50000000  0.05022700  1
  O  O45  1  0.50000000  0.00000000  0.94977300  1
  O  O46  1  0.00000000  0.50000000  0.34822000  1
  O  O47  1  0.50000000  0.00000000  0.65178000  1
  O  O48  1  0.00000000  0.50000000  0.84527000  1
  O  O49  1  0.50000000  0.00000000  0.15473000  1
  O  O50  1  0.32682400  0.53687700  0.94738100  1
  O  O51  1  0.67317600  0.46312300  0.94738100  1
  O  O52  1  0.03687700  0.17317600  0.94738100  1
  O  O53  1  0.96312300  0.82682400  0.94738100  1
  O  O54  1  0.17317600  0.96312300  0.05261900  1
  O  O55  1  0.82682400  0.03687700  0.05261900  1
  O  O56  1  0.46312300  0.32682400  0.05261900  1
  O  O57  1  0.53687700  0.67317600  0.05261900  1
  O  O58  1  0.32646700  0.45610000  0.44822700  1
  O  O59  1  0.67353300  0.54390000  0.44822700  1
  O  O60  1  0.95610000  0.17353300  0.44822700  1
  O  O61  1  0.04390000  0.82646700  0.44822700  1
  O  O62  1  0.17353300  0.04390000  0.55177300  1
  O  O63  1  0.82646700  0.95610000  0.55177300  1
  O  O64  1  0.54390000  0.32646700  0.55177300  1
  O  O65  1  0.45610000  0.67353300  0.55177300  1
  O  O66  1  0.95107900  0.77891800  0.69117600  1
  O  O67  1  0.04892100  0.22108200  0.69117600  1
  O  O68  1  0.27891800  0.54892100  0.69117600  1
  O  O69  1  0.72108200  0.45107900  0.69117600  1
  O  O70  1  0.54892100  0.72108200  0.30882400  1
  O  O71  1  0.45107900  0.27891800  0.30882400  1
  O  O72  1  0.22108200  0.95107900  0.30882400  1
  O  O73  1  0.77891800  0.04892100  0.30882400  1
  O  O74  1  0.74034000  0.59915900  0.18956800  1
  O  O75  1  0.25966000  0.40084100  0.18956800  1
  O  O76  1  0.09915900  0.75966000  0.18956800  1
  O  O77  1  0.90084100  0.24034000  0.18956800  1
  O  O78  1  0.75966000  0.90084100  0.81043200  1
  O  O79  1  0.24034000  0.09915900  0.81043200  1
  O  O80  1  0.40084100  0.74034000  0.81043200  1
  O  O81  1  0.59915900  0.25966000  0.81043200  1
