# generated using pymatgen
data_Sc5Bi3
_symmetry_space_group_name_H-M   'P 1'
_cell_length_a   7.84781500
_cell_length_b   8.98799700
_cell_length_c   11.34043100
_cell_angle_alpha   90.00000000
_cell_angle_beta   90.00000000
_cell_angle_gamma   90.00000000
_symmetry_Int_Tables_number   1
_chemical_formula_structural   Sc5Bi3
_chemical_formula_sum   'Sc20 Bi12'
_cell_volume   799.91020233
_cell_formula_units_Z   4
loop_
 _symmetry_equiv_pos_site_id
 _symmetry_equiv_pos_as_xyz
  1  'x, y, z'
loop_
 _atom_site_type_symbol
 _atom_site_label
 _atom_site_symmetry_multiplicity
 _atom_site_fract_x
 _atom_site_fract_y
 _atom_site_fract_z
 _atom_site_occupancy
  Sc  Sc0  1  0.19379800  0.06394900  0.93571300  1
  Sc  Sc1  1  0.30620200  0.06394900  0.43571300  1
  Sc  Sc2  1  0.30620200  0.43605100  0.43571300  1
  Sc  Sc3  1  0.32261000  0.75000000  0.73112600  1
  Sc  Sc4  1  0.47914200  0.75000000  0.00626700  1
  Sc  Sc5  1  0.15930800  0.25000000  0.21266200  1
  Sc  Sc6  1  0.80620200  0.93605100  0.06428700  1
  Sc  Sc7  1  0.65930800  0.75000000  0.28733800  1
  Sc  Sc8  1  0.02085800  0.75000000  0.50626700  1
  Sc  Sc9  1  0.69379800  0.93605100  0.56428700  1
  Sc  Sc10  1  0.19379800  0.43605100  0.93571300  1
  Sc  Sc11  1  0.34069200  0.25000000  0.71266200  1
  Sc  Sc12  1  0.17739000  0.75000000  0.23112600  1
  Sc  Sc13  1  0.97914200  0.25000000  0.49373300  1
  Sc  Sc14  1  0.69379800  0.56394900  0.56428700  1
  Sc  Sc15  1  0.67739000  0.25000000  0.26887400  1
  Sc  Sc16  1  0.80620200  0.56394900  0.06428700  1
  Sc  Sc17  1  0.52085800  0.25000000  0.99373300  1
  Sc  Sc18  1  0.82261000  0.25000000  0.76887400  1
  Sc  Sc19  1  0.84069200  0.75000000  0.78733800  1
  Bi  Bi20  1  0.06419900  0.48997900  0.67553900  1
  Bi  Bi21  1  0.56419900  0.51002100  0.82446100  1
  Bi  Bi22  1  0.40162500  0.75000000  0.47501600  1
  Bi  Bi23  1  0.93580100  0.98997900  0.32446100  1
  Bi  Bi24  1  0.43580100  0.01002100  0.17553900  1
  Bi  Bi25  1  0.56419900  0.98997900  0.82446100  1
  Bi  Bi26  1  0.09837500  0.75000000  0.97501600  1
  Bi  Bi27  1  0.43580100  0.48997900  0.17553900  1
  Bi  Bi28  1  0.06419900  0.01002100  0.67553900  1
  Bi  Bi29  1  0.93580100  0.51002100  0.32446100  1
  Bi  Bi30  1  0.59837500  0.25000000  0.52498400  1
  Bi  Bi31  1  0.90162500  0.25000000  0.02498400  1
