# generated using pymatgen
data_EuSb2
_symmetry_space_group_name_H-M   'P 1'
_cell_length_a   4.41853800
_cell_length_b   4.67199000
_cell_length_c   8.85974441
_cell_angle_alpha   76.01023823
_cell_angle_beta   90.00000000
_cell_angle_gamma   90.00000000
_symmetry_Int_Tables_number   1
_chemical_formula_structural   EuSb2
_chemical_formula_sum   'Eu2 Sb4'
_cell_volume   177.47008297
_cell_formula_units_Z   2
loop_
 _symmetry_equiv_pos_site_id
 _symmetry_equiv_pos_as_xyz
  1  'x, y, z'
loop_
 _atom_site_type_symbol
 _atom_site_label
 _atom_site_symmetry_multiplicity
 _atom_site_fract_x
 _atom_site_fract_y
 _atom_site_fract_z
 _atom_site_occupancy
  Eu  Eu0  1  0.25000000  0.58926500  0.29466100  1
  Eu  Eu1  1  0.75000000  0.41073500  0.70533900  1
  Sb  Sb2  1  0.25000000  0.94921400  0.61900100  1
  Sb  Sb3  1  0.75000000  0.05078600  0.38099900  1
  Sb  Sb4  1  0.75000000  0.78661600  0.98776900  1
  Sb  Sb5  1  0.25000000  0.21338400  0.01223100  1
