# generated using pymatgen
data_K11(In2Bi3)3
_symmetry_space_group_name_H-M   'P 1'
_cell_length_a   12.28648200
_cell_length_b   13.56656498
_cell_length_c   13.95565621
_cell_angle_alpha   76.85055240
_cell_angle_beta   63.95105446
_cell_angle_gamma   76.24301325
_symmetry_Int_Tables_number   1
_chemical_formula_structural   K11(In2Bi3)3
_chemical_formula_sum   'K22 In12 Bi18'
_cell_volume   2009.66650138
_cell_formula_units_Z   2
loop_
 _symmetry_equiv_pos_site_id
 _symmetry_equiv_pos_as_xyz
  1  'x, y, z'
loop_
 _atom_site_type_symbol
 _atom_site_label
 _atom_site_symmetry_multiplicity
 _atom_site_fract_x
 _atom_site_fract_y
 _atom_site_fract_z
 _atom_site_occupancy
  K  K0  1  0.45078900  0.25446500  0.70938800  1
  K  K1  1  0.54921100  0.74553500  0.29061200  1
  K  K2  1  0.70057200  0.69160700  0.51391200  1
  K  K3  1  0.20340500  0.45604500  0.19349000  1
  K  K4  1  0.79659500  0.54395500  0.80651000  1
  K  K5  1  0.93916000  0.01135900  0.38154500  1
  K  K6  1  0.94085700  0.28475800  0.22087600  1
  K  K7  1  0.95770000  0.25634300  0.71407000  1
  K  K8  1  0.60992600  0.99020300  0.07236200  1
  K  K9  1  0.39007400  0.00979700  0.92763800  1
  K  K10  1  0.59387300  0.97859400  0.59104700  1
  K  K11  1  0.29942800  0.30839300  0.48608800  1
  K  K12  1  0.37595900  0.54684000  0.80936600  1
  K  K13  1  0.41016300  0.71894600  0.07055600  1
  K  K14  1  0.06084000  0.98864100  0.61845500  1
  K  K15  1  0.62404100  0.45316000  0.19063400  1
  K  K16  1  0.05914300  0.71524200  0.77912400  1
  K  K17  1  0.40612700  0.02140600  0.40895300  1
  K  K18  1  0.00000000  0.50000000  0.00000000  1
  K  K19  1  0.58983700  0.28105400  0.92944400  1
  K  K20  1  0.04230000  0.74365700  0.28593000  1
  K  K21  1  0.00000000  0.00000000  0.00000000  1
  In  In22  1  0.70731100  0.14474100  0.20490200  1
  In  In23  1  0.12212800  0.24265500  0.88819300  1
  In  In24  1  0.29268900  0.85525900  0.79509800  1
  In  In25  1  0.62819800  0.44738200  0.45999300  1
  In  In26  1  0.20858900  0.78557000  0.45255500  1
  In  In27  1  0.79141100  0.21443000  0.54744500  1
  In  In28  1  0.06619900  0.55064400  0.53783100  1
  In  In29  1  0.26392300  0.15278500  0.20691900  1
  In  In30  1  0.73607700  0.84721500  0.79308100  1
  In  In31  1  0.37180200  0.55261800  0.54000700  1
  In  In32  1  0.87787200  0.75734500  0.11180700  1
  In  In33  1  0.93380100  0.44935600  0.46216900  1
  Bi  Bi34  1  0.63498900  0.22951200  0.41991700  1
  Bi  Bi35  1  0.15459300  0.72158400  0.00065700  1
  Bi  Bi36  1  0.45643000  0.25258800  0.21410500  1
  Bi  Bi37  1  0.27348000  0.92750000  0.23782900  1
  Bi  Bi38  1  0.69306300  0.41039200  0.65469400  1
  Bi  Bi39  1  0.26634300  0.28370400  0.99766600  1
  Bi  Bi40  1  0.30693700  0.58960800  0.34530600  1
  Bi  Bi41  1  0.36501100  0.77048800  0.58008300  1
  Bi  Bi42  1  0.06667000  0.22910000  0.42497700  1
  Bi  Bi43  1  0.15672500  0.44926200  0.72094200  1
  Bi  Bi44  1  0.72652000  0.07250000  0.76217100  1
  Bi  Bi45  1  0.84327500  0.55073800  0.27905800  1
  Bi  Bi46  1  0.93333000  0.77090000  0.57502300  1
  Bi  Bi47  1  0.75806500  0.91797400  0.27288700  1
  Bi  Bi48  1  0.54357000  0.74741200  0.78589500  1
  Bi  Bi49  1  0.24193500  0.08202600  0.72711300  1
  Bi  Bi50  1  0.84540700  0.27841600  0.99934300  1
  Bi  Bi51  1  0.73365700  0.71629600  0.00233400  1
