# generated using pymatgen
data_La20Ti11(S22O3)2
_symmetry_space_group_name_H-M   'P 1'
_cell_length_a   10.49028476
_cell_length_b   14.42127496
_cell_length_c   22.81370047
_cell_angle_alpha   90.00000000
_cell_angle_beta   90.00000000
_cell_angle_gamma   90.00000000
_symmetry_Int_Tables_number   1
_chemical_formula_structural   La20Ti11(S22O3)2
_chemical_formula_sum   'La40 Ti22 S88 O12'
_cell_volume   3451.33145732
_cell_formula_units_Z   2
loop_
 _symmetry_equiv_pos_site_id
 _symmetry_equiv_pos_as_xyz
  1  'x, y, z'
loop_
 _atom_site_type_symbol
 _atom_site_label
 _atom_site_symmetry_multiplicity
 _atom_site_fract_x
 _atom_site_fract_y
 _atom_site_fract_z
 _atom_site_occupancy
  La  La0  1  0.04926030  0.95931150  0.83950472  1
  La  La1  1  0.04926030  0.54068850  0.83950472  1
  La  La2  1  0.36377720  0.46231425  0.33586884  1
  La  La3  1  0.36437812  0.75000000  0.33959106  1
  La  La4  1  0.61274599  0.25000000  0.03415339  1
  La  La5  1  0.36377720  0.46231425  0.16413116  1
  La  La6  1  0.95268393  0.75000000  0.15884523  1
  La  La7  1  0.95073970  0.45931150  0.16049528  1
  La  La8  1  0.33291004  0.05520247  0.53091235  1
  La  La9  1  0.92603970  0.75000000  0.96691650  1
  La  La10  1  0.33291004  0.05520247  0.96908765  1
  La  La11  1  0.92603970  0.75000000  0.53308350  1
  La  La12  1  0.95073970  0.04068850  0.33950472  1
  La  La13  1  0.04926030  0.54068850  0.66049528  1
  La  La14  1  0.04731607  0.25000000  0.65884523  1
  La  La15  1  0.33291004  0.44479753  0.96908765  1
  La  La16  1  0.63622280  0.53768575  0.83586884  1
  La  La17  1  0.63562188  0.25000000  0.66040894  1
  La  La18  1  0.07396030  0.25000000  0.46691650  1
  La  La19  1  0.36437812  0.75000000  0.16040894  1
  La  La20  1  0.95073970  0.04068850  0.16049528  1
  La  La21  1  0.38725401  0.75000000  0.53415339  1
  La  La22  1  0.63622280  0.96231425  0.83586884  1
  La  La23  1  0.61274599  0.25000000  0.46584661  1
  La  La24  1  0.66708996  0.94479753  0.46908765  1
  La  La25  1  0.66708996  0.55520247  0.03091235  1
  La  La26  1  0.95073970  0.45931150  0.33950472  1
  La  La27  1  0.63622280  0.96231425  0.66413116  1
  La  La28  1  0.38725401  0.75000000  0.96584661  1
  La  La29  1  0.63562188  0.25000000  0.83959106  1
  La  La30  1  0.63622280  0.53768575  0.66413116  1
  La  La31  1  0.95268393  0.75000000  0.34115477  1
  La  La32  1  0.04926030  0.95931150  0.66049528  1
  La  La33  1  0.36377720  0.03768575  0.33586884  1
  La  La34  1  0.07396030  0.25000000  0.03308350  1
  La  La35  1  0.33291004  0.44479753  0.53091235  1
  La  La36  1  0.04731607  0.25000000  0.84115477  1
  La  La37  1  0.66708996  0.55520247  0.46908765  1
  La  La38  1  0.36377720  0.03768575  0.16413116  1
  La  La39  1  0.66708996  0.94479753  0.03091235  1
  Ti  Ti40  1  0.84111285  0.75000000  0.75000000  1
  Ti  Ti41  1  0.33912855  0.59826046  0.75000000  1
  Ti  Ti42  1  0.15888715  0.25000000  0.25000000  1
  Ti  Ti43  1  0.15548224  0.61860602  0.06218918  1
  Ti  Ti44  1  0.66465660  0.63288199  0.25000000  1
  Ti  Ti45  1  0.33534340  0.13288199  0.75000000  1
  Ti  Ti46  1  0.54303778  0.75000000  0.75000000  1
  Ti  Ti47  1  0.15548224  0.88139398  0.06218918  1
  Ti  Ti48  1  0.33534340  0.36711801  0.75000000  1
  Ti  Ti49  1  0.66465660  0.86711801  0.25000000  1
  Ti  Ti50  1  0.45696222  0.25000000  0.25000000  1
  Ti  Ti51  1  0.84451776  0.38139398  0.93781082  1
  Ti  Ti52  1  0.33912855  0.90173954  0.75000000  1
  Ti  Ti53  1  0.15548224  0.88139398  0.43781082  1
  Ti  Ti54  1  0.14158540  0.75000000  0.75000000  1
  Ti  Ti55  1  0.84451776  0.11860602  0.56218918  1
  Ti  Ti56  1  0.85841460  0.25000000  0.25000000  1
  Ti  Ti57  1  0.84451776  0.11860602  0.93781082  1
  Ti  Ti58  1  0.66087145  0.09826046  0.25000000  1
  Ti  Ti59  1  0.66087145  0.40173954  0.25000000  1
  Ti  Ti60  1  0.15548224  0.61860602  0.43781082  1
  Ti  Ti61  1  0.84451776  0.38139398  0.56218918  1
  S  S62  1  0.92175273  0.88705986  0.07007981  1
  S  S63  1  0.83950008  0.38060762  0.04361234  1
  S  S64  1  0.16049992  0.61939238  0.95638766  1
  S  S65  1  0.66133370  0.25000000  0.18185300  1
  S  S66  1  0.49830618  0.08835710  0.06613220  1
  S  S67  1  0.84177888  0.11656420  0.82981192  1
  S  S68  1  0.16122543  0.06014727  0.42525056  1
  S  S69  1  0.49830618  0.41164290  0.06613220  1
  S  S70  1  0.38902360  0.88021560  0.06876190  1
  S  S71  1  0.83877457  0.93985273  0.57474944  1
  S  S72  1  0.33887711  0.25000000  0.67317391  1
  S  S73  1  0.07824727  0.38705986  0.92992019  1
  S  S74  1  0.83950008  0.11939238  0.04361234  1
  S  S75  1  0.84177888  0.38343580  0.82981192  1
  S  S76  1  0.33416189  0.00834713  0.67059049  1
  S  S77  1  0.67024095  0.75000000  0.01172630  1
  S  S78  1  0.16122543  0.43985273  0.07474944  1
  S  S79  1  0.31973187  0.25000000  0.33144975  1
  S  S80  1  0.33416189  0.49165287  0.67059049  1
  S  S81  1  0.33416189  0.49165287  0.82940951  1
  S  S82  1  0.10585904  0.38650518  0.75000000  1
  S  S83  1  0.10585904  0.11349482  0.75000000  1
  S  S84  1  0.38902360  0.61978440  0.06876190  1
  S  S85  1  0.15822112  0.61656420  0.17018808  1
  S  S86  1  0.66583811  0.50834713  0.17059049  1
  S  S87  1  0.83950008  0.38060762  0.45638766  1
  S  S88  1  0.66583811  0.99165287  0.32940951  1
  S  S89  1  0.84177888  0.38343580  0.67018808  1
  S  S90  1  0.66112289  0.75000000  0.17317391  1
  S  S91  1  0.61097640  0.11978440  0.93123810  1
  S  S92  1  0.50169382  0.91164290  0.56613220  1
  S  S93  1  0.50169382  0.58835710  0.56613220  1
  S  S94  1  0.66583811  0.99165287  0.17059049  1
  S  S95  1  0.92175273  0.88705986  0.42992019  1
  S  S96  1  0.07824727  0.38705986  0.57007981  1
  S  S97  1  0.33887711  0.25000000  0.82682609  1
  S  S98  1  0.83877457  0.93985273  0.92525056  1
  S  S99  1  0.67024095  0.75000000  0.48827370  1
  S  S100  1  0.84177888  0.11656420  0.67018808  1
  S  S101  1  0.00160464  0.25000000  0.33408069  1
  S  S102  1  0.16049992  0.61939238  0.54361234  1
  S  S103  1  0.66133370  0.25000000  0.31814700  1
  S  S104  1  0.15822112  0.88343580  0.17018808  1
  S  S105  1  0.61097640  0.38021560  0.93123810  1
  S  S106  1  0.83877457  0.56014727  0.57474944  1
  S  S107  1  0.31973187  0.25000000  0.16855025  1
  S  S108  1  0.32975905  0.25000000  0.98827370  1
  S  S109  1  0.56797559  0.11474167  0.75000000  1
  S  S110  1  0.43202441  0.88525833  0.25000000  1
  S  S111  1  0.50169382  0.58835710  0.93386780  1
  S  S112  1  0.16049992  0.88060762  0.95638766  1
  S  S113  1  0.00160464  0.25000000  0.16591931  1
  S  S114  1  0.16122543  0.06014727  0.07474944  1
  S  S115  1  0.49830618  0.41164290  0.43386780  1
  S  S116  1  0.99839536  0.75000000  0.66591931  1
  S  S117  1  0.38902360  0.61978440  0.43123810  1
  S  S118  1  0.66583811  0.50834713  0.32940951  1
  S  S119  1  0.07824727  0.11294014  0.92992019  1
  S  S120  1  0.33866630  0.75000000  0.68185300  1
  S  S121  1  0.49830618  0.08835710  0.43386780  1
  S  S122  1  0.16122543  0.43985273  0.42525056  1
  S  S123  1  0.84654504  0.58061727  0.75000000  1
  S  S124  1  0.92175273  0.61294014  0.07007981  1
  S  S125  1  0.68026813  0.75000000  0.83144975  1
  S  S126  1  0.15345496  0.08061727  0.25000000  1
  S  S127  1  0.15822112  0.88343580  0.32981192  1
  S  S128  1  0.89414096  0.61349482  0.25000000  1
  S  S129  1  0.68026813  0.75000000  0.66855025  1
  S  S130  1  0.50169382  0.91164290  0.93386780  1
  S  S131  1  0.33416189  0.00834713  0.82940951  1
  S  S132  1  0.33866630  0.75000000  0.81814700  1
  S  S133  1  0.07824727  0.11294014  0.57007981  1
  S  S134  1  0.15822112  0.61656420  0.32981192  1
  S  S135  1  0.99839536  0.75000000  0.83408069  1
  S  S136  1  0.66112289  0.75000000  0.32682609  1
  S  S137  1  0.92175273  0.61294014  0.42992019  1
  S  S138  1  0.16049992  0.88060762  0.54361234  1
  S  S139  1  0.83950008  0.11939238  0.45638766  1
  S  S140  1  0.56797559  0.38525833  0.75000000  1
  S  S141  1  0.43202441  0.61474167  0.25000000  1
  S  S142  1  0.89414096  0.88650518  0.25000000  1
  S  S143  1  0.15345496  0.41938273  0.25000000  1
  S  S144  1  0.38902360  0.88021560  0.43123810  1
  S  S145  1  0.32975905  0.25000000  0.51172630  1
  S  S146  1  0.61097640  0.11978440  0.56876190  1
  S  S147  1  0.83877457  0.56014727  0.92525056  1
  S  S148  1  0.84654504  0.91938273  0.75000000  1
  S  S149  1  0.61097640  0.38021560  0.56876190  1
  O  O150  1  0.14332949  0.75000000  0.43579121  1
  O  O151  1  0.84778604  0.11360326  0.25000000  1
  O  O152  1  0.52530414  0.88726605  0.75000000  1
  O  O153  1  0.52530414  0.61273395  0.75000000  1
  O  O154  1  0.85667051  0.25000000  0.93579121  1
  O  O155  1  0.84778604  0.38639674  0.25000000  1
  O  O156  1  0.14332949  0.75000000  0.06420879  1
  O  O157  1  0.15221396  0.61360326  0.75000000  1
  O  O158  1  0.47469586  0.38726605  0.25000000  1
  O  O159  1  0.85667051  0.25000000  0.56420879  1
  O  O160  1  0.47469586  0.11273395  0.25000000  1
  O  O161  1  0.15221396  0.88639674  0.75000000  1
