# generated using pymatgen
data_Li13Si4
_symmetry_space_group_name_H-M   'P 1'
_cell_length_a   4.42073500
_cell_length_b   7.89798700
_cell_length_c   15.01154800
_cell_angle_alpha   90.00000000
_cell_angle_beta   90.00000000
_cell_angle_gamma   90.00000000
_symmetry_Int_Tables_number   1
_chemical_formula_structural   Li13Si4
_chemical_formula_sum   'Li26 Si8'
_cell_volume   524.12681076
_cell_formula_units_Z   2
loop_
 _symmetry_equiv_pos_site_id
 _symmetry_equiv_pos_as_xyz
  1  'x, y, z'
loop_
 _atom_site_type_symbol
 _atom_site_label
 _atom_site_symmetry_multiplicity
 _atom_site_fract_x
 _atom_site_fract_y
 _atom_site_fract_z
 _atom_site_occupancy
  Li  Li0  1  0.00000000  0.76992100  0.15356200  1
  Li  Li1  1  0.00000000  0.34756200  0.52542800  1
  Li  Li2  1  0.00000000  0.15243800  0.02542800  1
  Li  Li3  1  0.50000000  0.75802500  0.40462800  1
  Li  Li4  1  0.00000000  0.23007900  0.84643800  1
  Li  Li5  1  0.00000000  0.40472800  0.69421200  1
  Li  Li6  1  0.00000000  0.90472800  0.80578800  1
  Li  Li7  1  0.50000000  0.59012500  0.74477000  1
  Li  Li8  1  0.50000000  0.90391600  0.60552500  1
  Li  Li9  1  0.00000000  0.73007900  0.65356200  1
  Li  Li10  1  0.50000000  0.24197500  0.59537200  1
  Li  Li11  1  0.50000000  0.25802500  0.09537200  1
  Li  Li12  1  0.50000000  0.09608400  0.39447500  1
  Li  Li13  1  0.50000000  0.74197500  0.90462800  1
  Li  Li14  1  0.50000000  0.09012500  0.75523000  1
  Li  Li15  1  0.00000000  0.26992100  0.34643800  1
  Li  Li16  1  0.50000000  0.40987500  0.25523000  1
  Li  Li17  1  0.00000000  0.00000000  0.50000000  1
  Li  Li18  1  0.00000000  0.09527200  0.19421200  1
  Li  Li19  1  0.50000000  0.40391600  0.89447500  1
  Li  Li20  1  0.00000000  0.65243800  0.47457200  1
  Li  Li21  1  0.00000000  0.84756200  0.97457200  1
  Li  Li22  1  0.50000000  0.90987500  0.24477000  1
  Li  Li23  1  0.00000000  0.50000000  0.00000000  1
  Li  Li24  1  0.50000000  0.59608400  0.10552500  1
  Li  Li25  1  0.00000000  0.59527200  0.30578800  1
  Si  Si26  1  0.50000000  0.92569400  0.06887400  1
  Si  Si27  1  0.00000000  0.58335600  0.83974500  1
  Si  Si28  1  0.00000000  0.41664400  0.16025500  1
  Si  Si29  1  0.50000000  0.57430600  0.56887400  1
  Si  Si30  1  0.00000000  0.08335600  0.66025500  1
  Si  Si31  1  0.50000000  0.42569400  0.43112600  1
  Si  Si32  1  0.50000000  0.07430600  0.93112600  1
  Si  Si33  1  0.00000000  0.91664400  0.33974500  1
