# generated using pymatgen
data_LiTiAsO5
_symmetry_space_group_name_H-M   'P 1'
_cell_length_a   6.66282900
_cell_length_b   7.58704800
_cell_length_c   7.65338500
_cell_angle_alpha   90.00000000
_cell_angle_beta   90.00000000
_cell_angle_gamma   90.00000000
_symmetry_Int_Tables_number   1
_chemical_formula_structural   LiTiAsO5
_chemical_formula_sum   'Li4 Ti4 As4 O20'
_cell_volume   386.88782213
_cell_formula_units_Z   4
loop_
 _symmetry_equiv_pos_site_id
 _symmetry_equiv_pos_as_xyz
  1  'x, y, z'
loop_
 _atom_site_type_symbol
 _atom_site_label
 _atom_site_symmetry_multiplicity
 _atom_site_fract_x
 _atom_site_fract_y
 _atom_site_fract_z
 _atom_site_occupancy
  Li  Li0  1  0.00000000  0.00000000  0.00000000  1
  Li  Li1  1  0.50000000  0.50000000  0.50000000  1
  Li  Li2  1  0.00000000  0.50000000  0.50000000  1
  Li  Li3  1  0.50000000  0.00000000  0.00000000  1
  Ti  Ti4  1  0.75000000  0.22278500  0.33391300  1
  Ti  Ti5  1  0.25000000  0.77721500  0.66608700  1
  Ti  Ti6  1  0.25000000  0.72278500  0.16608700  1
  Ti  Ti7  1  0.75000000  0.27721500  0.83391300  1
  As  As8  1  0.25000000  0.12747200  0.37337000  1
  As  As9  1  0.75000000  0.87252800  0.62663000  1
  As  As10  1  0.75000000  0.62747200  0.12663000  1
  As  As11  1  0.25000000  0.37252800  0.87337000  1
  O  O12  1  0.95491400  0.73698000  0.62577800  1
  O  O13  1  0.54508600  0.76302000  0.12577800  1
  O  O14  1  0.04508600  0.23698000  0.87422200  1
  O  O15  1  0.45491400  0.26302000  0.37422200  1
  O  O16  1  0.04508600  0.26302000  0.37422200  1
  O  O17  1  0.54508600  0.73698000  0.62577800  1
  O  O18  1  0.95491400  0.76302000  0.12577800  1
  O  O19  1  0.45491400  0.23698000  0.87422200  1
  O  O20  1  0.75000000  0.16289400  0.11653600  1
  O  O21  1  0.25000000  0.83710600  0.88346400  1
  O  O22  1  0.25000000  0.66289400  0.38346400  1
  O  O23  1  0.75000000  0.33710600  0.61653600  1
  O  O24  1  0.75000000  0.00294400  0.81142800  1
  O  O25  1  0.25000000  0.99705600  0.18857200  1
  O  O26  1  0.25000000  0.50294400  0.68857200  1
  O  O27  1  0.75000000  0.49705600  0.31142800  1
  O  O28  1  0.25000000  0.49167000  0.06367900  1
  O  O29  1  0.75000000  0.50833000  0.93632100  1
  O  O30  1  0.75000000  0.99167000  0.43632100  1
  O  O31  1  0.25000000  0.00833000  0.56367900  1
