# generated using pymatgen
data_EuAg
_symmetry_space_group_name_H-M   'P 1'
_cell_length_a   4.77674900
_cell_length_b   6.23964500
_cell_length_c   7.99767100
_cell_angle_alpha   90.00000000
_cell_angle_beta   90.00000000
_cell_angle_gamma   90.00000000
_symmetry_Int_Tables_number   1
_chemical_formula_structural   EuAg
_chemical_formula_sum   'Eu4 Ag4'
_cell_volume   238.37232776
_cell_formula_units_Z   4
loop_
 _symmetry_equiv_pos_site_id
 _symmetry_equiv_pos_as_xyz
  1  'x, y, z'
loop_
 _atom_site_type_symbol
 _atom_site_label
 _atom_site_symmetry_multiplicity
 _atom_site_fract_x
 _atom_site_fract_y
 _atom_site_fract_z
 _atom_site_occupancy
  Eu  Eu0  1  0.75000000  0.86721900  0.82141500  1
  Eu  Eu1  1  0.25000000  0.36721900  0.67858500  1
  Eu  Eu2  1  0.75000000  0.63278100  0.32141500  1
  Eu  Eu3  1  0.25000000  0.13278100  0.17858500  1
  Ag  Ag4  1  0.25000000  0.62562500  0.04156200  1
  Ag  Ag5  1  0.75000000  0.12562500  0.45843800  1
  Ag  Ag6  1  0.75000000  0.37437500  0.95843800  1
  Ag  Ag7  1  0.25000000  0.87437500  0.54156200  1
