# generated using pymatgen
data_K4Zr6CBr18
_symmetry_space_group_name_H-M   'P 1'
_cell_length_a   10.41163175
_cell_length_b   10.55862823
_cell_length_c   10.65754686
_cell_angle_alpha   118.50040841
_cell_angle_beta   100.01584694
_cell_angle_gamma   103.94940226
_symmetry_Int_Tables_number   1
_chemical_formula_structural   K4Zr6CBr18
_chemical_formula_sum   'K4 Zr6 C1 Br18'
_cell_volume   940.17079125
_cell_formula_units_Z   1
loop_
 _symmetry_equiv_pos_site_id
 _symmetry_equiv_pos_as_xyz
  1  'x, y, z'
loop_
 _atom_site_type_symbol
 _atom_site_label
 _atom_site_symmetry_multiplicity
 _atom_site_fract_x
 _atom_site_fract_y
 _atom_site_fract_z
 _atom_site_occupancy
  K  K0  1  0.18613300  0.72413300  0.56395000  1
  K  K1  1  0.84746100  0.96164600  0.77291300  1
  K  K2  1  0.15253900  0.03835400  0.22708700  1
  K  K3  1  0.81386700  0.27586700  0.43605000  1
  Zr  Zr4  1  0.35308800  0.44474500  0.77423700  1
  Zr  Zr5  1  0.36397400  0.62378700  0.13040400  1
  Zr  Zr6  1  0.64267600  0.73455600  0.04447900  1
  Zr  Zr7  1  0.64691200  0.55525500  0.22576300  1
  Zr  Zr8  1  0.35732400  0.26544400  0.95552100  1
  Zr  Zr9  1  0.63602600  0.37621300  0.86959600  1
  C  C10  1  0.50000000  0.50000000  0.00000000  1
  Br  Br11  1  0.82213900  0.42255600  0.11059800  1
  Br  Br12  1  0.51414100  0.70568000  0.41062700  1
  Br  Br13  1  0.17688300  0.97480400  0.89922900  1
  Br  Br14  1  0.17786100  0.57744400  0.88940200  1
  Br  Br15  1  0.83043500  0.83539400  0.31284000  1
  Br  Br16  1  0.50339100  0.29473100  0.21021300  1
  Br  Br17  1  0.79916200  0.22320500  0.71018400  1
  Br  Br18  1  0.16956500  0.16460600  0.68716000  1
  Br  Br19  1  0.50750200  0.91178100  0.19831400  1
  Br  Br20  1  0.81898100  0.62865200  0.90251800  1
  Br  Br21  1  0.20083800  0.77679500  0.28981600  1
  Br  Br22  1  0.16608300  0.37841700  0.49584400  1
  Br  Br23  1  0.49660900  0.70526900  0.78978700  1
  Br  Br24  1  0.82311700  0.02519600  0.10077100  1
  Br  Br25  1  0.48585900  0.29432000  0.58937300  1
  Br  Br26  1  0.18101900  0.37134800  0.09748200  1
  Br  Br27  1  0.83391700  0.62158300  0.50415600  1
  Br  Br28  1  0.49249800  0.08821900  0.80168600  1
