# generated using pymatgen
data_Zr2Co
_symmetry_space_group_name_H-M   'P 1'
_cell_length_a   5.27792884
_cell_length_b   5.27792884
_cell_length_c   5.27792884
_cell_angle_alpha   105.95942992
_cell_angle_beta   105.95942992
_cell_angle_gamma   116.74924857
_symmetry_Int_Tables_number   1
_chemical_formula_structural   Zr2Co
_chemical_formula_sum   'Zr4 Co2'
_cell_volume   111.79353060
_cell_formula_units_Z   2
loop_
 _symmetry_equiv_pos_site_id
 _symmetry_equiv_pos_as_xyz
  1  'x, y, z'
loop_
 _atom_site_type_symbol
 _atom_site_label
 _atom_site_symmetry_multiplicity
 _atom_site_fract_x
 _atom_site_fract_y
 _atom_site_fract_z
 _atom_site_occupancy
  Zr  Zr0  1  0.67242400  0.17242400  0.84484800  1
  Zr  Zr1  1  0.32757600  0.82757600  0.15515200  1
  Zr  Zr2  1  0.82757600  0.67242400  0.50000000  1
  Zr  Zr3  1  0.17242400  0.32757600  0.50000000  1
  Co  Co4  1  0.75000000  0.75000000  0.00000000  1
  Co  Co5  1  0.25000000  0.25000000  0.00000000  1
