# generated using pymatgen
data_SeBr4
_symmetry_space_group_name_H-M   'P 1'
_cell_length_a   10.76156417
_cell_length_b   10.76156417
_cell_length_c   31.50138100
_cell_angle_alpha   90.00000000
_cell_angle_beta   90.00000000
_cell_angle_gamma   120.00000102
_symmetry_Int_Tables_number   1
_chemical_formula_structural   SeBr4
_chemical_formula_sum   'Se16 Br64'
_cell_volume   3159.44660147
_cell_formula_units_Z   16
loop_
 _symmetry_equiv_pos_site_id
 _symmetry_equiv_pos_as_xyz
  1  'x, y, z'
loop_
 _atom_site_type_symbol
 _atom_site_label
 _atom_site_symmetry_multiplicity
 _atom_site_fract_x
 _atom_site_fract_y
 _atom_site_fract_z
 _atom_site_occupancy
  Se  Se0  1  0.95834100  0.21822700  0.91399800  1
  Se  Se1  1  0.92166000  0.55923900  0.60498100  1
  Se  Se2  1  0.25988600  0.04165900  0.91399800  1
  Se  Se3  1  0.00000000  0.00000000  0.29871700  1
  Se  Se4  1  0.55923900  0.92166000  0.10498100  1
  Se  Se5  1  0.74011400  0.78177300  0.41399800  1
  Se  Se6  1  0.21822700  0.95834100  0.41399800  1
  Se  Se7  1  0.04165900  0.25988600  0.41399800  1
  Se  Se8  1  0.63757900  0.07834000  0.60498100  1
  Se  Se9  1  0.36242100  0.44076100  0.10498100  1
  Se  Se10  1  0.00000000  0.00000000  0.79871700  1
  Se  Se11  1  0.33333300  0.66666700  0.21942100  1
  Se  Se12  1  0.66666700  0.33333300  0.71942100  1
  Se  Se13  1  0.07834000  0.63757900  0.10498100  1
  Se  Se14  1  0.44076100  0.36242100  0.60498100  1
  Se  Se15  1  0.78177300  0.74011400  0.91399800  1
  Br  Br16  1  0.43767200  0.92237200  0.56033200  1
  Br  Br17  1  0.92237200  0.43767200  0.06033200  1
  Br  Br18  1  0.48470000  0.56232800  0.56033200  1
  Br  Br19  1  0.27841100  0.86115300  0.95417800  1
  Br  Br20  1  0.85666700  0.30323000  0.65867500  1
  Br  Br21  1  0.22045700  0.18848600  0.36132900  1
  Br  Br22  1  0.99148900  0.18711700  0.25941400  1
  Br  Br23  1  0.33333300  0.66666700  0.05879900  1
  Br  Br24  1  0.58274300  0.72158900  0.95417800  1
  Br  Br25  1  0.81288300  0.80437200  0.25941400  1
  Br  Br26  1  0.00851100  0.19562800  0.75941400  1
  Br  Br27  1  0.88074400  0.49510800  0.75853100  1
  Br  Br28  1  0.91766900  0.35636800  0.86188500  1
  Br  Br29  1  0.50489200  0.38563700  0.75853100  1
  Br  Br30  1  0.81151400  0.03197100  0.36132900  1
  Br  Br31  1  0.74344400  0.92417400  0.06198000  1
  Br  Br32  1  0.08233100  0.43869800  0.36188500  1
  Br  Br33  1  0.66666700  0.33333300  0.55879900  1
  Br  Br34  1  0.89911300  0.61446100  0.15467200  1
  Br  Br35  1  0.75849600  0.16711800  0.95953200  1
  Br  Br36  1  0.59137800  0.83288200  0.45953200  1
  Br  Br37  1  0.49510800  0.88074400  0.25853100  1
  Br  Br38  1  0.51530000  0.07762800  0.06033200  1
  Br  Br39  1  0.38563700  0.50489200  0.25853100  1
  Br  Br40  1  0.72158900  0.58274300  0.45417800  1
  Br  Br41  1  0.07762800  0.51530000  0.56033200  1
  Br  Br42  1  0.64363200  0.56130200  0.86188500  1
  Br  Br43  1  0.44656300  0.14333300  0.65867500  1
  Br  Br44  1  0.00000000  0.00000000  0.46164200  1
  Br  Br45  1  0.11925600  0.61436300  0.25853100  1
  Br  Br46  1  0.10088700  0.71534800  0.65467200  1
  Br  Br47  1  0.18711700  0.99148900  0.75941400  1
  Br  Br48  1  0.00000000  0.00000000  0.96164200  1
  Br  Br49  1  0.83288200  0.59137800  0.95953200  1
  Br  Br50  1  0.35636800  0.91766900  0.36188500  1
  Br  Br51  1  0.19562800  0.00851100  0.25941400  1
  Br  Br52  1  0.41725700  0.13884700  0.45417800  1
  Br  Br53  1  0.61446100  0.89911300  0.65467200  1
  Br  Br54  1  0.30323000  0.85666700  0.15867500  1
  Br  Br55  1  0.18073000  0.25655600  0.06198000  1
  Br  Br56  1  0.24150400  0.40862200  0.45953200  1
  Br  Br57  1  0.56130200  0.64363200  0.36188500  1
  Br  Br58  1  0.28465200  0.38553900  0.65467200  1
  Br  Br59  1  0.56232800  0.48470000  0.06033200  1
  Br  Br60  1  0.25655600  0.18073000  0.56198000  1
  Br  Br61  1  0.18848600  0.22045700  0.86132900  1
  Br  Br62  1  0.43869800  0.08233100  0.86188500  1
  Br  Br63  1  0.69677000  0.55343700  0.65867500  1
  Br  Br64  1  0.61436300  0.11925600  0.75853100  1
  Br  Br65  1  0.71534800  0.10088700  0.15467200  1
  Br  Br66  1  0.14333300  0.44656300  0.15867500  1
  Br  Br67  1  0.81927000  0.07582600  0.56198000  1
  Br  Br68  1  0.55343700  0.69677000  0.15867500  1
  Br  Br69  1  0.07582600  0.81927000  0.06198000  1
  Br  Br70  1  0.38553900  0.28465200  0.15467200  1
  Br  Br71  1  0.77954300  0.96802900  0.86132900  1
  Br  Br72  1  0.96802900  0.77954300  0.36132900  1
  Br  Br73  1  0.03197100  0.81151400  0.86132900  1
  Br  Br74  1  0.16711800  0.75849600  0.45953200  1
  Br  Br75  1  0.92417400  0.74344400  0.56198000  1
  Br  Br76  1  0.13884700  0.41725700  0.95417800  1
  Br  Br77  1  0.80437200  0.81288300  0.75941400  1
  Br  Br78  1  0.86115300  0.27841100  0.45417800  1
  Br  Br79  1  0.40862200  0.24150400  0.95953200  1
