# generated using pymatgen
data_Cr21(WC3)2
_symmetry_space_group_name_H-M   'P 1'
_cell_length_a   7.53039165
_cell_length_b   7.53039165
_cell_length_c   7.53039165
_cell_angle_alpha   60.00000000
_cell_angle_beta   60.00000000
_cell_angle_gamma   60.00000000
_symmetry_Int_Tables_number   1
_chemical_formula_structural   Cr21(WC3)2
_chemical_formula_sum   'Cr21 W2 C6'
_cell_volume   301.95184969
_cell_formula_units_Z   1
loop_
 _symmetry_equiv_pos_site_id
 _symmetry_equiv_pos_as_xyz
  1  'x, y, z'
loop_
 _atom_site_type_symbol
 _atom_site_label
 _atom_site_symmetry_multiplicity
 _atom_site_fract_x
 _atom_site_fract_y
 _atom_site_fract_z
 _atom_site_occupancy
  Cr  Cr0  1  0.00000000  0.00000000  0.00000000  1
  Cr  Cr1  1  0.61521900  0.61521900  0.15434300  1
  Cr  Cr2  1  0.61521900  0.15434200  0.61521900  1
  Cr  Cr3  1  0.15434300  0.61521900  0.61521900  1
  Cr  Cr4  1  0.61521900  0.61521900  0.61521900  1
  Cr  Cr5  1  0.38478100  0.38478100  0.84565700  1
  Cr  Cr6  1  0.38478100  0.84565700  0.38478100  1
  Cr  Cr7  1  0.84565700  0.38478100  0.38478100  1
  Cr  Cr8  1  0.38478100  0.38478100  0.38478100  1
  Cr  Cr9  1  0.00000000  0.00000000  0.33760000  1
  Cr  Cr10  1  0.66240000  0.00000000  0.33760000  1
  Cr  Cr11  1  0.00000000  0.66240000  0.33760000  1
  Cr  Cr12  1  0.66240000  0.33760000  0.00000000  1
  Cr  Cr13  1  0.00000000  0.33760000  0.00000000  1
  Cr  Cr14  1  0.00000000  0.33760000  0.66240000  1
  Cr  Cr15  1  0.33760000  0.66240000  0.00000000  1
  Cr  Cr16  1  0.33760000  0.00000000  0.66240000  1
  Cr  Cr17  1  0.33760000  0.00000000  0.00000000  1
  Cr  Cr18  1  0.00000000  0.00000000  0.66240000  1
  Cr  Cr19  1  0.00000000  0.66240000  0.00000000  1
  Cr  Cr20  1  0.66240000  0.00000000  0.00000000  1
  W  W21  1  0.75000000  0.75000000  0.75000000  1
  W  W22  1  0.25000000  0.25000000  0.25000000  1
  C  C23  1  0.72478900  0.72478900  0.27521100  1
  C  C24  1  0.27521100  0.72478900  0.27521100  1
  C  C25  1  0.72478900  0.27521100  0.27521100  1
  C  C26  1  0.27521100  0.27521100  0.72478900  1
  C  C27  1  0.72478900  0.27521100  0.72478900  1
  C  C28  1  0.27521100  0.72478900  0.72478900  1
