# generated using pymatgen
data_Pb3(IO)2
_symmetry_space_group_name_H-M   'P 1'
_cell_length_a   6.04274500
_cell_length_b   7.74109600
_cell_length_c   18.35385100
_cell_angle_alpha   90.00000000
_cell_angle_beta   90.00000000
_cell_angle_gamma   90.00000000
_symmetry_Int_Tables_number   1
_chemical_formula_structural   Pb3(IO)2
_chemical_formula_sum   'Pb12 I8 O8'
_cell_volume   858.54669891
_cell_formula_units_Z   4
loop_
 _symmetry_equiv_pos_site_id
 _symmetry_equiv_pos_as_xyz
  1  'x, y, z'
loop_
 _atom_site_type_symbol
 _atom_site_label
 _atom_site_symmetry_multiplicity
 _atom_site_fract_x
 _atom_site_fract_y
 _atom_site_fract_z
 _atom_site_occupancy
  Pb  Pb0  1  0.75000000  0.02249500  0.16006900  1
  Pb  Pb1  1  0.75000000  0.47750500  0.66006900  1
  Pb  Pb2  1  0.75000000  0.64720400  0.47304000  1
  Pb  Pb3  1  0.25000000  0.14720400  0.02696000  1
  Pb  Pb4  1  0.25000000  0.35279600  0.52696000  1
  Pb  Pb5  1  0.75000000  0.21306200  0.39407800  1
  Pb  Pb6  1  0.75000000  0.28693800  0.89407800  1
  Pb  Pb7  1  0.25000000  0.71306200  0.10592200  1
  Pb  Pb8  1  0.25000000  0.52249500  0.33993100  1
  Pb  Pb9  1  0.25000000  0.78693800  0.60592200  1
  Pb  Pb10  1  0.75000000  0.85279600  0.97304000  1
  Pb  Pb11  1  0.25000000  0.97750500  0.83993100  1
  I  I12  1  0.75000000  0.40339500  0.06377700  1
  I  I13  1  0.25000000  0.59660500  0.93622300  1
  I  I14  1  0.25000000  0.32568300  0.74165300  1
  I  I15  1  0.75000000  0.09660500  0.56377700  1
  I  I16  1  0.25000000  0.17431700  0.24165300  1
  I  I17  1  0.75000000  0.67431700  0.25834700  1
  I  I18  1  0.25000000  0.90339500  0.43622300  1
  I  I19  1  0.75000000  0.82568300  0.75834700  1
  O  O20  1  0.00024500  0.91835400  0.07470700  1
  O  O21  1  0.50024500  0.08164600  0.92529300  1
  O  O22  1  0.50024500  0.41835400  0.42529300  1
  O  O23  1  0.49975500  0.58164600  0.57470700  1
  O  O24  1  0.00024500  0.58164600  0.57470700  1
  O  O25  1  0.49975500  0.91835400  0.07470700  1
  O  O26  1  0.99975500  0.08164600  0.92529300  1
  O  O27  1  0.99975500  0.41835400  0.42529300  1
