# generated using pymatgen
data_Rb28(Mg3In17)3
_symmetry_space_group_name_H-M   'P 1'
_cell_length_a   10.30837801
_cell_length_b   10.28106018
_cell_length_c   35.83996154
_cell_angle_alpha   90.00000000
_cell_angle_beta   90.00000000
_cell_angle_gamma   119.41523750
_symmetry_Int_Tables_number   1
_chemical_formula_structural   Rb28(Mg3In17)3
_chemical_formula_sum   'Rb28 Mg9 In51'
_cell_volume   3308.68500724
_cell_formula_units_Z   1
loop_
 _symmetry_equiv_pos_site_id
 _symmetry_equiv_pos_as_xyz
  1  'x, y, z'
loop_
 _atom_site_type_symbol
 _atom_site_label
 _atom_site_symmetry_multiplicity
 _atom_site_fract_x
 _atom_site_fract_y
 _atom_site_fract_z
 _atom_site_occupancy
  Rb  Rb0  1  0.00035707  0.60480102  0.40871740  1
  Rb  Rb1  1  0.99976731  0.60492929  0.90894710  1
  Rb  Rb2  1  0.24908952  0.99751255  0.34246767  1
  Rb  Rb3  1  0.24769687  0.00019328  0.84255699  1
  Rb  Rb4  1  0.99995757  0.24694479  0.15795274  1
  Rb  Rb5  1  0.99679720  0.24513600  0.65820053  1
  Rb  Rb6  1  0.33265469  0.66607844  0.99994326  1
  Rb  Rb7  1  0.33265469  0.66607844  0.50005674  1
  Rb  Rb8  1  0.60511050  0.00069623  0.90952652  1
  Rb  Rb9  1  0.39553234  0.39575017  0.09070030  1
  Rb  Rb10  1  0.39553234  0.39575017  0.40929970  1
  Rb  Rb11  1  0.39489573  0.39611838  0.90964876  1
  Rb  Rb12  1  0.39489573  0.39611838  0.59035124  1
  Rb  Rb13  1  0.24908952  0.99751255  0.15753233  1
  Rb  Rb14  1  0.24769687  0.00019328  0.65744301  1
  Rb  Rb15  1  0.75015911  0.74769782  0.34260827  1
  Rb  Rb16  1  0.75015911  0.74769782  0.15739173  1
  Rb  Rb17  1  0.74970695  0.75280436  0.65774183  1
  Rb  Rb18  1  0.74970695  0.75280436  0.84225817  1
  Rb  Rb19  1  0.66650049  0.33300332  0.00006164  1
  Rb  Rb20  1  0.66650049  0.33300332  0.49993836  1
  Rb  Rb21  1  0.60521617  0.00076633  0.09090697  1
  Rb  Rb22  1  0.60521617  0.00076633  0.40909303  1
  Rb  Rb23  1  0.60511050  0.00069623  0.59047348  1
  Rb  Rb24  1  0.00035707  0.60480102  0.09128260  1
  Rb  Rb25  1  0.99976731  0.60492929  0.59105290  1
  Rb  Rb26  1  0.99995757  0.24694479  0.34204726  1
  Rb  Rb27  1  0.99679720  0.24513600  0.84179947  1
  Mg  Mg28  1  0.29875261  0.82037350  0.75000000  1
  Mg  Mg29  1  0.17984745  0.47812640  0.25000000  1
  Mg  Mg30  1  0.17899736  0.47161390  0.75000000  1
  Mg  Mg31  1  0.52874286  0.70975087  0.25000000  1
  Mg  Mg32  1  0.47197522  0.18178032  0.25000000  1
  Mg  Mg33  1  0.48163049  0.18167362  0.75000000  1
  Mg  Mg34  1  0.70852983  0.53076623  0.75000000  1
  Mg  Mg35  1  0.99909818  0.82626850  0.25000000  1
  Mg  Mg36  1  0.82149196  0.29794930  0.25000000  1
  In  In37  1  0.00002541  0.58716576  0.30147334  1
  In  In38  1  0.00477587  0.59305237  0.80075340  1
  In  In39  1  0.99917925  0.28021545  0.54472069  1
  In  In40  1  0.99917925  0.28021545  0.95527931  1
  In  In41  1  0.29779477  0.82313773  0.25000000  1
  In  In42  1  0.33529407  0.66778454  0.17095404  1
  In  In43  1  0.33192912  0.66287989  0.67007559  1
  In  In44  1  0.99947346  0.99951430  0.07156989  1
  In  In45  1  0.33529407  0.66778454  0.32904596  1
  In  In46  1  0.99947346  0.99951430  0.42843011  1
  In  In47  1  0.99980783  0.99962543  0.57168976  1
  In  In48  1  0.33192912  0.66287989  0.82992441  1
  In  In49  1  0.17032291  0.16973858  0.25000000  1
  In  In50  1  0.17474649  0.17046850  0.75000000  1
  In  In51  1  0.20346997  0.20412011  -0.00002637  1
  In  In52  1  0.20346997  0.20412011  0.50002637  1
  In  In53  1  0.51639970  0.69458178  0.75000000  1
  In  In54  1  0.40857003  0.41341524  0.30015243  1
  In  In55  1  0.41418673  0.40783980  0.80105841  1
  In  In56  1  0.40857003  0.41341524  0.19984757  1
  In  In57  1  0.41418673  0.40783980  0.69894159  1
  In  In58  1  0.27919644  0.99835717  0.04426202  1
  In  In59  1  0.27919644  0.99835717  0.45573798  1
  In  In60  1  0.27893790  0.99839488  0.54435603  1
  In  In61  1  0.27893790  0.99839488  0.95564397  1
  In  In62  1  0.72144704  0.72065470  0.04405228  1
  In  In63  1  0.72144704  0.72065470  0.45594772  1
  In  In64  1  0.72165278  0.72075525  0.95558852  1
  In  In65  1  0.72165278  0.72075525  0.54441148  1
  In  In66  1  0.70203356  0.52464629  0.25000000  1
  In  In67  1  0.66488412  0.33271832  0.17113554  1
  In  In68  1  0.66997466  0.33663742  0.67019011  1
  In  In69  1  0.99980783  0.99962543  0.92831024  1
  In  In70  1  0.66488412  0.33271832  0.32886446  1
  In  In71  1  0.66997466  0.33663742  0.82980989  1
  In  In72  1  0.00351325  0.83176710  0.75000000  1
  In  In73  1  0.59157761  0.00466080  0.30015795  1
  In  In74  1  0.59157761  0.00466080  0.19984205  1
  In  In75  1  0.58229613  0.99853131  0.69814223  1
  In  In76  1  0.58229613  0.99853131  0.80185777  1
  In  In77  1  0.00105813  0.79362944  0.50005036  1
  In  In78  1  0.00105813  0.79362944  -0.00005036  1
  In  In79  1  0.82339167  0.30418109  0.75000000  1
  In  In80  1  0.00002541  0.58716576  0.19852666  1
  In  In81  1  0.00477587  0.59305237  0.69924660  1
  In  In82  1  0.79586175  0.00134101  0.99993332  1
  In  In83  1  0.79586175  0.00134101  0.50006668  1
  In  In84  1  0.82936350  0.99810716  0.25000000  1
  In  In85  1  0.82141063  0.99730733  0.75000000  1
  In  In86  1  0.99893898  0.28015570  0.04409398  1
  In  In87  1  0.99893898  0.28015570  0.45590602  1
