# generated using pymatgen
data_Er2Mn3Si5
_symmetry_space_group_name_H-M   'P 1'
_cell_length_a   10.54378200
_cell_length_b   10.54378200
_cell_length_c   5.40866200
_cell_angle_alpha   90.00000000
_cell_angle_beta   90.00000000
_cell_angle_gamma   90.00000000
_symmetry_Int_Tables_number   1
_chemical_formula_structural   Er2Mn3Si5
_chemical_formula_sum   'Er8 Mn12 Si20'
_cell_volume   601.28819600
_cell_formula_units_Z   4
loop_
 _symmetry_equiv_pos_site_id
 _symmetry_equiv_pos_as_xyz
  1  'x, y, z'
loop_
 _atom_site_type_symbol
 _atom_site_label
 _atom_site_symmetry_multiplicity
 _atom_site_fract_x
 _atom_site_fract_y
 _atom_site_fract_z
 _atom_site_occupancy
  Er  Er0  1  0.57523000  0.73706500  0.50000000  1
  Er  Er1  1  0.23706500  0.07523000  0.00000000  1
  Er  Er2  1  0.76293500  0.92477000  0.00000000  1
  Er  Er3  1  0.26293500  0.57523000  0.50000000  1
  Er  Er4  1  0.42477000  0.26293500  0.50000000  1
  Er  Er5  1  0.73706500  0.42477000  0.50000000  1
  Er  Er6  1  0.07523000  0.76293500  0.00000000  1
  Er  Er7  1  0.92477000  0.23706500  0.00000000  1
  Mn  Mn8  1  0.14420500  0.87953300  0.50000000  1
  Mn  Mn9  1  0.64420500  0.62046700  0.00000000  1
  Mn  Mn10  1  0.85579500  0.12046700  0.50000000  1
  Mn  Mn11  1  0.12046700  0.14420500  0.50000000  1
  Mn  Mn12  1  0.37953300  0.64420500  0.00000000  1
  Mn  Mn13  1  0.35579500  0.37953300  0.00000000  1
  Mn  Mn14  1  0.50000000  0.00000000  0.25000000  1
  Mn  Mn15  1  0.87953300  0.85579500  0.50000000  1
  Mn  Mn16  1  0.62046700  0.35579500  0.00000000  1
  Mn  Mn17  1  0.50000000  0.00000000  0.75000000  1
  Mn  Mn18  1  0.00000000  0.50000000  0.75000000  1
  Mn  Mn19  1  0.00000000  0.50000000  0.25000000  1
  Si  Si20  1  0.00000000  0.00000000  0.74827100  1
  Si  Si21  1  0.32513600  0.82513600  0.25000000  1
  Si  Si22  1  0.47566200  0.18397300  0.00000000  1
  Si  Si23  1  0.17486400  0.32513600  0.75000000  1
  Si  Si24  1  0.67486400  0.17486400  0.75000000  1
  Si  Si25  1  0.82513600  0.67486400  0.75000000  1
  Si  Si26  1  0.68397300  0.97566200  0.50000000  1
  Si  Si27  1  0.50000000  0.50000000  0.75172900  1
  Si  Si28  1  0.31602700  0.02433800  0.50000000  1
  Si  Si29  1  0.18397300  0.52433800  0.00000000  1
  Si  Si30  1  0.81602700  0.47566200  0.00000000  1
  Si  Si31  1  0.67486400  0.17486400  0.25000000  1
  Si  Si32  1  0.97566200  0.31602700  0.50000000  1
  Si  Si33  1  0.02433800  0.68397300  0.50000000  1
  Si  Si34  1  0.17486400  0.32513600  0.25000000  1
  Si  Si35  1  0.52433800  0.81602700  0.00000000  1
  Si  Si36  1  0.32513600  0.82513600  0.75000000  1
  Si  Si37  1  0.00000000  0.00000000  0.25172900  1
  Si  Si38  1  0.82513600  0.67486400  0.25000000  1
  Si  Si39  1  0.50000000  0.50000000  0.24827100  1
