# generated using pymatgen
data_KRb5Zn4Sn5S17
_symmetry_space_group_name_H-M   'P 1'
_cell_length_a   10.07400800
_cell_length_b   11.14730850
_cell_length_c   11.16717092
_cell_angle_alpha   78.50034823
_cell_angle_beta   116.70118277
_cell_angle_gamma   116.58539628
_symmetry_Int_Tables_number   1
_chemical_formula_structural   KRb5Zn4Sn5S17
_chemical_formula_sum   'K1 Rb5 Zn4 Sn5 S17'
_cell_volume   1001.86646278
_cell_formula_units_Z   1
loop_
 _symmetry_equiv_pos_site_id
 _symmetry_equiv_pos_as_xyz
  1  'x, y, z'
loop_
 _atom_site_type_symbol
 _atom_site_label
 _atom_site_symmetry_multiplicity
 _atom_site_fract_x
 _atom_site_fract_y
 _atom_site_fract_z
 _atom_site_occupancy
  K  K0  1  0.24910600  0.49953900  0.49903700  1
  Rb  Rb1  1  0.49949300  0.01625700  0.49054600  1
  Rb  Rb2  1  0.50705700  0.49787800  0.01623200  1
  Rb  Rb3  1  0.99322400  0.49985000  0.98702500  1
  Rb  Rb4  1  0.99302800  0.98580200  0.49531600  1
  Rb  Rb5  1  0.87948200  0.95914500  0.86441500  1
  Zn  Zn6  1  0.88270600  0.63859400  0.36168600  1
  Zn  Zn7  1  0.88386800  0.36345800  0.63780800  1
  Zn  Zn8  1  0.47823800  0.36128000  0.36084800  1
  Zn  Zn9  1  0.75391300  0.63573400  0.63654100  1
  Sn  Sn10  1  0.50175600  0.00181400  0.00325400  1
  Sn  Sn11  1  0.19258000  0.72201000  0.72121800  1
  Sn  Sn12  1  0.52838100  0.27640800  0.72137300  1
  Sn  Sn13  1  0.53040400  0.72208800  0.27751900  1
  Sn  Sn14  1  0.74700600  0.27833300  0.27929700  1
  S  S15  1  0.49027800  0.85556100  0.85688400  1
  S  S16  1  0.15889600  0.49348400  0.77532600  1
  S  S17  1  0.15868400  0.77478900  0.49311000  1
  S  S18  1  0.75698800  0.22187100  0.77914800  1
  S  S19  1  0.75610200  0.77983200  0.22149400  1
  S  S20  1  0.74953800  0.49927800  0.49885400  1
  S  S21  1  0.02231900  0.77814500  0.77843800  1
  S  S22  1  0.33439600  0.22580100  0.49249900  1
  S  S23  1  0.33466300  0.49327800  0.22708300  1
  S  S24  1  0.61646300  0.50649400  0.77432800  1
  S  S25  1  0.61665700  0.77471900  0.50853800  1
  S  S26  1  0.36529600  0.85458100  0.14482000  1
  S  S27  1  0.36505100  0.14420700  0.85500000  1
  S  S28  1  0.78023400  0.14604600  0.14615800  1
  S  S29  1  0.89241700  0.50651200  0.22759400  1
  S  S30  1  0.89153600  0.22502100  0.50849000  1
  S  S31  1  0.46493800  0.22019000  0.22012100  1
