# generated using pymatgen
data_Tb2Mn3Si5
_symmetry_space_group_name_H-M   'P 1'
_cell_length_a   10.57367400
_cell_length_b   10.57367400
_cell_length_c   5.44490500
_cell_angle_alpha   90.00000000
_cell_angle_beta   90.00000000
_cell_angle_gamma   90.00000000
_symmetry_Int_Tables_number   1
_chemical_formula_structural   Tb2Mn3Si5
_chemical_formula_sum   'Tb8 Mn12 Si20'
_cell_volume   608.75443697
_cell_formula_units_Z   4
loop_
 _symmetry_equiv_pos_site_id
 _symmetry_equiv_pos_as_xyz
  1  'x, y, z'
loop_
 _atom_site_type_symbol
 _atom_site_label
 _atom_site_symmetry_multiplicity
 _atom_site_fract_x
 _atom_site_fract_y
 _atom_site_fract_z
 _atom_site_occupancy
  Tb  Tb0  1  0.07508800  0.23640100  0.00000000  1
  Tb  Tb1  1  0.57508800  0.26359900  0.50000000  1
  Tb  Tb2  1  0.73640100  0.57508800  0.50000000  1
  Tb  Tb3  1  0.92491200  0.76359900  0.00000000  1
  Tb  Tb4  1  0.42491200  0.73640100  0.50000000  1
  Tb  Tb5  1  0.23640100  0.92491200  0.00000000  1
  Tb  Tb6  1  0.76359900  0.07508800  0.00000000  1
  Tb  Tb7  1  0.26359900  0.42491200  0.50000000  1
  Mn  Mn8  1  0.87858700  0.14594500  0.50000000  1
  Mn  Mn9  1  0.62141300  0.64594500  0.00000000  1
  Mn  Mn10  1  0.37858700  0.35405500  0.00000000  1
  Mn  Mn11  1  0.14594500  0.12141300  0.50000000  1
  Mn  Mn12  1  0.64594500  0.37858700  0.00000000  1
  Mn  Mn13  1  0.50000000  0.00000000  0.75000000  1
  Mn  Mn14  1  0.35405500  0.62141300  0.00000000  1
  Mn  Mn15  1  0.85405500  0.87858700  0.50000000  1
  Mn  Mn16  1  0.12141300  0.85405500  0.50000000  1
  Mn  Mn17  1  0.50000000  0.00000000  0.25000000  1
  Mn  Mn18  1  0.00000000  0.50000000  0.25000000  1
  Mn  Mn19  1  0.00000000  0.50000000  0.75000000  1
  Si  Si20  1  0.00000000  0.00000000  0.73793200  1
  Si  Si21  1  0.67462500  0.82537500  0.25000000  1
  Si  Si22  1  0.47672900  0.81546100  0.00000000  1
  Si  Si23  1  0.81546100  0.52327100  0.00000000  1
  Si  Si24  1  0.31546100  0.97672900  0.50000000  1
  Si  Si25  1  0.97672900  0.68453900  0.50000000  1
  Si  Si26  1  0.18453900  0.47672900  0.00000000  1
  Si  Si27  1  0.67462500  0.82537500  0.75000000  1
  Si  Si28  1  0.17462500  0.67462500  0.25000000  1
  Si  Si29  1  0.02327100  0.31546100  0.50000000  1
  Si  Si30  1  0.50000000  0.50000000  0.76206800  1
  Si  Si31  1  0.17462500  0.67462500  0.75000000  1
  Si  Si32  1  0.32537500  0.17462500  0.75000000  1
  Si  Si33  1  0.32537500  0.17462500  0.25000000  1
  Si  Si34  1  0.50000000  0.50000000  0.23793200  1
  Si  Si35  1  0.52327100  0.18453900  0.00000000  1
  Si  Si36  1  0.82537500  0.32537500  0.75000000  1
  Si  Si37  1  0.00000000  0.00000000  0.26206800  1
  Si  Si38  1  0.68453900  0.02327100  0.50000000  1
  Si  Si39  1  0.82537500  0.32537500  0.25000000  1
