# generated using pymatgen
data_MnAsH3O5
_symmetry_space_group_name_H-M   'P 1'
_cell_length_a   16.20190300
_cell_length_b   6.92993700
_cell_length_c   8.08617337
_cell_angle_alpha   84.12110100
_cell_angle_beta   90.00000000
_cell_angle_gamma   90.00000000
_symmetry_Int_Tables_number   1
_chemical_formula_structural   MnAsH3O5
_chemical_formula_sum   'Mn8 As8 H24 O40'
_cell_volume   903.12571716
_cell_formula_units_Z   8
loop_
 _symmetry_equiv_pos_site_id
 _symmetry_equiv_pos_as_xyz
  1  'x, y, z'
loop_
 _atom_site_type_symbol
 _atom_site_label
 _atom_site_symmetry_multiplicity
 _atom_site_fract_x
 _atom_site_fract_y
 _atom_site_fract_z
 _atom_site_occupancy
  Mn  Mn0  1  0.55123500  0.65432900  0.59528100  1
  Mn  Mn1  1  0.05123500  0.34567100  0.40471900  1
  Mn  Mn2  1  0.45916200  0.90387700  0.89394200  1
  Mn  Mn3  1  0.95916200  0.09612300  0.10605800  1
  Mn  Mn4  1  0.57164100  0.16368100  0.14477900  1
  Mn  Mn5  1  0.07164100  0.83631900  0.85522100  1
  Mn  Mn6  1  0.43806700  0.39785300  0.34464100  1
  Mn  Mn7  1  0.93806700  0.60214700  0.65535900  1
  As  As8  1  0.59215700  0.15030100  0.59298300  1
  As  As9  1  0.09215700  0.84969900  0.40701700  1
  As  As10  1  0.41758400  0.40675800  0.89652600  1
  As  As11  1  0.91758400  0.59324200  0.10347400  1
  As  As12  1  0.60697600  0.67114600  0.18617000  1
  As  As13  1  0.10697600  0.32885400  0.81383000  1
  As  As14  1  0.40258500  0.88980800  0.30237400  1
  As  As15  1  0.90258500  0.11019200  0.69762600  1
  H  H16  1  0.63981000  0.94307500  0.39769500  1
  H  H17  1  0.13981000  0.05692500  0.60230500  1
  H  H18  1  0.37017700  0.61541000  0.09085800  1
  H  H19  1  0.87017700  0.38459000  0.90914200  1
  H  H20  1  0.74934900  0.64187200  0.12344200  1
  H  H21  1  0.24934900  0.35812800  0.87655800  1
  H  H22  1  0.26167300  0.86906200  0.37227100  1
  H  H23  1  0.76167300  0.13093800  0.62772900  1
  H  H24  1  0.67518500  0.43963700  0.73266300  1
  H  H25  1  0.17518500  0.56036300  0.26733700  1
  H  H26  1  0.33200800  0.10684600  0.76286500  1
  H  H27  1  0.83200800  0.89315400  0.23713500  1
  H  H28  1  0.67867000  0.61442200  0.84863000  1
  H  H29  1  0.17867000  0.38557800  0.15137000  1
  H  H30  1  0.32935900  0.93602500  0.64407000  1
  H  H31  1  0.82935900  0.06397500  0.35593000  1
  H  H32  1  0.74614000  0.13597700  0.09864300  1
  H  H33  1  0.24614000  0.86402300  0.90135700  1
  H  H34  1  0.26366700  0.37529000  0.39923900  1
  H  H35  1  0.76366700  0.62471000  0.60076100  1
  H  H36  1  0.69799900  0.16514100  0.92217400  1
  H  H37  1  0.19799900  0.83485900  0.07782600  1
  H  H38  1  0.31321900  0.38988400  0.57316900  1
  H  H39  1  0.81321900  0.61011600  0.42683100  1
  O  O40  1  0.67680300  0.20649300  0.70564600  1
  O  O41  1  0.17680300  0.79350700  0.29435400  1
  O  O42  1  0.33342800  0.34307600  0.78522800  1
  O  O43  1  0.83342800  0.65692400  0.21477200  1
  O  O44  1  0.54149300  0.94534100  0.67473300  1
  O  O45  1  0.04149300  0.05465900  0.32526700  1
  O  O46  1  0.46652500  0.61258100  0.81212900  1
  O  O47  1  0.96652500  0.38741900  0.18787100  1
  O  O48  1  0.52883600  0.34769800  0.55275700  1
  O  O49  1  0.02883600  0.65230200  0.44724300  1
  O  O50  1  0.48195600  0.21124000  0.93617700  1
  O  O51  1  0.98195600  0.78876000  0.06382300  1
  O  O52  1  0.63361400  0.09250600  0.39800100  1
  O  O53  1  0.13361400  0.90749400  0.60199900  1
  O  O54  1  0.37559400  0.46561800  0.09053800  1
  O  O55  1  0.87559400  0.53438200  0.90946200  1
  O  O56  1  0.63841600  0.72207700  0.38016700  1
  O  O57  1  0.13841600  0.27792300  0.61983300  1
  O  O58  1  0.37260200  0.83542800  0.10827700  1
  O  O59  1  0.87260200  0.16457200  0.89172300  1
  O  O60  1  0.55529400  0.86479800  0.08499400  1
  O  O61  1  0.05529400  0.13520200  0.91500600  1
  O  O62  1  0.45442800  0.69713100  0.40496900  1
  O  O63  1  0.95442800  0.30286900  0.59503100  1
  O  O64  1  0.55171100  0.46025700  0.18835700  1
  O  O65  1  0.05171100  0.53974300  0.81164300  1
  O  O66  1  0.45706700  0.10120700  0.30060800  1
  O  O67  1  0.95706700  0.89879300  0.69939200  1
  O  O68  1  0.69420900  0.64430200  0.05999800  1
  O  O69  1  0.19420900  0.35569800  0.94000200  1
  O  O70  1  0.31312400  0.92760300  0.42068600  1
  O  O71  1  0.81312400  0.07239700  0.57931400  1
  O  O72  1  0.66941200  0.58481900  0.73236700  1
  O  O73  1  0.16941200  0.41518100  0.26763300  1
  O  O74  1  0.33759400  0.96214600  0.76142700  1
  O  O75  1  0.83759400  0.03785400  0.23857300  1
  O  O76  1  0.69419100  0.17922500  0.04284300  1
  O  O77  1  0.19419100  0.82077500  0.95715700  1
  O  O78  1  0.31764000  0.39937100  0.45014800  1
  O  O79  1  0.81764000  0.60062900  0.54985200  1
