# generated using pymatgen
data_InF3
_symmetry_space_group_name_H-M   'P 1'
_cell_length_a   5.83110822
_cell_length_b   5.83110822
_cell_length_c   5.83110827
_cell_angle_alpha   56.35197862
_cell_angle_beta   56.35197862
_cell_angle_gamma   56.35198219
_symmetry_Int_Tables_number   1
_chemical_formula_structural   InF3
_chemical_formula_sum   'In2 F6'
_cell_volume   128.36741592
_cell_formula_units_Z   2
loop_
 _symmetry_equiv_pos_site_id
 _symmetry_equiv_pos_as_xyz
  1  'x, y, z'
loop_
 _atom_site_type_symbol
 _atom_site_label
 _atom_site_symmetry_multiplicity
 _atom_site_fract_x
 _atom_site_fract_y
 _atom_site_fract_z
 _atom_site_occupancy
  In  In0  1  0.50000000  0.50000000  0.50000000  1
  In  In1  1  0.00000000  0.00000000  0.00000000  1
  F  F2  1  0.75000000  0.36753600  0.13246400  1
  F  F3  1  0.13246400  0.75000000  0.36753600  1
  F  F4  1  0.63246400  0.86753600  0.25000000  1
  F  F5  1  0.86753600  0.25000000  0.63246400  1
  F  F6  1  0.25000000  0.63246400  0.86753600  1
  F  F7  1  0.36753600  0.13246400  0.75000000  1
