# generated using pymatgen
data_KSn4(PO4)3
_symmetry_space_group_name_H-M   'P 1'
_cell_length_a   10.22494944
_cell_length_b   10.22494944
_cell_length_c   10.22495010
_cell_angle_alpha   58.98941533
_cell_angle_beta   58.98941533
_cell_angle_gamma   58.98941583
_symmetry_Int_Tables_number   1
_chemical_formula_structural   KSn4(PO4)3
_chemical_formula_sum   'K2 Sn8 P6 O24'
_cell_volume   738.48111568
_cell_formula_units_Z   2
loop_
 _symmetry_equiv_pos_site_id
 _symmetry_equiv_pos_as_xyz
  1  'x, y, z'
loop_
 _atom_site_type_symbol
 _atom_site_label
 _atom_site_symmetry_multiplicity
 _atom_site_fract_x
 _atom_site_fract_y
 _atom_site_fract_z
 _atom_site_occupancy
  K  K0  1  0.65738700  0.65738700  0.65738700  1
  K  K1  1  0.15738700  0.15738700  0.15738700  1
  Sn  Sn2  1  0.76624000  0.85938900  0.20550200  1
  Sn  Sn3  1  0.85938900  0.20550200  0.76624000  1
  Sn  Sn4  1  0.20550200  0.76624000  0.85938900  1
  Sn  Sn5  1  0.26624000  0.70550200  0.35938900  1
  Sn  Sn6  1  0.70550200  0.35938900  0.26624000  1
  Sn  Sn7  1  0.35938900  0.26624000  0.70550200  1
  Sn  Sn8  1  0.30530900  0.30530900  0.30530900  1
  Sn  Sn9  1  0.80530900  0.80530900  0.80530900  1
  P  P10  1  0.36919800  0.91099200  0.43773900  1
  P  P11  1  0.91099200  0.43773900  0.36919800  1
  P  P12  1  0.43773900  0.36919800  0.91099200  1
  P  P13  1  0.41099200  0.86919800  0.93773900  1
  P  P14  1  0.86919800  0.93773900  0.41099200  1
  P  P15  1  0.93773900  0.41099200  0.86919800  1
  O  O16  1  0.10877200  0.28827700  0.81348100  1
  O  O17  1  0.42869100  0.24784000  0.08678400  1
  O  O18  1  0.87589400  0.81119200  0.36383900  1
  O  O19  1  0.81119200  0.36383900  0.87589400  1
  O  O20  1  0.36383900  0.87589400  0.81119200  1
  O  O21  1  0.37589400  0.86383900  0.31119200  1
  O  O22  1  0.86383900  0.31119200  0.37589400  1
  O  O23  1  0.31119200  0.37589400  0.86383900  1
  O  O24  1  0.24784000  0.08678400  0.42869100  1
  O  O25  1  0.58678400  0.74784000  0.92869100  1
  O  O26  1  0.74784000  0.92869100  0.58678400  1
  O  O27  1  0.92869100  0.58678400  0.74784000  1
  O  O28  1  0.78827700  0.60877200  0.31348100  1
  O  O29  1  0.60877200  0.31348100  0.78827700  1
  O  O30  1  0.40439300  0.04052700  0.89908700  1
  O  O31  1  0.31348100  0.78827700  0.60877200  1
  O  O32  1  0.04052700  0.89908700  0.40439300  1
  O  O33  1  0.39908700  0.54052700  0.90439300  1
  O  O34  1  0.90439300  0.39908700  0.54052700  1
  O  O35  1  0.54052700  0.90439300  0.39908700  1
  O  O36  1  0.89908700  0.40439300  0.04052700  1
  O  O37  1  0.81348100  0.10877200  0.28827700  1
  O  O38  1  0.28827700  0.81348100  0.10877200  1
  O  O39  1  0.08678400  0.42869100  0.24784000  1
