# generated using pymatgen
data_VP2Pb2O9
_symmetry_space_group_name_H-M   'P 1'
_cell_length_a   9.17648400
_cell_length_b   8.88283700
_cell_length_c   9.99229507
_cell_angle_alpha   79.47494706
_cell_angle_beta   90.00000000
_cell_angle_gamma   90.00000000
_symmetry_Int_Tables_number   1
_chemical_formula_structural   VP2Pb2O9
_chemical_formula_sum   'V4 P8 Pb8 O36'
_cell_volume   800.80013713
_cell_formula_units_Z   4
loop_
 _symmetry_equiv_pos_site_id
 _symmetry_equiv_pos_as_xyz
  1  'x, y, z'
loop_
 _atom_site_type_symbol
 _atom_site_label
 _atom_site_symmetry_multiplicity
 _atom_site_fract_x
 _atom_site_fract_y
 _atom_site_fract_z
 _atom_site_occupancy
  V  V0  1  0.99946700  0.24418000  0.06344700  1
  V  V1  1  0.49946700  0.25582000  0.93655300  1
  V  V2  1  0.50053300  0.74418000  0.06344700  1
  V  V3  1  0.00053300  0.75582000  0.93655300  1
  P  P4  1  0.04803100  0.23190100  0.42702500  1
  P  P5  1  0.54803100  0.26809900  0.57297500  1
  P  P6  1  0.45196900  0.73190100  0.42702500  1
  P  P7  1  0.24855000  0.00415100  0.96809500  1
  P  P8  1  0.74855000  0.49584900  0.03190500  1
  P  P9  1  0.75145000  0.99584900  0.03190500  1
  P  P10  1  0.25145000  0.50415100  0.96809500  1
  P  P11  1  0.95196900  0.76809900  0.57297500  1
  Pb  Pb12  1  0.64534000  0.60651400  0.71403200  1
  Pb  Pb13  1  0.80877700  0.51875400  0.35858100  1
  Pb  Pb14  1  0.35466000  0.39348600  0.28596800  1
  Pb  Pb15  1  0.14534000  0.89348600  0.28596800  1
  Pb  Pb16  1  0.30877700  0.98124600  0.64141900  1
  Pb  Pb17  1  0.19122300  0.48124600  0.64141900  1
  Pb  Pb18  1  0.69122300  0.01875400  0.35858100  1
  Pb  Pb19  1  0.85466000  0.10651400  0.71403200  1
  O  O20  1  0.11498300  0.39749300  0.40909300  1
  O  O21  1  0.65105300  0.88568500  0.12871900  1
  O  O22  1  0.10028700  0.12674500  0.56034700  1
  O  O23  1  0.60028700  0.37325500  0.43965300  1
  O  O24  1  0.34894700  0.11431500  0.87128100  1
  O  O25  1  0.03516900  0.71972700  0.10051200  1
  O  O26  1  0.15150400  0.92627400  0.87204300  1
  O  O27  1  0.46483100  0.21972700  0.10051200  1
  O  O28  1  0.65023900  0.41855500  0.93863100  1
  O  O29  1  0.88501700  0.60250700  0.59090700  1
  O  O30  1  0.65150400  0.57372600  0.12795700  1
  O  O31  1  0.08961900  0.16261900  0.29986500  1
  O  O32  1  0.16325100  0.39010200  0.07236600  1
  O  O33  1  0.84894700  0.38568500  0.12871900  1
  O  O34  1  0.34976100  0.58144500  0.06136900  1
  O  O35  1  0.87989500  0.24791400  0.44122400  1
  O  O36  1  0.89971300  0.87325500  0.43965300  1
  O  O37  1  0.34849600  0.42627400  0.87204300  1
  O  O38  1  0.83674900  0.60989800  0.92763400  1
  O  O39  1  0.53516900  0.78027300  0.89948800  1
  O  O40  1  0.38501700  0.89749300  0.40909300  1
  O  O41  1  0.15105300  0.61431500  0.87128100  1
  O  O42  1  0.66325100  0.10989800  0.92763400  1
  O  O43  1  0.61498300  0.10250700  0.59090700  1
  O  O44  1  0.12010500  0.75208600  0.55877600  1
  O  O45  1  0.62010500  0.74791400  0.44122400  1
  O  O46  1  0.39971300  0.62674500  0.56034700  1
  O  O47  1  0.15023900  0.08144500  0.06136900  1
  O  O48  1  0.58961900  0.33738100  0.70013500  1
  O  O49  1  0.84976100  0.91855500  0.93863100  1
  O  O50  1  0.37989500  0.25208600  0.55877600  1
  O  O51  1  0.96483100  0.28027300  0.89948800  1
  O  O52  1  0.41038100  0.66261900  0.29986500  1
  O  O53  1  0.84849600  0.07372600  0.12795700  1
  O  O54  1  0.33674900  0.89010200  0.07236600  1
  O  O55  1  0.91038100  0.83738100  0.70013500  1
