# generated using pymatgen
data_GdBi2IO4
_symmetry_space_group_name_H-M   'P 1'
_cell_length_a   3.97401300
_cell_length_b   3.97401300
_cell_length_c   9.70676600
_cell_angle_alpha   90.00000000
_cell_angle_beta   90.00000000
_cell_angle_gamma   90.00000000
_symmetry_Int_Tables_number   1
_chemical_formula_structural   GdBi2IO4
_chemical_formula_sum   'Gd1 Bi2 I1 O4'
_cell_volume   153.29681339
_cell_formula_units_Z   1
loop_
 _symmetry_equiv_pos_site_id
 _symmetry_equiv_pos_as_xyz
  1  'x, y, z'
loop_
 _atom_site_type_symbol
 _atom_site_label
 _atom_site_symmetry_multiplicity
 _atom_site_fract_x
 _atom_site_fract_y
 _atom_site_fract_z
 _atom_site_occupancy
  Gd  Gd0  1  0.00000000  0.00000000  0.00000000  1
  Bi  Bi1  1  0.50000000  0.50000000  0.74185200  1
  Bi  Bi2  1  0.50000000  0.50000000  0.25814800  1
  I  I3  1  0.00000000  0.00000000  0.50000000  1
  O  O4  1  0.50000000  0.00000000  0.14584900  1
  O  O5  1  0.00000000  0.50000000  0.14584900  1
  O  O6  1  0.00000000  0.50000000  0.85415100  1
  O  O7  1  0.50000000  0.00000000  0.85415100  1
