# generated using pymatgen
data_NbZn16
_symmetry_space_group_name_H-M   'P 1'
_cell_length_a   6.91099994
_cell_length_b   6.91099994
_cell_length_c   11.71980100
_cell_angle_alpha   90.00000000
_cell_angle_beta   90.00000000
_cell_angle_gamma   112.08480272
_symmetry_Int_Tables_number   1
_chemical_formula_structural   NbZn16
_chemical_formula_sum   'Nb2 Zn32'
_cell_volume   518.68969157
_cell_formula_units_Z   2
loop_
 _symmetry_equiv_pos_site_id
 _symmetry_equiv_pos_as_xyz
  1  'x, y, z'
loop_
 _atom_site_type_symbol
 _atom_site_label
 _atom_site_symmetry_multiplicity
 _atom_site_fract_x
 _atom_site_fract_y
 _atom_site_fract_z
 _atom_site_occupancy
  Nb  Nb0  1  0.04821000  0.95179000  0.25000000  1
  Nb  Nb1  1  0.95179000  0.04821000  0.75000000  1
  Zn  Zn2  1  0.75571300  0.65121100  0.86619500  1
  Zn  Zn3  1  0.35502600  0.98132800  0.43071200  1
  Zn  Zn4  1  0.62011500  0.37988500  0.46808700  1
  Zn  Zn5  1  0.01867200  0.64497400  0.06928800  1
  Zn  Zn6  1  0.19282300  0.48075400  0.75000000  1
  Zn  Zn7  1  0.65121100  0.75571300  0.36619500  1
  Zn  Zn8  1  0.37988500  0.62011500  0.96808700  1
  Zn  Zn9  1  0.34878900  0.24428700  0.63380500  1
  Zn  Zn10  1  0.17588100  0.82411900  0.85969200  1
  Zn  Zn11  1  0.98132800  0.35502600  0.56928800  1
  Zn  Zn12  1  0.24428700  0.34878900  0.36619500  1
  Zn  Zn13  1  0.64497400  0.01867200  0.93071200  1
  Zn  Zn14  1  0.80717700  0.51924600  0.25000000  1
  Zn  Zn15  1  0.24428700  0.34878900  0.13380500  1
  Zn  Zn16  1  0.37988500  0.62011500  0.53191300  1
  Zn  Zn17  1  0.34878900  0.24428700  0.86619500  1
  Zn  Zn18  1  0.75571300  0.65121100  0.63380500  1
  Zn  Zn19  1  0.51924600  0.80717700  0.75000000  1
  Zn  Zn20  1  0.00000000  0.00000000  0.50000000  1
  Zn  Zn21  1  0.62011500  0.37988500  0.03191300  1
  Zn  Zn22  1  0.29003700  0.70996300  0.25000000  1
  Zn  Zn23  1  0.48075400  0.19282300  0.25000000  1
  Zn  Zn24  1  0.64497400  0.01867200  0.56928800  1
  Zn  Zn25  1  0.65121100  0.75571300  0.13380500  1
  Zn  Zn26  1  0.17588100  0.82411900  0.64030800  1
  Zn  Zn27  1  0.01867200  0.64497400  0.43071200  1
  Zn  Zn28  1  0.00000000  0.00000000  0.00000000  1
  Zn  Zn29  1  0.98132800  0.35502600  0.93071200  1
  Zn  Zn30  1  0.35502600  0.98132800  0.06928800  1
  Zn  Zn31  1  0.70996300  0.29003700  0.75000000  1
  Zn  Zn32  1  0.82411900  0.17588100  0.35969200  1
  Zn  Zn33  1  0.82411900  0.17588100  0.14030800  1
