# generated using pymatgen
data_InCu6ClO8
_symmetry_space_group_name_H-M   'P 1'
_cell_length_a   6.52287338
_cell_length_b   6.52287338
_cell_length_c   6.52287338
_cell_angle_alpha   60.00000000
_cell_angle_beta   60.00000000
_cell_angle_gamma   60.00000000
_symmetry_Int_Tables_number   1
_chemical_formula_structural   InCu6ClO8
_chemical_formula_sum   'In1 Cu6 Cl1 O8'
_cell_volume   196.24646696
_cell_formula_units_Z   1
loop_
 _symmetry_equiv_pos_site_id
 _symmetry_equiv_pos_as_xyz
  1  'x, y, z'
loop_
 _atom_site_type_symbol
 _atom_site_label
 _atom_site_symmetry_multiplicity
 _atom_site_fract_x
 _atom_site_fract_y
 _atom_site_fract_z
 _atom_site_occupancy
  In  In0  1  0.00000000  0.00000000  0.00000000  1
  Cu  Cu1  1  0.00000000  0.00000000  0.50000000  1
  Cu  Cu2  1  0.50000000  0.00000000  0.00000000  1
  Cu  Cu3  1  0.00000000  0.50000000  0.00000000  1
  Cu  Cu4  1  0.50000000  0.50000000  0.00000000  1
  Cu  Cu5  1  0.00000000  0.50000000  0.50000000  1
  Cu  Cu6  1  0.50000000  0.00000000  0.50000000  1
  Cl  Cl7  1  0.50000000  0.50000000  0.50000000  1
  O  O8  1  0.14252900  0.14252900  0.57241200  1
  O  O9  1  0.14252900  0.57241200  0.14252900  1
  O  O10  1  0.57241200  0.14252900  0.14252900  1
  O  O11  1  0.85747100  0.42758800  0.85747100  1
  O  O12  1  0.14252900  0.14252900  0.14252900  1
  O  O13  1  0.85747100  0.85747100  0.85747100  1
  O  O14  1  0.85747100  0.85747100  0.42758800  1
  O  O15  1  0.42758800  0.85747100  0.85747100  1
