# generated using pymatgen
data_SiH12C2(NF)6
_symmetry_space_group_name_H-M   'P 1'
_cell_length_a   7.34302716
_cell_length_b   7.34302716
_cell_length_c   6.25315057
_cell_angle_alpha   69.17220450
_cell_angle_beta   69.17220450
_cell_angle_gamma   59.76569175
_symmetry_Int_Tables_number   1
_chemical_formula_structural   SiH12C2(NF)6
_chemical_formula_sum   'Si1 H12 C2 N6 F6'
_cell_volume   265.68524518
_cell_formula_units_Z   1
loop_
 _symmetry_equiv_pos_site_id
 _symmetry_equiv_pos_as_xyz
  1  'x, y, z'
loop_
 _atom_site_type_symbol
 _atom_site_label
 _atom_site_symmetry_multiplicity
 _atom_site_fract_x
 _atom_site_fract_y
 _atom_site_fract_z
 _atom_site_occupancy
  Si  Si0  1  0.00000000  0.00000000  0.00000000  1
  H  H1  1  0.45425100  0.01151700  0.74902000  1
  H  H2  1  0.01151700  0.45425100  0.74902000  1
  H  H3  1  0.54574900  0.98848300  0.25098000  1
  H  H4  1  0.98848300  0.54574900  0.25098000  1
  H  H5  1  0.69482600  0.01244900  0.74229200  1
  H  H6  1  0.01244900  0.69482600  0.74229200  1
  H  H7  1  0.30517400  0.98755100  0.25770800  1
  H  H8  1  0.98755100  0.30517400  0.25770800  1
  H  H9  1  0.69420300  0.45505100  0.74907500  1
  H  H10  1  0.45505100  0.69420300  0.74907500  1
  H  H11  1  0.30579700  0.54494900  0.25092500  1
  H  H12  1  0.54494900  0.30579700  0.25092500  1
  C  C13  1  0.72419500  0.72419500  0.72807500  1
  C  C14  1  0.27580500  0.27580500  0.27192500  1
  N  N15  1  0.61953500  0.61953500  0.72451800  1
  N  N16  1  0.38046500  0.38046500  0.27548200  1
  N  N17  1  0.61855500  0.93557500  0.72594300  1
  N  N18  1  0.93557500  0.61855500  0.72594300  1
  N  N19  1  0.38144500  0.06442500  0.27405700  1
  N  N20  1  0.06442500  0.38144500  0.27405700  1
  F  F21  1  0.81713600  0.15022500  0.82080900  1
  F  F22  1  0.15022500  0.81713600  0.82080900  1
  F  F23  1  0.18286400  0.84977500  0.17919100  1
  F  F24  1  0.84977500  0.18286400  0.17919100  1
  F  F25  1  0.14657100  0.14657100  0.83575400  1
  F  F26  1  0.85342900  0.85342900  0.16424600  1
