# generated using pymatgen
data_Cu3BiSe2IO8
_symmetry_space_group_name_H-M   'P 1'
_cell_length_a   6.46661500
_cell_length_b   7.44800900
_cell_length_c   9.82356800
_cell_angle_alpha   90.00000000
_cell_angle_beta   90.00000000
_cell_angle_gamma   90.00000000
_symmetry_Int_Tables_number   1
_chemical_formula_structural   Cu3BiSe2IO8
_chemical_formula_sum   'Cu6 Bi2 Se4 I2 O16'
_cell_volume   473.13650102
_cell_formula_units_Z   2
loop_
 _symmetry_equiv_pos_site_id
 _symmetry_equiv_pos_as_xyz
  1  'x, y, z'
loop_
 _atom_site_type_symbol
 _atom_site_label
 _atom_site_symmetry_multiplicity
 _atom_site_fract_x
 _atom_site_fract_y
 _atom_site_fract_z
 _atom_site_occupancy
  Cu  Cu0  1  0.00000000  0.20477900  0.00000000  1
  Cu  Cu1  1  0.50000000  0.79522100  0.50000000  1
  Cu  Cu2  1  0.25000000  0.00000000  0.25000000  1
  Cu  Cu3  1  0.75000000  0.00000000  0.75000000  1
  Cu  Cu4  1  0.75000000  0.00000000  0.25000000  1
  Cu  Cu5  1  0.25000000  0.00000000  0.75000000  1
  Bi  Bi6  1  0.00000000  0.75873500  0.00000000  1
  Bi  Bi7  1  0.50000000  0.24126500  0.50000000  1
  Se  Se8  1  0.50000000  0.61536600  0.19328000  1
  Se  Se9  1  0.00000000  0.38463400  0.30672000  1
  Se  Se10  1  0.50000000  0.61536600  0.80672000  1
  Se  Se11  1  0.00000000  0.38463400  0.69328000  1
  I  I12  1  0.00000000  0.82917200  0.50000000  1
  I  I13  1  0.50000000  0.17082800  0.00000000  1
  O  O14  1  0.78942200  0.24091800  0.66488700  1
  O  O15  1  0.71057800  0.75908200  0.16488700  1
  O  O16  1  0.00000000  0.00818700  0.13573000  1
  O  O17  1  0.50000000  0.99181300  0.63573000  1
  O  O18  1  0.50000000  0.59307300  0.63266900  1
  O  O19  1  0.28942200  0.75908200  0.83511300  1
  O  O20  1  0.21057800  0.24091800  0.66488700  1
  O  O21  1  0.00000000  0.40692700  0.13266900  1
  O  O22  1  0.28942200  0.75908200  0.16488700  1
  O  O23  1  0.21057800  0.24091800  0.33511300  1
  O  O24  1  0.50000000  0.59307300  0.36733100  1
  O  O25  1  0.50000000  0.99181300  0.36427000  1
  O  O26  1  0.71057800  0.75908200  0.83511300  1
  O  O27  1  0.00000000  0.00818700  0.86427000  1
  O  O28  1  0.78942200  0.24091800  0.33511300  1
  O  O29  1  0.00000000  0.40692700  0.86733100  1
