# generated using pymatgen
data_K2ZnCl4
_symmetry_space_group_name_H-M   'P 1'
_cell_length_a   14.63476337
_cell_length_b   14.63476337
_cell_length_c   27.29891720
_cell_angle_alpha   89.95402205
_cell_angle_beta   89.95402205
_cell_angle_gamma   119.08090635
_symmetry_Int_Tables_number   1
_chemical_formula_structural   K2ZnCl4
_chemical_formula_sum   'K48 Zn24 Cl96'
_cell_volume   5109.69577950
_cell_formula_units_Z   24
loop_
 _symmetry_equiv_pos_site_id
 _symmetry_equiv_pos_as_xyz
  1  'x, y, z'
loop_
 _atom_site_type_symbol
 _atom_site_label
 _atom_site_symmetry_multiplicity
 _atom_site_fract_x
 _atom_site_fract_y
 _atom_site_fract_z
 _atom_site_occupancy
  K  K0  1  0.89334000  0.33036100  0.33024200  1
  K  K1  1  0.39458200  0.83114300  0.33438600  1
  K  K2  1  0.86581900  0.93145600  0.00074400  1
  K  K3  1  0.34428000  0.91206700  0.16485100  1
  K  K4  1  0.03393100  0.19441000  0.20937500  1
  K  K5  1  0.43452700  0.87172700  0.99854700  1
  K  K6  1  0.33660000  0.39929700  0.66771100  1
  K  K7  1  0.43599500  0.37770500  0.50226800  1
  K  K8  1  0.55514400  0.21180100  0.62028000  1
  K  K9  1  0.91206700  0.34428000  0.66485100  1
  K  K10  1  0.83897200  0.89901000  0.33475100  1
  K  K11  1  0.87172700  0.43452700  0.49854700  1
  K  K12  1  0.05564100  0.73445200  0.61943100  1
  K  K13  1  0.39929700  0.33660000  0.16771100  1
  K  K14  1  0.57439900  0.74512100  0.54334900  1
  K  K15  1  0.83114300  0.39458200  0.83438600  1
  K  K16  1  0.36935600  0.93188700  0.50041200  1
  K  K17  1  0.33036100  0.89334000  0.83024200  1
  K  K18  1  0.74512100  0.57439900  0.04334900  1
  K  K19  1  0.22160700  0.54134400  0.45749500  1
  K  K20  1  0.05007500  0.21355400  0.54273300  1
  K  K21  1  0.21927300  0.06356900  0.38077400  1
  K  K22  1  0.52165600  0.19160100  0.29120600  1
  K  K23  1  0.70194700  0.52557200  0.71030900  1
  K  K24  1  0.82844800  0.89249400  0.66994100  1
  K  K25  1  0.06356900  0.21927300  0.88077400  1
  K  K26  1  0.52557200  0.70194700  0.21030900  1
  K  K27  1  0.74056400  0.07759000  0.45631600  1
  K  K28  1  0.19160100  0.52165600  0.79120600  1
  K  K29  1  0.73445200  0.05564100  0.11943100  1
  K  K30  1  0.54134400  0.22160700  0.95749500  1
  K  K31  1  0.82977700  0.39520500  0.16831600  1
  K  K32  1  0.93145600  0.86581900  0.50074400  1
  K  K33  1  0.07759000  0.74056400  0.95631600  1
  K  K34  1  0.33843400  0.40820900  0.33370900  1
  K  K35  1  0.72002800  0.54586100  0.38013500  1
  K  K36  1  0.89901000  0.83897200  0.83475100  1
  K  K37  1  0.21180100  0.55514400  0.12028000  1
  K  K38  1  0.19441000  0.03393100  0.70937500  1
  K  K39  1  0.89249400  0.82844800  0.16994100  1
  K  K40  1  0.37770500  0.43599500  0.00226800  1
  K  K41  1  0.21355400  0.05007500  0.04273300  1
  K  K42  1  0.40820900  0.33843400  0.83370900  1
  K  K43  1  0.03671100  0.70254800  0.28978600  1
  K  K44  1  0.70254800  0.03671100  0.78978600  1
  K  K45  1  0.39520500  0.82977700  0.66831600  1
  K  K46  1  0.93188700  0.36935600  0.00041200  1
  K  K47  1  0.54586100  0.72002800  0.88013500  1
  Zn  Zn48  1  0.20511500  0.04009500  0.24054700  1
  Zn  Zn49  1  0.70578900  0.03523000  0.26038100  1
  Zn  Zn50  1  0.05893400  0.72341000  0.09656100  1
  Zn  Zn51  1  0.70331100  0.53712400  0.24178300  1
  Zn  Zn52  1  0.71342300  0.05014400  0.92837500  1
  Zn  Zn53  1  0.05027200  0.21306200  0.07123500  1
  Zn  Zn54  1  0.22446600  0.05575700  0.90393100  1
  Zn  Zn55  1  0.73116400  0.56482900  0.90545300  1
  Zn  Zn56  1  0.04009500  0.20511500  0.74054700  1
  Zn  Zn57  1  0.53855900  0.21375900  0.42886500  1
  Zn  Zn58  1  0.05575700  0.22446600  0.40393100  1
  Zn  Zn59  1  0.21306200  0.05027200  0.57123500  1
  Zn  Zn60  1  0.56482900  0.73116400  0.40545300  1
  Zn  Zn61  1  0.20023900  0.53773200  0.25834000  1
  Zn  Zn62  1  0.05014400  0.71342300  0.42837500  1
  Zn  Zn63  1  0.72341000  0.05893400  0.59656100  1
  Zn  Zn64  1  0.21375900  0.53855900  0.92886500  1
  Zn  Zn65  1  0.53712400  0.70331100  0.74178300  1
  Zn  Zn66  1  0.54217000  0.71669000  0.07343000  1
  Zn  Zn67  1  0.71669000  0.54217000  0.57343000  1
  Zn  Zn68  1  0.53773200  0.20023900  0.75834000  1
  Zn  Zn69  1  0.22819400  0.56106200  0.59475300  1
  Zn  Zn70  1  0.56106200  0.22819400  0.09475300  1
  Zn  Zn71  1  0.03523000  0.70578900  0.76038100  1
  Cl  Cl72  1  0.99015200  0.53534900  0.74814200  1
  Cl  Cl73  1  0.82933700  0.01612900  0.88653400  1
  Cl  Cl74  1  0.98165900  0.31211500  0.44263600  1
  Cl  Cl75  1  0.52490100  0.34869900  0.05773600  1
  Cl  Cl76  1  0.18665400  0.99303700  0.49283400  1
  Cl  Cl77  1  0.31859200  0.00308700  0.61346900  1
  Cl  Cl78  1  0.31211500  0.98165900  0.94263600  1
  Cl  Cl79  1  0.44371100  0.06786100  0.06382000  1
  Cl  Cl80  1  0.76044300  0.56918100  0.82423400  1
  Cl  Cl81  1  0.03027400  0.49413300  0.24411600  1
  Cl  Cl82  1  0.18831100  0.48900200  0.00826600  1
  Cl  Cl83  1  0.30668300  0.20063800  0.27782900  1
  Cl  Cl84  1  0.24392600  0.56423300  0.33857800  1
  Cl  Cl85  1  0.84387000  0.52327000  0.94628500  1
  Cl  Cl86  1  0.21940300  0.28652100  0.43702300  1
  Cl  Cl87  1  0.44077200  0.55920800  0.11295500  1
  Cl  Cl88  1  0.93149900  0.25370500  0.77954800  1
  Cl  Cl89  1  0.75564400  0.06497800  0.33995500  1
  Cl  Cl90  1  0.42421200  0.24228500  0.71946700  1
  Cl  Cl91  1  0.22127100  0.75585800  0.42246200  1
  Cl  Cl92  1  0.06786100  0.44371100  0.56382000  1
  Cl  Cl93  1  0.05358500  0.43920700  0.89119100  1
  Cl  Cl94  1  0.95893200  0.55081500  0.07821300  1
  Cl  Cl95  1  0.20063800  0.30668300  0.77782900  1
  Cl  Cl96  1  0.81323800  0.19293500  0.22174100  1
  Cl  Cl97  1  0.22226100  0.77397800  0.06499200  1
  Cl  Cl98  1  0.56918100  0.76044300  0.32423400  1
  Cl  Cl99  1  0.41705200  0.73769500  0.78008100  1
  Cl  Cl100  1  0.50562100  0.83500300  0.11215600  1
  Cl  Cl101  1  0.03408900  0.98951200  0.25590700  1
  Cl  Cl102  1  0.99137000  0.68650200  0.50676500  1
  Cl  Cl103  1  0.56373700  0.45022700  0.92790800  1
  Cl  Cl104  1  0.52327000  0.84387000  0.44628500  1
  Cl  Cl105  1  0.24413900  0.55972500  0.67695300  1
  Cl  Cl106  1  0.05055100  0.95704300  0.60939100  1
  Cl  Cl107  1  0.00308700  0.31859200  0.11346900  1
  Cl  Cl108  1  0.94937200  0.55517900  0.38884200  1
  Cl  Cl109  1  0.76624000  0.07376000  0.67638300  1
  Cl  Cl110  1  0.05459400  0.95930500  0.92812100  1
  Cl  Cl111  1  0.26976600  0.71106800  0.91561600  1
  Cl  Cl112  1  0.99160200  0.81311900  0.05289600  1
  Cl  Cl113  1  0.73769500  0.41705200  0.28008100  1
  Cl  Cl114  1  0.55517900  0.94937200  0.88884200  1
  Cl  Cl115  1  0.75585800  0.22127100  0.92246200  1
  Cl  Cl116  1  0.01612900  0.82933700  0.38653400  1
  Cl  Cl117  1  0.68650200  0.99137000  0.00676500  1
  Cl  Cl118  1  0.99303700  0.18665400  0.99283400  1
  Cl  Cl119  1  0.32505900  0.49467600  0.88860900  1
  Cl  Cl120  1  0.55920800  0.44077200  0.61295500  1
  Cl  Cl121  1  0.24228500  0.42421200  0.21946700  1
  Cl  Cl122  1  0.26560400  0.22317200  0.58000200  1
  Cl  Cl123  1  0.28652100  0.21940300  0.93702300  1
  Cl  Cl124  1  0.56250600  0.74930600  0.66169700  1
  Cl  Cl125  1  0.25972200  0.72350900  0.57031800  1
  Cl  Cl126  1  0.83500300  0.50562100  0.61215600  1
  Cl  Cl127  1  0.22317200  0.26560400  0.08000200  1
  Cl  Cl128  1  0.72614200  0.76146000  0.43150100  1
  Cl  Cl129  1  0.76146000  0.72614200  0.93150100  1
  Cl  Cl130  1  0.06497800  0.75564400  0.83995500  1
  Cl  Cl131  1  0.48900200  0.18831100  0.50826600  1
  Cl  Cl132  1  0.71495700  0.76820300  0.08405600  1
  Cl  Cl133  1  0.81278800  0.69333700  0.28025300  1
  Cl  Cl134  1  0.92066400  0.74579500  0.72035000  1
  Cl  Cl135  1  0.06749100  0.24835800  0.66034100  1
  Cl  Cl136  1  0.49098000  0.68847900  0.99406300  1
  Cl  Cl137  1  0.45022700  0.56373700  0.42790800  1
  Cl  Cl138  1  0.53422600  0.49703200  0.25472200  1
  Cl  Cl139  1  0.95704300  0.05055100  0.10939100  1
  Cl  Cl140  1  0.24835800  0.06749100  0.16034100  1
  Cl  Cl141  1  0.53534900  0.99015200  0.24814200  1
  Cl  Cl142  1  0.30499300  0.69804800  0.22095500  1
  Cl  Cl143  1  0.49413300  0.03027400  0.74411600  1
  Cl  Cl144  1  0.74579500  0.92066400  0.22035000  1
  Cl  Cl145  1  0.72350900  0.25972200  0.07031800  1
  Cl  Cl146  1  0.81311900  0.99160200  0.55289600  1
  Cl  Cl147  1  0.19293500  0.81323800  0.72174100  1
  Cl  Cl148  1  0.69804800  0.30499300  0.72095500  1
  Cl  Cl149  1  0.77397800  0.22226100  0.56499200  1
  Cl  Cl150  1  0.06987900  0.25677000  0.32326600  1
  Cl  Cl151  1  0.43920700  0.05358500  0.39119100  1
  Cl  Cl152  1  0.49703200  0.53422600  0.75472200  1
  Cl  Cl153  1  0.07376000  0.76624000  0.17638300  1
  Cl  Cl154  1  0.25370500  0.93149900  0.27954800  1
  Cl  Cl155  1  0.25677000  0.06987900  0.82326600  1
  Cl  Cl156  1  0.68847900  0.49098000  0.49406300  1
  Cl  Cl157  1  0.74930600  0.56250600  0.16169700  1
  Cl  Cl158  1  0.55972500  0.24413900  0.17695300  1
  Cl  Cl159  1  0.69333700  0.81278800  0.78025300  1
  Cl  Cl160  1  0.56423300  0.24392600  0.83857800  1
  Cl  Cl161  1  0.76820300  0.71495700  0.58405600  1
  Cl  Cl162  1  0.55081500  0.95893200  0.57821300  1
  Cl  Cl163  1  0.98951200  0.03408900  0.75590700  1
  Cl  Cl164  1  0.49467600  0.32505900  0.38860900  1
  Cl  Cl165  1  0.71106800  0.26976600  0.41561600  1
  Cl  Cl166  1  0.34869900  0.52490100  0.55773600  1
  Cl  Cl167  1  0.95930500  0.05459400  0.42812100  1
