# generated using pymatgen
data_KNOF2
_symmetry_space_group_name_H-M   'P 1'
_cell_length_a   6.31196000
_cell_length_b   6.94053200
_cell_length_c   8.06393600
_cell_angle_alpha   90.00000000
_cell_angle_beta   90.00000000
_cell_angle_gamma   90.00000000
_symmetry_Int_Tables_number   1
_chemical_formula_structural   KNOF2
_chemical_formula_sum   'K4 N4 O4 F8'
_cell_volume   353.26781423
_cell_formula_units_Z   4
loop_
 _symmetry_equiv_pos_site_id
 _symmetry_equiv_pos_as_xyz
  1  'x, y, z'
loop_
 _atom_site_type_symbol
 _atom_site_label
 _atom_site_symmetry_multiplicity
 _atom_site_fract_x
 _atom_site_fract_y
 _atom_site_fract_z
 _atom_site_occupancy
  K  K0  1  0.75000000  0.86673800  0.38361400  1
  K  K1  1  0.75000000  0.36673800  0.11638600  1
  K  K2  1  0.25000000  0.63326200  0.88361400  1
  K  K3  1  0.25000000  0.13326200  0.61638600  1
  N  N4  1  0.25000000  0.05461900  0.21322400  1
  N  N5  1  0.75000000  0.94538100  0.78677600  1
  N  N6  1  0.25000000  0.55461900  0.28677600  1
  N  N7  1  0.75000000  0.44538100  0.71322400  1
  O  O8  1  0.25000000  0.62233200  0.41583500  1
  O  O9  1  0.75000000  0.37766800  0.58416500  1
  O  O10  1  0.75000000  0.87766800  0.91583500  1
  O  O11  1  0.25000000  0.12233200  0.08416500  1
  F  F12  1  0.48359500  0.66710900  0.16653200  1
  F  F13  1  0.98359500  0.33289100  0.83346800  1
  F  F14  1  0.01640500  0.66710900  0.16653200  1
  F  F15  1  0.98359500  0.83289100  0.66653200  1
  F  F16  1  0.48359500  0.16710900  0.33346800  1
  F  F17  1  0.51640500  0.83289100  0.66653200  1
  F  F18  1  0.01640500  0.16710900  0.33346800  1
  F  F19  1  0.51640500  0.33289100  0.83346800  1
