# generated using pymatgen
data_CsHg2Br5
_symmetry_space_group_name_H-M   'P 1'
_cell_length_a   6.56869400
_cell_length_b   8.63027200
_cell_length_c   11.62938675
_cell_angle_alpha   72.70746375
_cell_angle_beta   90.00000000
_cell_angle_gamma   90.00000000
_symmetry_Int_Tables_number   1
_chemical_formula_structural   CsHg2Br5
_chemical_formula_sum   'Cs2 Hg4 Br10'
_cell_volume   629.46635888
_cell_formula_units_Z   2
loop_
 _symmetry_equiv_pos_site_id
 _symmetry_equiv_pos_as_xyz
  1  'x, y, z'
loop_
 _atom_site_type_symbol
 _atom_site_label
 _atom_site_symmetry_multiplicity
 _atom_site_fract_x
 _atom_site_fract_y
 _atom_site_fract_z
 _atom_site_occupancy
  Cs  Cs0  1  0.25000000  0.52886600  0.74583200  1
  Cs  Cs1  1  0.75000000  0.47113400  0.25416800  1
  Hg  Hg2  1  0.75000000  0.96223500  0.85905100  1
  Hg  Hg3  1  0.75000000  0.87163200  0.44383500  1
  Hg  Hg4  1  0.25000000  0.03776500  0.14094900  1
  Hg  Hg5  1  0.25000000  0.12836800  0.55616500  1
  Br  Br6  1  0.25000000  0.98722200  0.78803800  1
  Br  Br7  1  0.75000000  0.01277800  0.21196200  1
  Br  Br8  1  0.25000000  0.42558600  0.43247400  1
  Br  Br9  1  0.75000000  0.24158700  0.87531100  1
  Br  Br10  1  0.75000000  0.57441400  0.56752600  1
  Br  Br11  1  0.75000000  0.66297200  0.89929900  1
  Br  Br12  1  0.25000000  0.75841300  0.12468900  1
  Br  Br13  1  0.25000000  0.90197900  0.43804000  1
  Br  Br14  1  0.25000000  0.33702800  0.10070100  1
  Br  Br15  1  0.75000000  0.09802100  0.56196000  1
