# generated using pymatgen
data_Cd2GaAgS4
_symmetry_space_group_name_H-M   'P 1'
_cell_length_a   6.70078800
_cell_length_b   7.01090700
_cell_length_c   8.25106000
_cell_angle_alpha   90.00000000
_cell_angle_beta   90.00000000
_cell_angle_gamma   90.00000000
_symmetry_Int_Tables_number   1
_chemical_formula_structural   Cd2GaAgS4
_chemical_formula_sum   'Cd4 Ga2 Ag2 S8'
_cell_volume   387.62325965
_cell_formula_units_Z   2
loop_
 _symmetry_equiv_pos_site_id
 _symmetry_equiv_pos_as_xyz
  1  'x, y, z'
loop_
 _atom_site_type_symbol
 _atom_site_label
 _atom_site_symmetry_multiplicity
 _atom_site_fract_x
 _atom_site_fract_y
 _atom_site_fract_z
 _atom_site_occupancy
  Cd  Cd0  1  0.48747500  0.17514000  0.25261300  1
  Cd  Cd1  1  0.98747500  0.82486000  0.75261300  1
  Cd  Cd2  1  0.48747500  0.17514000  0.74738700  1
  Cd  Cd3  1  0.98747500  0.82486000  0.24738700  1
  Ga  Ga4  1  0.49105000  0.67704000  0.50000000  1
  Ga  Ga5  1  0.99105000  0.32296000  0.00000000  1
  Ag  Ag6  1  0.99038700  0.34123300  0.50000000  1
  Ag  Ag7  1  0.49038700  0.65876700  0.00000000  1
  S  S8  1  0.10604600  0.63416300  0.00000000  1
  S  S9  1  0.60604600  0.36583700  0.50000000  1
  S  S10  1  0.14620000  0.67843900  0.50000000  1
  S  S11  1  0.64620000  0.32156100  0.00000000  1
  S  S12  1  0.60356400  0.82464900  0.26665300  1
  S  S13  1  0.10356400  0.17535100  0.76665300  1
  S  S14  1  0.10356400  0.17535100  0.23334700  1
  S  S15  1  0.60356400  0.82464900  0.73334700  1
