# generated using pymatgen
data_NaTeH6O6F
_symmetry_space_group_name_H-M   'P 1'
_cell_length_a   5.70912742
_cell_length_b   5.70912742
_cell_length_c   5.70912816
_cell_angle_alpha   64.62446311
_cell_angle_beta   64.62446311
_cell_angle_gamma   64.62446836
_symmetry_Int_Tables_number   1
_chemical_formula_structural   NaTeH6O6F
_chemical_formula_sum   'Na1 Te1 H6 O6 F1'
_cell_volume   144.91237523
_cell_formula_units_Z   1
loop_
 _symmetry_equiv_pos_site_id
 _symmetry_equiv_pos_as_xyz
  1  'x, y, z'
loop_
 _atom_site_type_symbol
 _atom_site_label
 _atom_site_symmetry_multiplicity
 _atom_site_fract_x
 _atom_site_fract_y
 _atom_site_fract_z
 _atom_site_occupancy
  Na  Na0  1  0.62378200  0.62378200  0.62378200  1
  Te  Te1  1  0.99718200  0.99718200  0.99718200  1
  H  H2  1  0.04496300  0.98352400  0.54478000  1
  H  H3  1  0.98352400  0.54478000  0.04496300  1
  H  H4  1  0.54478000  0.04496300  0.98352400  1
  H  H5  1  0.67936700  0.20118000  0.38219100  1
  H  H6  1  0.20118000  0.38219100  0.67936700  1
  H  H7  1  0.38219100  0.67936700  0.20118000  1
  O  O8  1  0.17643700  0.93520500  0.64306000  1
  O  O9  1  0.93520400  0.64306000  0.17643700  1
  O  O10  1  0.64306000  0.17643700  0.93520500  1
  O  O11  1  0.84229900  0.02899400  0.36607500  1
  O  O12  1  0.02899400  0.36607500  0.84229900  1
  O  O13  1  0.36607500  0.84229900  0.02899400  1
  F  F14  1  0.44386300  0.44386300  0.44386300  1
