# generated using pymatgen
data_Ta3In2Cl9
_symmetry_space_group_name_H-M   'P 1'
_cell_length_a   9.58955820
_cell_length_b   9.58955820
_cell_length_c   9.79530452
_cell_angle_alpha   74.68505337
_cell_angle_beta   74.68505337
_cell_angle_gamma   110.30037351
_symmetry_Int_Tables_number   1
_chemical_formula_structural   Ta3In2Cl9
_chemical_formula_sum   'Ta6 In4 Cl18'
_cell_volume   749.15966794
_cell_formula_units_Z   2
loop_
 _symmetry_equiv_pos_site_id
 _symmetry_equiv_pos_as_xyz
  1  'x, y, z'
loop_
 _atom_site_type_symbol
 _atom_site_label
 _atom_site_symmetry_multiplicity
 _atom_site_fract_x
 _atom_site_fract_y
 _atom_site_fract_z
 _atom_site_occupancy
  Ta  Ta0  1  0.77757600  0.96149600  0.13910400  1
  Ta  Ta1  1  0.10189800  0.10189800  0.13164600  1
  Ta  Ta2  1  0.89810200  0.89810200  0.86835400  1
  Ta  Ta3  1  0.03850400  0.22242400  0.86089600  1
  Ta  Ta4  1  0.96149600  0.77757600  0.13910400  1
  Ta  Ta5  1  0.22242400  0.03850400  0.86089600  1
  In  In6  1  0.24223300  0.54608900  0.33683800  1
  In  In7  1  0.54608900  0.24223300  0.33683800  1
  In  In8  1  0.45391100  0.75776700  0.66316200  1
  In  In9  1  0.75776700  0.45391100  0.66316200  1
  Cl  Cl10  1  0.50928600  0.08715900  0.67819100  1
  Cl  Cl11  1  0.68517600  0.68517600  0.33160700  1
  Cl  Cl12  1  0.23407400  0.23407400  0.29637000  1
  Cl  Cl13  1  0.07527400  0.85494600  0.32125100  1
  Cl  Cl14  1  0.61387300  0.83459400  0.00932200  1
  Cl  Cl15  1  0.92472600  0.14505400  0.67874900  1
  Cl  Cl16  1  0.08715900  0.50928600  0.67819100  1
  Cl  Cl17  1  0.78024200  0.21975800  0.00000000  1
  Cl  Cl18  1  0.83459400  0.61387300  0.00932200  1
  Cl  Cl19  1  0.38612700  0.16540600  0.99067800  1
  Cl  Cl20  1  0.21975800  0.78024200  0.00000000  1
  Cl  Cl21  1  0.49071400  0.91284100  0.32180900  1
  Cl  Cl22  1  0.91284100  0.49071400  0.32180900  1
  Cl  Cl23  1  0.76592600  0.76592600  0.70363000  1
  Cl  Cl24  1  0.31482400  0.31482400  0.66839300  1
  Cl  Cl25  1  0.14505400  0.92472600  0.67874900  1
  Cl  Cl26  1  0.85494600  0.07527400  0.32125100  1
  Cl  Cl27  1  0.16540600  0.38612700  0.99067800  1
