# generated using pymatgen
data_Na(Ce2Se3)4
_symmetry_space_group_name_H-M   'P 1'
_cell_length_a   14.85498889
_cell_length_b   14.85498889
_cell_length_c   14.85498889
_cell_angle_alpha   145.00286577
_cell_angle_beta   145.00286577
_cell_angle_gamma   50.33025378
_symmetry_Int_Tables_number   1
_chemical_formula_structural   Na(Ce2Se3)4
_chemical_formula_sum   'Na2 Ce16 Se24'
_cell_volume   1072.95512993
_cell_formula_units_Z   2
loop_
 _symmetry_equiv_pos_site_id
 _symmetry_equiv_pos_as_xyz
  1  'x, y, z'
loop_
 _atom_site_type_symbol
 _atom_site_label
 _atom_site_symmetry_multiplicity
 _atom_site_fract_x
 _atom_site_fract_y
 _atom_site_fract_z
 _atom_site_occupancy
  Na  Na0  1  0.25000000  0.75000000  0.50000000  1
  Na  Na1  1  0.50000000  0.50000000  0.00000000  1
  Ce  Ce2  1  0.91131400  0.78844300  0.61892100  1
  Ce  Ce3  1  0.58334200  0.08334200  0.50000000  1
  Ce  Ce4  1  0.37500000  0.74600000  0.87100000  1
  Ce  Ce5  1  0.83868600  0.95760700  0.37712900  1
  Ce  Ce6  1  0.16665800  0.16665800  0.00000000  1
  Ce  Ce7  1  0.58047800  0.46155700  0.62287100  1
  Ce  Ce8  1  0.87500000  0.50400000  0.12900000  1
  Ce  Ce9  1  0.04239300  0.41952200  0.88107900  1
  Ce  Ce10  1  0.83334200  0.83334200  0.00000000  1
  Ce  Ce11  1  0.49600000  0.62500000  0.37100000  1
  Ce  Ce12  1  0.25400000  0.12500000  0.62900000  1
  Ce  Ce13  1  0.53844300  0.16131400  0.11892100  1
  Ce  Ce14  1  0.91665800  0.41665800  0.50000000  1
  Ce  Ce15  1  0.70760700  0.08868600  0.87712900  1
  Ce  Ce16  1  0.16952200  0.29239300  0.38107900  1
  Ce  Ce17  1  0.21155700  0.83047800  0.12287100  1
  Se  Se18  1  0.89243200  0.14218000  0.90072000  1
  Se  Se19  1  0.52776700  0.42284700  0.74515300  1
  Se  Se20  1  0.24146000  0.99171100  0.09928000  1
  Se  Se21  1  0.50854000  0.10782000  0.25025100  1
  Se  Se22  1  0.85756800  0.25828900  0.74974900  1
  Se  Se23  1  0.22223300  0.46738600  0.39508000  1
  Se  Se24  1  0.67769400  0.78261400  0.25484700  1
  Se  Se25  1  0.56088900  0.81135100  0.90466200  1
  Se  Se26  1  0.07230600  0.82715300  0.60492000  1
  Se  Se27  1  0.18864900  0.09331100  0.74953800  1
  Se  Se28  1  0.90668900  0.65622800  0.09533800  1
  Se  Se29  1  0.17284700  0.77776700  0.24515300  1
  Se  Se30  1  0.53261400  0.92769400  0.75484700  1
  Se  Se31  1  0.89218000  0.14243200  0.40072000  1
  Se  Se32  1  0.34377200  0.43911100  0.25046200  1
  Se  Se33  1  0.21738600  0.47223300  0.89508000  1
  Se  Se34  1  0.74171100  0.49146000  0.59928000  1
  Se  Se35  1  0.85782000  0.75854000  0.75025100  1
  Se  Se36  1  0.57715300  0.32230600  0.10492000  1
  Se  Se37  1  0.84331100  0.43864900  0.24953800  1
  Se  Se38  1  0.18911100  0.59377200  0.75046200  1
  Se  Se39  1  0.56135100  0.81088900  0.40466200  1
  Se  Se40  1  0.00828900  0.10756800  0.24974900  1
  Se  Se41  1  0.40622800  0.15668900  0.59533800  1
