# generated using pymatgen
data_Na4TiP2O9
_symmetry_space_group_name_H-M   'P 1'
_cell_length_a   7.63412100
_cell_length_b   13.40880600
_cell_length_c   20.76236076
_cell_angle_alpha   85.05745842
_cell_angle_beta   90.00000000
_cell_angle_gamma   90.00000000
_symmetry_Int_Tables_number   1
_chemical_formula_structural   Na4TiP2O9
_chemical_formula_sum   'Na40 Ti10 P20 O90'
_cell_volume   2117.42476949
_cell_formula_units_Z   10
loop_
 _symmetry_equiv_pos_site_id
 _symmetry_equiv_pos_as_xyz
  1  'x, y, z'
loop_
 _atom_site_type_symbol
 _atom_site_label
 _atom_site_symmetry_multiplicity
 _atom_site_fract_x
 _atom_site_fract_y
 _atom_site_fract_z
 _atom_site_occupancy
  Na  Na0  1  0.01606900  0.10299500  0.79855100  1
  Na  Na1  1  0.57982900  0.50000000  0.75000000  1
  Na  Na2  1  0.05003200  0.29632300  0.36244600  1
  Na  Na3  1  0.72673700  0.09569300  0.16834700  1
  Na  Na4  1  0.97896400  0.70105900  0.83965100  1
  Na  Na5  1  0.46051200  0.30092500  0.15269200  1
  Na  Na6  1  0.53948800  0.69907500  0.84730800  1
  Na  Na7  1  0.74417400  0.49263200  0.36196900  1
  Na  Na8  1  0.52660700  0.90458900  0.94807900  1
  Na  Na9  1  0.94996800  0.70367700  0.63755400  1
  Na  Na10  1  0.05003200  0.70367700  0.13755400  1
  Na  Na11  1  0.78728900  0.28841600  0.51956600  1
  Na  Na12  1  0.21271100  0.71158400  0.48043400  1
  Na  Na13  1  0.02103600  0.70105900  0.33965100  1
  Na  Na14  1  0.79999400  0.09969400  0.94448000  1
  Na  Na15  1  0.27326300  0.90430700  0.83165300  1
  Na  Na16  1  0.47339300  0.09541100  0.05192100  1
  Na  Na17  1  0.27326300  0.09569300  0.66834700  1
  Na  Na18  1  0.94996800  0.29632300  0.86244600  1
  Na  Na19  1  0.02103600  0.29894100  0.16034900  1
  Na  Na20  1  0.01606900  0.89700500  0.70144900  1
  Na  Na21  1  0.00000000  0.50000000  0.00000000  1
  Na  Na22  1  0.46051200  0.69907500  0.34730800  1
  Na  Na23  1  0.21271100  0.28841600  0.01956600  1
  Na  Na24  1  0.79999400  0.90030600  0.55552000  1
  Na  Na25  1  0.98393100  0.10299500  0.29855100  1
  Na  Na26  1  0.42017100  0.50000000  0.25000000  1
  Na  Na27  1  0.25582600  0.49263200  0.86196900  1
  Na  Na28  1  0.53948800  0.30092500  0.65269200  1
  Na  Na29  1  0.00000000  0.50000000  0.50000000  1
  Na  Na30  1  0.98393100  0.89700500  0.20144900  1
  Na  Na31  1  0.20000600  0.09969400  0.44448000  1
  Na  Na32  1  0.78728900  0.71158400  0.98043400  1
  Na  Na33  1  0.52660700  0.09541100  0.55192100  1
  Na  Na34  1  0.97896400  0.29894100  0.66034900  1
  Na  Na35  1  0.74417400  0.50736800  0.13803100  1
  Na  Na36  1  0.25582600  0.50736800  0.63803100  1
  Na  Na37  1  0.47339300  0.90458900  0.44807900  1
  Na  Na38  1  0.72673700  0.90430700  0.33165300  1
  Na  Na39  1  0.20000600  0.90030600  0.05552000  1
  Ti  Ti40  1  0.46030300  0.89719900  0.20041600  1
  Ti  Ti41  1  0.47669000  0.70066400  0.09950700  1
  Ti  Ti42  1  0.52331000  0.70066400  0.59950700  1
  Ti  Ti43  1  0.53969700  0.10280100  0.79958400  1
  Ti  Ti44  1  0.50000000  0.50000000  0.00000000  1
  Ti  Ti45  1  0.53969700  0.89719900  0.70041600  1
  Ti  Ti46  1  0.46030300  0.10280100  0.29958400  1
  Ti  Ti47  1  0.47669000  0.29933600  0.40049300  1
  Ti  Ti48  1  0.52331000  0.29933600  0.90049300  1
  Ti  Ti49  1  0.50000000  0.50000000  0.50000000  1
  P  P50  1  0.73973200  0.89659000  0.07391200  1
  P  P51  1  0.79222800  0.09790700  0.66812800  1
  P  P52  1  0.21633300  0.50337600  0.12336600  1
  P  P53  1  0.73973200  0.10341000  0.42608800  1
  P  P54  1  0.20777200  0.09790700  0.16812800  1
  P  P55  1  0.74275900  0.30001000  0.04068200  1
  P  P56  1  0.28481900  0.70052700  0.73517800  1
  P  P57  1  0.25724100  0.30001000  0.54068200  1
  P  P58  1  0.20777200  0.90209300  0.33187200  1
  P  P59  1  0.71518100  0.70052700  0.23517800  1
  P  P60  1  0.21633300  0.49662400  0.37663400  1
  P  P61  1  0.78366700  0.50337600  0.62336600  1
  P  P62  1  0.79222800  0.90209300  0.83187200  1
  P  P63  1  0.78366700  0.49662400  0.87663400  1
  P  P64  1  0.71518100  0.29947300  0.26482200  1
  P  P65  1  0.26026800  0.89659000  0.57391200  1
  P  P66  1  0.25724100  0.69999000  0.95931800  1
  P  P67  1  0.74275900  0.69999000  0.45931800  1
  P  P68  1  0.26026800  0.10341000  0.92608800  1
  P  P69  1  0.28481900  0.29947300  0.76482200  1
  O  O70  1  0.92778100  0.86000000  0.08717700  1
  O  O71  1  0.41651800  0.39799900  0.94876100  1
  O  O72  1  0.71612500  0.98449400  0.02214200  1
  O  O73  1  0.92778100  0.14000000  0.41282300  1
  O  O74  1  0.33463400  0.61306900  0.78434200  1
  O  O75  1  0.31479600  0.00541100  0.14744000  1
  O  O76  1  0.23894700  0.58500000  0.32544900  1
  O  O77  1  0.07221900  0.86000000  0.58717700  1
  O  O78  1  0.36736900  0.39554200  0.55515700  1
  O  O79  1  0.24627900  0.81323800  0.38184300  1
  O  O80  1  0.06330900  0.32518900  0.54846000  1
  O  O81  1  0.32738400  0.40638800  0.35437200  1
  O  O82  1  0.66532100  0.32622100  0.33472700  1
  O  O83  1  0.70904800  0.72594600  0.53103700  1
  O  O84  1  0.27115800  0.87412500  0.26331700  1
  O  O85  1  0.41651800  0.60200100  0.55123900  1
  O  O86  1  0.06330900  0.67481100  0.95154000  1
  O  O87  1  0.58348200  0.39799900  0.44876100  1
  O  O88  1  0.44521800  0.00000000  0.75000000  1
  O  O89  1  0.28387500  0.01550600  0.97785800  1
  O  O90  1  0.01390400  0.92875300  0.32298400  1
  O  O91  1  0.68520400  0.99458900  0.85256000  1
  O  O92  1  0.67433900  0.21369200  0.08737300  1
  O  O93  1  0.93669100  0.67481100  0.45154000  1
  O  O94  1  0.62663600  0.80796200  0.05005100  1
  O  O95  1  0.90938300  0.72939700  0.23577300  1
  O  O96  1  0.75372100  0.18676200  0.61815700  1
  O  O97  1  0.39652200  0.79407900  0.75199600  1
  O  O98  1  0.55478200  0.00000000  0.25000000  1
  O  O99  1  0.58348200  0.60200100  0.05123900  1
  O  O100  1  0.32566100  0.78630800  0.91262700  1
  O  O101  1  0.98609600  0.92875300  0.82298400  1
  O  O102  1  0.27115800  0.12587500  0.23668300  1
  O  O103  1  0.39652200  0.20592100  0.74800400  1
  O  O104  1  0.24627900  0.18676200  0.11815700  1
  O  O105  1  0.31479600  0.99458900  0.35256000  1
  O  O106  1  0.36869300  0.19793100  0.35442300  1
  O  O107  1  0.33467900  0.67377900  0.66527300  1
  O  O108  1  0.07221900  0.14000000  0.91282300  1
  O  O109  1  0.02696600  0.46157700  0.38847700  1
  O  O110  1  0.29095200  0.72594600  0.03103700  1
  O  O111  1  0.09061700  0.72939700  0.73577300  1
  O  O112  1  0.72884200  0.12587500  0.73668300  1
  O  O113  1  0.63263100  0.60445800  0.44484300  1
  O  O114  1  0.33784000  0.92899600  0.63925900  1
  O  O115  1  0.97303400  0.53842300  0.61152300  1
  O  O116  1  0.23894700  0.41500000  0.17455100  1
  O  O117  1  0.72884200  0.87412500  0.76331700  1
  O  O118  1  0.67433900  0.78630800  0.41262700  1
  O  O119  1  0.63130700  0.19793100  0.85442300  1
  O  O120  1  0.28929000  0.47264200  0.05669800  1
  O  O121  1  0.66216000  0.92899600  0.13925900  1
  O  O122  1  0.33463400  0.38693100  0.71565800  1
  O  O123  1  0.67261600  0.59361200  0.64562800  1
  O  O124  1  0.93669100  0.32518900  0.04846000  1
  O  O125  1  0.01390400  0.07124700  0.17701600  1
  O  O126  1  0.70904800  0.27405400  0.96896300  1
  O  O127  1  0.33784000  0.07100400  0.86074100  1
  O  O128  1  0.97303400  0.46157700  0.88847700  1
  O  O129  1  0.36869300  0.80206900  0.14557700  1
  O  O130  1  0.75372100  0.81323800  0.88184300  1
  O  O131  1  0.71612500  0.01550600  0.47785800  1
  O  O132  1  0.09061700  0.27060300  0.76422700  1
  O  O133  1  0.71071000  0.47264200  0.55669800  1
  O  O134  1  0.37336400  0.19203800  0.94994900  1
  O  O135  1  0.32738400  0.59361200  0.14562800  1
  O  O136  1  0.36736900  0.60445800  0.94484300  1
  O  O137  1  0.02696600  0.53842300  0.11152300  1
  O  O138  1  0.63130700  0.80206900  0.64557700  1
  O  O139  1  0.29095200  0.27405400  0.46896300  1
  O  O140  1  0.76105300  0.41500000  0.67455100  1
  O  O141  1  0.68520400  0.00541100  0.64744000  1
  O  O142  1  0.32566100  0.21369200  0.58737300  1
  O  O143  1  0.66536600  0.61306900  0.28434200  1
  O  O144  1  0.33467900  0.32622100  0.83472700  1
  O  O145  1  0.71071000  0.52735800  0.94330200  1
  O  O146  1  0.66536600  0.38693100  0.21565800  1
  O  O147  1  0.90938300  0.27060300  0.26422700  1
  O  O148  1  0.66532100  0.67377900  0.16527300  1
  O  O149  1  0.76105300  0.58500000  0.82544900  1
  O  O150  1  0.62663600  0.19203800  0.44994900  1
  O  O151  1  0.63263100  0.39554200  0.05515700  1
  O  O152  1  0.37336400  0.80796200  0.55005100  1
  O  O153  1  0.28387500  0.98449400  0.52214200  1
  O  O154  1  0.28929000  0.52735800  0.44330200  1
  O  O155  1  0.60347800  0.20592100  0.24800400  1
  O  O156  1  0.66216000  0.07100400  0.36074100  1
  O  O157  1  0.98609600  0.07124700  0.67701600  1
  O  O158  1  0.67261600  0.40638800  0.85437200  1
  O  O159  1  0.60347800  0.79407900  0.25199600  1
