# generated using pymatgen
data_KTiAsO5
_symmetry_space_group_name_H-M   'P 1'
_cell_length_a   6.68082700
_cell_length_b   10.92627800
_cell_length_c   13.34993600
_cell_angle_alpha   90.00000000
_cell_angle_beta   90.00000000
_cell_angle_gamma   90.00000000
_symmetry_Int_Tables_number   1
_chemical_formula_structural   KTiAsO5
_chemical_formula_sum   'K8 Ti8 As8 O40'
_cell_volume   974.49957873
_cell_formula_units_Z   8
loop_
 _symmetry_equiv_pos_site_id
 _symmetry_equiv_pos_as_xyz
  1  'x, y, z'
loop_
 _atom_site_type_symbol
 _atom_site_label
 _atom_site_symmetry_multiplicity
 _atom_site_fract_x
 _atom_site_fract_y
 _atom_site_fract_z
 _atom_site_occupancy
  K  K0  1  0.77906600  0.30944100  0.62473800  1
  K  K1  1  0.22093400  0.80944100  0.37526200  1
  K  K2  1  0.72093400  0.30944100  0.12473800  1
  K  K3  1  0.27906600  0.80944100  0.87526200  1
  K  K4  1  0.70215000  0.06606900  0.89191200  1
  K  K5  1  0.29785000  0.56606900  0.10808800  1
  K  K6  1  0.79785000  0.06606900  0.39191200  1
  K  K7  1  0.20215000  0.56606900  0.60808800  1
  Ti  Ti8  1  0.50675100  0.00270400  0.62746000  1
  Ti  Ti9  1  0.49324900  0.50270400  0.37254000  1
  Ti  Ti10  1  0.99324900  0.00270400  0.12746000  1
  Ti  Ti11  1  0.00675100  0.50270400  0.87254000  1
  Ti  Ti12  1  0.26743600  0.25094800  0.75432100  1
  Ti  Ti13  1  0.73256400  0.75094800  0.24567900  1
  Ti  Ti14  1  0.23256400  0.25094800  0.25432100  1
  Ti  Ti15  1  0.76743600  0.75094800  0.74567900  1
  As  As16  1  0.33182200  0.25982000  0.50210400  1
  As  As17  1  0.66817800  0.75982000  0.49789600  1
  As  As18  1  0.16817800  0.25982000  0.00210400  1
  As  As19  1  0.83182200  0.75982000  0.99789600  1
  As  As20  1  0.50904700  0.51034800  0.81938500  1
  As  As21  1  0.49095300  0.01034800  0.18061500  1
  As  As22  1  0.99095300  0.51034800  0.31938500  1
  As  As23  1  0.00904700  0.01034800  0.68061500  1
  O  O24  1  0.96841100  0.88739300  0.75868900  1
  O  O25  1  0.03158900  0.38739300  0.24131100  1
  O  O26  1  0.53158900  0.88739300  0.25868900  1
  O  O27  1  0.46841100  0.38739300  0.74131100  1
  O  O28  1  0.04042500  0.13361100  0.76094700  1
  O  O29  1  0.95957500  0.63361100  0.23905300  1
  O  O30  1  0.45957500  0.13361100  0.26094700  1
  O  O31  1  0.54042500  0.63361100  0.73905300  1
  O  O32  1  0.20996700  0.98013900  0.60515400  1
  O  O33  1  0.79003300  0.48013900  0.39484600  1
  O  O34  1  0.29003300  0.98013900  0.10515400  1
  O  O35  1  0.70996700  0.48013900  0.89484600  1
  O  O36  1  0.80645700  0.04705800  0.60755000  1
  O  O37  1  0.19354300  0.54705800  0.39245000  1
  O  O38  1  0.69354300  0.04705800  0.10755000  1
  O  O39  1  0.67540800  0.73602700  0.09958200  1
  O  O40  1  0.30645700  0.54705800  0.89245000  1
  O  O41  1  0.54793900  0.63699300  0.28083300  1
  O  O42  1  0.04793900  0.13699300  0.21916700  1
  O  O43  1  0.95206100  0.63699300  0.78083300  1
  O  O44  1  0.56280800  0.88816300  0.71701800  1
  O  O45  1  0.43719200  0.38816300  0.28298200  1
  O  O46  1  0.93719200  0.88816300  0.21701800  1
  O  O47  1  0.06280800  0.38816300  0.78298200  1
  O  O48  1  0.50254000  0.14539700  0.51359100  1
  O  O49  1  0.49746000  0.64539700  0.48640900  1
  O  O50  1  0.99746000  0.14539700  0.01359100  1
  O  O51  1  0.00254000  0.64539700  0.98640900  1
  O  O52  1  0.46477600  0.39498800  0.49314600  1
  O  O53  1  0.53522400  0.89498800  0.50685400  1
  O  O54  1  0.03522400  0.39498800  0.99314600  1
  O  O55  1  0.96477600  0.89498800  0.00685400  1
  O  O56  1  0.18232300  0.27980200  0.60651100  1
  O  O57  1  0.81767700  0.77980200  0.39348900  1
  O  O58  1  0.31767700  0.27980200  0.10651100  1
  O  O59  1  0.68232300  0.77980200  0.89348900  1
  O  O60  1  0.17540800  0.23602700  0.40041800  1
  O  O61  1  0.82459200  0.73602700  0.59958200  1
  O  O62  1  0.32459200  0.23602700  0.90041800  1
  O  O63  1  0.45206100  0.13699300  0.71916700  1
