# generated using pymatgen
data_TmCuPbSe3
_symmetry_space_group_name_H-M   'P 1'
_cell_length_a   4.04807300
_cell_length_b   10.53932300
_cell_length_c   13.65540700
_cell_angle_alpha   90.00000000
_cell_angle_beta   90.00000000
_cell_angle_gamma   90.00000000
_symmetry_Int_Tables_number   1
_chemical_formula_structural   TmCuPbSe3
_chemical_formula_sum   'Tm4 Cu4 Pb4 Se12'
_cell_volume   582.59358611
_cell_formula_units_Z   4
loop_
 _symmetry_equiv_pos_site_id
 _symmetry_equiv_pos_as_xyz
  1  'x, y, z'
loop_
 _atom_site_type_symbol
 _atom_site_label
 _atom_site_symmetry_multiplicity
 _atom_site_fract_x
 _atom_site_fract_y
 _atom_site_fract_z
 _atom_site_occupancy
  Tm  Tm0  1  0.25000000  0.00686700  0.75566400  1
  Tm  Tm1  1  0.75000000  0.49313300  0.25566400  1
  Tm  Tm2  1  0.75000000  0.99313300  0.24433600  1
  Tm  Tm3  1  0.25000000  0.50686700  0.74433600  1
  Cu  Cu4  1  0.75000000  0.75198300  0.71971200  1
  Cu  Cu5  1  0.25000000  0.74801700  0.21971200  1
  Cu  Cu6  1  0.25000000  0.24801700  0.28028800  1
  Cu  Cu7  1  0.75000000  0.25198300  0.78028800  1
  Pb  Pb8  1  0.25000000  0.26853600  0.99534700  1
  Pb  Pb9  1  0.25000000  0.76853600  0.50465300  1
  Pb  Pb10  1  0.75000000  0.23146400  0.49534700  1
  Pb  Pb11  1  0.75000000  0.73146400  0.00465300  1
  Se  Se12  1  0.25000000  0.05529700  0.38590100  1
  Se  Se13  1  0.25000000  0.42987100  0.39146900  1
  Se  Se14  1  0.75000000  0.74535300  0.32831000  1
  Se  Se15  1  0.25000000  0.92987100  0.10853100  1
  Se  Se16  1  0.25000000  0.75464700  0.82831000  1
  Se  Se17  1  0.75000000  0.94470300  0.61409900  1
  Se  Se18  1  0.75000000  0.44470300  0.88590100  1
  Se  Se19  1  0.75000000  0.57012900  0.60853100  1
  Se  Se20  1  0.75000000  0.07012900  0.89146900  1
  Se  Se21  1  0.75000000  0.24535300  0.17169000  1
  Se  Se22  1  0.25000000  0.55529700  0.11409900  1
  Se  Se23  1  0.25000000  0.25464700  0.67169000  1
