# generated using pymatgen
data_Cs2As8S13
_symmetry_space_group_name_H-M   'P 1'
_cell_length_a   12.21050278
_cell_length_b   18.93173684
_cell_length_c   23.77544894
_cell_angle_alpha   90.00000000
_cell_angle_beta   90.00000000
_cell_angle_gamma   90.00000000
_symmetry_Int_Tables_number   1
_chemical_formula_structural   Cs2As8S13
_chemical_formula_sum   'Cs16 As64 S104'
_cell_volume   5496.07603154
_cell_formula_units_Z   8
loop_
 _symmetry_equiv_pos_site_id
 _symmetry_equiv_pos_as_xyz
  1  'x, y, z'
loop_
 _atom_site_type_symbol
 _atom_site_label
 _atom_site_symmetry_multiplicity
 _atom_site_fract_x
 _atom_site_fract_y
 _atom_site_fract_z
 _atom_site_occupancy
  Cs  Cs0  1  0.95174477  0.80347435  0.63285886  1
  Cs  Cs1  1  0.45174477  0.30347435  0.86714114  1
  Cs  Cs2  1  0.04548750  0.70289122  0.37860057  1
  Cs  Cs3  1  0.04548750  0.29710878  0.12139943  1
  Cs  Cs4  1  0.95451250  0.29710878  0.62139943  1
  Cs  Cs5  1  0.45451250  0.20289122  0.62139943  1
  Cs  Cs6  1  0.45451250  0.79710878  0.87860057  1
  Cs  Cs7  1  0.45174477  0.69652565  0.63285886  1
  Cs  Cs8  1  0.54548750  0.20289122  0.12139943  1
  Cs  Cs9  1  0.54825523  0.69652565  0.13285886  1
  Cs  Cs10  1  0.04825523  0.80347435  0.13285886  1
  Cs  Cs11  1  0.54825523  0.30347435  0.36714114  1
  Cs  Cs12  1  0.95174477  0.19652565  0.86714114  1
  Cs  Cs13  1  0.95451250  0.70289122  0.87860057  1
  Cs  Cs14  1  0.54548750  0.79710878  0.37860057  1
  Cs  Cs15  1  0.04825523  0.19652565  0.36714114  1
  As  As16  1  0.64948937  0.91708561  0.56015850  1
  As  As17  1  0.34482470  0.57923755  0.96678285  1
  As  As18  1  0.62300601  0.97086466  0.06207906  1
  As  As19  1  0.91601308  0.07052777  0.19103391  1
  As  As20  1  0.34482470  0.42076245  0.53321715  1
  As  As21  1  0.19835618  0.43848977  0.30206429  1
  As  As22  1  0.58398692  0.42947223  0.69103391  1
  As  As23  1  0.85051063  0.41708561  0.43984150  1
  As  As24  1  0.41601308  0.42947223  0.19103391  1
  As  As25  1  0.87699399  0.52913534  0.56207906  1
  As  As26  1  0.84482470  0.92076245  0.96678285  1
  As  As27  1  0.27837558  0.41630802  0.67434675  1
  As  As28  1  0.58398692  0.57052777  0.80896609  1
  As  As29  1  0.40521734  0.08870936  0.29047224  1
  As  As30  1  0.12644001  0.90934258  0.96241041  1
  As  As31  1  0.30164382  0.93848977  0.69793571  1
  As  As32  1  0.30164382  0.06151023  0.80206429  1
  As  As33  1  0.40521734  0.91129064  0.20952776  1
  As  As34  1  0.15517530  0.07923755  0.03321715  1
  As  As35  1  0.80164382  0.56151023  0.69793571  1
  As  As36  1  0.59478266  0.08870936  0.79047224  1
  As  As37  1  0.77837558  0.91630802  0.82565325  1
  As  As38  1  0.22162442  0.91630802  0.32565325  1
  As  As39  1  0.65517530  0.42076245  0.03321715  1
  As  As40  1  0.87699399  0.47086466  0.93792094  1
  As  As41  1  0.69835618  0.06151023  0.30206429  1
  As  As42  1  0.12300601  0.52913534  0.06207906  1
  As  As43  1  0.90521734  0.58870936  0.20952776  1
  As  As44  1  0.62300601  0.02913534  0.43792094  1
  As  As45  1  0.72162442  0.41630802  0.17434675  1
  As  As46  1  0.37699399  0.97086466  0.56207906  1
  As  As47  1  0.15517530  0.92076245  0.46678285  1
  As  As48  1  0.91601308  0.92947223  0.30896609  1
  As  As49  1  0.37355999  0.40934258  0.03758959  1
  As  As50  1  0.72162442  0.58369198  0.32565325  1
  As  As51  1  0.59478266  0.91129064  0.70952776  1
  As  As52  1  0.27837558  0.58369198  0.82565325  1
  As  As53  1  0.12300601  0.47086466  0.43792094  1
  As  As54  1  0.12644001  0.09065742  0.53758959  1
  As  As55  1  0.65517530  0.57923755  0.46678285  1
  As  As56  1  0.62644001  0.40934258  0.53758959  1
  As  As57  1  0.87355999  0.90934258  0.46241041  1
  As  As58  1  0.37355999  0.59065742  0.46241041  1
  As  As59  1  0.09478266  0.58870936  0.70952776  1
  As  As60  1  0.19835618  0.56151023  0.19793571  1
  As  As61  1  0.87355999  0.09065742  0.03758959  1
  As  As62  1  0.84482470  0.07923755  0.53321715  1
  As  As63  1  0.09478266  0.41129064  0.79047224  1
  As  As64  1  0.80164382  0.43848977  0.80206429  1
  As  As65  1  0.85051063  0.58291439  0.06015850  1
  As  As66  1  0.08398692  0.92947223  0.80896609  1
  As  As67  1  0.69835618  0.93848977  0.19793571  1
  As  As68  1  0.77837558  0.08369198  0.67434675  1
  As  As69  1  0.35051063  0.08291439  0.43984150  1
  As  As70  1  0.14948937  0.58291439  0.56015850  1
  As  As71  1  0.14948937  0.41708561  0.93984150  1
  As  As72  1  0.41601308  0.57052777  0.30896609  1
  As  As73  1  0.62644001  0.59065742  0.96241041  1
  As  As74  1  0.90521734  0.41129064  0.29047224  1
  As  As75  1  0.64948937  0.08291439  0.93984150  1
  As  As76  1  0.35051063  0.91708561  0.06015850  1
  As  As77  1  0.22162442  0.08369198  0.17434675  1
  As  As78  1  0.37699399  0.02913534  0.93792094  1
  As  As79  1  0.08398692  0.07052777  0.69103391  1
  S  S80  1  0.48270552  0.00612312  0.63203998  1
  S  S81  1  0.92993073  0.99345396  0.90933798  1
  S  S82  1  0.25222018  0.15054230  0.09666639  1
  S  S83  1  0.16888174  0.85967480  0.87571257  1
  S  S84  1  0.98381962  0.16099697  0.51097918  1
  S  S85  1  0.74697119  0.16550679  0.99326795  1
  S  S86  1  0.98381962  0.83900303  0.98902082  1
  S  S87  1  0.82543807  0.66517681  0.27557870  1
  S  S88  1  0.74715101  0.10120767  0.38896095  1
  S  S89  1  0.48270552  0.99387688  0.86796002  1
  S  S90  1  0.48706819  0.11628231  0.97941771  1
  S  S91  1  0.06914466  0.13398929  0.21624904  1
  S  S92  1  0.98270552  0.50612312  0.86796002  1
  S  S93  1  0.01729448  0.49387688  0.13203998  1
  S  S94  1  0.98706819  0.61628231  0.52058229  1
  S  S95  1  0.93085534  0.86601071  0.78375096  1
  S  S96  1  0.01618038  0.83900303  0.48902082  1
  S  S97  1  0.01618038  0.16099697  0.01097918  1
  S  S98  1  0.24715101  0.39879233  0.38896095  1
  S  S99  1  0.92993073  0.00654604  0.59066202  1
  S  S100  1  0.66339032  0.15757752  0.86273471  1
  S  S101  1  0.56987430  0.14183780  0.27054804  1
  S  S102  1  0.25284899  0.10120767  0.88896095  1
  S  S103  1  0.01729448  0.50612312  0.36796002  1
  S  S104  1  0.57006927  0.49345396  0.09066202  1
  S  S105  1  0.24697119  0.66550679  0.50673205  1
  S  S106  1  0.25302881  0.83449321  0.00673205  1
  S  S107  1  0.98706819  0.38371769  0.97941771  1
  S  S108  1  0.24697119  0.33449321  0.99326795  1
  S  S109  1  0.82543807  0.33482319  0.22442130  1
  S  S110  1  0.42993073  0.50654604  0.90933798  1
  S  S111  1  0.16657914  0.13485708  0.76279896  1
  S  S112  1  0.48706819  0.88371769  0.52058229  1
  S  S113  1  0.33111826  0.35967480  0.12428743  1
  S  S114  1  0.93085534  0.13398929  0.71624904  1
  S  S115  1  0.75222018  0.65054230  0.40333361  1
  S  S116  1  0.75284899  0.60120767  0.61103905  1
  S  S117  1  0.07006927  0.99345396  0.40933798  1
  S  S118  1  0.33342086  0.63485708  0.23720104  1
  S  S119  1  0.43012570  0.85816220  0.72945196  1
  S  S120  1  0.06914466  0.86601071  0.28375096  1
  S  S121  1  0.66888174  0.35967480  0.62428743  1
  S  S122  1  0.75302881  0.66550679  0.00673205  1
  S  S123  1  0.06987430  0.64183780  0.22945196  1
  S  S124  1  0.83660968  0.34242248  0.36273471  1
  S  S125  1  0.16888174  0.14032520  0.62428743  1
  S  S126  1  0.17456193  0.66517681  0.77557870  1
  S  S127  1  0.66339032  0.84242248  0.63726529  1
  S  S128  1  0.83660968  0.65757752  0.13726529  1
  S  S129  1  0.66657914  0.63485708  0.73720104  1
  S  S130  1  0.56914466  0.63398929  0.28375096  1
  S  S131  1  0.74715101  0.89879233  0.11103905  1
  S  S132  1  0.33111826  0.64032520  0.37571257  1
  S  S133  1  0.43085534  0.63398929  0.78375096  1
  S  S134  1  0.51618038  0.66099697  0.48902082  1
  S  S135  1  0.51618038  0.33900303  0.01097918  1
  S  S136  1  0.48381962  0.33900303  0.51097918  1
  S  S137  1  0.75222018  0.34945770  0.09666639  1
  S  S138  1  0.83342086  0.13485708  0.26279896  1
  S  S139  1  0.67456193  0.16517681  0.72442130  1
  S  S140  1  0.56914466  0.36601071  0.21624904  1
  S  S141  1  0.74777982  0.84945770  0.90333361  1
  S  S142  1  0.33660968  0.15757752  0.36273471  1
  S  S143  1  0.83342086  0.86514292  0.23720104  1
  S  S144  1  0.66657914  0.36514292  0.76279896  1
  S  S145  1  0.74697119  0.83449321  0.50673205  1
  S  S146  1  0.16657914  0.86514292  0.73720104  1
  S  S147  1  0.67456193  0.83482319  0.77557870  1
  S  S148  1  0.51729448  0.00612312  0.13203998  1
  S  S149  1  0.07006927  0.00654604  0.09066202  1
  S  S150  1  0.75284899  0.39879233  0.88896095  1
  S  S151  1  0.25222018  0.84945770  0.40333361  1
  S  S152  1  0.93012570  0.64183780  0.72945196  1
  S  S153  1  0.57006927  0.50654604  0.40933798  1
  S  S154  1  0.17456193  0.33482319  0.72442130  1
  S  S155  1  0.66888174  0.64032520  0.87571257  1
  S  S156  1  0.32543807  0.16517681  0.22442130  1
  S  S157  1  0.01293181  0.61628231  0.02058229  1
  S  S158  1  0.43085534  0.36601071  0.71624904  1
  S  S159  1  0.06987430  0.35816220  0.27054804  1
  S  S160  1  0.83111826  0.85967480  0.37571257  1
  S  S161  1  0.51729448  0.99387688  0.36796002  1
  S  S162  1  0.24777982  0.65054230  0.90333361  1
  S  S163  1  0.25284899  0.89879233  0.61103905  1
  S  S164  1  0.24777982  0.34945770  0.59666639  1
  S  S165  1  0.42993073  0.49345396  0.59066202  1
  S  S166  1  0.01293181  0.38371769  0.47941771  1
  S  S167  1  0.33342086  0.36514292  0.26279896  1
  S  S168  1  0.16339032  0.34242248  0.86273471  1
  S  S169  1  0.43012570  0.14183780  0.77054804  1
  S  S170  1  0.51293181  0.11628231  0.47941771  1
  S  S171  1  0.83111826  0.14032520  0.12428743  1
  S  S172  1  0.32543807  0.83482319  0.27557870  1
  S  S173  1  0.25302881  0.16550679  0.49326795  1
  S  S174  1  0.74777982  0.15054230  0.59666639  1
  S  S175  1  0.48381962  0.66099697  0.98902082  1
  S  S176  1  0.56987430  0.85816220  0.22945196  1
  S  S177  1  0.24715101  0.60120767  0.11103905  1
  S  S178  1  0.93012570  0.35816220  0.77054804  1
  S  S179  1  0.16339032  0.65757752  0.63726529  1
  S  S180  1  0.75302881  0.33449321  0.49326795  1
  S  S181  1  0.33660968  0.84242248  0.13726529  1
  S  S182  1  0.51293181  0.88371769  0.02058229  1
  S  S183  1  0.98270552  0.49387688  0.63203998  1
