# generated using pymatgen
data_BaH5ClO3
_symmetry_space_group_name_H-M   'P 1'
_cell_length_a   4.56018400
_cell_length_b   4.56018400
_cell_length_c   11.68673700
_cell_angle_alpha   90.00000000
_cell_angle_beta   90.00000000
_cell_angle_gamma   90.00000000
_symmetry_Int_Tables_number   1
_chemical_formula_structural   BaH5ClO3
_chemical_formula_sum   'Ba2 H10 Cl2 O6'
_cell_volume   243.02894616
_cell_formula_units_Z   2
loop_
 _symmetry_equiv_pos_site_id
 _symmetry_equiv_pos_as_xyz
  1  'x, y, z'
loop_
 _atom_site_type_symbol
 _atom_site_label
 _atom_site_symmetry_multiplicity
 _atom_site_fract_x
 _atom_site_fract_y
 _atom_site_fract_z
 _atom_site_occupancy
  Ba  Ba0  1  0.00000000  0.50000000  0.82089300  1
  Ba  Ba1  1  0.50000000  0.00000000  0.17910700  1
  H  H2  1  0.18147700  0.00000000  0.63052600  1
  H  H3  1  0.81852300  0.00000000  0.63052600  1
  H  H4  1  0.50000000  0.68147700  0.63052600  1
  H  H5  1  0.50000000  0.31852300  0.63052600  1
  H  H6  1  0.31852300  0.50000000  0.36947400  1
  H  H7  1  0.68147700  0.50000000  0.36947400  1
  H  H8  1  0.00000000  0.81852300  0.36947400  1
  H  H9  1  0.00000000  0.18147700  0.36947400  1
  H  H10  1  0.50000000  0.00000000  0.49120800  1
  H  H11  1  0.00000000  0.50000000  0.50879200  1
  Cl  Cl12  1  0.50000000  0.00000000  0.90653800  1
  Cl  Cl13  1  0.00000000  0.50000000  0.09346200  1
  O  O14  1  0.00000000  0.00000000  0.68167500  1
  O  O15  1  0.50000000  0.50000000  0.68167500  1
  O  O16  1  0.50000000  0.50000000  0.31832500  1
  O  O17  1  0.00000000  0.00000000  0.31832500  1
  O  O18  1  0.50000000  0.00000000  0.57418800  1
  O  O19  1  0.00000000  0.50000000  0.42581200  1
