# generated using pymatgen
data_CdH6C(BrN)3
_symmetry_space_group_name_H-M   'P 1'
_cell_length_a   8.98631125
_cell_length_b   8.98631125
_cell_length_c   7.60467110
_cell_angle_alpha   82.25475574
_cell_angle_beta   82.25475574
_cell_angle_gamma   129.46179566
_symmetry_Int_Tables_number   1
_chemical_formula_structural   CdH6C(BrN)3
_chemical_formula_sum   'Cd2 H12 C2 Br6 N6'
_cell_volume   449.87060347
_cell_formula_units_Z   2
loop_
 _symmetry_equiv_pos_site_id
 _symmetry_equiv_pos_as_xyz
  1  'x, y, z'
loop_
 _atom_site_type_symbol
 _atom_site_label
 _atom_site_symmetry_multiplicity
 _atom_site_fract_x
 _atom_site_fract_y
 _atom_site_fract_z
 _atom_site_occupancy
  Cd  Cd0  1  0.95084500  0.04915500  0.75000000  1
  Cd  Cd1  1  0.04915500  0.95084500  0.25000000  1
  H  H2  1  0.34733000  0.52716800  0.91418000  1
  H  H3  1  0.47283200  0.65267000  0.58582000  1
  H  H4  1  0.27796500  0.64086100  0.02847400  1
  H  H5  1  0.35913900  0.72203500  0.47152600  1
  H  H6  1  0.77304000  0.15903000  0.37079400  1
  H  H7  1  0.84097000  0.22696000  0.12920600  1
  H  H8  1  0.15903000  0.77304000  0.87079400  1
  H  H9  1  0.22696000  0.84097000  0.62920600  1
  H  H10  1  0.64086100  0.27796500  0.52847400  1
  H  H11  1  0.72203500  0.35913900  0.97152600  1
  H  H12  1  0.52716800  0.34733000  0.41418000  1
  H  H13  1  0.65267000  0.47283200  0.08582000  1
  C  C14  1  0.30721800  0.69278200  0.75000000  1
  C  C15  1  0.69278200  0.30721800  0.25000000  1
  Br  Br16  1  0.19628800  0.27780300  0.36425300  1
  Br  Br17  1  0.72219800  0.80371200  0.13574700  1
  Br  Br18  1  0.78926800  0.21073200  0.75000000  1
  Br  Br19  1  0.21073200  0.78926800  0.25000000  1
  Br  Br20  1  0.27780200  0.19628800  0.86425300  1
  Br  Br21  1  0.80371200  0.72219800  0.63574700  1
  N  N22  1  0.30727900  0.61100400  0.91018600  1
  N  N23  1  0.38899600  0.69272100  0.58981400  1
  N  N24  1  0.77501100  0.22498900  0.25000000  1
  N  N25  1  0.22498900  0.77501100  0.75000000  1
  N  N26  1  0.61100400  0.30727900  0.41018600  1
  N  N27  1  0.69272100  0.38899600  0.08981400  1
