# generated using pymatgen
data_Gd2InGe2
_symmetry_space_group_name_H-M   'P 1'
_cell_length_a   7.47264200
_cell_length_b   7.47264200
_cell_length_c   4.28097200
_cell_angle_alpha   90.00000000
_cell_angle_beta   90.00000000
_cell_angle_gamma   90.00000000
_symmetry_Int_Tables_number   1
_chemical_formula_structural   Gd2InGe2
_chemical_formula_sum   'Gd4 In2 Ge4'
_cell_volume   239.05109666
_cell_formula_units_Z   2
loop_
 _symmetry_equiv_pos_site_id
 _symmetry_equiv_pos_as_xyz
  1  'x, y, z'
loop_
 _atom_site_type_symbol
 _atom_site_label
 _atom_site_symmetry_multiplicity
 _atom_site_fract_x
 _atom_site_fract_y
 _atom_site_fract_z
 _atom_site_occupancy
  Gd  Gd0  1  0.17821500  0.32178500  0.50000000  1
  Gd  Gd1  1  0.67821500  0.17821500  0.50000000  1
  Gd  Gd2  1  0.82178500  0.67821500  0.50000000  1
  Gd  Gd3  1  0.32178500  0.82178500  0.50000000  1
  In  In4  1  0.50000000  0.50000000  0.00000000  1
  In  In5  1  0.00000000  0.00000000  0.00000000  1
  Ge  Ge6  1  0.12182100  0.62182100  0.00000000  1
  Ge  Ge7  1  0.37817900  0.12182100  0.00000000  1
  Ge  Ge8  1  0.62182100  0.87817900  0.00000000  1
  Ge  Ge9  1  0.87817900  0.37817900  0.00000000  1
