# generated using pymatgen
data_Cs3B6H12S4Br
_symmetry_space_group_name_H-M   'P 1'
_cell_length_a   10.54092763
_cell_length_b   10.54092763
_cell_length_c   8.82909300
_cell_angle_alpha   90.00000000
_cell_angle_beta   90.00000000
_cell_angle_gamma   119.99999768
_symmetry_Int_Tables_number   1
_chemical_formula_structural   Cs3B6H12S4Br
_chemical_formula_sum   'Cs6 B12 H24 S8 Br2'
_cell_volume   849.58022779
_cell_formula_units_Z   2
loop_
 _symmetry_equiv_pos_site_id
 _symmetry_equiv_pos_as_xyz
  1  'x, y, z'
loop_
 _atom_site_type_symbol
 _atom_site_label
 _atom_site_symmetry_multiplicity
 _atom_site_fract_x
 _atom_site_fract_y
 _atom_site_fract_z
 _atom_site_occupancy
  Cs  Cs0  1  0.68331200  0.84165600  0.74948200  1
  Cs  Cs1  1  0.15834400  0.84165600  0.74948200  1
  Cs  Cs2  1  0.15834400  0.31668800  0.74948200  1
  Cs  Cs3  1  0.31668800  0.15834400  0.24948200  1
  Cs  Cs4  1  0.84165600  0.15834400  0.24948200  1
  Cs  Cs5  1  0.84165600  0.68331200  0.24948200  1
  B  B6  1  0.76489400  0.23510600  0.62133800  1
  B  B7  1  0.76489400  0.52978900  0.62133800  1
  B  B8  1  0.47021100  0.23510600  0.62133800  1
  B  B9  1  0.23510600  0.76489400  0.12133800  1
  B  B10  1  0.23510600  0.47021100  0.12133800  1
  B  B11  1  0.52978900  0.76489400  0.12133800  1
  B  B12  1  0.56970500  0.43029500  0.91213800  1
  B  B13  1  0.56970500  0.13941100  0.91213800  1
  B  B14  1  0.86058900  0.43029500  0.91213800  1
  B  B15  1  0.43029500  0.56970500  0.41213800  1
  B  B16  1  0.43029500  0.86058900  0.41213800  1
  B  B17  1  0.13941100  0.56970500  0.41213800  1
  H  H18  1  0.69829700  0.10913200  0.57756000  1
  H  H19  1  0.89086800  0.58916500  0.57756000  1
  H  H20  1  0.41083500  0.30170300  0.57756000  1
  H  H21  1  0.89086800  0.30170300  0.57756000  1
  H  H22  1  0.41083500  0.10913200  0.57756000  1
  H  H23  1  0.69829700  0.58916500  0.57756000  1
  H  H24  1  0.30170300  0.89086800  0.07756000  1
  H  H25  1  0.10913200  0.41083500  0.07756000  1
  H  H26  1  0.58916500  0.69829700  0.07756000  1
  H  H27  1  0.10913200  0.69829700  0.07756000  1
  H  H28  1  0.58916500  0.89086800  0.07756000  1
  H  H29  1  0.30170300  0.41083500  0.07756000  1
  H  H30  1  0.50572900  0.49427100  0.87230100  1
  H  H31  1  0.50572900  0.01145900  0.87230100  1
  H  H32  1  0.98854100  0.49427100  0.87230100  1
  H  H33  1  0.49427100  0.50572900  0.37230100  1
  H  H34  1  0.49427100  0.98854100  0.37230100  1
  H  H35  1  0.01145900  0.50572900  0.37230100  1
  H  H36  1  0.57580700  0.42419300  0.04954600  1
  H  H37  1  0.57580700  0.15161400  0.04954600  1
  H  H38  1  0.84838600  0.42419300  0.04954600  1
  H  H39  1  0.42419300  0.57580700  0.54954600  1
  H  H40  1  0.42419300  0.84838600  0.54954600  1
  H  H41  1  0.15161400  0.57580700  0.54954600  1
  S  S42  1  0.76872200  0.23127800  0.83993600  1
  S  S43  1  0.76872200  0.53744400  0.83993600  1
  S  S44  1  0.46255600  0.23127800  0.83993600  1
  S  S45  1  0.23127800  0.76872200  0.33993600  1
  S  S46  1  0.23127800  0.46255600  0.33993600  1
  S  S47  1  0.53744400  0.76872200  0.33993600  1
  S  S48  1  0.66666700  0.33333300  0.53989200  1
  S  S49  1  0.33333300  0.66666700  0.03989200  1
  Br  Br50  1  0.00000000  0.00000000  0.50209900  1
  Br  Br51  1  0.00000000  0.00000000  0.00209900  1
