# generated using pymatgen
data_Ce3Sb5Pd6
_symmetry_space_group_name_H-M   'P 1'
_cell_length_a   4.48878200
_cell_length_b   10.13797400
_cell_length_c   13.59862900
_cell_angle_alpha   90.00000000
_cell_angle_beta   90.00000000
_cell_angle_gamma   90.00000000
_symmetry_Int_Tables_number   1
_chemical_formula_structural   Ce3Sb5Pd6
_chemical_formula_sum   'Ce6 Sb10 Pd12'
_cell_volume   618.83492051
_cell_formula_units_Z   2
loop_
 _symmetry_equiv_pos_site_id
 _symmetry_equiv_pos_as_xyz
  1  'x, y, z'
loop_
 _atom_site_type_symbol
 _atom_site_label
 _atom_site_symmetry_multiplicity
 _atom_site_fract_x
 _atom_site_fract_y
 _atom_site_fract_z
 _atom_site_occupancy
  Ce  Ce0  1  0.00000000  0.24575000  0.32535300  1
  Ce  Ce1  1  0.50000000  0.75425000  0.82535300  1
  Ce  Ce2  1  0.50000000  0.75425000  0.17464700  1
  Ce  Ce3  1  0.00000000  0.24297600  0.00000000  1
  Ce  Ce4  1  0.50000000  0.75702400  0.50000000  1
  Ce  Ce5  1  0.00000000  0.24575000  0.67464700  1
  Sb  Sb6  1  0.00000000  0.52356600  0.12634500  1
  Sb  Sb7  1  0.00000000  0.86187000  0.33653600  1
  Sb  Sb8  1  0.00000000  0.82911700  0.00000000  1
  Sb  Sb9  1  0.50000000  0.47643400  0.37365500  1
  Sb  Sb10  1  0.50000000  0.17088300  0.50000000  1
  Sb  Sb11  1  0.00000000  0.52356600  0.87365500  1
  Sb  Sb12  1  0.50000000  0.47643400  0.62634500  1
  Sb  Sb13  1  0.00000000  0.86187000  0.66346400  1
  Sb  Sb14  1  0.50000000  0.13813000  0.16346400  1
  Sb  Sb15  1  0.50000000  0.13813000  0.83653600  1
  Pd  Pd16  1  0.00000000  0.99160200  0.16105200  1
  Pd  Pd17  1  0.50000000  0.00839800  0.33894800  1
  Pd  Pd18  1  0.50000000  0.39644400  0.18245300  1
  Pd  Pd19  1  0.50000000  0.52319900  0.00000000  1
  Pd  Pd20  1  0.00000000  0.47680100  0.50000000  1
  Pd  Pd21  1  0.00000000  0.60355600  0.31754700  1
  Pd  Pd22  1  0.00000000  0.60355600  0.68245300  1
  Pd  Pd23  1  0.50000000  0.98453600  0.00000000  1
  Pd  Pd24  1  0.00000000  0.99160200  0.83894800  1
  Pd  Pd25  1  0.50000000  0.39644400  0.81754700  1
  Pd  Pd26  1  0.00000000  0.01546400  0.50000000  1
  Pd  Pd27  1  0.50000000  0.00839800  0.66105200  1
