# generated using pymatgen
data_Ba2LaTa(CuO4)2
_symmetry_space_group_name_H-M   'P 1'
_cell_length_a   3.99960100
_cell_length_b   3.99960100
_cell_length_c   12.23232600
_cell_angle_alpha   90.00000000
_cell_angle_beta   90.00000000
_cell_angle_gamma   90.00000000
_symmetry_Int_Tables_number   1
_chemical_formula_structural   Ba2LaTa(CuO4)2
_chemical_formula_sum   'Ba2 La1 Ta1 Cu2 O8'
_cell_volume   195.67817236
_cell_formula_units_Z   1
loop_
 _symmetry_equiv_pos_site_id
 _symmetry_equiv_pos_as_xyz
  1  'x, y, z'
loop_
 _atom_site_type_symbol
 _atom_site_label
 _atom_site_symmetry_multiplicity
 _atom_site_fract_x
 _atom_site_fract_y
 _atom_site_fract_z
 _atom_site_occupancy
  Ba  Ba0  1  0.00000000  0.00000000  0.19480800  1
  Ba  Ba1  1  0.00000000  0.00000000  0.80519200  1
  La  La2  1  0.00000000  0.00000000  0.50000000  1
  Ta  Ta3  1  0.50000000  0.50000000  0.00000000  1
  Cu  Cu4  1  0.50000000  0.50000000  0.64063700  1
  Cu  Cu5  1  0.50000000  0.50000000  0.35936300  1
  O  O6  1  0.50000000  0.50000000  0.16208500  1
  O  O7  1  0.00000000  0.50000000  0.62802300  1
  O  O8  1  0.50000000  0.00000000  0.62802300  1
  O  O9  1  0.50000000  0.00000000  0.37197700  1
  O  O10  1  0.00000000  0.50000000  0.37197700  1
  O  O11  1  0.00000000  0.50000000  0.00000000  1
  O  O12  1  0.50000000  0.50000000  0.83791500  1
  O  O13  1  0.50000000  0.00000000  0.00000000  1
