# generated using pymatgen
data_BaSn2(HO2)2
_symmetry_space_group_name_H-M   'P 1'
_cell_length_a   5.89411700
_cell_length_b   7.30907700
_cell_length_c   7.66501825
_cell_angle_alpha   71.87118746
_cell_angle_beta   90.00000000
_cell_angle_gamma   90.00000000
_symmetry_Int_Tables_number   1
_chemical_formula_structural   BaSn2(HO2)2
_chemical_formula_sum   'Ba2 Sn4 H4 O8'
_cell_volume   313.82125067
_cell_formula_units_Z   2
loop_
 _symmetry_equiv_pos_site_id
 _symmetry_equiv_pos_as_xyz
  1  'x, y, z'
loop_
 _atom_site_type_symbol
 _atom_site_label
 _atom_site_symmetry_multiplicity
 _atom_site_fract_x
 _atom_site_fract_y
 _atom_site_fract_z
 _atom_site_occupancy
  Ba  Ba0  1  0.49421100  0.18934900  0.56823000  1
  Ba  Ba1  1  0.99421100  0.81065100  0.43177000  1
  Sn  Sn2  1  0.50404500  0.65209800  0.85391400  1
  Sn  Sn3  1  0.00404500  0.34790200  0.14608600  1
  Sn  Sn4  1  0.50344600  0.08812400  0.11129800  1
  Sn  Sn5  1  0.00344600  0.91187600  0.88870200  1
  H  H6  1  0.50597200  0.63265000  0.52017300  1
  H  H7  1  0.00597200  0.36735000  0.47982700  1
  H  H8  1  0.50219800  0.70910300  0.21287400  1
  H  H9  1  0.00219800  0.29089700  0.78712600  1
  O  O10  1  0.25007700  0.14082600  0.27717400  1
  O  O11  1  0.75007700  0.85917400  0.72282600  1
  O  O12  1  0.25103000  0.85029800  0.72127300  1
  O  O13  1  0.75103000  0.14970200  0.27872700  1
  O  O14  1  0.52000600  0.52976100  0.64011000  1
  O  O15  1  0.02000600  0.47023900  0.35989000  1
  O  O16  1  0.50901500  0.79318300  0.29089300  1
  O  O17  1  0.00901500  0.20681700  0.70910700  1
