# generated using pymatgen
data_CsEuBr3
_symmetry_space_group_name_H-M   'P 1'
_cell_length_a   8.31937100
_cell_length_b   8.39361000
_cell_length_c   11.92471700
_cell_angle_alpha   90.00000000
_cell_angle_beta   90.00000000
_cell_angle_gamma   90.00000000
_symmetry_Int_Tables_number   1
_chemical_formula_structural   CsEuBr3
_chemical_formula_sum   'Cs4 Eu4 Br12'
_cell_volume   832.69768900
_cell_formula_units_Z   4
loop_
 _symmetry_equiv_pos_site_id
 _symmetry_equiv_pos_as_xyz
  1  'x, y, z'
loop_
 _atom_site_type_symbol
 _atom_site_label
 _atom_site_symmetry_multiplicity
 _atom_site_fract_x
 _atom_site_fract_y
 _atom_site_fract_z
 _atom_site_occupancy
  Cs  Cs0  1  0.50717000  0.46544300  0.25000000  1
  Cs  Cs1  1  0.99283000  0.96544300  0.25000000  1
  Cs  Cs2  1  0.00717000  0.03455700  0.75000000  1
  Cs  Cs3  1  0.49283000  0.53455700  0.75000000  1
  Eu  Eu4  1  0.00000000  0.50000000  0.00000000  1
  Eu  Eu5  1  0.50000000  0.00000000  0.00000000  1
  Eu  Eu6  1  0.50000000  0.00000000  0.50000000  1
  Eu  Eu7  1  0.00000000  0.50000000  0.50000000  1
  Br  Br8  1  0.79515500  0.20576700  0.02891500  1
  Br  Br9  1  0.20484500  0.79423300  0.97108500  1
  Br  Br10  1  0.29515500  0.29423300  0.52891500  1
  Br  Br11  1  0.70484500  0.70576700  0.47108500  1
  Br  Br12  1  0.70484500  0.70576700  0.02891500  1
  Br  Br13  1  0.94386900  0.49116700  0.75000000  1
  Br  Br14  1  0.79515500  0.20576700  0.47108500  1
  Br  Br15  1  0.44386900  0.00883300  0.25000000  1
  Br  Br16  1  0.29515500  0.29423300  0.97108500  1
  Br  Br17  1  0.05613100  0.50883300  0.25000000  1
  Br  Br18  1  0.20484500  0.79423300  0.52891500  1
  Br  Br19  1  0.55613100  0.99116700  0.75000000  1
