# generated using pymatgen
data_Rb5Te3H4NCl18
_symmetry_space_group_name_H-M   'P 1'
_cell_length_a   7.41572951
_cell_length_b   7.41572951
_cell_length_c   18.16612600
_cell_angle_alpha   90.00000000
_cell_angle_beta   90.00000000
_cell_angle_gamma   119.99999561
_symmetry_Int_Tables_number   1
_chemical_formula_structural   Rb5Te3H4NCl18
_chemical_formula_sum   'Rb5 Te3 H4 N1 Cl18'
_cell_volume   865.16856965
_cell_formula_units_Z   1
loop_
 _symmetry_equiv_pos_site_id
 _symmetry_equiv_pos_as_xyz
  1  'x, y, z'
loop_
 _atom_site_type_symbol
 _atom_site_label
 _atom_site_symmetry_multiplicity
 _atom_site_fract_x
 _atom_site_fract_y
 _atom_site_fract_z
 _atom_site_occupancy
  Rb  Rb0  1  0.66666700  0.33333300  0.91679300  1
  Rb  Rb1  1  0.33333300  0.66666700  0.58332000  1
  Rb  Rb2  1  0.00000000  0.00000000  0.74998700  1
  Rb  Rb3  1  0.00000000  0.00000000  0.24989300  1
  Rb  Rb4  1  0.66666700  0.33333300  0.41666300  1
  Te  Te5  1  0.00000000  0.00000000  0.00044500  1
  Te  Te6  1  0.66666700  0.33333300  0.66665800  1
  Te  Te7  1  0.33333300  0.66666700  0.33288800  1
  H  H8  1  0.18149500  0.59074800  0.10231400  1
  H  H9  1  0.33333300  0.66666700  0.02633100  1
  H  H10  1  0.40925200  0.59074800  0.10231400  1
  H  H11  1  0.40925200  0.81850500  0.10231400  1
  N  N12  1  0.33333300  0.66666700  0.08341600  1
  Cl  Cl13  1  0.99281300  0.49640600  0.74819700  1
  Cl  Cl14  1  0.16303900  0.32607800  0.91854800  1
  Cl  Cl15  1  0.16303900  0.83696100  0.91854800  1
  Cl  Cl16  1  0.50359400  0.49640600  0.74819700  1
  Cl  Cl17  1  0.65912800  0.82956400  0.41469800  1
  Cl  Cl18  1  0.82974400  0.65948800  0.58512600  1
  Cl  Cl19  1  0.50359400  0.00718700  0.74819700  1
  Cl  Cl20  1  0.67392200  0.83696100  0.91854800  1
  Cl  Cl21  1  0.17043600  0.82956400  0.41469800  1
  Cl  Cl22  1  0.82974400  0.17025600  0.58512600  1
  Cl  Cl23  1  0.32711100  0.16355500  0.08186500  1
  Cl  Cl24  1  0.49674100  0.99348200  0.25156400  1
  Cl  Cl25  1  0.17043600  0.34087200  0.41469800  1
  Cl  Cl26  1  0.34051200  0.17025600  0.58512600  1
  Cl  Cl27  1  0.83644500  0.16355500  0.08186500  1
  Cl  Cl28  1  0.49674100  0.50325900  0.25156400  1
  Cl  Cl29  1  0.83644500  0.67288900  0.08186500  1
  Cl  Cl30  1  0.00651800  0.50325900  0.25156400  1
