# generated using pymatgen
data_RbTiAsO5
_symmetry_space_group_name_H-M   'P 1'
_cell_length_a   6.79163700
_cell_length_b   10.91300300
_cell_length_c   13.48165100
_cell_angle_alpha   90.00000000
_cell_angle_beta   90.00000000
_cell_angle_gamma   90.00000000
_symmetry_Int_Tables_number   1
_chemical_formula_structural   RbTiAsO5
_chemical_formula_sum   'Rb8 Ti8 As8 O40'
_cell_volume   999.22161623
_cell_formula_units_Z   8
loop_
 _symmetry_equiv_pos_site_id
 _symmetry_equiv_pos_as_xyz
  1  'x, y, z'
loop_
 _atom_site_type_symbol
 _atom_site_label
 _atom_site_symmetry_multiplicity
 _atom_site_fract_x
 _atom_site_fract_y
 _atom_site_fract_z
 _atom_site_occupancy
  Rb  Rb0  1  0.19420300  0.40409900  0.39006000  1
  Rb  Rb1  1  0.80579700  0.90409900  0.60994000  1
  Rb  Rb2  1  0.30579700  0.40409900  0.89006000  1
  Rb  Rb3  1  0.69420300  0.90409900  0.10994000  1
  Rb  Rb4  1  0.28205000  0.15330600  0.11806700  1
  Rb  Rb5  1  0.71795000  0.65330600  0.88193300  1
  Rb  Rb6  1  0.21795000  0.15330600  0.61806700  1
  Rb  Rb7  1  0.78205000  0.65330600  0.38193300  1
  Ti  Ti8  1  0.00497300  0.47558900  0.12828600  1
  Ti  Ti9  1  0.50497300  0.97558900  0.37171400  1
  Ti  Ti10  1  0.49502700  0.47558900  0.62828600  1
  Ti  Ti11  1  0.99502700  0.97558900  0.87171400  1
  Ti  Ti12  1  0.26570600  0.72613900  0.24775700  1
  Ti  Ti13  1  0.73429400  0.22613900  0.75224300  1
  Ti  Ti14  1  0.23429400  0.72613900  0.74775700  1
  Ti  Ti15  1  0.76570600  0.22613900  0.25224300  1
  As  As16  1  0.00672900  0.96743000  0.32068700  1
  As  As17  1  0.66862800  0.21961800  0.50026300  1
  As  As18  1  0.16862800  0.71961800  0.99973700  1
  As  As19  1  0.83137200  0.21961800  0.00026300  1
  As  As20  1  0.33137200  0.71961800  0.49973700  1
  As  As21  1  0.50672900  0.46743000  0.17931300  1
  As  As22  1  0.49327100  0.96743000  0.82068700  1
  As  As23  1  0.99327100  0.46743000  0.67931300  1
  O  O24  1  0.96222900  0.08942300  0.24267600  1
  O  O25  1  0.03777100  0.58942300  0.75732400  1
  O  O26  1  0.53777100  0.08942300  0.74267600  1
  O  O27  1  0.46222900  0.58942300  0.25732400  1
  O  O28  1  0.04350600  0.84355500  0.24203800  1
  O  O29  1  0.95649400  0.34355500  0.75796200  1
  O  O30  1  0.45649400  0.84355500  0.74203800  1
  O  O31  1  0.54350600  0.34355500  0.25796200  1
  O  O32  1  0.20742600  0.00053400  0.39314100  1
  O  O33  1  0.79257400  0.50053400  0.60685900  1
  O  O34  1  0.29257400  0.00053400  0.89314100  1
  O  O35  1  0.70742600  0.50053400  0.10685900  1
  O  O36  1  0.80409500  0.93027500  0.39080000  1
  O  O37  1  0.19590500  0.43027500  0.60920000  1
  O  O38  1  0.69590500  0.93027500  0.89080000  1
  O  O39  1  0.67944300  0.24269200  0.89868900  1
  O  O40  1  0.30409500  0.43027500  0.10920000  1
  O  O41  1  0.43694600  0.58860200  0.71767400  1
  O  O42  1  0.93694600  0.08860200  0.78232600  1
  O  O43  1  0.06305400  0.58860200  0.21767400  1
  O  O44  1  0.94645900  0.34039600  0.21723200  1
  O  O45  1  0.05354100  0.84039600  0.78276800  1
  O  O46  1  0.55354100  0.34039600  0.71723200  1
  O  O47  1  0.44645900  0.84039600  0.28276800  1
  O  O48  1  0.49464400  0.83640100  0.48656500  1
  O  O49  1  0.50535600  0.33640100  0.51343500  1
  O  O50  1  0.00535600  0.83640100  0.98656500  1
  O  O51  1  0.99464400  0.33640100  0.01343500  1
  O  O52  1  0.46450500  0.58542000  0.51115300  1
  O  O53  1  0.53549500  0.08542000  0.48884700  1
  O  O54  1  0.03549500  0.58542000  0.01115300  1
  O  O55  1  0.96450500  0.08542000  0.98884700  1
  O  O56  1  0.18812000  0.69682300  0.39530700  1
  O  O57  1  0.81188000  0.19682300  0.60469300  1
  O  O58  1  0.31188000  0.69682300  0.89530700  1
  O  O59  1  0.68812000  0.19682300  0.10469300  1
  O  O60  1  0.17944300  0.74269200  0.60131100  1
  O  O61  1  0.82055700  0.24269200  0.39868900  1
  O  O62  1  0.32055700  0.74269200  0.10131100  1
  O  O63  1  0.56305400  0.08860200  0.28232600  1
