# generated using pymatgen
data_Ta2Br5
_symmetry_space_group_name_H-M   'P 1'
_cell_length_a   18.80991415
_cell_length_b   18.80991415
_cell_length_c   18.80991415
_cell_angle_alpha   109.47122063
_cell_angle_beta   109.47122063
_cell_angle_gamma   109.47122063
_symmetry_Int_Tables_number   1
_chemical_formula_structural   Ta2Br5
_chemical_formula_sum   'Ta48 Br120'
_cell_volume   5123.16743504
_cell_formula_units_Z   24
loop_
 _symmetry_equiv_pos_site_id
 _symmetry_equiv_pos_as_xyz
  1  'x, y, z'
loop_
 _atom_site_type_symbol
 _atom_site_label
 _atom_site_symmetry_multiplicity
 _atom_site_fract_x
 _atom_site_fract_y
 _atom_site_fract_z
 _atom_site_occupancy
  Ta  Ta0  1  0.39611300  0.98362300  0.52440000  1
  Ta  Ta1  1  0.41249000  0.01637700  0.04077700  1
  Ta  Ta2  1  0.02440000  0.48362300  0.89611300  1
  Ta  Ta3  1  0.95922300  0.87171400  0.97560000  1
  Ta  Ta4  1  0.37171400  0.41249000  0.89611300  1
  Ta  Ta5  1  0.48362300  0.08751000  0.45922300  1
  Ta  Ta6  1  0.47560000  0.60388700  0.01637700  1
  Ta  Ta7  1  0.89611300  0.37171400  0.41249000  1
  Ta  Ta8  1  0.52440000  0.62828600  0.54077700  1
  Ta  Ta9  1  0.54077700  0.52440000  0.62828600  1
  Ta  Ta10  1  0.08751000  0.12828600  0.60388700  1
  Ta  Ta11  1  0.89611300  0.02440000  0.48362300  1
  Ta  Ta12  1  0.87171400  0.39611300  0.91249000  1
  Ta  Ta13  1  0.91249000  0.54077700  0.51637700  1
  Ta  Ta14  1  0.39611300  0.91249000  0.87171400  1
  Ta  Ta15  1  0.95922300  0.58751000  0.98362300  1
  Ta  Ta16  1  0.37171400  0.45922300  0.47560000  1
  Ta  Ta17  1  0.52440000  0.39611300  0.98362300  1
  Ta  Ta18  1  0.04077700  0.41249000  0.01637700  1
  Ta  Ta19  1  0.98362300  0.95922300  0.58751000  1
  Ta  Ta20  1  0.48362300  0.89611300  0.02440000  1
  Ta  Ta21  1  0.98362300  0.52440000  0.39611300  1
  Ta  Ta22  1  0.62828600  0.58751000  0.10388700  1
  Ta  Ta23  1  0.08751000  0.45922300  0.48362300  1
  Ta  Ta24  1  0.62828600  0.54077700  0.52440000  1
  Ta  Ta25  1  0.10388700  0.62828600  0.58751000  1
  Ta  Ta26  1  0.51637700  0.10388700  0.97560000  1
  Ta  Ta27  1  0.87171400  0.97560000  0.95922300  1
  Ta  Ta28  1  0.02440000  0.04077700  0.12828600  1
  Ta  Ta29  1  0.60388700  0.08751000  0.12828600  1
  Ta  Ta30  1  0.12828600  0.60388700  0.08751000  1
  Ta  Ta31  1  0.04077700  0.12828600  0.02440000  1
  Ta  Ta32  1  0.60388700  0.01637700  0.47560000  1
  Ta  Ta33  1  0.97560000  0.51637700  0.10388700  1
  Ta  Ta34  1  0.51637700  0.91249000  0.54077700  1
  Ta  Ta35  1  0.97560000  0.95922300  0.87171400  1
  Ta  Ta36  1  0.12828600  0.02440000  0.04077700  1
  Ta  Ta37  1  0.45922300  0.48362300  0.08751000  1
  Ta  Ta38  1  0.10388700  0.97560000  0.51637700  1
  Ta  Ta39  1  0.91249000  0.87171400  0.39611300  1
  Ta  Ta40  1  0.58751000  0.98362300  0.95922300  1
  Ta  Ta41  1  0.45922300  0.47560000  0.37171400  1
  Ta  Ta42  1  0.01637700  0.04077700  0.41249000  1
  Ta  Ta43  1  0.47560000  0.37171400  0.45922300  1
  Ta  Ta44  1  0.54077700  0.51637700  0.91249000  1
  Ta  Ta45  1  0.58751000  0.10388700  0.62828600  1
  Ta  Ta46  1  0.41249000  0.89611300  0.37171400  1
  Ta  Ta47  1  0.01637700  0.47560000  0.60388700  1
  Br  Br48  1  0.29339700  0.37271800  0.97951500  1
  Br  Br49  1  0.60710400  0.55355200  0.80355200  1
  Br  Br50  1  0.62848300  0.39484900  0.48790400  1
  Br  Br51  1  0.37151700  0.60515100  0.51209600  1
  Br  Br52  1  0.94644800  0.89289600  0.69644800  1
  Br  Br53  1  0.10515100  0.87151700  0.01209600  1
  Br  Br54  1  0.39289600  0.44644800  0.19644800  1
  Br  Br55  1  0.47951500  0.10679800  0.68611900  1
  Br  Br56  1  0.12848300  0.98790400  0.89484900  1
  Br  Br57  1  0.68611900  0.70660300  0.57932100  1
  Br  Br58  1  0.39320200  0.87271800  0.57932100  1
  Br  Br59  1  0.51209600  0.37151700  0.60515100  1
  Br  Br60  1  0.52048500  0.12728200  0.20660300  1
  Br  Br61  1  0.89320200  0.31388100  0.52048500  1
  Br  Br62  1  0.60515100  0.51209600  0.37151700  1
  Br  Br63  1  0.19644800  0.30355200  0.75000000  1
  Br  Br64  1  0.69644800  0.94644800  0.89289600  1
  Br  Br65  1  0.98790400  0.59305600  0.85942100  1
  Br  Br66  1  0.02048500  0.81388100  0.39320200  1
  Br  Br67  1  0.79339700  0.47951500  0.87271800  1
  Br  Br68  1  0.40694400  0.76636600  0.39484900  1
  Br  Br69  1  0.73363400  0.09305600  0.10515100  1
  Br  Br70  1  0.87271800  0.57932100  0.39320200  1
  Br  Br71  1  0.60515100  0.59305600  0.23363400  1
  Br  Br72  1  0.87151700  0.35942100  0.76636600  1
  Br  Br73  1  0.05355200  0.10710400  0.30355200  1
  Br  Br74  1  0.26636600  0.90694400  0.89484900  1
  Br  Br75  1  0.30355200  0.05355200  0.10710400  1
  Br  Br76  1  0.44644800  0.75000000  0.05355200  1
  Br  Br77  1  0.89484900  0.26636600  0.90694400  1
  Br  Br78  1  0.55355200  0.25000000  0.94644800  1
  Br  Br79  1  0.37271800  0.89320200  0.07932100  1
  Br  Br80  1  0.75000000  0.19644800  0.30355200  1
  Br  Br81  1  0.75000000  0.05355200  0.44644800  1
  Br  Br82  1  0.10679800  0.68611900  0.47951500  1
  Br  Br83  1  0.05355200  0.44644800  0.75000000  1
  Br  Br84  1  0.87151700  0.01209600  0.10515100  1
  Br  Br85  1  0.18611900  0.60679800  0.97951500  1
  Br  Br86  1  0.70660300  0.57932100  0.68611900  1
  Br  Br87  1  0.59305600  0.85942100  0.98790400  1
  Br  Br88  1  0.10710400  0.30355200  0.05355200  1
  Br  Br89  1  0.09305600  0.10515100  0.73363400  1
  Br  Br90  1  0.80355200  0.69644800  0.25000000  1
  Br  Br91  1  0.81388100  0.92067900  0.79339700  1
  Br  Br92  1  0.01209600  0.10515100  0.87151700  1
  Br  Br93  1  0.62848300  0.73363400  0.14057900  1
  Br  Br94  1  0.62728200  0.10679800  0.92067900  1
  Br  Br95  1  0.37151700  0.26636600  0.85942100  1
  Br  Br96  1  0.60679800  0.12728200  0.42067900  1
  Br  Br97  1  0.20660300  0.52048500  0.12728200  1
  Br  Br98  1  0.59305600  0.23363400  0.60515100  1
  Br  Br99  1  0.51209600  0.64057900  0.90694400  1
  Br  Br100  1  0.35942100  0.09305600  0.48790400  1
  Br  Br101  1  0.42067900  0.60679800  0.12728200  1
  Br  Br102  1  0.39484900  0.48790400  0.62848300  1
  Br  Br103  1  0.10515100  0.73363400  0.09305600  1
  Br  Br104  1  0.55355200  0.80355200  0.60710400  1
  Br  Br105  1  0.48790400  0.62848300  0.39484900  1
  Br  Br106  1  0.40694400  0.14057900  0.01209600  1
  Br  Br107  1  0.48790400  0.35942100  0.09305600  1
  Br  Br108  1  0.92067900  0.79339700  0.81388100  1
  Br  Br109  1  0.30355200  0.75000000  0.19644800  1
  Br  Br110  1  0.79339700  0.81388100  0.92067900  1
  Br  Br111  1  0.44644800  0.19644800  0.39289600  1
  Br  Br112  1  0.68611900  0.47951500  0.10679800  1
  Br  Br113  1  0.10679800  0.92067900  0.62728200  1
  Br  Br114  1  0.89484900  0.12848300  0.98790400  1
  Br  Br115  1  0.97951500  0.29339700  0.37271800  1
  Br  Br116  1  0.23363400  0.60515100  0.59305600  1
  Br  Br117  1  0.25000000  0.80355200  0.69644800  1
  Br  Br118  1  0.62728200  0.02048500  0.70660300  1
  Br  Br119  1  0.14057900  0.01209600  0.40694400  1
  Br  Br120  1  0.14057900  0.62848300  0.73363400  1
  Br  Br121  1  0.64057900  0.90694400  0.51209600  1
  Br  Br122  1  0.02048500  0.70660300  0.62728200  1
  Br  Br123  1  0.90694400  0.89484900  0.26636600  1
  Br  Br124  1  0.09305600  0.48790400  0.35942100  1
  Br  Br125  1  0.87271800  0.79339700  0.47951500  1
  Br  Br126  1  0.94644800  0.55355200  0.25000000  1
  Br  Br127  1  0.85942100  0.37151700  0.26636600  1
  Br  Br128  1  0.12728200  0.20660300  0.52048500  1
  Br  Br129  1  0.35942100  0.76636600  0.87151700  1
  Br  Br130  1  0.57932100  0.39320200  0.87271800  1
  Br  Br131  1  0.25000000  0.94644800  0.55355200  1
  Br  Br132  1  0.39320200  0.02048500  0.81388100  1
  Br  Br133  1  0.42067900  0.31388100  0.29339700  1
  Br  Br134  1  0.76636600  0.87151700  0.35942100  1
  Br  Br135  1  0.89320200  0.07932100  0.37271800  1
  Br  Br136  1  0.90694400  0.51209600  0.64057900  1
  Br  Br137  1  0.01209600  0.40694400  0.14057900  1
  Br  Br138  1  0.37271800  0.97951500  0.29339700  1
  Br  Br139  1  0.81388100  0.39320200  0.02048500  1
  Br  Br140  1  0.12848300  0.64057900  0.23363400  1
  Br  Br141  1  0.80355200  0.60710400  0.55355200  1
  Br  Br142  1  0.20660300  0.18611900  0.07932100  1
  Br  Br143  1  0.39484900  0.40694400  0.76636600  1
  Br  Br144  1  0.07932100  0.20660300  0.18611900  1
  Br  Br145  1  0.29339700  0.42067900  0.31388100  1
  Br  Br146  1  0.97951500  0.18611900  0.60679800  1
  Br  Br147  1  0.31388100  0.52048500  0.89320200  1
  Br  Br148  1  0.92067900  0.62728200  0.10679800  1
  Br  Br149  1  0.89289600  0.69644800  0.94644800  1
  Br  Br150  1  0.07932100  0.37271800  0.89320200  1
  Br  Br151  1  0.19644800  0.39289600  0.44644800  1
  Br  Br152  1  0.47951500  0.87271800  0.79339700  1
  Br  Br153  1  0.85942100  0.98790400  0.59305600  1
  Br  Br154  1  0.57932100  0.68611900  0.70660300  1
  Br  Br155  1  0.64057900  0.23363400  0.12848300  1
  Br  Br156  1  0.52048500  0.89320200  0.31388100  1
  Br  Br157  1  0.12728200  0.42067900  0.60679800  1
  Br  Br158  1  0.76636600  0.39484900  0.40694400  1
  Br  Br159  1  0.98790400  0.89484900  0.12848300  1
  Br  Br160  1  0.70660300  0.62728200  0.02048500  1
  Br  Br161  1  0.69644800  0.25000000  0.80355200  1
  Br  Br162  1  0.26636600  0.85942100  0.37151700  1
  Br  Br163  1  0.60679800  0.97951500  0.18611900  1
  Br  Br164  1  0.73363400  0.14057900  0.62848300  1
  Br  Br165  1  0.23363400  0.12848300  0.64057900  1
  Br  Br166  1  0.18611900  0.07932100  0.20660300  1
  Br  Br167  1  0.31388100  0.29339700  0.42067900  1
