# generated using pymatgen
data_Cu12Sb4S13
_symmetry_space_group_name_H-M   'P 1'
_cell_length_a   8.96407307
_cell_length_b   8.96407307
_cell_length_c   8.96407307
_cell_angle_alpha   109.47122063
_cell_angle_beta   109.47122063
_cell_angle_gamma   109.47122063
_symmetry_Int_Tables_number   1
_chemical_formula_structural   Cu12Sb4S13
_chemical_formula_sum   'Cu12 Sb4 S13'
_cell_volume   554.49070861
_cell_formula_units_Z   1
loop_
 _symmetry_equiv_pos_site_id
 _symmetry_equiv_pos_as_xyz
  1  'x, y, z'
loop_
 _atom_site_type_symbol
 _atom_site_label
 _atom_site_symmetry_multiplicity
 _atom_site_fract_x
 _atom_site_fract_y
 _atom_site_fract_z
 _atom_site_occupancy
  Cu  Cu0  1  0.77920500  0.77920500  0.00000000  1
  Cu  Cu1  1  0.00000000  0.22079500  0.22079500  1
  Cu  Cu2  1  0.75000000  0.25000000  0.50000000  1
  Cu  Cu3  1  0.22079500  0.00000000  0.22079500  1
  Cu  Cu4  1  0.00000000  0.77920500  0.77920500  1
  Cu  Cu5  1  0.22079500  0.22079500  0.00000000  1
  Cu  Cu6  1  0.77920500  0.00000000  0.77920500  1
  Cu  Cu7  1  0.50000000  0.75000000  0.25000000  1
  Cu  Cu8  1  0.75000000  0.50000000  0.25000000  1
  Cu  Cu9  1  0.25000000  0.50000000  0.75000000  1
  Cu  Cu10  1  0.50000000  0.25000000  0.75000000  1
  Cu  Cu11  1  0.25000000  0.75000000  0.50000000  1
  Sb  Sb12  1  0.00000000  0.45844900  0.00000000  1
  Sb  Sb13  1  0.00000000  0.00000000  0.45844900  1
  Sb  Sb14  1  0.45844900  0.00000000  0.00000000  1
  Sb  Sb15  1  0.54155100  0.54155100  0.54155100  1
  S  S16  1  0.51922300  0.00000000  0.75055800  1
  S  S17  1  0.24944200  0.76866400  0.24944200  1
  S  S18  1  0.51922300  0.75055800  0.00000000  1
  S  S19  1  0.24944200  0.24944200  0.76866400  1
  S  S20  1  0.00000000  0.51922300  0.75055800  1
  S  S21  1  0.76866400  0.24944200  0.24944200  1
  S  S22  1  0.48077700  0.48077700  0.23133600  1
  S  S23  1  0.23133600  0.48077700  0.48077700  1
  S  S24  1  0.48077700  0.23133600  0.48077700  1
  S  S25  1  0.75055800  0.51922300  0.00000000  1
  S  S26  1  0.75055800  0.00000000  0.51922300  1
  S  S27  1  0.00000000  0.75055800  0.51922300  1
  S  S28  1  0.00000000  0.00000000  0.00000000  1
