# generated using pymatgen
data_NdZnRh
_symmetry_space_group_name_H-M   'P 1'
_cell_length_a   4.04067500
_cell_length_b   7.31106800
_cell_length_c   16.52465600
_cell_angle_alpha   90.00000000
_cell_angle_beta   90.00000000
_cell_angle_gamma   90.00000000
_symmetry_Int_Tables_number   1
_chemical_formula_structural   NdZnRh
_chemical_formula_sum   'Nd8 Zn8 Rh8'
_cell_volume   488.16559881
_cell_formula_units_Z   8
loop_
 _symmetry_equiv_pos_site_id
 _symmetry_equiv_pos_as_xyz
  1  'x, y, z'
loop_
 _atom_site_type_symbol
 _atom_site_label
 _atom_site_symmetry_multiplicity
 _atom_site_fract_x
 _atom_site_fract_y
 _atom_site_fract_z
 _atom_site_occupancy
  Nd  Nd0  1  0.25000000  0.16682000  0.93941100  1
  Nd  Nd1  1  0.25000000  0.66682000  0.56058900  1
  Nd  Nd2  1  0.75000000  0.33318000  0.43941100  1
  Nd  Nd3  1  0.75000000  0.95182100  0.28376200  1
  Nd  Nd4  1  0.75000000  0.83318000  0.06058900  1
  Nd  Nd5  1  0.75000000  0.45182100  0.21623800  1
  Nd  Nd6  1  0.25000000  0.04817900  0.71623800  1
  Nd  Nd7  1  0.25000000  0.54817900  0.78376200  1
  Zn  Zn8  1  0.75000000  0.00163600  0.56065700  1
  Zn  Zn9  1  0.25000000  0.62432300  0.34925500  1
  Zn  Zn10  1  0.75000000  0.37567700  0.65074500  1
  Zn  Zn11  1  0.25000000  0.49836400  0.06065700  1
  Zn  Zn12  1  0.75000000  0.50163600  0.93934300  1
  Zn  Zn13  1  0.25000000  0.99836400  0.43934300  1
  Zn  Zn14  1  0.25000000  0.12432300  0.15074500  1
  Zn  Zn15  1  0.75000000  0.87567700  0.84925500  1
  Rh  Rh16  1  0.75000000  0.75546000  0.43531300  1
  Rh  Rh17  1  0.25000000  0.24701100  0.31377300  1
  Rh  Rh18  1  0.75000000  0.25298900  0.81377300  1
  Rh  Rh19  1  0.75000000  0.75298900  0.68622700  1
  Rh  Rh20  1  0.25000000  0.24454000  0.56468700  1
  Rh  Rh21  1  0.25000000  0.74701100  0.18622700  1
  Rh  Rh22  1  0.75000000  0.25546000  0.06468700  1
  Rh  Rh23  1  0.25000000  0.74454000  0.93531300  1
