# generated using pymatgen
data_Ga2FeO4
_symmetry_space_group_name_H-M   'P 1'
_cell_length_a   5.87467304
_cell_length_b   8.48978758
_cell_length_c   6.07442625
_cell_angle_alpha   90.00016099
_cell_angle_beta   90.01363898
_cell_angle_gamma   90.00036963
_symmetry_Int_Tables_number   1
_chemical_formula_structural   Ga2FeO4
_chemical_formula_sum   'Ga8 Fe4 O16'
_cell_volume   302.96033764
_cell_formula_units_Z   4
loop_
 _symmetry_equiv_pos_site_id
 _symmetry_equiv_pos_as_xyz
  1  'x, y, z'
loop_
 _atom_site_type_symbol
 _atom_site_label
 _atom_site_symmetry_multiplicity
 _atom_site_fract_x
 _atom_site_fract_y
 _atom_site_fract_z
 _atom_site_occupancy
  Ga  Ga0  1  0.00000500  0.01075300  0.00001100  1
  Ga  Ga1  1  0.49998500  0.51074900  0.49998500  1
  Ga  Ga2  1  0.49999500  0.23924900  0.99998900  1
  Ga  Ga3  1  0.00001500  0.73924900  0.50001500  1
  Ga  Ga4  1  0.00002900  0.37498700  0.25000200  1
  Ga  Ga5  1  0.49997000  0.87501300  0.74999900  1
  Ga  Ga6  1  0.00003200  0.37501300  0.75000300  1
  Ga  Ga7  1  0.49996700  0.87498800  0.24999600  1
  Fe  Fe8  1  0.25000000  0.12500000  0.50000100  1
  Fe  Fe9  1  0.25000500  0.62500000  0.00000000  1
  Fe  Fe10  1  0.74999900  0.62499900  0.99999900  1
  Fe  Fe11  1  0.74999900  0.12499900  0.50000100  1
  O  O12  1  0.76430600  0.37245900  0.99998000  1
  O  O13  1  0.26439500  0.87238200  0.49998100  1
  O  O14  1  0.23561900  0.37239000  0.00000200  1
  O  O15  1  0.73569900  0.87246800  0.50003700  1
  O  O16  1  0.26438100  0.87761100  0.99999800  1
  O  O17  1  0.76430000  0.37753200  0.49996300  1
  O  O18  1  0.73569300  0.87754100  0.00001900  1
  O  O19  1  0.23560600  0.37761800  0.50001800  1
  O  O20  1  0.00002200  0.61024200  0.24816300  1
  O  O21  1  0.49989400  0.11022100  0.74820400  1
  O  O22  1  0.00004200  0.61022300  0.75179200  1
  O  O23  1  0.50001500  0.11023900  0.25183200  1
  O  O24  1  0.49995800  0.63977800  0.24820900  1
  O  O25  1  0.99998500  0.13976200  0.74816800  1
  O  O26  1  0.49997800  0.63975700  0.75183600  1
  O  O27  1  0.00010600  0.13978000  0.25179700  1
