# generated using pymatgen
data_SrSi2(BO4)2
_symmetry_space_group_name_H-M   'P 1'
_cell_length_a   7.98620200
_cell_length_b   8.28775700
_cell_length_c   9.03232400
_cell_angle_alpha   90.00000000
_cell_angle_beta   90.00000000
_cell_angle_gamma   90.00000000
_symmetry_Int_Tables_number   1
_chemical_formula_structural   SrSi2(BO4)2
_chemical_formula_sum   'Sr4 Si8 B8 O32'
_cell_volume   597.82876502
_cell_formula_units_Z   4
loop_
 _symmetry_equiv_pos_site_id
 _symmetry_equiv_pos_as_xyz
  1  'x, y, z'
loop_
 _atom_site_type_symbol
 _atom_site_label
 _atom_site_symmetry_multiplicity
 _atom_site_fract_x
 _atom_site_fract_y
 _atom_site_fract_z
 _atom_site_occupancy
  Sr  Sr0  1  0.25000000  0.89166800  0.57644500  1
  Sr  Sr1  1  0.75000000  0.10833200  0.42355500  1
  Sr  Sr2  1  0.25000000  0.39166800  0.92355500  1
  Sr  Sr3  1  0.75000000  0.60833200  0.07644500  1
  Si  Si4  1  0.05767800  0.43748600  0.30930800  1
  Si  Si5  1  0.55767800  0.56251400  0.69069200  1
  Si  Si6  1  0.44232200  0.93748600  0.19069200  1
  Si  Si7  1  0.94232200  0.06251400  0.80930800  1
  Si  Si8  1  0.94232200  0.56251400  0.69069200  1
  Si  Si9  1  0.44232200  0.43748600  0.30930800  1
  Si  Si10  1  0.55767800  0.06251400  0.80930800  1
  Si  Si11  1  0.05767800  0.93748600  0.19069200  1
  B  B12  1  0.91852000  0.73265400  0.41463400  1
  B  B13  1  0.91852000  0.23265400  0.08536600  1
  B  B14  1  0.41852000  0.76734600  0.91463400  1
  B  B15  1  0.58148000  0.73265400  0.41463400  1
  B  B16  1  0.08148000  0.26734600  0.58536600  1
  B  B17  1  0.41852000  0.26734600  0.58536600  1
  B  B18  1  0.58148000  0.23265400  0.08536600  1
  B  B19  1  0.08148000  0.76734600  0.91463400  1
  O  O20  1  0.25000000  0.69907000  0.91453900  1
  O  O21  1  0.75000000  0.80093000  0.41453900  1
  O  O22  1  0.25000000  0.19907000  0.58546100  1
  O  O23  1  0.75000000  0.30093000  0.08546100  1
  O  O24  1  0.75000000  0.99677100  0.82609800  1
  O  O25  1  0.25000000  0.00322900  0.17390200  1
  O  O26  1  0.75000000  0.49677100  0.67390200  1
  O  O27  1  0.25000000  0.50322900  0.32609800  1
  O  O28  1  0.92807800  0.08953400  0.18118500  1
  O  O29  1  0.42807800  0.91046600  0.81881500  1
  O  O30  1  0.57192200  0.58953400  0.31881500  1
  O  O31  1  0.07192200  0.41046600  0.68118500  1
  O  O32  1  0.01335200  0.80190300  0.06533900  1
  O  O33  1  0.51335200  0.19809700  0.93466100  1
  O  O34  1  0.48664800  0.30190300  0.43466100  1
  O  O35  1  0.98664800  0.69809700  0.56533900  1
  O  O36  1  0.98664800  0.19809700  0.93466100  1
  O  O37  1  0.48664800  0.80190300  0.06533900  1
  O  O38  1  0.51335200  0.69809700  0.56533900  1
  O  O39  1  0.01335200  0.30190300  0.43466100  1
  O  O40  1  0.03430900  0.86387500  0.35835700  1
  O  O41  1  0.53430900  0.13612500  0.64164300  1
  O  O42  1  0.46569100  0.36387500  0.14164300  1
  O  O43  1  0.96569100  0.63612500  0.85835700  1
  O  O44  1  0.96569100  0.13612500  0.64164300  1
  O  O45  1  0.46569100  0.86387500  0.35835700  1
  O  O46  1  0.53430900  0.63612500  0.85835700  1
  O  O47  1  0.03430900  0.36387500  0.14164300  1
  O  O48  1  0.92807800  0.58953400  0.31881500  1
  O  O49  1  0.42807800  0.41046600  0.68118500  1
  O  O50  1  0.57192200  0.08953400  0.18118500  1
  O  O51  1  0.07192200  0.91046600  0.81881500  1
