# generated using pymatgen
data_Dy2(GePt3)3
_symmetry_space_group_name_H-M   'P 1'
_cell_length_a   7.81243490
_cell_length_b   7.81243490
_cell_length_c   10.13256700
_cell_angle_alpha   67.07575897
_cell_angle_beta   67.07575897
_cell_angle_gamma   60.17338412
_symmetry_Int_Tables_number   1
_chemical_formula_structural   Dy2(GePt3)3
_chemical_formula_sum   'Dy4 Ge6 Pt18'
_cell_volume   479.07539349
_cell_formula_units_Z   2
loop_
 _symmetry_equiv_pos_site_id
 _symmetry_equiv_pos_as_xyz
  1  'x, y, z'
loop_
 _atom_site_type_symbol
 _atom_site_label
 _atom_site_symmetry_multiplicity
 _atom_site_fract_x
 _atom_site_fract_y
 _atom_site_fract_z
 _atom_site_occupancy
  Dy  Dy0  1  0.24495400  0.41576800  0.25075600  1
  Dy  Dy1  1  0.58423200  0.75504600  0.24924400  1
  Dy  Dy2  1  0.75504600  0.58423200  0.74924400  1
  Dy  Dy3  1  0.41576800  0.24495400  0.75075600  1
  Ge  Ge4  1  0.81902300  0.35931600  0.50227800  1
  Ge  Ge5  1  0.64068400  0.18097700  0.99772200  1
  Ge  Ge6  1  0.35931600  0.81902300  0.00227800  1
  Ge  Ge7  1  0.18097700  0.64068400  0.49772200  1
  Ge  Ge8  1  0.00000000  0.50000000  0.00000000  1
  Ge  Ge9  1  0.50000000  0.00000000  0.50000000  1
  Pt  Pt10  1  0.19714300  0.02098900  0.42952900  1
  Pt  Pt11  1  0.30648100  0.14046100  0.07865700  1
  Pt  Pt12  1  0.64002900  0.47769100  0.07770800  1
  Pt  Pt13  1  0.52230900  0.35997100  0.42229200  1
  Pt  Pt14  1  0.85953900  0.69351900  0.42134300  1
  Pt  Pt15  1  0.91543000  0.29574500  0.25688700  1
  Pt  Pt16  1  0.70425500  0.08457000  0.24311300  1
  Pt  Pt17  1  0.80285700  0.97901100  0.57047100  1
  Pt  Pt18  1  0.47769100  0.64002900  0.57770800  1
  Pt  Pt19  1  0.86683500  0.13316500  0.75000000  1
  Pt  Pt20  1  0.97901100  0.80285700  0.07047100  1
  Pt  Pt21  1  0.29574500  0.91543000  0.75688700  1
  Pt  Pt22  1  0.35997100  0.52230900  0.92229200  1
  Pt  Pt23  1  0.13316500  0.86683500  0.25000000  1
  Pt  Pt24  1  0.69351900  0.85953900  0.92134300  1
  Pt  Pt25  1  0.08457000  0.70425500  0.74311300  1
  Pt  Pt26  1  0.02098900  0.19714300  0.92952900  1
  Pt  Pt27  1  0.14046100  0.30648100  0.57865700  1
