# generated using pymatgen
data_In(HO)3
_symmetry_space_group_name_H-M   'P 1'
_cell_length_a   6.99671265
_cell_length_b   6.99671265
_cell_length_c   6.99671220
_cell_angle_alpha   109.40144334
_cell_angle_beta   109.40144334
_cell_angle_gamma   109.40143983
_symmetry_Int_Tables_number   1
_chemical_formula_structural   In(HO)3
_chemical_formula_sum   'In4 H12 O12'
_cell_volume   264.34867285
_cell_formula_units_Z   4
loop_
 _symmetry_equiv_pos_site_id
 _symmetry_equiv_pos_as_xyz
  1  'x, y, z'
loop_
 _atom_site_type_symbol
 _atom_site_label
 _atom_site_symmetry_multiplicity
 _atom_site_fract_x
 _atom_site_fract_y
 _atom_site_fract_z
 _atom_site_occupancy
  In  In0  1  0.00000000  0.00000000  0.50000000  1
  In  In1  1  0.50000000  0.50000000  0.50000000  1
  In  In2  1  0.00000000  0.50000000  0.00000000  1
  In  In3  1  0.50000000  0.00000000  0.00000000  1
  H  H4  1  0.82553600  0.55400500  0.38054800  1
  H  H5  1  0.17446400  0.44599500  0.61945200  1
  H  H6  1  0.04630500  0.68322200  0.72953800  1
  H  H7  1  0.95369500  0.31677800  0.27046200  1
  H  H8  1  0.27046200  0.95369500  0.31677800  1
  H  H9  1  0.72953800  0.04630500  0.68322200  1
  H  H10  1  0.61945200  0.17446400  0.44599500  1
  H  H11  1  0.38054800  0.82553600  0.55400500  1
  H  H12  1  0.44599500  0.61945200  0.17446400  1
  H  H13  1  0.55400500  0.38054800  0.82553600  1
  H  H14  1  0.31677800  0.27046200  0.95369500  1
  H  H15  1  0.68322200  0.72953800  0.04630500  1
  O  O16  1  0.83182200  0.67626600  0.50907400  1
  O  O17  1  0.16817800  0.32373400  0.49092600  1
  O  O18  1  0.16875100  0.67648700  0.84724700  1
  O  O19  1  0.83124900  0.32351300  0.15275300  1
  O  O20  1  0.15275300  0.83124900  0.32351300  1
  O  O21  1  0.84724700  0.16875100  0.67648700  1
  O  O22  1  0.49092600  0.16817800  0.32373400  1
  O  O23  1  0.50907400  0.83182200  0.67626600  1
  O  O24  1  0.32373400  0.49092600  0.16817800  1
  O  O25  1  0.67626600  0.50907400  0.83182200  1
  O  O26  1  0.32351300  0.15275300  0.83124900  1
  O  O27  1  0.67648700  0.84724700  0.16875100  1
