# generated using pymatgen
data_Na10EuSn12
_symmetry_space_group_name_H-M   'P 1'
_cell_length_a   9.76851194
_cell_length_b   9.76851194
_cell_length_c   9.76851194
_cell_angle_alpha   109.47122063
_cell_angle_beta   109.47122063
_cell_angle_gamma   109.47122063
_symmetry_Int_Tables_number   1
_chemical_formula_structural   Na10EuSn12
_chemical_formula_sum   'Na10 Eu1 Sn12'
_cell_volume   717.56846533
_cell_formula_units_Z   1
loop_
 _symmetry_equiv_pos_site_id
 _symmetry_equiv_pos_as_xyz
  1  'x, y, z'
loop_
 _atom_site_type_symbol
 _atom_site_label
 _atom_site_symmetry_multiplicity
 _atom_site_fract_x
 _atom_site_fract_y
 _atom_site_fract_z
 _atom_site_occupancy
  Na  Na0  1  0.38989800  0.38989800  0.38989800  1
  Na  Na1  1  0.50000000  0.25000000  0.75000000  1
  Na  Na2  1  0.75000000  0.25000000  0.50000000  1
  Na  Na3  1  0.75000000  0.50000000  0.25000000  1
  Na  Na4  1  0.00000000  0.61010200  0.00000000  1
  Na  Na5  1  0.25000000  0.50000000  0.75000000  1
  Na  Na6  1  0.00000000  0.00000000  0.61010200  1
  Na  Na7  1  0.50000000  0.75000000  0.25000000  1
  Na  Na8  1  0.25000000  0.75000000  0.50000000  1
  Na  Na9  1  0.61010200  0.00000000  0.00000000  1
  Eu  Eu10  1  0.00000000  0.00000000  0.00000000  1
  Sn  Sn11  1  0.18258500  0.81104800  0.81104800  1
  Sn  Sn12  1  0.62846300  0.62846300  0.81741500  1
  Sn  Sn13  1  0.18895200  0.37153700  0.00000000  1
  Sn  Sn14  1  0.37153700  0.00000000  0.18895200  1
  Sn  Sn15  1  0.81104800  0.81104800  0.18258500  1
  Sn  Sn16  1  0.37153700  0.18895200  0.00000000  1
  Sn  Sn17  1  0.81741500  0.62846300  0.62846300  1
  Sn  Sn18  1  0.18895200  0.00000000  0.37153700  1
  Sn  Sn19  1  0.62846300  0.81741500  0.62846300  1
  Sn  Sn20  1  0.00000000  0.37153700  0.18895200  1
  Sn  Sn21  1  0.81104800  0.18258500  0.81104800  1
  Sn  Sn22  1  0.00000000  0.18895200  0.37153700  1
