# generated using pymatgen
data_Cs3Nb2S11
_symmetry_space_group_name_H-M   'P 1'
_cell_length_a   8.36766000
_cell_length_b   12.35045300
_cell_length_c   20.12138124
_cell_angle_alpha   77.52092020
_cell_angle_beta   90.00000000
_cell_angle_gamma   90.00000000
_symmetry_Int_Tables_number   1
_chemical_formula_structural   Cs3Nb2S11
_chemical_formula_sum   'Cs12 Nb8 S44'
_cell_volume   2030.30525987
_cell_formula_units_Z   4
loop_
 _symmetry_equiv_pos_site_id
 _symmetry_equiv_pos_as_xyz
  1  'x, y, z'
loop_
 _atom_site_type_symbol
 _atom_site_label
 _atom_site_symmetry_multiplicity
 _atom_site_fract_x
 _atom_site_fract_y
 _atom_site_fract_z
 _atom_site_occupancy
  Cs  Cs0  1  0.31865800  0.99421500  0.83837700  1
  Cs  Cs1  1  0.68134200  0.00578500  0.16162300  1
  Cs  Cs2  1  0.65924900  0.46327000  0.14223400  1
  Cs  Cs3  1  0.18147300  0.77352600  0.11864600  1
  Cs  Cs4  1  0.15924900  0.53673000  0.35776600  1
  Cs  Cs5  1  0.81865800  0.00578500  0.66162300  1
  Cs  Cs6  1  0.81852700  0.22647400  0.88135400  1
  Cs  Cs7  1  0.68147300  0.22647400  0.38135400  1
  Cs  Cs8  1  0.34075100  0.53673000  0.85776600  1
  Cs  Cs9  1  0.18134200  0.99421500  0.33837700  1
  Cs  Cs10  1  0.31852700  0.77352600  0.61864600  1
  Cs  Cs11  1  0.84075100  0.46327000  0.64223400  1
  Nb  Nb12  1  0.85533500  0.70814400  0.84120200  1
  Nb  Nb13  1  0.35533500  0.29185600  0.65879800  1
  Nb  Nb14  1  0.72231200  0.80476500  0.99403500  1
  Nb  Nb15  1  0.27768800  0.19523500  0.00596500  1
  Nb  Nb16  1  0.64466500  0.70814400  0.34120200  1
  Nb  Nb17  1  0.14466500  0.29185600  0.15879800  1
  Nb  Nb18  1  0.22231200  0.19523500  0.50596500  1
  Nb  Nb19  1  0.77768800  0.80476500  0.49403500  1
  S  S20  1  0.52878800  0.91324700  0.45497200  1
  S  S21  1  0.37184700  0.36412900  0.03977700  1
  S  S22  1  0.12815300  0.36412900  0.53977700  1
  S  S23  1  0.62048300  0.99896600  0.98580500  1
  S  S24  1  0.98472100  0.74682900  0.95056400  1
  S  S25  1  0.88936300  0.78955900  0.28323700  1
  S  S26  1  0.27854200  0.47556900  0.67991300  1
  S  S27  1  0.77679000  0.88567200  0.34274600  1
  S  S28  1  0.44980500  0.74972300  0.96992200  1
  S  S29  1  0.43973000  0.76196900  0.27028200  1
  S  S30  1  0.57946600  0.51936800  0.40541800  1
  S  S31  1  0.56027000  0.23803100  0.72971800  1
  S  S32  1  0.37951700  0.00103400  0.01419500  1
  S  S33  1  0.55019500  0.25027700  0.03007800  1
  S  S34  1  0.92053400  0.51936800  0.90541800  1
  S  S35  1  0.51527900  0.74682900  0.45056400  1
  S  S36  1  0.42053400  0.48063200  0.59458200  1
  S  S37  1  0.24682100  0.25016800  0.89331000  1
  S  S38  1  0.02878800  0.08675300  0.04502800  1
  S  S39  1  0.07946600  0.48063200  0.09458200  1
  S  S40  1  0.01527900  0.25317100  0.04943600  1
  S  S41  1  0.77854200  0.52443100  0.82008700  1
  S  S42  1  0.47121200  0.08675300  0.54502800  1
  S  S43  1  0.72145800  0.52443100  0.32008700  1
  S  S44  1  0.87951700  0.99896600  0.48580500  1
  S  S45  1  0.11063700  0.21044100  0.71676300  1
  S  S46  1  0.72321000  0.88567200  0.84274600  1
  S  S47  1  0.62815300  0.63587100  0.96022300  1
  S  S48  1  0.61063700  0.78955900  0.78323700  1
  S  S49  1  0.38936300  0.21044100  0.21676300  1
  S  S50  1  0.27679000  0.11432800  0.15725400  1
  S  S51  1  0.87184700  0.63587100  0.46022300  1
  S  S52  1  0.06027000  0.76196900  0.77028200  1
  S  S53  1  0.74682100  0.74983200  0.60669000  1
  S  S54  1  0.05019500  0.74972300  0.46992200  1
  S  S55  1  0.48472100  0.25317100  0.54943600  1
  S  S56  1  0.12048300  0.00103400  0.51419500  1
  S  S57  1  0.22321000  0.11432800  0.65725400  1
  S  S58  1  0.97121200  0.91324700  0.95497200  1
  S  S59  1  0.94980500  0.25027700  0.53007800  1
  S  S60  1  0.75317900  0.74983200  0.10669000  1
  S  S61  1  0.93973000  0.23803100  0.22971800  1
  S  S62  1  0.25317900  0.25016800  0.39331000  1
  S  S63  1  0.22145800  0.47556900  0.17991300  1
