# generated using pymatgen
data_Cu3P15I2
_symmetry_space_group_name_H-M   'P 1'
_cell_length_a   19.56633700
_cell_length_b   9.71003600
_cell_length_c   11.44710902
_cell_angle_alpha   55.31772510
_cell_angle_beta   90.00000000
_cell_angle_gamma   90.00000000
_symmetry_Int_Tables_number   1
_chemical_formula_structural   Cu3P15I2
_chemical_formula_sum   'Cu12 P60 I8'
_cell_volume   1788.41005055
_cell_formula_units_Z   4
loop_
 _symmetry_equiv_pos_site_id
 _symmetry_equiv_pos_as_xyz
  1  'x, y, z'
loop_
 _atom_site_type_symbol
 _atom_site_label
 _atom_site_symmetry_multiplicity
 _atom_site_fract_x
 _atom_site_fract_y
 _atom_site_fract_z
 _atom_site_occupancy
  Cu  Cu0  1  0.94332100  0.99871500  0.32535000  1
  Cu  Cu1  1  0.21143400  0.63054900  0.92693900  1
  Cu  Cu2  1  0.44097100  0.59257700  0.17755200  1
  Cu  Cu3  1  0.44332100  0.00128500  0.17465000  1
  Cu  Cu4  1  0.55902900  0.40742300  0.82244800  1
  Cu  Cu5  1  0.05667900  0.00128500  0.67465000  1
  Cu  Cu6  1  0.28856600  0.63054900  0.42693900  1
  Cu  Cu7  1  0.94097100  0.40742300  0.32244800  1
  Cu  Cu8  1  0.55667900  0.99871500  0.82535000  1
  Cu  Cu9  1  0.05902900  0.59257700  0.67755200  1
  Cu  Cu10  1  0.71143400  0.36945100  0.57306100  1
  Cu  Cu11  1  0.78856600  0.36945100  0.07306100  1
  P  P12  1  0.09341700  0.77351900  0.44211100  1
  P  P13  1  0.01818100  0.60902000  0.28016000  1
  P  P14  1  0.48306200  0.85721600  0.77144500  1
  P  P15  1  0.17303700  0.66879900  0.37287800  1
  P  P16  1  0.67303700  0.33120100  0.12712200  1
  P  P17  1  0.08603000  0.01852900  0.08367000  1
  P  P18  1  0.64374200  0.83631300  0.35604400  1
  P  P19  1  0.07937000  0.71624900  0.08297000  1
  P  P20  1  0.07651200  0.13633500  0.43367100  1
  P  P21  1  0.32696300  0.66879900  0.87287800  1
  P  P22  1  0.00395500  0.76169600  0.72737600  1
  P  P23  1  0.92063000  0.28375100  0.91703000  1
  P  P24  1  0.36237800  0.50039700  0.62026600  1
  P  P25  1  0.64966700  0.99882500  0.11532600  1
  P  P26  1  0.99604500  0.23830400  0.27262400  1
  P  P27  1  0.60008400  0.53821000  0.05631300  1
  P  P28  1  0.40658300  0.77351900  0.94211100  1
  P  P29  1  0.59341700  0.22648100  0.05788900  1
  P  P30  1  0.39991600  0.46179000  0.94368700  1
  P  P31  1  0.51693800  0.14278400  0.22855500  1
  P  P32  1  0.13762200  0.50039700  0.12026600  1
  P  P33  1  0.93770600  0.64520700  0.91463900  1
  P  P34  1  0.35033300  0.00117500  0.88467400  1
  P  P35  1  0.57651200  0.86366500  0.06632900  1
  P  P36  1  0.14374200  0.16368700  0.14395600  1
  P  P37  1  0.06229400  0.35479300  0.08536100  1
  P  P38  1  0.66520000  0.16927300  0.37149800  1
  P  P39  1  0.33480000  0.83072700  0.62850200  1
  P  P40  1  0.16520000  0.83072700  0.12850200  1
  P  P41  1  0.42063000  0.71624900  0.58297000  1
  P  P42  1  0.41397000  0.01852900  0.58367000  1
  P  P43  1  0.98306200  0.14278400  0.72855500  1
  P  P44  1  0.89991600  0.53821000  0.55631300  1
  P  P45  1  0.91397000  0.98147100  0.91633000  1
  P  P46  1  0.14966700  0.00117500  0.38467400  1
  P  P47  1  0.57937000  0.28375100  0.41703000  1
  P  P48  1  0.34544800  0.33548800  0.86184100  1
  P  P49  1  0.42348800  0.13633500  0.93367100  1
  P  P50  1  0.86237800  0.49960300  0.87973400  1
  P  P51  1  0.84544800  0.66451200  0.63815900  1
  P  P52  1  0.01693800  0.85721600  0.27144500  1
  P  P53  1  0.82696300  0.33120100  0.62712200  1
  P  P54  1  0.10008400  0.46179000  0.44368700  1
  P  P55  1  0.92348800  0.86366500  0.56632900  1
  P  P56  1  0.58603000  0.98147100  0.41633000  1
  P  P57  1  0.51818100  0.39098000  0.21984000  1
  P  P58  1  0.83480000  0.16927300  0.87149800  1
  P  P59  1  0.90658300  0.22648100  0.55788900  1
  P  P60  1  0.15455200  0.33548800  0.36184100  1
  P  P61  1  0.85625800  0.83631300  0.85604400  1
  P  P62  1  0.85033300  0.99882500  0.61532600  1
  P  P63  1  0.49604500  0.76169600  0.22737600  1
  P  P64  1  0.98181900  0.39098000  0.71984000  1
  P  P65  1  0.50395500  0.23830400  0.77262400  1
  P  P66  1  0.63762200  0.49960300  0.37973400  1
  P  P67  1  0.65455200  0.66451200  0.13815900  1
  P  P68  1  0.43770600  0.35479300  0.58536100  1
  P  P69  1  0.56229400  0.64520700  0.41463900  1
  P  P70  1  0.48181900  0.60902000  0.78016000  1
  P  P71  1  0.35625800  0.16368700  0.64395600  1
  I  I72  1  0.31764800  0.96026000  0.26490700  1
  I  I73  1  0.68235200  0.03974000  0.73509300  1
  I  I74  1  0.18187800  0.50114600  0.77928400  1
  I  I75  1  0.68187800  0.49885400  0.72071600  1
  I  I76  1  0.81764800  0.03974000  0.23509300  1
  I  I77  1  0.18235200  0.96026000  0.76490700  1
  I  I78  1  0.81812200  0.49885400  0.22071600  1
  I  I79  1  0.31812200  0.50114600  0.27928400  1
