# generated using pymatgen
data_Cs2NaAlF6
_symmetry_space_group_name_H-M   'P 1'
_cell_length_a   10.75842515
_cell_length_b   10.75842515
_cell_length_c   10.75842512
_cell_angle_alpha   33.92177672
_cell_angle_beta   33.92177672
_cell_angle_gamma   33.92177364
_symmetry_Int_Tables_number   1
_chemical_formula_structural   Cs2NaAlF6
_chemical_formula_sum   'Cs4 Na2 Al2 F12'
_cell_volume   345.63142968
_cell_formula_units_Z   2
loop_
 _symmetry_equiv_pos_site_id
 _symmetry_equiv_pos_as_xyz
  1  'x, y, z'
loop_
 _atom_site_type_symbol
 _atom_site_label
 _atom_site_symmetry_multiplicity
 _atom_site_fract_x
 _atom_site_fract_y
 _atom_site_fract_z
 _atom_site_occupancy
  Cs  Cs0  1  0.21946800  0.21946800  0.21946800  1
  Cs  Cs1  1  0.78053200  0.78053200  0.78053200  1
  Cs  Cs2  1  0.62814000  0.62814000  0.62814000  1
  Cs  Cs3  1  0.37186000  0.37186000  0.37186000  1
  Na  Na4  1  0.90210300  0.90210300  0.90210300  1
  Na  Na5  1  0.09789700  0.09789700  0.09789700  1
  Al  Al6  1  0.00000000  0.00000000  0.00000000  1
  Al  Al7  1  0.50000000  0.50000000  0.50000000  1
  F  F8  1  0.74620400  0.32470000  0.32470000  1
  F  F9  1  0.67530000  0.67530000  0.25379600  1
  F  F10  1  0.67530000  0.25379600  0.67530000  1
  F  F11  1  0.32470000  0.74620400  0.32470000  1
  F  F12  1  0.69113200  0.10017200  0.10017200  1
  F  F13  1  0.10017200  0.10017200  0.69113200  1
  F  F14  1  0.10017200  0.69113200  0.10017200  1
  F  F15  1  0.32470000  0.32470000  0.74620400  1
  F  F16  1  0.30886800  0.89982800  0.89982800  1
  F  F17  1  0.89982800  0.89982800  0.30886800  1
  F  F18  1  0.89982800  0.30886800  0.89982800  1
  F  F19  1  0.25379600  0.67530000  0.67530000  1
