# generated using pymatgen
data_Ba4NaCu(CO5)2
_symmetry_space_group_name_H-M   'P 1'
_cell_length_a   8.87900106
_cell_length_b   8.87900106
_cell_length_c   8.87900106
_cell_angle_alpha   141.12061711
_cell_angle_beta   141.12061711
_cell_angle_gamma   56.15568801
_symmetry_Int_Tables_number   1
_chemical_formula_structural   Ba4NaCu(CO5)2
_chemical_formula_sum   'Ba4 Na1 Cu1 C2 O10'
_cell_volume   273.63861571
_cell_formula_units_Z   1
loop_
 _symmetry_equiv_pos_site_id
 _symmetry_equiv_pos_as_xyz
  1  'x, y, z'
loop_
 _atom_site_type_symbol
 _atom_site_label
 _atom_site_symmetry_multiplicity
 _atom_site_fract_x
 _atom_site_fract_y
 _atom_site_fract_z
 _atom_site_occupancy
  Ba  Ba0  1  0.11694400  0.61694400  0.50000000  1
  Ba  Ba1  1  0.38305600  0.88305600  0.50000000  1
  Ba  Ba2  1  0.88305600  0.38305600  0.50000000  1
  Ba  Ba3  1  0.61694400  0.11694400  0.50000000  1
  Na  Na4  1  0.00000000  0.00000000  0.00000000  1
  Cu  Cu5  1  0.50000000  0.50000000  0.00000000  1
  C  C6  1  0.23352500  0.23352500  0.00000000  1
  C  C7  1  0.76647500  0.76647500  0.00000000  1
  O  O8  1  0.59059200  0.59059200  0.72792100  1
  O  O9  1  0.13733000  0.40940800  0.00000000  1
  O  O10  1  0.85037000  0.85037000  0.00000000  1
  O  O11  1  0.14963000  0.14963000  0.00000000  1
  O  O12  1  0.40940800  0.13733000  0.00000000  1
  O  O13  1  0.86267000  0.86267000  0.27207900  1
  O  O14  1  0.72055300  0.72055300  0.44668000  1
  O  O15  1  0.27944700  0.72612600  0.00000000  1
  O  O16  1  0.72612600  0.27944700  0.00000000  1
  O  O17  1  0.27387400  0.27387400  0.55332000  1
