# generated using pymatgen
data_Sr(PN2)2
_symmetry_space_group_name_H-M   'P 1'
_cell_length_a   17.25291776
_cell_length_b   17.25291776
_cell_length_c   8.18978000
_cell_angle_alpha   90.00000000
_cell_angle_beta   90.00000000
_cell_angle_gamma   119.99999908
_symmetry_Int_Tables_number   1
_chemical_formula_structural   Sr(PN2)2
_chemical_formula_sum   'Sr24 P48 N96'
_cell_volume   2111.19318649
_cell_formula_units_Z   24
loop_
 _symmetry_equiv_pos_site_id
 _symmetry_equiv_pos_as_xyz
  1  'x, y, z'
loop_
 _atom_site_type_symbol
 _atom_site_label
 _atom_site_symmetry_multiplicity
 _atom_site_fract_x
 _atom_site_fract_y
 _atom_site_fract_z
 _atom_site_occupancy
  Sr  Sr0  1  0.33318000  0.15139600  0.31834300  1
  Sr  Sr1  1  0.66666700  0.33333300  0.29962900  1
  Sr  Sr2  1  0.81821500  0.66682000  0.31834300  1
  Sr  Sr3  1  0.48094400  0.47671300  0.82605600  1
  Sr  Sr4  1  0.51905600  0.52328700  0.32605600  1
  Sr  Sr5  1  0.00000000  0.00000000  0.34580300  1
  Sr  Sr6  1  0.33333300  0.66666700  0.29865900  1
  Sr  Sr7  1  0.33333300  0.66666700  0.79962900  1
  Sr  Sr8  1  0.15139600  0.81821500  0.81834300  1
  Sr  Sr9  1  0.99576900  0.51905600  0.82605600  1
  Sr  Sr10  1  0.18178500  0.33318000  0.81834300  1
  Sr  Sr11  1  0.52328700  0.00423100  0.82605600  1
  Sr  Sr12  1  0.00000000  0.00000000  0.84580300  1
  Sr  Sr13  1  0.00423100  0.48094400  0.32605600  1
  Sr  Sr14  1  0.84860400  0.18178500  0.31834300  1
  Sr  Sr15  1  0.33135900  0.19162200  0.81750700  1
  Sr  Sr16  1  0.66864100  0.80837800  0.31750700  1
  Sr  Sr17  1  0.19162200  0.86026300  0.31750700  1
  Sr  Sr18  1  0.80837800  0.13973700  0.81750700  1
  Sr  Sr19  1  0.86026300  0.66864100  0.81750700  1
  Sr  Sr20  1  0.13973700  0.33135900  0.31750700  1
  Sr  Sr21  1  0.66682000  0.84860400  0.81834300  1
  Sr  Sr22  1  0.66666700  0.33333300  0.79865900  1
  Sr  Sr23  1  0.47671300  0.99576900  0.32605600  1
  P  P24  1  0.32977200  0.32948900  0.12955800  1
  P  P25  1  0.00659800  0.84135700  0.13159300  1
  P  P26  1  0.83472200  0.49475700  0.13204500  1
  P  P27  1  0.67051100  0.00028300  0.12955800  1
  P  P28  1  0.66526500  0.66421900  0.01424800  1
  P  P29  1  0.34403100  0.83594600  0.01270000  1
  P  P30  1  0.99895300  0.33473500  0.01424800  1
  P  P31  1  0.50000700  0.82618500  0.51214700  1
  P  P32  1  0.33996500  0.83472200  0.63204500  1
  P  P33  1  0.66421900  0.99895300  0.51424800  1
  P  P34  1  0.32254900  0.49518800  0.13123400  1
  P  P35  1  0.67382200  0.50000700  0.01214700  1
  P  P36  1  0.65596900  0.16405400  0.51270000  1
  P  P37  1  0.67745100  0.50481200  0.63123400  1
  P  P38  1  0.33578100  0.00104700  0.01424800  1
  P  P39  1  0.50481200  0.82736100  0.13123400  1
  P  P40  1  0.32617800  0.49999300  0.51214700  1
  P  P41  1  0.33473500  0.33578100  0.51424800  1
  P  P42  1  0.83188600  0.99347100  0.51199900  1
  P  P43  1  0.17263900  0.67745100  0.13123400  1
  P  P44  1  0.99340200  0.15864300  0.63159300  1
  P  P45  1  0.16158400  0.16811400  0.51199900  1
  P  P46  1  0.49999300  0.17381500  0.01214700  1
  P  P47  1  0.50524300  0.33996500  0.13204500  1
  P  P48  1  0.16811400  0.00652900  0.01199900  1
  P  P49  1  0.00652900  0.83841600  0.51199900  1
  P  P50  1  0.49191500  0.65596900  0.01270000  1
  P  P51  1  0.16527800  0.50524300  0.63204500  1
  P  P52  1  0.99347100  0.16158400  0.01199900  1
  P  P53  1  0.84135700  0.83475900  0.63159300  1
  P  P54  1  0.15864300  0.16524100  0.13159300  1
  P  P55  1  0.83841600  0.83188600  0.01199900  1
  P  P56  1  0.00028300  0.32977200  0.62955800  1
  P  P57  1  0.66003500  0.16527800  0.13204500  1
  P  P58  1  0.00104700  0.66526500  0.51424800  1
  P  P59  1  0.50808500  0.34403100  0.51270000  1
  P  P60  1  0.82736100  0.32254900  0.63123400  1
  P  P61  1  0.17381500  0.67382200  0.51214700  1
  P  P62  1  0.82618500  0.32617800  0.01214700  1
  P  P63  1  0.83594600  0.49191500  0.51270000  1
  P  P64  1  0.49475700  0.66003500  0.63204500  1
  P  P65  1  0.16405400  0.50808500  0.01270000  1
  P  P66  1  0.67022800  0.67051100  0.62955800  1
  P  P67  1  0.83475900  0.99340200  0.13159300  1
  P  P68  1  0.49518800  0.17263900  0.63123400  1
  P  P69  1  0.32948900  0.99971700  0.62955800  1
  P  P70  1  0.99971700  0.67022800  0.12955800  1
  P  P71  1  0.16524100  0.00659800  0.63159300  1
  N  N72  1  0.33187900  0.33229000  0.32133200  1
  N  N73  1  0.99958900  0.33187900  0.82133200  1
  N  N74  1  0.80736500  0.29046400  0.82318800  1
  N  N75  1  0.56117700  0.93079000  0.57685200  1
  N  N76  1  0.35960400  0.93067000  0.55082500  1
  N  N77  1  0.10023800  0.40499100  0.08235200  1
  N  N78  1  0.93067000  0.57106700  0.05082500  1
  N  N79  1  0.80263800  0.90362200  0.01919800  1
  N  N80  1  0.43882300  0.06921000  0.07685200  1
  N  N81  1  0.29046400  0.48310000  0.32318800  1
  N  N82  1  0.85940100  0.81839700  0.82182400  1
  N  N83  1  0.10054000  0.70449400  0.05338700  1
  N  N84  1  0.76072000  0.52756100  0.12934300  1
  N  N85  1  0.43033600  0.56460700  0.11892400  1
  N  N86  1  0.56460700  0.13427100  0.61892400  1
  N  N87  1  0.63038700  0.56117700  0.07685200  1
  N  N88  1  0.26977800  0.53755200  0.03364100  1
  N  N89  1  0.51690000  0.80736500  0.32318800  1
  N  N90  1  0.26777300  0.73022200  0.03364100  1
  N  N91  1  0.73665400  0.77460000  0.56949800  1
  N  N92  1  0.56966400  0.43539300  0.61892400  1
  N  N93  1  0.13427100  0.56966400  0.11892400  1
  N  N94  1  0.52503900  0.37584000  0.32135700  1
  N  N95  1  0.06933000  0.42893300  0.55082500  1
  N  N96  1  0.06921000  0.63038700  0.57685200  1
  N  N97  1  0.10098300  0.19736200  0.01919800  1
  N  N98  1  0.26547400  0.02969300  0.09463800  1
  N  N99  1  0.48310000  0.19263500  0.82318800  1
  N  N100  1  0.14919900  0.52503900  0.82135700  1
  N  N101  1  0.09637800  0.89901700  0.01919800  1
  N  N102  1  0.70449400  0.60395400  0.55338700  1
  N  N103  1  0.19736200  0.09637800  0.51919800  1
  N  N104  1  0.33229000  0.00041100  0.82133200  1
  N  N105  1  0.62416000  0.14919900  0.32135700  1
  N  N106  1  0.60636400  0.20458800  0.02791000  1
  N  N107  1  0.04100500  0.85940100  0.32182400  1
  N  N108  1  0.57106700  0.64039600  0.55082500  1
  N  N109  1  0.89901700  0.80263800  0.51919800  1
  N  N110  1  0.59500900  0.69524700  0.08235200  1
  N  N111  1  0.89946000  0.29550600  0.55338700  1
  N  N112  1  0.59822500  0.39363600  0.02791000  1
  N  N113  1  0.20458800  0.59822500  0.52791000  1
  N  N114  1  0.18160300  0.04100500  0.82182400  1
  N  N115  1  0.87351300  0.94124000  0.61377300  1
  N  N116  1  0.76684100  0.23928000  0.12934300  1
  N  N117  1  0.81839700  0.95899500  0.32182400  1
  N  N118  1  0.89976200  0.59500900  0.58235200  1
  N  N119  1  0.66771000  0.99958900  0.32133200  1
  N  N120  1  0.76421800  0.73452600  0.09463800  1
  N  N121  1  0.93079000  0.36961300  0.07685200  1
  N  N122  1  0.00041100  0.66812100  0.32133200  1
  N  N123  1  0.69524700  0.10023800  0.58235200  1
  N  N124  1  0.73222700  0.26977800  0.53364100  1
  N  N125  1  0.73452600  0.97030700  0.59463800  1
  N  N126  1  0.39604600  0.10054000  0.55338700  1
  N  N127  1  0.22540000  0.96205400  0.56949800  1
  N  N128  1  0.77460000  0.03794600  0.06949800  1
  N  N129  1  0.03794600  0.26334600  0.56949800  1
  N  N130  1  0.02969300  0.76421800  0.59463800  1
  N  N131  1  0.47243900  0.23315900  0.12934300  1
  N  N132  1  0.85080100  0.47496100  0.32135700  1
  N  N133  1  0.30475300  0.89976200  0.08235200  1
  N  N134  1  0.93227400  0.87351300  0.11377300  1
  N  N135  1  0.70953600  0.51690000  0.82318800  1
  N  N136  1  0.94124000  0.06772600  0.11377300  1
  N  N137  1  0.37584000  0.85080100  0.82135700  1
  N  N138  1  0.23928000  0.47243900  0.62934300  1
  N  N139  1  0.23578200  0.26547400  0.59463800  1
  N  N140  1  0.42893300  0.35960400  0.05082500  1
  N  N141  1  0.95899500  0.14059900  0.82182400  1
  N  N142  1  0.66812100  0.66771000  0.82133200  1
  N  N143  1  0.19263500  0.70953600  0.32318800  1
  N  N144  1  0.96205400  0.73665400  0.06949800  1
  N  N145  1  0.12648700  0.05876000  0.11377300  1
  N  N146  1  0.90362200  0.10098300  0.51919800  1
  N  N147  1  0.26334600  0.22540000  0.06949800  1
  N  N148  1  0.40177500  0.60636400  0.52791000  1
  N  N149  1  0.23315900  0.76072000  0.62934300  1
  N  N150  1  0.53755200  0.26777300  0.53364100  1
  N  N151  1  0.79541200  0.40177500  0.02791000  1
  N  N152  1  0.52756100  0.76684100  0.62934300  1
  N  N153  1  0.47496100  0.62416000  0.82135700  1
  N  N154  1  0.05876000  0.93227400  0.61377300  1
  N  N155  1  0.97030700  0.23578200  0.09463800  1
  N  N156  1  0.64039600  0.06933000  0.05082500  1
  N  N157  1  0.60395400  0.89946000  0.05338700  1
  N  N158  1  0.86572900  0.43033600  0.61892400  1
  N  N159  1  0.43539300  0.86572900  0.11892400  1
  N  N160  1  0.29550600  0.39604600  0.05338700  1
  N  N161  1  0.46244800  0.73222700  0.03364100  1
  N  N162  1  0.06772600  0.12648700  0.61377300  1
  N  N163  1  0.40499100  0.30475300  0.58235200  1
  N  N164  1  0.73022200  0.46244800  0.53364100  1
  N  N165  1  0.39363600  0.79541200  0.52791000  1
  N  N166  1  0.36961300  0.43882300  0.57685200  1
  N  N167  1  0.14059900  0.18160300  0.32182400  1
