# generated using pymatgen
data_Rb3Pr2(NO3)9
_symmetry_space_group_name_H-M   'P 1'
_cell_length_a   13.91594900
_cell_length_b   13.91594900
_cell_length_c   13.91594900
_cell_angle_alpha   90.00000000
_cell_angle_beta   90.00000000
_cell_angle_gamma   90.00000000
_symmetry_Int_Tables_number   1
_chemical_formula_structural   Rb3Pr2(NO3)9
_chemical_formula_sum   'Rb12 Pr8 N36 O108'
_cell_volume   2694.87413018
_cell_formula_units_Z   4
loop_
 _symmetry_equiv_pos_site_id
 _symmetry_equiv_pos_as_xyz
  1  'x, y, z'
loop_
 _atom_site_type_symbol
 _atom_site_label
 _atom_site_symmetry_multiplicity
 _atom_site_fract_x
 _atom_site_fract_y
 _atom_site_fract_z
 _atom_site_occupancy
  Rb  Rb0  1  0.30433400  0.94566600  0.12500000  1
  Rb  Rb1  1  0.62500000  0.19566600  0.05433400  1
  Rb  Rb2  1  0.55433400  0.87500000  0.80433400  1
  Rb  Rb3  1  0.69566600  0.44566600  0.37500000  1
  Rb  Rb4  1  0.44566600  0.37500000  0.69566600  1
  Rb  Rb5  1  0.37500000  0.69566600  0.44566600  1
  Rb  Rb6  1  0.80433400  0.55433400  0.87500000  1
  Rb  Rb7  1  0.12500000  0.30433400  0.94566600  1
  Rb  Rb8  1  0.19566600  0.05433400  0.62500000  1
  Rb  Rb9  1  0.05433400  0.62500000  0.19566600  1
  Rb  Rb10  1  0.87500000  0.80433400  0.55433400  1
  Rb  Rb11  1  0.94566600  0.12500000  0.30433400  1
  Pr  Pr12  1  0.55540300  0.05540300  0.44459700  1
  Pr  Pr13  1  0.05540300  0.44459700  0.55540300  1
  Pr  Pr14  1  0.94459700  0.94459700  0.94459700  1
  Pr  Pr15  1  0.30540300  0.30540300  0.30540300  1
  Pr  Pr16  1  0.19459700  0.69459700  0.80540300  1
  Pr  Pr17  1  0.80540300  0.19459700  0.69459700  1
  Pr  Pr18  1  0.44459700  0.55540300  0.05540300  1
  Pr  Pr19  1  0.69459700  0.80540300  0.19459700  1
  N  N20  1  0.86142100  0.09577800  0.07604000  1
  N  N21  1  0.09577800  0.07604000  0.86142100  1
  N  N22  1  0.07604000  0.86142100  0.09577800  1
  N  N23  1  0.15422200  0.38857900  0.17396000  1
  N  N24  1  0.17396000  0.15422200  0.38857900  1
  N  N25  1  0.32604000  0.84577800  0.88857900  1
  N  N26  1  0.87500000  0.98367500  0.73367500  1
  N  N27  1  0.01632500  0.23367500  0.62500000  1
  N  N28  1  0.84577800  0.88857900  0.32604000  1
  N  N29  1  0.48367500  0.76632500  0.12500000  1
  N  N30  1  0.62500000  0.01632500  0.23367500  1
  N  N31  1  0.42396000  0.13857900  0.59577800  1
  N  N32  1  0.34577800  0.61142100  0.67396000  1
  N  N33  1  0.57604000  0.63857900  0.90422200  1
  N  N34  1  0.23367500  0.62500000  0.01632500  1
  N  N35  1  0.73367500  0.87500000  0.98367500  1
  N  N36  1  0.90422200  0.57604000  0.63857900  1
  N  N37  1  0.61142100  0.67396000  0.34577800  1
  N  N38  1  0.65422200  0.11142100  0.82604000  1
  N  N39  1  0.98367500  0.73367500  0.87500000  1
  N  N40  1  0.12500000  0.48367500  0.76632500  1
  N  N41  1  0.11142100  0.82604000  0.65422200  1
  N  N42  1  0.37500000  0.51632500  0.26632500  1
  N  N43  1  0.51632500  0.26632500  0.37500000  1
  N  N44  1  0.76632500  0.12500000  0.48367500  1
  N  N45  1  0.40422200  0.92396000  0.36142100  1
  N  N46  1  0.63857900  0.90422200  0.57604000  1
  N  N47  1  0.38857900  0.17396000  0.15422200  1
  N  N48  1  0.13857900  0.59577800  0.42396000  1
  N  N49  1  0.67396000  0.34577800  0.61142100  1
  N  N50  1  0.26632500  0.37500000  0.51632500  1
  N  N51  1  0.59577800  0.42396000  0.13857900  1
  N  N52  1  0.82604000  0.65422200  0.11142100  1
  N  N53  1  0.36142100  0.40422200  0.92396000  1
  N  N54  1  0.88857900  0.32604000  0.84577800  1
  N  N55  1  0.92396000  0.36142100  0.40422200  1
  O  O56  1  0.17330500  0.65833800  0.36949600  1
  O  O57  1  0.67219700  0.07400900  0.74403300  1
  O  O58  1  0.65833800  0.36949600  0.17330500  1
  O  O59  1  0.09683200  0.40065600  0.74447600  1
  O  O60  1  0.25552400  0.59683200  0.09934400  1
  O  O61  1  0.11949600  0.09166200  0.42330500  1
  O  O62  1  0.70076300  0.12500000  0.54923700  1
  O  O63  1  0.17219700  0.42599100  0.25596700  1
  O  O64  1  0.84934400  0.15316800  0.50552400  1
  O  O65  1  0.42219700  0.00596700  0.32400900  1
  O  O66  1  0.84166200  0.63050400  0.67330500  1
  O  O67  1  0.86949600  0.32669500  0.34166200  1
  O  O68  1  0.65065600  0.84683200  0.00552400  1
  O  O69  1  0.57400900  0.75596700  0.32780300  1
  O  O70  1  0.95076300  0.29923700  0.62500000  1
  O  O71  1  0.93579300  0.04705700  0.09999200  1
  O  O72  1  0.00552400  0.65065600  0.84683200  1
  O  O73  1  0.59934400  0.24447600  0.40316800  1
  O  O74  1  0.92219700  0.49403300  0.67599100  1
  O  O75  1  0.75596700  0.32780300  0.57400900  1
  O  O76  1  0.15833800  0.13050400  0.82669500  1
  O  O77  1  0.42599100  0.25596700  0.17219700  1
  O  O78  1  0.40065600  0.74447600  0.09683200  1
  O  O79  1  0.90065600  0.75552400  0.90316800  1
  O  O80  1  0.12500000  0.54923700  0.70076300  1
  O  O81  1  0.13050400  0.82669500  0.15833800  1
  O  O82  1  0.42330500  0.11949600  0.09166200  1
  O  O83  1  0.43579300  0.45294300  0.90000800  1
  O  O84  1  0.29923700  0.62500000  0.95076300  1
  O  O85  1  0.87500000  0.04923700  0.79923700  1
  O  O86  1  0.63050400  0.67330500  0.84166200  1
  O  O87  1  0.74403300  0.67219700  0.07400900  1
  O  O88  1  0.04923700  0.79923700  0.87500000  1
  O  O89  1  0.99447600  0.15065600  0.65316800  1
  O  O90  1  0.25596700  0.17219700  0.42599100  1
  O  O91  1  0.92330500  0.38050400  0.90833800  1
  O  O92  1  0.82400900  0.07780300  0.99403300  1
  O  O93  1  0.81420700  0.34999200  0.79705700  1
  O  O94  1  0.17599100  0.57780300  0.50596700  1
  O  O95  1  0.59999200  0.56420700  0.95294300  1
  O  O96  1  0.82669500  0.15833800  0.13050400  1
  O  O97  1  0.84683200  0.00552400  0.65065600  1
  O  O98  1  0.95294300  0.59999200  0.56420700  1
  O  O99  1  0.04705700  0.09999200  0.93579300  1
  O  O100  1  0.54705700  0.40000800  0.06420700  1
  O  O101  1  0.40316800  0.59934400  0.24447600  1
  O  O102  1  0.50552400  0.84934400  0.15316800  1
  O  O103  1  0.65316800  0.99447600  0.15065600  1
  O  O104  1  0.36949600  0.17330500  0.65833800  1
  O  O105  1  0.56420700  0.95294300  0.59999200  1
  O  O106  1  0.34934400  0.34683200  0.49447600  1
  O  O107  1  0.65000800  0.29705700  0.68579300  1
  O  O108  1  0.49447600  0.34934400  0.34683200  1
  O  O109  1  0.45294300  0.90000800  0.43579300  1
  O  O110  1  0.34683200  0.49447600  0.34934400  1
  O  O111  1  0.61949600  0.40833800  0.57669500  1
  O  O112  1  0.34999200  0.79705700  0.81420700  1
  O  O113  1  0.18579300  0.84999200  0.70294300  1
  O  O114  1  0.32780300  0.57400900  0.75596700  1
  O  O115  1  0.34166200  0.86949600  0.32669500  1
  O  O116  1  0.99403300  0.82400900  0.07780300  1
  O  O117  1  0.74447600  0.09683200  0.40065600  1
  O  O118  1  0.68579300  0.65000800  0.29705700  1
  O  O119  1  0.32669500  0.34166200  0.86949600  1
  O  O120  1  0.40833800  0.57669500  0.61949600  1
  O  O121  1  0.29705700  0.68579300  0.65000800  1
  O  O122  1  0.15065600  0.65316800  0.99447600  1
  O  O123  1  0.90000800  0.43579300  0.45294300  1
  O  O124  1  0.49403300  0.67599100  0.92219700  1
  O  O125  1  0.67599100  0.92219700  0.49403300  1
  O  O126  1  0.32400900  0.42219700  0.00596700  1
  O  O127  1  0.70294300  0.18579300  0.84999200  1
  O  O128  1  0.07400900  0.74403300  0.67219700  1
  O  O129  1  0.15000800  0.20294300  0.31420700  1
  O  O130  1  0.75552400  0.90316800  0.90065600  1
  O  O131  1  0.40000800  0.06420700  0.54705700  1
  O  O132  1  0.88050400  0.59166200  0.07669500  1
  O  O133  1  0.31420700  0.15000800  0.20294300  1
  O  O134  1  0.24403300  0.82780300  0.92599100  1
  O  O135  1  0.67330500  0.84166200  0.63050400  1
  O  O136  1  0.15316800  0.50552400  0.84934400  1
  O  O137  1  0.59166200  0.07669500  0.88050400  1
  O  O138  1  0.57780300  0.50596700  0.17599100  1
  O  O139  1  0.84999200  0.70294300  0.18579300  1
  O  O140  1  0.82780300  0.92599100  0.24403300  1
  O  O141  1  0.92599100  0.24403300  0.82780300  1
  O  O142  1  0.09166200  0.42330500  0.11949600  1
  O  O143  1  0.50596700  0.17599100  0.57780300  1
  O  O144  1  0.06420700  0.54705700  0.40000800  1
  O  O145  1  0.20076300  0.37500000  0.45076300  1
  O  O146  1  0.00596700  0.32400900  0.42219700  1
  O  O147  1  0.38050400  0.90833800  0.92330500  1
  O  O148  1  0.79923700  0.87500000  0.04923700  1
  O  O149  1  0.09934400  0.25552400  0.59683200  1
  O  O150  1  0.57669500  0.61949600  0.40833800  1
  O  O151  1  0.79705700  0.81420700  0.34999200  1
  O  O152  1  0.07780300  0.99403300  0.82400900  1
  O  O153  1  0.54923700  0.70076300  0.12500000  1
  O  O154  1  0.90316800  0.90065600  0.75552400  1
  O  O155  1  0.24447600  0.40316800  0.59934400  1
  O  O156  1  0.62500000  0.95076300  0.29923700  1
  O  O157  1  0.07669500  0.88050400  0.59166200  1
  O  O158  1  0.90833800  0.92330500  0.38050400  1
  O  O159  1  0.37500000  0.45076300  0.20076300  1
  O  O160  1  0.20294300  0.31420700  0.15000800  1
  O  O161  1  0.45076300  0.20076300  0.37500000  1
  O  O162  1  0.59683200  0.09934400  0.25552400  1
  O  O163  1  0.09999200  0.93579300  0.04705700  1
