# generated using pymatgen
data_H10SeO8
_symmetry_space_group_name_H-M   'P 1'
_cell_length_a   6.26585500
_cell_length_b   9.29797300
_cell_length_c   12.78657500
_cell_angle_alpha   90.00000000
_cell_angle_beta   90.00000000
_cell_angle_gamma   90.00000000
_symmetry_Int_Tables_number   1
_chemical_formula_structural   H10SeO8
_chemical_formula_sum   'H40 Se4 O32'
_cell_volume   744.94267068
_cell_formula_units_Z   4
loop_
 _symmetry_equiv_pos_site_id
 _symmetry_equiv_pos_as_xyz
  1  'x, y, z'
loop_
 _atom_site_type_symbol
 _atom_site_label
 _atom_site_symmetry_multiplicity
 _atom_site_fract_x
 _atom_site_fract_y
 _atom_site_fract_z
 _atom_site_occupancy
  H  H0  1  0.01244100  0.20128500  0.10704100  1
  H  H1  1  0.01244100  0.20128500  0.39295900  1
  H  H2  1  0.05756100  0.36786300  0.14419700  1
  H  H3  1  0.05756100  0.36786300  0.35580300  1
  H  H4  1  0.06402200  0.33230000  0.00923900  1
  H  H5  1  0.06402200  0.33230000  0.49076100  1
  H  H6  1  0.12199200  0.29302900  0.64269400  1
  H  H7  1  0.12199200  0.29302900  0.85730600  1
  H  H8  1  0.23501800  0.92370900  0.09953200  1
  H  H9  1  0.23501800  0.92370900  0.40046800  1
  H  H10  1  0.26498200  0.42370900  0.59953200  1
  H  H11  1  0.26498200  0.42370900  0.90046800  1
  H  H12  1  0.37800800  0.79302900  0.14269400  1
  H  H13  1  0.37800800  0.79302900  0.35730600  1
  H  H14  1  0.43597800  0.83230000  0.50923900  1
  H  H15  1  0.43597800  0.83230000  0.99076100  1
  H  H16  1  0.44243900  0.86786300  0.64419700  1
  H  H17  1  0.44243900  0.86786300  0.85580300  1
  H  H18  1  0.48755900  0.70128500  0.60704100  1
  H  H19  1  0.48755900  0.70128500  0.89295900  1
  H  H20  1  0.51244100  0.29871500  0.10704100  1
  H  H21  1  0.51244100  0.29871500  0.39295900  1
  H  H22  1  0.55756100  0.13213700  0.14419700  1
  H  H23  1  0.55756100  0.13213700  0.35580300  1
  H  H24  1  0.56402200  0.16770000  0.00923900  1
  H  H25  1  0.56402200  0.16770000  0.49076100  1
  H  H26  1  0.62199200  0.20697100  0.64269400  1
  H  H27  1  0.62199200  0.20697100  0.85730600  1
  H  H28  1  0.73501800  0.57629100  0.09953200  1
  H  H29  1  0.73501800  0.57629100  0.40046800  1
  H  H30  1  0.76498200  0.07629100  0.59953200  1
  H  H31  1  0.76498200  0.07629100  0.90046800  1
  H  H32  1  0.87800800  0.70697100  0.14269400  1
  H  H33  1  0.87800800  0.70697100  0.35730600  1
  H  H34  1  0.93597800  0.66770000  0.50923900  1
  H  H35  1  0.93597800  0.66770000  0.99076100  1
  H  H36  1  0.94243900  0.63213700  0.64419700  1
  H  H37  1  0.94243900  0.63213700  0.85580300  1
  H  H38  1  0.98755900  0.79871500  0.60704100  1
  H  H39  1  0.98755900  0.79871500  0.89295900  1
  Se  Se40  1  0.10655700  0.01462500  0.75000000  1
  Se  Se41  1  0.39344300  0.51462500  0.25000000  1
  Se  Se42  1  0.60655700  0.48537500  0.75000000  1
  Se  Se43  1  0.89344300  0.98537500  0.25000000  1
  O  O44  1  0.00782900  0.69349600  0.58666300  1
  O  O45  1  0.00782900  0.69349600  0.91333700  1
  O  O46  1  0.02107900  0.03593500  0.14022300  1
  O  O47  1  0.02107900  0.03593500  0.35977700  1
  O  O48  1  0.12253100  0.19276900  0.75000000  1
  O  O49  1  0.13387100  0.36654800  0.58578900  1
  O  O50  1  0.13387100  0.36654800  0.91421100  1
  O  O51  1  0.15138200  0.43568300  0.25000000  1
  O  O52  1  0.34861800  0.93568300  0.75000000  1
  O  O53  1  0.36612900  0.86654800  0.08578900  1
  O  O54  1  0.36612900  0.86654800  0.41421100  1
  O  O55  1  0.37746900  0.69276900  0.25000000  1
  O  O56  1  0.47892100  0.53593500  0.64022300  1
  O  O57  1  0.47892100  0.53593500  0.85977700  1
  O  O58  1  0.49217100  0.19349600  0.08666300  1
  O  O59  1  0.49217100  0.19349600  0.41333700  1
  O  O60  1  0.50782900  0.80650400  0.58666300  1
  O  O61  1  0.50782900  0.80650400  0.91333700  1
  O  O62  1  0.52107900  0.46406500  0.14022300  1
  O  O63  1  0.52107900  0.46406500  0.35977700  1
  O  O64  1  0.62253100  0.30723100  0.75000000  1
  O  O65  1  0.63387100  0.13345200  0.58578900  1
  O  O66  1  0.63387100  0.13345200  0.91421100  1
  O  O67  1  0.65138200  0.06431700  0.25000000  1
  O  O68  1  0.84861800  0.56431700  0.75000000  1
  O  O69  1  0.86612900  0.63345200  0.08578900  1
  O  O70  1  0.86612900  0.63345200  0.41421100  1
  O  O71  1  0.87746900  0.80723100  0.25000000  1
  O  O72  1  0.97892100  0.96406500  0.64022300  1
  O  O73  1  0.97892100  0.96406500  0.85977700  1
  O  O74  1  0.99217100  0.30650400  0.08666300  1
  O  O75  1  0.99217100  0.30650400  0.41333700  1
