# generated using pymatgen
data_LiVCrO4
_symmetry_space_group_name_H-M   'P 1'
_cell_length_a   5.97108640
_cell_length_b   5.93252373
_cell_length_c   5.92880457
_cell_angle_alpha   91.20556761
_cell_angle_beta   120.21362364
_cell_angle_gamma   59.74313867
_symmetry_Int_Tables_number   1
_chemical_formula_structural   LiVCrO4
_chemical_formula_sum   'Li2 V2 Cr2 O8'
_cell_volume   148.96581350
_cell_formula_units_Z   2
loop_
 _symmetry_equiv_pos_site_id
 _symmetry_equiv_pos_as_xyz
  1  'x, y, z'
loop_
 _atom_site_type_symbol
 _atom_site_label
 _atom_site_symmetry_multiplicity
 _atom_site_fract_x
 _atom_site_fract_y
 _atom_site_fract_z
 _atom_site_occupancy
  Li  Li0  1  0.25001000  0.12619800  0.12646700  1
  Li  Li1  1  0.74999100  0.87380400  0.87353700  1
  V  V2  1  0.00000000  0.50000500  0.50000100  1
  V  V3  1  0.50000100  0.49999700  0.49999900  1
  Cr  Cr4  1  0.49999900  0.49999800  0.99999500  1
  Cr  Cr5  1  0.00001200  0.99999100  0.50000900  1
  O  O6  1  0.52233200  0.26970400  0.27004800  1
  O  O7  1  0.97735800  0.26922000  0.26935300  1
  O  O8  1  0.02263000  0.73079400  0.73063300  1
  O  O9  1  0.47766700  0.73029200  0.72995400  1
  O  O10  1  0.97313400  0.27030400  0.71473900  1
  O  O11  1  0.52744400  0.71491300  0.26999800  1
  O  O12  1  0.02687100  0.72969500  0.28526100  1
  O  O13  1  0.47255100  0.28508400  0.73000500  1
