# generated using pymatgen
data_Ba(PdO2)2
_symmetry_space_group_name_H-M   'P 1'
_cell_length_a   6.90436600
_cell_length_b   6.90436600
_cell_length_c   6.90436600
_cell_angle_alpha   124.99145686
_cell_angle_beta   124.99145686
_cell_angle_gamma   81.55218356
_symmetry_Int_Tables_number   1
_chemical_formula_structural   Ba(PdO2)2
_chemical_formula_sum   'Ba2 Pd4 O8'
_cell_volume   212.62601216
_cell_formula_units_Z   2
loop_
 _symmetry_equiv_pos_site_id
 _symmetry_equiv_pos_as_xyz
  1  'x, y, z'
loop_
 _atom_site_type_symbol
 _atom_site_label
 _atom_site_symmetry_multiplicity
 _atom_site_fract_x
 _atom_site_fract_y
 _atom_site_fract_z
 _atom_site_occupancy
  Ba  Ba0  1  0.75000000  0.25000000  0.50000000  1
  Ba  Ba1  1  0.00000000  0.00000000  0.00000000  1
  Pd  Pd2  1  0.87500000  0.62500000  0.25000000  1
  Pd  Pd3  1  0.37500000  0.12500000  0.75000000  1
  Pd  Pd4  1  0.37500000  0.62500000  0.25000000  1
  Pd  Pd5  1  0.37500000  0.62500000  0.75000000  1
  O  O6  1  0.35554200  0.44352700  0.38518500  1
  O  O7  1  0.19352700  0.30834200  0.58798600  1
  O  O8  1  0.72035600  0.60554200  0.41201400  1
  O  O9  1  0.69165800  0.27964400  0.88518500  1
  O  O10  1  0.05834200  0.97035600  0.61481500  1
  O  O11  1  0.02964400  0.64445800  0.08798600  1
  O  O12  1  0.55647300  0.94165800  0.91201400  1
  O  O13  1  0.39445800  0.80647300  0.11481500  1
