# generated using pymatgen
data_CsPrHgSe3
_symmetry_space_group_name_H-M   'P 1'
_cell_length_a   8.48733253
_cell_length_b   8.48733253
_cell_length_c   11.47397300
_cell_angle_alpha   90.00000000
_cell_angle_beta   90.00000000
_cell_angle_gamma   149.71670666
_symmetry_Int_Tables_number   1
_chemical_formula_structural   CsPrHgSe3
_chemical_formula_sum   'Cs2 Pr2 Hg2 Se6'
_cell_volume   416.79685011
_cell_formula_units_Z   2
loop_
 _symmetry_equiv_pos_site_id
 _symmetry_equiv_pos_as_xyz
  1  'x, y, z'
loop_
 _atom_site_type_symbol
 _atom_site_label
 _atom_site_symmetry_multiplicity
 _atom_site_fract_x
 _atom_site_fract_y
 _atom_site_fract_z
 _atom_site_occupancy
  Cs  Cs0  1  0.25515500  0.74484500  0.75000000  1
  Cs  Cs1  1  0.74484500  0.25515500  0.25000000  1
  Pr  Pr2  1  0.00000000  0.00000000  0.50000000  1
  Pr  Pr3  1  0.00000000  0.00000000  0.00000000  1
  Hg  Hg4  1  0.45853100  0.54146900  0.25000000  1
  Hg  Hg5  1  0.54146900  0.45853100  0.75000000  1
  Se  Se6  1  0.06285600  0.93714400  0.25000000  1
  Se  Se7  1  0.93714400  0.06285600  0.75000000  1
  Se  Se8  1  0.62137200  0.37862800  0.54963100  1
  Se  Se9  1  0.62137200  0.37862800  0.95036900  1
  Se  Se10  1  0.37862800  0.62137200  0.04963100  1
  Se  Se11  1  0.37862800  0.62137200  0.45036900  1
