# generated using pymatgen
data_LiTa3O8
_symmetry_space_group_name_H-M   'P 1'
_cell_length_a   7.55570676
_cell_length_b   7.55570676
_cell_length_c   5.10594847
_cell_angle_alpha   89.32880721
_cell_angle_beta   89.32880721
_cell_angle_gamma   101.77980019
_symmetry_Int_Tables_number   1
_chemical_formula_structural   LiTa3O8
_chemical_formula_sum   'Li2 Ta6 O16'
_cell_volume   285.30378873
_cell_formula_units_Z   2
loop_
 _symmetry_equiv_pos_site_id
 _symmetry_equiv_pos_as_xyz
  1  'x, y, z'
loop_
 _atom_site_type_symbol
 _atom_site_label
 _atom_site_symmetry_multiplicity
 _atom_site_fract_x
 _atom_site_fract_y
 _atom_site_fract_z
 _atom_site_occupancy
  Li  Li0  1  0.84475600  0.15524400  0.75000000  1
  Li  Li1  1  0.15524400  0.84475600  0.25000000  1
  Ta  Ta2  1  0.32994800  0.67005200  0.75000000  1
  Ta  Ta3  1  0.67005200  0.32994800  0.25000000  1
  Ta  Ta4  1  0.84440900  0.67216400  0.74459300  1
  Ta  Ta5  1  0.32783600  0.15559100  0.75540700  1
  Ta  Ta6  1  0.15559100  0.32783600  0.25540700  1
  Ta  Ta7  1  0.67216400  0.84440900  0.24459300  1
  O  O8  1  0.07942100  0.68652400  0.60856900  1
  O  O9  1  0.31347600  0.92057900  0.89143100  1
  O  O10  1  0.92057900  0.31347600  0.39143100  1
  O  O11  1  0.68652400  0.07942100  0.10856900  1
  O  O12  1  0.19557200  0.09893800  0.43858200  1
  O  O13  1  0.90106200  0.80442800  0.06141800  1
  O  O14  1  0.80442800  0.90106200  0.56141800  1
  O  O15  1  0.09893800  0.19557200  0.93858200  1
  O  O16  1  0.43961400  0.79247700  0.42488200  1
  O  O17  1  0.20752300  0.56038600  0.07511800  1
  O  O18  1  0.56038600  0.20752300  0.57511800  1
  O  O19  1  0.79247700  0.43961400  0.92488200  1
  O  O20  1  0.43231400  0.30257100  0.08292800  1
  O  O21  1  0.69742900  0.56768600  0.41707200  1
  O  O22  1  0.56768600  0.69742900  0.91707200  1
  O  O23  1  0.30257100  0.43231400  0.58292800  1
