# generated using pymatgen
data_KH(IO3)2
_symmetry_space_group_name_H-M   'P 1'
_cell_length_a   8.32355600
_cell_length_b   7.15361400
_cell_length_c   22.22918032
_cell_angle_alpha   81.89766960
_cell_angle_beta   90.00000000
_cell_angle_gamma   90.00000000
_symmetry_Int_Tables_number   1
_chemical_formula_structural   KH(IO3)2
_chemical_formula_sum   'K8 H8 I16 O48'
_cell_volume   1310.39104162
_cell_formula_units_Z   8
loop_
 _symmetry_equiv_pos_site_id
 _symmetry_equiv_pos_as_xyz
  1  'x, y, z'
loop_
 _atom_site_type_symbol
 _atom_site_label
 _atom_site_symmetry_multiplicity
 _atom_site_fract_x
 _atom_site_fract_y
 _atom_site_fract_z
 _atom_site_occupancy
  K  K0  1  0.37540800  0.75086000  0.00363900  1
  K  K1  1  0.87540800  0.24914000  0.49636100  1
  K  K2  1  0.62459200  0.24914000  0.99636100  1
  K  K3  1  0.12459200  0.75086000  0.50363900  1
  K  K4  1  0.11230800  0.85513100  0.17129300  1
  K  K5  1  0.61230800  0.14486900  0.32870700  1
  K  K6  1  0.88769200  0.14486900  0.82870700  1
  K  K7  1  0.38769200  0.85513100  0.67129300  1
  H  H8  1  0.82310600  0.46025300  0.25128800  1
  H  H9  1  0.32310600  0.53974700  0.24871200  1
  H  H10  1  0.17689400  0.53974700  0.74871100  1
  H  H11  1  0.67689400  0.46025300  0.75128900  1
  H  H12  1  0.34469200  0.22442600  0.24762500  1
  H  H13  1  0.84469200  0.77557400  0.25237500  1
  H  H14  1  0.65530800  0.77557400  0.75237500  1
  H  H15  1  0.15530800  0.22442600  0.74762500  1
  I  I16  1  0.60418900  0.83239400  0.15645900  1
  I  I17  1  0.10418900  0.16760600  0.34354100  1
  I  I18  1  0.39581100  0.16760600  0.84354100  1
  I  I19  1  0.89581100  0.83239400  0.65645900  1
  I  I20  1  0.88758700  0.77038700  0.99915500  1
  I  I21  1  0.38758700  0.22961300  0.50084500  1
  I  I22  1  0.11241300  0.22961300  0.00084500  1
  I  I23  1  0.61241300  0.77038700  0.49915500  1
  I  I24  1  0.86788100  0.33258800  0.15595900  1
  I  I25  1  0.36788100  0.66741200  0.34404100  1
  I  I26  1  0.13211900  0.66741200  0.84404100  1
  I  I27  1  0.63211900  0.33258800  0.65595900  1
  I  I28  1  0.36101700  0.34745800  0.13570400  1
  I  I29  1  0.86101700  0.65254200  0.36429600  1
  I  I30  1  0.63898300  0.65254200  0.86429600  1
  I  I31  1  0.13898300  0.34745800  0.63570400  1
  O  O32  1  0.77168400  0.94422400  0.19256000  1
  O  O33  1  0.27168400  0.05577600  0.30744000  1
  O  O34  1  0.22831600  0.05577600  0.80744000  1
  O  O35  1  0.72831600  0.94422400  0.69256000  1
  O  O36  1  0.43589000  0.98627600  0.16841500  1
  O  O37  1  0.93589000  0.01372400  0.33158500  1
  O  O38  1  0.56411000  0.01372400  0.83158500  1
  O  O39  1  0.06411000  0.98627600  0.66841500  1
  O  O40  1  0.64218500  0.90279500  0.07549700  1
  O  O41  1  0.14218500  0.09720500  0.42450300  1
  O  O42  1  0.35781500  0.09720500  0.92450300  1
  O  O43  1  0.85781500  0.90279500  0.57549700  1
  O  O44  1  0.85896800  0.00585900  0.95672800  1
  O  O45  1  0.35896800  0.99414100  0.54327200  1
  O  O46  1  0.14103200  0.99414100  0.04327200  1
  O  O47  1  0.64103200  0.00585900  0.45672800  1
  O  O48  1  0.04752800  0.68073100  0.95352600  1
  O  O49  1  0.54752800  0.31926900  0.54647400  1
  O  O50  1  0.95247200  0.31926900  0.04647400  1
  O  O51  1  0.45247200  0.68073100  0.45352600  1
  O  O52  1  0.70868100  0.65024000  0.97324600  1
  O  O53  1  0.20868100  0.34976000  0.52675400  1
  O  O54  1  0.29131900  0.34976000  0.02675400  1
  O  O55  1  0.79131900  0.65024000  0.47324600  1
  O  O56  1  0.89166400  0.58524100  0.13579700  1
  O  O57  1  0.39166400  0.41475900  0.36420300  1
  O  O58  1  0.10833600  0.41475900  0.86420200  1
  O  O59  1  0.60833600  0.58524100  0.63579800  1
  O  O60  1  0.77330400  0.34994800  0.23485300  1
  O  O61  1  0.27330400  0.65005200  0.26514700  1
  O  O62  1  0.22669600  0.65005200  0.76514700  1
  O  O63  1  0.72669600  0.34994800  0.73485300  1
  O  O64  1  0.06679000  0.25707700  0.18398100  1
  O  O65  1  0.56679000  0.74292300  0.31601900  1
  O  O66  1  0.93321000  0.74292300  0.81601900  1
  O  O67  1  0.43321000  0.25707700  0.68398100  1
  O  O68  1  0.31228000  0.59649100  0.12646000  1
  O  O69  1  0.81228000  0.40350900  0.37354000  1
  O  O70  1  0.68772000  0.40350900  0.87354000  1
  O  O71  1  0.18772000  0.59649100  0.62646000  1
  O  O72  1  0.39842700  0.33949600  0.22453000  1
  O  O73  1  0.89842700  0.66050400  0.27547000  1
  O  O74  1  0.60157300  0.66050400  0.77547000  1
  O  O75  1  0.10157300  0.33949600  0.72453000  1
  O  O76  1  0.56796200  0.37495000  0.11018300  1
  O  O77  1  0.06796200  0.62505000  0.38981700  1
  O  O78  1  0.43203800  0.62505000  0.88981700  1
  O  O79  1  0.93203800  0.37495000  0.61018300  1
