# generated using pymatgen
data_Li2CoGe3O8
_symmetry_space_group_name_H-M   'P 1'
_cell_length_a   8.30044800
_cell_length_b   8.30044800
_cell_length_c   8.30044800
_cell_angle_alpha   90.00000000
_cell_angle_beta   90.00000000
_cell_angle_gamma   90.00000000
_symmetry_Int_Tables_number   1
_chemical_formula_structural   Li2CoGe3O8
_chemical_formula_sum   'Li8 Co4 Ge12 O32'
_cell_volume   571.87959316
_cell_formula_units_Z   4
loop_
 _symmetry_equiv_pos_site_id
 _symmetry_equiv_pos_as_xyz
  1  'x, y, z'
loop_
 _atom_site_type_symbol
 _atom_site_label
 _atom_site_symmetry_multiplicity
 _atom_site_fract_x
 _atom_site_fract_y
 _atom_site_fract_z
 _atom_site_occupancy
  Li  Li0  1  0.00024600  0.00024600  0.00024600  1
  Li  Li1  1  0.99975400  0.50024600  0.49975400  1
  Li  Li2  1  0.12568900  0.87431100  0.37431100  1
  Li  Li3  1  0.37431100  0.12568900  0.87431100  1
  Li  Li4  1  0.50024600  0.49975400  0.99975400  1
  Li  Li5  1  0.49975400  0.99975400  0.50024600  1
  Li  Li6  1  0.62568900  0.62568900  0.62568900  1
  Li  Li7  1  0.87431100  0.37431100  0.12568900  1
  Co  Co8  1  0.24867900  0.24867900  0.24867900  1
  Co  Co9  1  0.25132100  0.75132100  0.74867900  1
  Co  Co10  1  0.74867900  0.25132100  0.75132100  1
  Co  Co11  1  0.75132100  0.74867900  0.25132100  1
  Ge  Ge12  1  0.13014500  0.12459300  0.62792700  1
  Ge  Ge13  1  0.12459300  0.62792700  0.13014500  1
  Ge  Ge14  1  0.12792700  0.36985500  0.87540700  1
  Ge  Ge15  1  0.37540700  0.37207300  0.63014500  1
  Ge  Ge16  1  0.37207300  0.63014500  0.37540700  1
  Ge  Ge17  1  0.36985500  0.87540700  0.12792700  1
  Ge  Ge18  1  0.62792700  0.13014500  0.12459300  1
  Ge  Ge19  1  0.63014500  0.37540700  0.37207300  1
  Ge  Ge20  1  0.62459300  0.87207300  0.86985500  1
  Ge  Ge21  1  0.87540700  0.12792700  0.36985500  1
  Ge  Ge22  1  0.86985500  0.62459300  0.87207300  1
  Ge  Ge23  1  0.87207300  0.86985500  0.62459300  1
  O  O24  1  0.12828900  0.39333800  0.10201900  1
  O  O25  1  0.13648900  0.36351100  0.63648900  1
  O  O26  1  0.14709000  0.85644700  0.11928500  1
  O  O27  1  0.10666200  0.89798100  0.62828900  1
  O  O28  1  0.10201900  0.12828900  0.39333800  1
  O  O29  1  0.11928500  0.14709000  0.85644700  1
  O  O30  1  0.14355300  0.61928500  0.35291000  1
  O  O31  1  0.11156800  0.61156800  0.88843200  1
  O  O32  1  0.39333800  0.10201900  0.12828900  1
  O  O33  1  0.38843200  0.38843200  0.38843200  1
  O  O34  1  0.35291000  0.14355300  0.61928500  1
  O  O35  1  0.35644700  0.38071500  0.85291000  1
  O  O36  1  0.36351100  0.63648900  0.13648900  1
  O  O37  1  0.38071500  0.85291000  0.35644700  1
  O  O38  1  0.37171100  0.60666200  0.60201900  1
  O  O39  1  0.39798100  0.87171100  0.89333800  1
  O  O40  1  0.63648900  0.13648900  0.36351100  1
  O  O41  1  0.62828900  0.10666200  0.89798100  1
  O  O42  1  0.61928500  0.35291000  0.14355300  1
  O  O43  1  0.60201900  0.37171100  0.60666200  1
  O  O44  1  0.60666200  0.60201900  0.37171100  1
  O  O45  1  0.64709000  0.64355300  0.88071500  1
  O  O46  1  0.61156800  0.88843200  0.11156800  1
  O  O47  1  0.64355300  0.88071500  0.64709000  1
  O  O48  1  0.85644700  0.11928500  0.14709000  1
  O  O49  1  0.88843200  0.11156800  0.61156800  1
  O  O50  1  0.85291000  0.35644700  0.38071500  1
  O  O51  1  0.89333800  0.39798100  0.87171100  1
  O  O52  1  0.89798100  0.62828900  0.10666200  1
  O  O53  1  0.88071500  0.64709000  0.64355300  1
  O  O54  1  0.87171100  0.89333800  0.39798100  1
  O  O55  1  0.86351100  0.86351100  0.86351100  1
