# generated using pymatgen
data_K2Zn(H2N)4
_symmetry_space_group_name_H-M   'P 1'
_cell_length_a   6.93209000
_cell_length_b   7.50022904
_cell_length_c   8.13035550
_cell_angle_alpha   108.04058310
_cell_angle_beta   84.17991551
_cell_angle_gamma   115.82156295
_symmetry_Int_Tables_number   1
_chemical_formula_structural   K2Zn(H2N)4
_chemical_formula_sum   'K4 Zn2 H16 N8'
_cell_volume   361.52564818
_cell_formula_units_Z   2
loop_
 _symmetry_equiv_pos_site_id
 _symmetry_equiv_pos_as_xyz
  1  'x, y, z'
loop_
 _atom_site_type_symbol
 _atom_site_label
 _atom_site_symmetry_multiplicity
 _atom_site_fract_x
 _atom_site_fract_y
 _atom_site_fract_z
 _atom_site_occupancy
  K  K0  1  0.25173800  0.50238800  0.13938300  1
  K  K1  1  0.74826200  0.49761200  0.86061700  1
  K  K2  1  0.30639500  0.57420400  0.68755900  1
  K  K3  1  0.69360500  0.42579600  0.31244100  1
  Zn  Zn4  1  0.22335600  0.10675600  0.76502600  1
  Zn  Zn5  1  0.77664400  0.89324400  0.23497400  1
  H  H6  1  0.08046500  0.79878300  0.08380600  1
  H  H7  1  0.91953500  0.20121700  0.91619400  1
  H  H8  1  0.09578400  0.83353500  0.28723400  1
  H  H9  1  0.90421600  0.16646500  0.71276600  1
  H  H10  1  0.48413700  0.10219300  0.94874900  1
  H  H11  1  0.51586300  0.89780700  0.05125100  1
  H  H12  1  0.28643200  0.11205900  0.06297300  1
  H  H13  1  0.71356800  0.88794100  0.93702700  1
  H  H14  1  0.31658100  0.16449900  0.47824400  1
  H  H15  1  0.68341900  0.83550100  0.52175600  1
  H  H16  1  0.51335500  0.14031600  0.54066600  1
  H  H17  1  0.48664500  0.85968400  0.45933400  1
  H  H18  1  0.09642300  0.20705300  0.35338100  1
  H  H19  1  0.90357700  0.79294700  0.64661900  1
  H  H20  1  0.09428100  0.74438100  0.54763700  1
  H  H21  1  0.90571900  0.25561900  0.45236300  1
  N  N22  1  0.01248600  0.24598400  0.81618400  1
  N  N23  1  0.98751400  0.75401600  0.18381600  1
  N  N24  1  0.40121200  0.19277600  0.98919100  1
  N  N25  1  0.59878800  0.80722400  0.01080900  1
  N  N26  1  0.42486400  0.22559600  0.58098700  1
  N  N27  1  0.57513600  0.77440400  0.41901300  1
  N  N28  1  0.04333800  0.78669400  0.67097400  1
  N  N29  1  0.95666200  0.21330600  0.32902600  1
