# generated using pymatgen
data_K2V3P4H4O19
_symmetry_space_group_name_H-M   'P 1'
_cell_length_a   8.73170100
_cell_length_b   9.30987132
_cell_length_c   10.79081540
_cell_angle_alpha   89.95843241
_cell_angle_beta   113.31796036
_cell_angle_gamma   90.32774925
_symmetry_Int_Tables_number   1
_chemical_formula_structural   K2V3P4H4O19
_chemical_formula_sum   'K4 V6 P8 H8 O38'
_cell_volume   805.53466433
_cell_formula_units_Z   2
loop_
 _symmetry_equiv_pos_site_id
 _symmetry_equiv_pos_as_xyz
  1  'x, y, z'
loop_
 _atom_site_type_symbol
 _atom_site_label
 _atom_site_symmetry_multiplicity
 _atom_site_fract_x
 _atom_site_fract_y
 _atom_site_fract_z
 _atom_site_occupancy
  K  K0  1  0.25197300  0.17857800  0.49828300  1
  K  K1  1  0.25101800  0.61091600  0.99997000  1
  K  K2  1  0.74802700  0.82142200  0.50171700  1
  K  K3  1  0.74898200  0.38908400  0.00003000  1
  V  V4  1  0.11588500  0.24975800  0.78659800  1
  V  V5  1  0.27595800  0.74406900  0.51000600  1
  V  V6  1  0.35639000  0.24636200  0.16566600  1
  V  V7  1  0.64361000  0.75363800  0.83433400  1
  V  V8  1  0.72404200  0.25593100  0.48999400  1
  V  V9  1  0.88411500  0.75024200  0.21340200  1
  P  P10  1  0.30259500  0.94981400  0.76264700  1
  P  P11  1  0.14653000  0.50263800  0.26657200  1
  P  P12  1  0.35607500  0.50345600  0.73298700  1
  P  P13  1  0.19901300  0.95229800  0.23734300  1
  P  P14  1  0.80098700  0.04770200  0.76265700  1
  P  P15  1  0.64392500  0.49654400  0.26701300  1
  P  P16  1  0.85347000  0.49736200  0.73342800  1
  P  P17  1  0.69740500  0.05018600  0.23735300  1
  H  H18  1  0.03962400  0.58137000  0.64605100  1
  H  H19  1  0.13074400  0.92861300  0.86079000  1
  H  H20  1  0.54427800  0.42125100  0.64815700  1
  H  H21  1  0.62483500  0.06760900  0.85485600  1
  H  H22  1  0.37516500  0.93239100  0.14514400  1
  H  H23  1  0.45572200  0.57874900  0.35184300  1
  H  H24  1  0.86925600  0.07138700  0.13921000  1
  H  H25  1  0.96037600  0.41863000  0.35394900  1
  O  O26  1  0.01225200  0.73684400  0.38127200  1
  O  O27  1  0.22528400  0.87165100  0.85704200  1
  O  O28  1  0.05943700  0.39483700  0.33303500  1
  O  O29  1  0.01050400  0.91882500  0.17783100  1
  O  O30  1  0.01935600  0.60119600  0.16137400  1
  O  O31  1  0.27534000  0.40997600  0.80668500  1
  O  O32  1  0.21767400  0.58837700  0.61995800  1
  O  O33  1  0.27928500  0.11268500  0.76638000  1
  O  O34  1  0.21631900  0.89548300  0.61642400  1
  O  O35  1  0.28361500  0.90150200  0.38419600  1
  O  O36  1  0.22433700  0.11519400  0.23214800  1
  O  O37  1  0.28525000  0.59028800  0.37757400  1
  O  O38  1  0.22870000  0.41024600  0.19460300  1
  O  O39  1  0.48115500  0.60302300  0.83922600  1
  O  O40  1  0.49090900  0.91865500  0.82229900  1
  O  O41  1  0.44372200  0.39554000  0.66822400  1
  O  O42  1  0.27622000  0.87286800  0.14414100  1
  O  O43  1  0.25053900  0.23320600  0.99801700  1
  O  O44  1  0.48143900  0.73831800  0.61019100  1
  O  O45  1  0.51856100  0.26168200  0.38980900  1
  O  O46  1  0.72378000  0.12713200  0.85585900  1
  O  O47  1  0.55627800  0.60446000  0.33177600  1
  O  O48  1  0.50909100  0.08134500  0.17770100  1
  O  O49  1  0.51884500  0.39697700  0.16077400  1
  O  O50  1  0.77130000  0.58975400  0.80539700  1
  O  O51  1  0.71475000  0.40971200  0.62242600  1
  O  O52  1  0.77566300  0.88480600  0.76785200  1
  O  O53  1  0.71638500  0.09849800  0.61580400  1
  O  O54  1  0.78368100  0.10451700  0.38357600  1
  O  O55  1  0.72071500  0.88731500  0.23362000  1
  O  O56  1  0.78232600  0.41162300  0.38004200  1
  O  O57  1  0.72466000  0.59002400  0.19331500  1
  O  O58  1  0.98064400  0.39880400  0.83862600  1
  O  O59  1  0.98949600  0.08117500  0.82216900  1
  O  O60  1  0.94056300  0.60516300  0.66696500  1
  O  O61  1  0.77471600  0.12834900  0.14295800  1
  O  O62  1  0.74946100  0.76679400  0.00198300  1
  O  O63  1  0.98774800  0.26315600  0.61872800  1
