# generated using pymatgen
data_Tm(CuO2)2
_symmetry_space_group_name_H-M   'P 1'
_cell_length_a   6.22217811
_cell_length_b   6.22217811
_cell_length_c   6.22217811
_cell_angle_alpha   126.15312419
_cell_angle_beta   126.15312419
_cell_angle_gamma   79.63661635
_symmetry_Int_Tables_number   1
_chemical_formula_structural   Tm(CuO2)2
_chemical_formula_sum   'Tm2 Cu4 O8'
_cell_volume   151.74172000
_cell_formula_units_Z   2
loop_
 _symmetry_equiv_pos_site_id
 _symmetry_equiv_pos_as_xyz
  1  'x, y, z'
loop_
 _atom_site_type_symbol
 _atom_site_label
 _atom_site_symmetry_multiplicity
 _atom_site_fract_x
 _atom_site_fract_y
 _atom_site_fract_z
 _atom_site_occupancy
  Tm  Tm0  1  0.75000000  0.25000000  0.50000000  1
  Tm  Tm1  1  0.00000000  0.00000000  0.00000000  1
  Cu  Cu2  1  0.37500000  0.62500000  0.25000000  1
  Cu  Cu3  1  0.37500000  0.62500000  0.75000000  1
  Cu  Cu4  1  0.87500000  0.62500000  0.25000000  1
  Cu  Cu5  1  0.37500000  0.12500000  0.75000000  1
  O  O6  1  0.14932700  0.59836800  0.85437200  1
  O  O7  1  0.74399600  0.29495600  0.14562800  1
  O  O8  1  0.34836800  0.99399600  0.94904000  1
  O  O9  1  0.70504400  0.85067300  0.44904000  1
  O  O10  1  0.04495600  0.39932700  0.05096000  1
  O  O11  1  0.40163200  0.25600400  0.55096000  1
  O  O12  1  0.00600400  0.95504400  0.35437200  1
  O  O13  1  0.60067300  0.65163200  0.64562800  1
