# generated using pymatgen
data_DySeO3
_symmetry_space_group_name_H-M   'P 1'
_cell_length_a   12.45147700
_cell_length_b   6.02112600
_cell_length_c   8.87190807
_cell_angle_alpha   73.58259327
_cell_angle_beta   90.00000000
_cell_angle_gamma   90.00000000
_symmetry_Int_Tables_number   1
_chemical_formula_structural   DySeO3
_chemical_formula_sum   'Dy8 Se8 O24'
_cell_volume   638.02476513
_cell_formula_units_Z   8
loop_
 _symmetry_equiv_pos_site_id
 _symmetry_equiv_pos_as_xyz
  1  'x, y, z'
loop_
 _atom_site_type_symbol
 _atom_site_label
 _atom_site_symmetry_multiplicity
 _atom_site_fract_x
 _atom_site_fract_y
 _atom_site_fract_z
 _atom_site_occupancy
  Dy  Dy0  1  0.55931900  0.76054300  0.91330000  1
  Dy  Dy1  1  0.94068100  0.76054300  0.41330100  1
  Dy  Dy2  1  0.24100600  0.63739600  0.85600300  1
  Dy  Dy3  1  0.25899400  0.63739600  0.35600300  1
  Dy  Dy4  1  0.74100600  0.36260400  0.64399700  1
  Dy  Dy5  1  0.75899400  0.36260400  0.14399700  1
  Dy  Dy6  1  0.05931900  0.23945700  0.58670000  1
  Dy  Dy7  1  0.44068100  0.23945700  0.08670000  1
  Se  Se8  1  0.84062900  0.95366700  0.00398300  1
  Se  Se9  1  0.65937100  0.95366700  0.50398300  1
  Se  Se10  1  0.98489500  0.62757700  0.82379600  1
  Se  Se11  1  0.51510500  0.62757700  0.32379600  1
  Se  Se12  1  0.48489500  0.37242300  0.67620400  1
  Se  Se13  1  0.01510500  0.37242300  0.17620400  1
  Se  Se14  1  0.34062900  0.04633300  0.49601700  1
  Se  Se15  1  0.15937100  0.04633300  0.99601700  1
  O  O16  1  0.17252400  0.01626300  0.80833900  1
  O  O17  1  0.32747600  0.01626300  0.30833900  1
  O  O18  1  0.98172500  0.86578900  0.64706500  1
  O  O19  1  0.27259900  0.78797200  0.58717100  1
  O  O20  1  0.75536600  0.74939400  0.49950100  1
  O  O21  1  0.51827500  0.86578900  0.14706500  1
  O  O22  1  0.40470600  0.59221000  0.92031900  1
  O  O23  1  0.22740100  0.78797200  0.08717100  1
  O  O24  1  0.74463400  0.74939400  0.99950100  1
  O  O25  1  0.59146000  0.55207900  0.71769500  1
  O  O26  1  0.09529400  0.59221000  0.42031900  1
  O  O27  1  0.09146000  0.44792100  0.78230500  1
  O  O28  1  0.90854000  0.55207900  0.21769500  1
  O  O29  1  0.90470600  0.40779000  0.57968100  1
  O  O30  1  0.40854000  0.44792100  0.28230500  1
  O  O31  1  0.25536600  0.25060600  0.00049900  1
  O  O32  1  0.77259900  0.21202800  0.91282900  1
  O  O33  1  0.59529400  0.40779000  0.07968100  1
  O  O34  1  0.48172500  0.13421100  0.85293500  1
  O  O35  1  0.24463400  0.25060600  0.50049900  1
  O  O36  1  0.72740100  0.21202800  0.41282900  1
  O  O37  1  0.01827500  0.13421100  0.35293500  1
  O  O38  1  0.67252400  0.98373700  0.69166100  1
  O  O39  1  0.82747600  0.98373700  0.19166100  1
