# generated using pymatgen
data_Ta3O7F
_symmetry_space_group_name_H-M   'P 1'
_cell_length_a   6.30989176
_cell_length_b   6.30989176
_cell_length_c   3.88686300
_cell_angle_alpha   90.00000000
_cell_angle_beta   90.00000000
_cell_angle_gamma   117.93540126
_symmetry_Int_Tables_number   1
_chemical_formula_structural   Ta3O7F
_chemical_formula_sum   'Ta3 O7 F1'
_cell_volume   136.72186596
_cell_formula_units_Z   1
loop_
 _symmetry_equiv_pos_site_id
 _symmetry_equiv_pos_as_xyz
  1  'x, y, z'
loop_
 _atom_site_type_symbol
 _atom_site_label
 _atom_site_symmetry_multiplicity
 _atom_site_fract_x
 _atom_site_fract_y
 _atom_site_fract_z
 _atom_site_occupancy
  Ta  Ta0  1  0.00000000  0.00000000  0.00000000  1
  Ta  Ta1  1  0.69865500  0.30134500  0.00000000  1
  Ta  Ta2  1  0.30134500  0.69865500  0.00000000  1
  O  O3  1  0.33805900  0.04605300  0.00000000  1
  O  O4  1  0.04605300  0.33805900  0.00000000  1
  O  O5  1  0.00000000  0.00000000  0.50000000  1
  O  O6  1  0.68895300  0.31104700  0.50000000  1
  O  O7  1  0.31104700  0.68895300  0.50000000  1
  O  O8  1  0.66194100  0.95394700  0.00000000  1
  O  O9  1  0.95394700  0.66194100  0.00000000  1
  F  F10  1  0.50000000  0.50000000  0.00000000  1
