# generated using pymatgen
data_KY(H2N)4
_symmetry_space_group_name_H-M   'P 1'
_cell_length_a   9.22860115
_cell_length_b   9.22860115
_cell_length_c   6.03997100
_cell_angle_alpha   78.59207746
_cell_angle_beta   78.59207746
_cell_angle_gamma   133.00845039
_symmetry_Int_Tables_number   1
_chemical_formula_structural   KY(H2N)4
_chemical_formula_sum   'K2 Y2 H16 N8'
_cell_volume   326.60421719
_cell_formula_units_Z   2
loop_
 _symmetry_equiv_pos_site_id
 _symmetry_equiv_pos_as_xyz
  1  'x, y, z'
loop_
 _atom_site_type_symbol
 _atom_site_label
 _atom_site_symmetry_multiplicity
 _atom_site_fract_x
 _atom_site_fract_y
 _atom_site_fract_z
 _atom_site_occupancy
  K  K0  1  0.69465100  0.30534900  0.25000000  1
  K  K1  1  0.30534900  0.69465100  0.75000000  1
  Y  Y2  1  0.06472800  0.93527200  0.75000000  1
  Y  Y3  1  0.93527200  0.06472800  0.25000000  1
  H  H4  1  0.66490000  0.61943000  0.28488900  1
  H  H5  1  0.78857900  0.50145500  0.73310900  1
  H  H6  1  0.87270000  0.70585200  0.33541200  1
  H  H7  1  0.38057000  0.33510000  0.21511100  1
  H  H8  1  0.95666700  0.34866800  0.45159700  1
  H  H9  1  0.65133200  0.04333300  0.04840300  1
  H  H10  1  0.29414800  0.12730000  0.16458800  1
  H  H11  1  0.50145500  0.78857900  0.23310900  1
  H  H12  1  0.49854500  0.21142100  0.76689100  1
  H  H13  1  0.70585200  0.87270000  0.83541200  1
  H  H14  1  0.34866800  0.95666700  0.95159700  1
  H  H15  1  0.04333300  0.65133200  0.54840300  1
  H  H16  1  0.61943000  0.66490000  0.78488900  1
  H  H17  1  0.12730000  0.29414800  0.66458800  1
  H  H18  1  0.21142100  0.49854500  0.26689100  1
  H  H19  1  0.33510000  0.38057000  0.71511100  1
  N  N20  1  0.94716200  0.62112800  0.71404100  1
  N  N21  1  0.83562000  0.74618300  0.20355300  1
  N  N22  1  0.62112800  0.94716200  0.21404100  1
  N  N23  1  0.25381700  0.16438000  0.29644700  1
  N  N24  1  0.74618300  0.83562000  0.70355300  1
  N  N25  1  0.37887200  0.05283800  0.78595900  1
  N  N26  1  0.16438000  0.25381700  0.79644700  1
  N  N27  1  0.05283800  0.37887200  0.28595900  1
