# generated using pymatgen
data_Sr21Fe14O47
_symmetry_space_group_name_H-M   'P 1'
_cell_length_a   8.76569200
_cell_length_b   11.94180457
_cell_length_c   12.39797680
_cell_angle_alpha   108.14149021
_cell_angle_beta   98.13700826
_cell_angle_gamma   111.52659558
_symmetry_Int_Tables_number   1
_chemical_formula_structural   Sr21Fe14O47
_chemical_formula_sum   'Sr21 Fe14 O47'
_cell_volume   1098.18252145
_cell_formula_units_Z   1
loop_
 _symmetry_equiv_pos_site_id
 _symmetry_equiv_pos_as_xyz
  1  'x, y, z'
loop_
 _atom_site_type_symbol
 _atom_site_label
 _atom_site_symmetry_multiplicity
 _atom_site_fract_x
 _atom_site_fract_y
 _atom_site_fract_z
 _atom_site_occupancy
  Sr  Sr0  1  0.00000000  0.00000000  0.00000000  1
  Sr  Sr1  1  0.84781800  0.99997200  0.28895300  1
  Sr  Sr2  1  0.35441400  0.36578600  0.84432100  1
  Sr  Sr3  1  0.64558600  0.63421400  0.15567900  1
  Sr  Sr4  1  0.50592500  0.63745300  0.44094600  1
  Sr  Sr5  1  0.79091200  0.63293700  0.86912600  1
  Sr  Sr6  1  0.49407500  0.36254700  0.55905400  1
  Sr  Sr7  1  0.29006200  0.99966400  0.43521200  1
  Sr  Sr8  1  0.77725200  0.36205400  0.98661600  1
  Sr  Sr9  1  0.56118500  0.99958700  0.85889500  1
  Sr  Sr10  1  0.15218200  0.00002800  0.71104700  1
  Sr  Sr11  1  0.43881500  0.00041300  0.14110500  1
  Sr  Sr12  1  0.63883900  0.36574200  0.27339400  1
  Sr  Sr13  1  0.07845400  0.63377800  0.29892500  1
  Sr  Sr14  1  0.93522400  0.63461400  0.58314900  1
  Sr  Sr15  1  0.22274800  0.63794600  0.01338400  1
  Sr  Sr16  1  0.06477600  0.36538600  0.41685100  1
  Sr  Sr17  1  0.20908800  0.36706300  0.13087400  1
  Sr  Sr18  1  0.92154600  0.36622200  0.70107500  1
  Sr  Sr19  1  0.70993800  0.00033600  0.56478800  1
  Sr  Sr20  1  0.36116100  0.63425800  0.72660600  1
  Fe  Fe21  1  0.39339200  0.19229200  0.99785200  1
  Fe  Fe22  1  0.26270200  0.20995200  0.28918100  1
  Fe  Fe23  1  0.10924700  0.19183000  0.56873100  1
  Fe  Fe24  1  0.73729800  0.79004800  0.71081900  1
  Fe  Fe25  1  0.17400400  0.80778700  0.86010100  1
  Fe  Fe26  1  0.02225100  0.78993500  0.13975100  1
  Fe  Fe27  1  0.89075300  0.80817000  0.43126900  1
  Fe  Fe28  1  0.68111600  0.19425300  0.42589600  1
  Fe  Fe29  1  0.54102800  0.19367700  0.71257700  1
  Fe  Fe30  1  0.82599600  0.19221300  0.13989900  1
  Fe  Fe31  1  0.97774900  0.21006500  0.86024900  1
  Fe  Fe32  1  0.31888400  0.80574700  0.57410400  1
  Fe  Fe33  1  0.45897200  0.80632300  0.28742300  1
  Fe  Fe34  1  0.60660800  0.80770800  0.00214800  1
  O  O35  1  0.16637900  0.17901300  0.91877300  1
  O  O36  1  0.68670900  0.82098900  0.85953100  1
  O  O37  1  0.50336300  0.61517400  0.93177200  1
  O  O38  1  0.46609000  0.19116200  0.85318000  1
  O  O39  1  0.49663700  0.38482600  0.06822800  1
  O  O40  1  0.36995000  0.39808100  0.35434500  1
  O  O41  1  0.96169600  0.82095900  0.79106500  1
  O  O42  1  0.67793300  0.80878400  0.36069400  1
  O  O43  1  0.28887300  0.99978200  0.92802000  1
  O  O44  1  0.17738600  0.18058800  0.41574300  1
  O  O45  1  0.00000000  0.00000000  0.50000000  1
  O  O46  1  0.31329100  0.17901100  0.14046900  1
  O  O47  1  0.83362100  0.82098700  0.08122700  1
  O  O48  1  0.63005000  0.60191900  0.64565500  1
  O  O49  1  0.32206700  0.19121600  0.63930600  1
  O  O50  1  0.05812300  0.61546700  0.79185800  1
  O  O51  1  0.10809700  0.82021000  0.01248900  1
  O  O52  1  0.91281700  0.60173200  0.07272200  1
  O  O53  1  0.82261400  0.81941200  0.58425700  1
  O  O54  1  0.60938000  0.19190100  0.06904200  1
  O  O55  1  0.97144400  0.82005900  0.28717900  1
  O  O56  1  0.45236400  0.17990000  0.34703300  1
  O  O57  1  0.78172400  0.61541200  0.36184100  1
  O  O58  1  0.89190300  0.17979000  0.98751100  1
  O  O59  1  0.94187700  0.38453300  0.20814200  1
  O  O60  1  0.60980500  0.19117800  0.56823100  1
  O  O61  1  0.78875000  0.38767900  0.49324300  1
  O  O62  1  0.65508000  0.38637000  0.78278400  1
  O  O63  1  0.42564800  0.00016600  0.64202500  1
  O  O64  1  0.10380200  0.80858200  0.50234100  1
  O  O65  1  0.75215800  0.19133600  0.28361100  1
  O  O66  1  0.57435200  0.99983400  0.35797500  1
  O  O67  1  0.71112700  0.00021800  0.07198000  1
  O  O68  1  0.24630700  0.82047400  0.21912700  1
  O  O69  1  0.39062000  0.80809900  0.93095800  1
  O  O70  1  0.08718300  0.39826800  0.92727800  1
  O  O71  1  0.39019500  0.80882200  0.43176900  1
  O  O72  1  0.34492000  0.61363000  0.21721600  1
  O  O73  1  0.21125000  0.61232100  0.50675700  1
  O  O74  1  0.03830400  0.17904100  0.20893500  1
  O  O75  1  0.75369300  0.17952600  0.78087300  1
  O  O76  1  0.53391000  0.80883800  0.14682000  1
  O  O77  1  0.24784200  0.80866400  0.71638900  1
  O  O78  1  0.89619800  0.19141800  0.49765900  1
  O  O79  1  0.21827600  0.38458800  0.63815900  1
  O  O80  1  0.02855600  0.17994100  0.71282100  1
  O  O81  1  0.54763600  0.82009900  0.65296700  1
