# generated using pymatgen
data_Li2MgTi3O8
_symmetry_space_group_name_H-M   'P 1'
_cell_length_a   8.45035000
_cell_length_b   8.45035000
_cell_length_c   8.45035000
_cell_angle_alpha   90.00000000
_cell_angle_beta   90.00000000
_cell_angle_gamma   90.00000000
_symmetry_Int_Tables_number   1
_chemical_formula_structural   Li2MgTi3O8
_chemical_formula_sum   'Li8 Mg4 Ti12 O32'
_cell_volume   603.42610073
_cell_formula_units_Z   4
loop_
 _symmetry_equiv_pos_site_id
 _symmetry_equiv_pos_as_xyz
  1  'x, y, z'
loop_
 _atom_site_type_symbol
 _atom_site_label
 _atom_site_symmetry_multiplicity
 _atom_site_fract_x
 _atom_site_fract_y
 _atom_site_fract_z
 _atom_site_occupancy
  Li  Li0  1  0.00240900  0.49759100  0.50240900  1
  Li  Li1  1  0.12455500  0.87544500  0.37544500  1
  Li  Li2  1  0.37544500  0.12455500  0.87544500  1
  Li  Li3  1  0.49759100  0.50240900  0.00240900  1
  Li  Li4  1  0.50240900  0.00240900  0.49759100  1
  Li  Li5  1  0.62455500  0.62455500  0.62455500  1
  Li  Li6  1  0.87544500  0.37544500  0.12455500  1
  Li  Li7  1  0.99759100  0.99759100  0.99759100  1
  Mg  Mg8  1  0.24706900  0.74706900  0.75293100  1
  Mg  Mg9  1  0.25293100  0.25293100  0.25293100  1
  Mg  Mg10  1  0.74706900  0.75293100  0.24706900  1
  Mg  Mg11  1  0.75293100  0.24706900  0.74706900  1
  Ti  Ti12  1  0.11985700  0.62681800  0.13416400  1
  Ti  Ti13  1  0.12681800  0.36583600  0.88014300  1
  Ti  Ti14  1  0.13416400  0.11985700  0.62681800  1
  Ti  Ti15  1  0.36583600  0.88014300  0.12681800  1
  Ti  Ti16  1  0.37318200  0.63416400  0.38014300  1
  Ti  Ti17  1  0.38014300  0.37318200  0.63416400  1
  Ti  Ti18  1  0.61985700  0.87318200  0.86583600  1
  Ti  Ti19  1  0.62681800  0.13416400  0.11985700  1
  Ti  Ti20  1  0.63416400  0.38014300  0.37318200  1
  Ti  Ti21  1  0.86583600  0.61985700  0.87318200  1
  Ti  Ti22  1  0.87318200  0.86583600  0.61985700  1
  Ti  Ti23  1  0.88014300  0.12681800  0.36583600  1
  O  O24  1  0.10701900  0.12818800  0.38946000  1
  O  O25  1  0.11180200  0.61180200  0.88819800  1
  O  O26  1  0.11054000  0.89298100  0.62818800  1
  O  O27  1  0.12211500  0.14418500  0.85890900  1
  O  O28  1  0.12818800  0.38946000  0.10701900  1
  O  O29  1  0.14109100  0.62211500  0.35581500  1
  O  O30  1  0.13878500  0.36121500  0.63878500  1
  O  O31  1  0.14418500  0.85890900  0.12211500  1
  O  O32  1  0.35581500  0.14109100  0.62211500  1
  O  O33  1  0.36121500  0.63878500  0.13878500  1
  O  O34  1  0.35890900  0.37788500  0.85581500  1
  O  O35  1  0.37181200  0.61054000  0.60701900  1
  O  O36  1  0.37788500  0.85581500  0.35890900  1
  O  O37  1  0.38946000  0.10701900  0.12818800  1
  O  O38  1  0.38819800  0.38819800  0.38819800  1
  O  O39  1  0.39298100  0.87181200  0.88946000  1
  O  O40  1  0.60701900  0.37181200  0.61054000  1
  O  O41  1  0.61180200  0.88819800  0.11180200  1
  O  O42  1  0.61054000  0.60701900  0.37181200  1
  O  O43  1  0.62211500  0.35581500  0.14109100  1
  O  O44  1  0.62818800  0.11054000  0.89298100  1
  O  O45  1  0.64109100  0.87788500  0.64418500  1
  O  O46  1  0.63878500  0.13878500  0.36121500  1
  O  O47  1  0.64418500  0.64109100  0.87788500  1
  O  O48  1  0.85581500  0.35890900  0.37788500  1
  O  O49  1  0.86121500  0.86121500  0.86121500  1
  O  O50  1  0.85890900  0.12211500  0.14418500  1
  O  O51  1  0.87181200  0.88946000  0.39298100  1
  O  O52  1  0.87788500  0.64418500  0.64109100  1
  O  O53  1  0.88946000  0.39298100  0.87181200  1
  O  O54  1  0.88819800  0.11180200  0.61180200  1
  O  O55  1  0.89298100  0.62818800  0.11054000  1
