# generated using pymatgen
data_Na5GaO4
_symmetry_space_group_name_H-M   'P 1'
_cell_length_a   6.00504900
_cell_length_b   10.45271400
_cell_length_c   18.17311000
_cell_angle_alpha   90.00000000
_cell_angle_beta   90.00000000
_cell_angle_gamma   90.00000000
_symmetry_Int_Tables_number   1
_chemical_formula_structural   Na5GaO4
_chemical_formula_sum   'Na40 Ga8 O32'
_cell_volume   1140.70902749
_cell_formula_units_Z   8
loop_
 _symmetry_equiv_pos_site_id
 _symmetry_equiv_pos_as_xyz
  1  'x, y, z'
loop_
 _atom_site_type_symbol
 _atom_site_label
 _atom_site_symmetry_multiplicity
 _atom_site_fract_x
 _atom_site_fract_y
 _atom_site_fract_z
 _atom_site_occupancy
  Na  Na0  1  0.92292000  0.19913800  0.35916800  1
  Na  Na1  1  0.42292000  0.80086200  0.14083200  1
  Na  Na2  1  0.57708000  0.69913800  0.64083200  1
  Na  Na3  1  0.07708000  0.30086200  0.85916800  1
  Na  Na4  1  0.07708000  0.80086200  0.64083200  1
  Na  Na5  1  0.57708000  0.19913800  0.85916800  1
  Na  Na6  1  0.42292000  0.30086200  0.35916800  1
  Na  Na7  1  0.92292000  0.69913800  0.14083200  1
  Na  Na8  1  0.91036300  0.16320400  0.99724200  1
  Na  Na9  1  0.41036300  0.83679600  0.50275800  1
  Na  Na10  1  0.58963700  0.66320400  0.00275800  1
  Na  Na11  1  0.08963700  0.33679600  0.49724200  1
  Na  Na12  1  0.08963700  0.83679600  0.00275800  1
  Na  Na13  1  0.58963700  0.16320400  0.49724200  1
  Na  Na14  1  0.41036300  0.33679600  0.99724200  1
  Na  Na15  1  0.91036300  0.66320400  0.50275800  1
  Na  Na16  1  0.89899300  0.07824600  0.74803700  1
  Na  Na17  1  0.39899300  0.92175400  0.75196300  1
  Na  Na18  1  0.60100700  0.57824600  0.25196300  1
  Na  Na19  1  0.10100700  0.42175400  0.24803700  1
  Na  Na20  1  0.10100700  0.92175400  0.25196300  1
  Na  Na21  1  0.60100700  0.07824600  0.24803700  1
  Na  Na22  1  0.39899300  0.42175400  0.74803700  1
  Na  Na23  1  0.89899300  0.57824600  0.75196300  1
  Na  Na24  1  0.91762200  0.44047700  0.06465900  1
  Na  Na25  1  0.41762200  0.55952300  0.43534100  1
  Na  Na26  1  0.58237800  0.94047700  0.93534100  1
  Na  Na27  1  0.08237800  0.05952300  0.56465900  1
  Na  Na28  1  0.08237800  0.55952300  0.93534100  1
  Na  Na29  1  0.58237800  0.44047700  0.56465900  1
  Na  Na30  1  0.41762200  0.05952300  0.06465900  1
  Na  Na31  1  0.91762200  0.94047700  0.43534100  1
  Na  Na32  1  0.89452600  0.32662200  0.67150100  1
  Na  Na33  1  0.39452600  0.67337800  0.82849900  1
  Na  Na34  1  0.60547400  0.82662200  0.32849900  1
  Na  Na35  1  0.10547400  0.17337800  0.17150100  1
  Na  Na36  1  0.10547400  0.67337800  0.32849900  1
  Na  Na37  1  0.60547400  0.32662200  0.17150100  1
  Na  Na38  1  0.39452600  0.17337800  0.67150100  1
  Na  Na39  1  0.89452600  0.82662200  0.82849900  1
  Ga  Ga40  1  0.82666900  0.45991500  0.37628400  1
  Ga  Ga41  1  0.32666900  0.54008500  0.12371600  1
  Ga  Ga42  1  0.67333100  0.95991500  0.62371600  1
  Ga  Ga43  1  0.17333100  0.04008500  0.87628400  1
  Ga  Ga44  1  0.17333100  0.54008500  0.62371600  1
  Ga  Ga45  1  0.67333100  0.45991500  0.87628400  1
  Ga  Ga46  1  0.32666900  0.04008500  0.37628400  1
  Ga  Ga47  1  0.82666900  0.95991500  0.12371600  1
  O  O48  1  0.86148700  0.04735300  0.87908000  1
  O  O49  1  0.36148700  0.95264700  0.62092000  1
  O  O50  1  0.63851300  0.54735300  0.12092000  1
  O  O51  1  0.13851300  0.45264700  0.37908000  1
  O  O52  1  0.13851300  0.95264700  0.12092000  1
  O  O53  1  0.63851300  0.04735300  0.37908000  1
  O  O54  1  0.36148700  0.45264700  0.87908000  1
  O  O55  1  0.86148700  0.54735300  0.62092000  1
  O  O56  1  0.80380400  0.36891700  0.95421900  1
  O  O57  1  0.30380400  0.63108300  0.54578100  1
  O  O58  1  0.69619600  0.86891700  0.04578100  1
  O  O59  1  0.19619600  0.13108300  0.45421900  1
  O  O60  1  0.19619600  0.63108300  0.04578100  1
  O  O61  1  0.69619600  0.36891700  0.45421900  1
  O  O62  1  0.30380400  0.13108300  0.95421900  1
  O  O63  1  0.80380400  0.86891700  0.54578100  1
  O  O64  1  0.73498500  0.37458100  0.28842100  1
  O  O65  1  0.23498500  0.62541900  0.21157900  1
  O  O66  1  0.76501500  0.87458100  0.71157900  1
  O  O67  1  0.26501500  0.12541900  0.78842100  1
  O  O68  1  0.26501500  0.62541900  0.71157900  1
  O  O69  1  0.76501500  0.37458100  0.78842100  1
  O  O70  1  0.23498500  0.12541900  0.28842100  1
  O  O71  1  0.73498500  0.87458100  0.21157900  1
  O  O72  1  0.73712800  0.13423400  0.12534400  1
  O  O73  1  0.23712800  0.86576600  0.37465600  1
  O  O74  1  0.76287200  0.63423400  0.87465600  1
  O  O75  1  0.26287200  0.36576600  0.62534400  1
  O  O76  1  0.26287200  0.86576600  0.87465600  1
  O  O77  1  0.76287200  0.13423400  0.62534400  1
  O  O78  1  0.23712800  0.36576600  0.12534400  1
  O  O79  1  0.73712800  0.63423400  0.37465600  1
