# generated using pymatgen
data_La3Pt3O11
_symmetry_space_group_name_H-M   'P 1'
_cell_length_a   9.60821600
_cell_length_b   9.60821600
_cell_length_c   9.60821600
_cell_angle_alpha   90.00000000
_cell_angle_beta   90.00000000
_cell_angle_gamma   90.00000000
_symmetry_Int_Tables_number   1
_chemical_formula_structural   La3Pt3O11
_chemical_formula_sum   'La12 Pt12 O44'
_cell_volume   887.00950431
_cell_formula_units_Z   4
loop_
 _symmetry_equiv_pos_site_id
 _symmetry_equiv_pos_as_xyz
  1  'x, y, z'
loop_
 _atom_site_type_symbol
 _atom_site_label
 _atom_site_symmetry_multiplicity
 _atom_site_fract_x
 _atom_site_fract_y
 _atom_site_fract_z
 _atom_site_occupancy
  La  La0  1  0.75000000  0.75000000  0.25000000  1
  La  La1  1  0.75000000  0.25000000  0.75000000  1
  La  La2  1  0.86511800  0.86511800  0.86511800  1
  La  La3  1  0.86511800  0.13488200  0.13488200  1
  La  La4  1  0.13488200  0.86511800  0.13488200  1
  La  La5  1  0.13488200  0.13488200  0.86511800  1
  La  La6  1  0.25000000  0.25000000  0.25000000  1
  La  La7  1  0.25000000  0.75000000  0.75000000  1
  La  La8  1  0.36511800  0.36511800  0.63488200  1
  La  La9  1  0.36511800  0.63488200  0.36511800  1
  La  La10  1  0.63488200  0.36511800  0.36511800  1
  La  La11  1  0.63488200  0.63488200  0.63488200  1
  Pt  Pt12  1  0.84256700  0.50000000  0.00000000  1
  Pt  Pt13  1  0.00000000  0.84256700  0.50000000  1
  Pt  Pt14  1  0.00000000  0.50000000  0.34256700  1
  Pt  Pt15  1  0.00000000  0.50000000  0.65743300  1
  Pt  Pt16  1  0.00000000  0.15743300  0.50000000  1
  Pt  Pt17  1  0.15743300  0.50000000  0.00000000  1
  Pt  Pt18  1  0.34256700  0.00000000  0.50000000  1
  Pt  Pt19  1  0.50000000  0.00000000  0.84256700  1
  Pt  Pt20  1  0.50000000  0.00000000  0.15743300  1
  Pt  Pt21  1  0.50000000  0.34256700  0.00000000  1
  Pt  Pt22  1  0.50000000  0.65743300  0.00000000  1
  Pt  Pt23  1  0.65743300  0.00000000  0.50000000  1
  O  O24  1  0.78892900  0.83177800  0.50273000  1
  O  O25  1  0.78892900  0.16822200  0.49727000  1
  O  O26  1  0.83177800  0.50273000  0.78892900  1
  O  O27  1  0.83177800  0.49727000  0.21107100  1
  O  O28  1  0.85962400  0.50000000  0.50000000  1
  O  O29  1  0.89450500  0.89450500  0.10549500  1
  O  O30  1  0.89450500  0.10549500  0.89450500  1
  O  O31  1  0.99727000  0.71107100  0.66822200  1
  O  O32  1  0.99727000  0.28892900  0.33177800  1
  O  O33  1  0.00000000  0.64037600  0.00000000  1
  O  O34  1  0.00000000  0.35962400  0.00000000  1
  O  O35  1  0.00000000  0.00000000  0.35962400  1
  O  O36  1  0.00000000  0.00000000  0.64037600  1
  O  O37  1  0.00273000  0.28892900  0.66822200  1
  O  O38  1  0.00273000  0.71107100  0.33177800  1
  O  O39  1  0.10549500  0.89450500  0.89450500  1
  O  O40  1  0.10549500  0.10549500  0.10549500  1
  O  O41  1  0.14037600  0.50000000  0.50000000  1
  O  O42  1  0.16822200  0.49727000  0.78892900  1
  O  O43  1  0.16822200  0.50273000  0.21107100  1
  O  O44  1  0.21107100  0.83177800  0.49727000  1
  O  O45  1  0.21107100  0.16822200  0.50273000  1
  O  O46  1  0.28892900  0.33177800  0.99727000  1
  O  O47  1  0.28892900  0.66822200  0.00273000  1
  O  O48  1  0.33177800  0.99727000  0.28892900  1
  O  O49  1  0.33177800  0.00273000  0.71107100  1
  O  O50  1  0.35962400  0.00000000  0.00000000  1
  O  O51  1  0.39450500  0.39450500  0.39450500  1
  O  O52  1  0.39450500  0.60549500  0.60549500  1
  O  O53  1  0.49727000  0.78892900  0.16822200  1
  O  O54  1  0.49727000  0.21107100  0.83177800  1
  O  O55  1  0.50000000  0.85962400  0.50000000  1
  O  O56  1  0.50000000  0.14037600  0.50000000  1
  O  O57  1  0.50000000  0.50000000  0.85962400  1
  O  O58  1  0.50000000  0.50000000  0.14037600  1
  O  O59  1  0.50273000  0.78892900  0.83177800  1
  O  O60  1  0.50273000  0.21107100  0.16822200  1
  O  O61  1  0.60549500  0.39450500  0.60549500  1
  O  O62  1  0.60549500  0.60549500  0.39450500  1
  O  O63  1  0.64037600  0.00000000  0.00000000  1
  O  O64  1  0.66822200  0.99727000  0.71107100  1
  O  O65  1  0.66822200  0.00273000  0.28892900  1
  O  O66  1  0.71107100  0.66822200  0.99727000  1
  O  O67  1  0.71107100  0.33177800  0.00273000  1
