# generated using pymatgen
data_InP(H2O3)2
_symmetry_space_group_name_H-M   'P 1'
_cell_length_a   10.37463900
_cell_length_b   5.50324200
_cell_length_c   10.40283303
_cell_angle_alpha   59.39663965
_cell_angle_beta   90.00000000
_cell_angle_gamma   90.00000000
_symmetry_Int_Tables_number   1
_chemical_formula_structural   InP(H2O3)2
_chemical_formula_sum   'In4 P4 H16 O24'
_cell_volume   511.21216127
_cell_formula_units_Z   4
loop_
 _symmetry_equiv_pos_site_id
 _symmetry_equiv_pos_as_xyz
  1  'x, y, z'
loop_
 _atom_site_type_symbol
 _atom_site_label
 _atom_site_symmetry_multiplicity
 _atom_site_fract_x
 _atom_site_fract_y
 _atom_site_fract_z
 _atom_site_occupancy
  In  In0  1  0.82967000  0.89520300  0.19856900  1
  In  In1  1  0.32967000  0.10479700  0.30143100  1
  In  In2  1  0.67033000  0.89520300  0.69856900  1
  In  In3  1  0.17033000  0.10479700  0.80143100  1
  P  P4  1  0.85053400  0.27409600  0.81708300  1
  P  P5  1  0.35053400  0.72590400  0.68291700  1
  P  P6  1  0.64946600  0.27409600  0.31708300  1
  P  P7  1  0.14946600  0.72590400  0.18291700  1
  H  H8  1  0.54343700  0.39743500  0.68661000  1
  H  H9  1  0.16440600  0.57709100  0.52561200  1
  H  H10  1  0.54562700  0.87646300  0.27653200  1
  H  H11  1  0.83476800  0.66028600  0.51728000  1
  H  H12  1  0.33476800  0.33971400  0.98272000  1
  H  H13  1  0.04562700  0.12353700  0.22346800  1
  H  H14  1  0.66440600  0.42290900  0.97438800  1
  H  H15  1  0.04343700  0.60256500  0.81339000  1
  H  H16  1  0.95656300  0.39743500  0.18661000  1
  H  H17  1  0.33559400  0.57709100  0.02561200  1
  H  H18  1  0.95437300  0.87646300  0.77653200  1
  H  H19  1  0.66523200  0.66028600  0.01728000  1
  H  H20  1  0.16523200  0.33971400  0.48272000  1
  H  H21  1  0.45437300  0.12353700  0.72346800  1
  H  H22  1  0.83559400  0.42290900  0.47438800  1
  H  H23  1  0.45656300  0.60256500  0.31339000  1
  O  O24  1  0.86475100  0.61798000  0.43970200  1
  O  O25  1  0.77801900  0.15801300  0.96773600  1
  O  O26  1  0.45504800  0.80397800  0.28887200  1
  O  O27  1  0.99842100  0.29511700  0.83742100  1
  O  O28  1  0.16747700  0.92443200  0.24793700  1
  O  O29  1  0.29469300  0.42997100  0.79593000  1
  O  O30  1  0.79469300  0.57002900  0.70407000  1
  O  O31  1  0.66747700  0.07556800  0.25206300  1
  O  O32  1  0.49842100  0.70488300  0.66257900  1
  O  O33  1  0.27801900  0.84198700  0.53226400  1
  O  O34  1  0.95504800  0.19602200  0.21112800  1
  O  O35  1  0.36475100  0.38202000  0.06029800  1
  O  O36  1  0.63524900  0.61798000  0.93970200  1
  O  O37  1  0.04495200  0.80397800  0.78887200  1
  O  O38  1  0.72198100  0.15801300  0.46773600  1
  O  O39  1  0.50157900  0.29511700  0.33742100  1
  O  O40  1  0.33252300  0.92443200  0.74793700  1
  O  O41  1  0.20530700  0.42997100  0.29593000  1
  O  O42  1  0.70530700  0.57002900  0.20407000  1
  O  O43  1  0.83252300  0.07556800  0.75206300  1
  O  O44  1  0.00157900  0.70488300  0.16257900  1
  O  O45  1  0.54495200  0.19602200  0.71112800  1
  O  O46  1  0.22198100  0.84198700  0.03226400  1
  O  O47  1  0.13524900  0.38202000  0.56029800  1
