# generated using pymatgen
data_Hg3SeO6
_symmetry_space_group_name_H-M   'P 1'
_cell_length_a   7.28552412
_cell_length_b   7.28552412
_cell_length_c   10.63776900
_cell_angle_alpha   90.00000000
_cell_angle_beta   90.00000000
_cell_angle_gamma   120.00000107
_symmetry_Int_Tables_number   1
_chemical_formula_structural   Hg3SeO6
_chemical_formula_sum   'Hg9 Se3 O18'
_cell_volume   488.99315831
_cell_formula_units_Z   3
loop_
 _symmetry_equiv_pos_site_id
 _symmetry_equiv_pos_as_xyz
  1  'x, y, z'
loop_
 _atom_site_type_symbol
 _atom_site_label
 _atom_site_symmetry_multiplicity
 _atom_site_fract_x
 _atom_site_fract_y
 _atom_site_fract_z
 _atom_site_occupancy
  Hg  Hg0  1  0.99877600  0.69742500  0.66168500  1
  Hg  Hg1  1  0.31595600  0.81075600  0.97334000  1
  Hg  Hg2  1  0.18924400  0.50520000  0.30667300  1
  Hg  Hg3  1  0.30257500  0.30135200  0.99501800  1
  Hg  Hg4  1  0.49480000  0.68404400  0.64000700  1
  Hg  Hg5  1  0.49991500  0.18793000  0.67840200  1
  Hg  Hg6  1  0.68801600  0.50008500  0.34506800  1
  Hg  Hg7  1  0.81207000  0.31198400  0.01173500  1
  Hg  Hg8  1  0.69864800  0.00122400  0.32835200  1
  Se  Se9  1  0.23433800  0.01647400  0.32756600  1
  Se  Se10  1  0.78213600  0.76566200  0.99423200  1
  Se  Se11  1  0.98352600  0.21786400  0.66089900  1
  O  O12  1  0.00094400  0.87534700  0.39961200  1
  O  O13  1  0.28295200  0.86433600  0.22849200  1
  O  O14  1  0.32626000  0.84589500  0.70703600  1
  O  O15  1  0.15410500  0.48036500  0.04036900  1
  O  O16  1  0.13566400  0.41861600  0.56182600  1
  O  O17  1  0.12465300  0.12559700  0.73294600  1
  O  O18  1  0.24973900  0.21658500  0.24067500  1
  O  O19  1  0.51963500  0.67374000  0.37370200  1
  O  O20  1  0.58138400  0.71704800  0.89515900  1
  O  O21  1  0.42851800  0.12137000  0.43647300  1
  O  O22  1  0.87440300  0.99905600  0.06627900  1
  O  O23  1  0.48173100  0.15326700  0.94733400  1
  O  O24  1  0.67153600  0.51826900  0.61400000  1
  O  O25  1  0.69285200  0.57148200  0.10314000  1
  O  O26  1  0.96684600  0.75026100  0.90734200  1
  O  O27  1  0.84673300  0.32846400  0.28066700  1
  O  O28  1  0.87863000  0.30714800  0.76980600  1
  O  O29  1  0.78341500  0.03315400  0.57400900  1
