# generated using pymatgen
data_LuBO3
_symmetry_space_group_name_H-M   'P 1'
_cell_length_a   6.10764997
_cell_length_b   6.10764997
_cell_length_c   6.10764964
_cell_angle_alpha   47.54425044
_cell_angle_beta   47.54425044
_cell_angle_gamma   47.54424221
_symmetry_Int_Tables_number   1
_chemical_formula_structural   LuBO3
_chemical_formula_sum   'Lu2 B2 O6'
_cell_volume   113.50524508
_cell_formula_units_Z   2
loop_
 _symmetry_equiv_pos_site_id
 _symmetry_equiv_pos_as_xyz
  1  'x, y, z'
loop_
 _atom_site_type_symbol
 _atom_site_label
 _atom_site_symmetry_multiplicity
 _atom_site_fract_x
 _atom_site_fract_y
 _atom_site_fract_z
 _atom_site_occupancy
  Lu  Lu0  1  0.50000000  0.50000000  0.50000000  1
  Lu  Lu1  1  0.00000000  0.00000000  0.00000000  1
  B  B2  1  0.75000000  0.75000000  0.75000000  1
  B  B3  1  0.25000000  0.25000000  0.25000000  1
  O  O4  1  0.03194500  0.75000000  0.46805500  1
  O  O5  1  0.75000000  0.46805500  0.03194500  1
  O  O6  1  0.53194500  0.96805500  0.25000000  1
  O  O7  1  0.96805500  0.25000000  0.53194500  1
  O  O8  1  0.25000000  0.53194500  0.96805500  1
  O  O9  1  0.46805500  0.03194500  0.75000000  1
