# generated using pymatgen
data_Li3AuO3
_symmetry_space_group_name_H-M   'P 1'
_cell_length_a   9.25743500
_cell_length_b   9.25743500
_cell_length_c   3.64107300
_cell_angle_alpha   90.00000000
_cell_angle_beta   90.00000000
_cell_angle_gamma   90.00000000
_symmetry_Int_Tables_number   1
_chemical_formula_structural   Li3AuO3
_chemical_formula_sum   'Li12 Au4 O12'
_cell_volume   312.04033033
_cell_formula_units_Z   4
loop_
 _symmetry_equiv_pos_site_id
 _symmetry_equiv_pos_as_xyz
  1  'x, y, z'
loop_
 _atom_site_type_symbol
 _atom_site_label
 _atom_site_symmetry_multiplicity
 _atom_site_fract_x
 _atom_site_fract_y
 _atom_site_fract_z
 _atom_site_occupancy
  Li  Li0  1  0.14148700  0.59243800  0.00000000  1
  Li  Li1  1  0.09243800  0.35851300  0.50000000  1
  Li  Li2  1  0.90756200  0.64148700  0.50000000  1
  Li  Li3  1  0.85851300  0.40756200  0.00000000  1
  Li  Li4  1  0.35851300  0.09243800  0.50000000  1
  Li  Li5  1  0.64148700  0.90756200  0.50000000  1
  Li  Li6  1  0.59243800  0.14148700  0.00000000  1
  Li  Li7  1  0.40756200  0.85851300  0.00000000  1
  Li  Li8  1  0.16654500  0.16654500  0.00000000  1
  Li  Li9  1  0.66654500  0.33345500  0.50000000  1
  Li  Li10  1  0.33345500  0.66654500  0.50000000  1
  Li  Li11  1  0.83345500  0.83345500  0.00000000  1
  Au  Au12  1  0.61817800  0.61817800  0.00000000  1
  Au  Au13  1  0.88182200  0.11817800  0.50000000  1
  Au  Au14  1  0.38182200  0.38182200  0.00000000  1
  Au  Au15  1  0.11817800  0.88182200  0.50000000  1
  O  O16  1  0.10678500  0.10678500  0.50000000  1
  O  O17  1  0.89321500  0.89321500  0.50000000  1
  O  O18  1  0.39321500  0.60678500  0.00000000  1
  O  O19  1  0.60678500  0.39321500  0.00000000  1
  O  O20  1  0.38094200  0.16334400  0.00000000  1
  O  O21  1  0.66334400  0.11905800  0.50000000  1
  O  O22  1  0.33665600  0.88094200  0.50000000  1
  O  O23  1  0.61905800  0.83665600  0.00000000  1
  O  O24  1  0.11905800  0.66334400  0.50000000  1
  O  O25  1  0.88094200  0.33665600  0.50000000  1
  O  O26  1  0.16334400  0.38094200  0.00000000  1
  O  O27  1  0.83665600  0.61905800  0.00000000  1
