# generated using pymatgen
data_Ba2Tl(HO)7
_symmetry_space_group_name_H-M   'P 1'
_cell_length_a   6.87323113
_cell_length_b   6.87323113
_cell_length_c   10.65964890
_cell_angle_alpha   82.38881330
_cell_angle_beta   82.38881330
_cell_angle_gamma   57.56411436
_symmetry_Int_Tables_number   1
_chemical_formula_structural   Ba2Tl(HO)7
_chemical_formula_sum   'Ba4 Tl2 H14 O14'
_cell_volume   420.13289482
_cell_formula_units_Z   2
loop_
 _symmetry_equiv_pos_site_id
 _symmetry_equiv_pos_as_xyz
  1  'x, y, z'
loop_
 _atom_site_type_symbol
 _atom_site_label
 _atom_site_symmetry_multiplicity
 _atom_site_fract_x
 _atom_site_fract_y
 _atom_site_fract_z
 _atom_site_occupancy
  Ba  Ba0  1  0.56857200  0.19241700  0.12890700  1
  Ba  Ba1  1  0.19241700  0.56857200  0.62890700  1
  Ba  Ba2  1  0.80758300  0.43142800  0.37109300  1
  Ba  Ba3  1  0.43142800  0.80758300  0.87109300  1
  Tl  Tl4  1  0.00000000  0.50000000  0.00000000  1
  Tl  Tl5  1  0.50000000  0.00000000  0.50000000  1
  H  H6  1  0.90759800  0.87896400  0.38186000  1
  H  H7  1  0.31437200  0.42923500  0.35174800  1
  H  H8  1  0.03192300  0.68198900  0.20480200  1
  H  H9  1  0.87896400  0.90759800  0.88186000  1
  H  H10  1  0.42923500  0.31437200  0.85174800  1
  H  H11  1  0.68198900  0.03192300  0.70480200  1
  H  H12  1  0.31801100  0.96807700  0.29519800  1
  H  H13  1  0.57076500  0.68562800  0.14825200  1
  H  H14  1  0.12103600  0.09240200  0.11814000  1
  H  H15  1  0.96807700  0.31801100  0.79519800  1
  H  H16  1  0.68562800  0.57076500  0.64825200  1
  H  H17  1  0.09240200  0.12103600  0.61814000  1
  H  H18  1  0.12989100  0.87010900  0.25000000  1
  H  H19  1  0.87010900  0.12989100  0.75000000  1
  O  O20  1  0.45534100  0.35264700  0.39776800  1
  O  O21  1  0.87703900  0.78780800  0.45457000  1
  O  O22  1  0.35264700  0.45534100  0.89776800  1
  O  O23  1  0.10207700  0.51656200  0.19736400  1
  O  O24  1  0.78780800  0.87703900  0.95457000  1
  O  O25  1  0.51656200  0.10207700  0.69736400  1
  O  O26  1  0.48343800  0.89792300  0.30263600  1
  O  O27  1  0.21219200  0.12296100  0.04543000  1
  O  O28  1  0.89792300  0.48343800  0.80263600  1
  O  O29  1  0.64735300  0.54465900  0.10223200  1
  O  O30  1  0.12296100  0.21219200  0.54543000  1
  O  O31  1  0.54465900  0.64735300  0.60223200  1
  O  O32  1  0.98315600  0.01684400  0.25000000  1
  O  O33  1  0.01684400  0.98315600  0.75000000  1
