# generated using pymatgen
data_InPH5NO5
_symmetry_space_group_name_H-M   'P 1'
_cell_length_a   9.48500800
_cell_length_b   9.48500800
_cell_length_c   11.42407100
_cell_angle_alpha   90.00000000
_cell_angle_beta   90.00000000
_cell_angle_gamma   90.00000000
_symmetry_Int_Tables_number   1
_chemical_formula_structural   InPH5NO5
_chemical_formula_sum   'In8 P8 H40 N8 O40'
_cell_volume   1027.77085165
_cell_formula_units_Z   8
loop_
 _symmetry_equiv_pos_site_id
 _symmetry_equiv_pos_as_xyz
  1  'x, y, z'
loop_
 _atom_site_type_symbol
 _atom_site_label
 _atom_site_symmetry_multiplicity
 _atom_site_fract_x
 _atom_site_fract_y
 _atom_site_fract_z
 _atom_site_occupancy
  In  In0  1  0.09475100  0.09475100  0.00000000  1
  In  In1  1  0.15200200  0.84799800  0.25000000  1
  In  In2  1  0.34799800  0.34799800  0.50000000  1
  In  In3  1  0.40524900  0.59475100  0.75000000  1
  In  In4  1  0.59475100  0.40524900  0.25000000  1
  In  In5  1  0.65200200  0.65200200  0.00000000  1
  In  In6  1  0.84799800  0.15200200  0.75000000  1
  In  In7  1  0.90524900  0.90524900  0.50000000  1
  P  P8  1  0.16562300  0.30668800  0.75684500  1
  P  P9  1  0.19331200  0.66562300  0.50684500  1
  P  P10  1  0.30668800  0.16562300  0.24315500  1
  P  P11  1  0.33437700  0.80668800  0.99315500  1
  P  P12  1  0.66562300  0.19331200  0.49315500  1
  P  P13  1  0.69331200  0.83437700  0.74315500  1
  P  P14  1  0.80668800  0.33437700  0.00684500  1
  P  P15  1  0.83437700  0.69331200  0.25684500  1
  H  H16  1  0.01017300  0.55822000  0.77749400  1
  H  H17  1  0.01928100  0.71740600  0.71364700  1
  H  H18  1  0.06227600  0.11337600  0.59990100  1
  H  H19  1  0.07496700  0.29966700  0.33634300  1
  H  H20  1  0.05822000  0.48982700  0.02749400  1
  H  H21  1  0.10919900  0.68517300  0.83869500  1
  H  H22  1  0.11337600  0.06227600  0.40009900  1
  H  H23  1  0.18517300  0.39080100  0.08869500  1
  H  H24  1  0.20033300  0.57496700  0.08634300  1
  H  H25  1  0.21740600  0.48071900  0.96364700  1
  H  H26  1  0.28259400  0.98071900  0.78635300  1
  H  H27  1  0.29966700  0.07496700  0.66365700  1
  H  H28  1  0.31482700  0.89080100  0.66130500  1
  H  H29  1  0.38662400  0.56227600  0.34990100  1
  H  H30  1  0.39080100  0.18517300  0.91130500  1
  H  H31  1  0.44178000  0.98982700  0.72250600  1
  H  H32  1  0.42503300  0.79966700  0.41365700  1
  H  H33  1  0.43772400  0.61337600  0.15009900  1
  H  H34  1  0.48071900  0.21740600  0.03635300  1
  H  H35  1  0.48982700  0.05822000  0.97250600  1
  H  H36  1  0.51017300  0.94178000  0.47250600  1
  H  H37  1  0.51928100  0.78259400  0.53635300  1
  H  H38  1  0.56227600  0.38662400  0.65009900  1
  H  H39  1  0.57496700  0.20033300  0.91365700  1
  H  H40  1  0.55822000  0.01017300  0.22250600  1
  H  H41  1  0.60919900  0.81482700  0.41130500  1
  H  H42  1  0.61337600  0.43772400  0.84990100  1
  H  H43  1  0.68517300  0.10919900  0.16130500  1
  H  H44  1  0.70033300  0.92503300  0.16365700  1
  H  H45  1  0.71740600  0.01928100  0.28635300  1
  H  H46  1  0.78259400  0.51928100  0.46364700  1
  H  H47  1  0.79966700  0.42503300  0.58634300  1
  H  H48  1  0.81482700  0.60919900  0.58869500  1
  H  H49  1  0.88662400  0.93772400  0.90009900  1
  H  H50  1  0.89080100  0.31482700  0.33869500  1
  H  H51  1  0.94178000  0.51017300  0.52749400  1
  H  H52  1  0.92503300  0.70033300  0.83634300  1
  H  H53  1  0.93772400  0.88662400  0.09990100  1
  H  H54  1  0.98071900  0.28259400  0.21364700  1
  H  H55  1  0.98982700  0.44178000  0.27749400  1
  N  N56  1  0.01591700  0.66522100  0.79317900  1
  N  N57  1  0.16522100  0.48408300  0.04317900  1
  N  N58  1  0.33477900  0.98408300  0.70682100  1
  N  N59  1  0.48408300  0.16522100  0.95682100  1
  N  N60  1  0.51591700  0.83477900  0.45682100  1
  N  N61  1  0.66522100  0.01591700  0.20682100  1
  N  N62  1  0.83477900  0.51591700  0.54317900  1
  N  N63  1  0.98408300  0.33477900  0.29317900  1
  O  O64  1  0.00300900  0.32506900  0.74998700  1
  O  O65  1  0.01159100  0.95140700  0.12620600  1
  O  O66  1  0.04711200  0.72933800  0.53167600  1
  O  O67  1  0.04859300  0.98840900  0.37379400  1
  O  O68  1  0.17493100  0.50300900  0.49998700  1
  O  O69  1  0.20806800  0.20527400  0.85874100  1
  O  O70  1  0.20527400  0.20806800  0.14125900  1
  O  O71  1  0.22933800  0.45288800  0.78167600  1
  O  O72  1  0.22444200  0.24054100  0.63975100  1
  O  O73  1  0.24054100  0.22444200  0.36024900  1
  O  O74  1  0.25945900  0.72444200  0.38975100  1
  O  O75  1  0.27555800  0.74054100  0.11024900  1
  O  O76  1  0.27066200  0.95288800  0.96832400  1
  O  O77  1  0.29472600  0.70806800  0.60874100  1
  O  O78  1  0.29193200  0.70527400  0.89125900  1
  O  O79  1  0.32506900  0.00300900  0.25001300  1
  O  O80  1  0.45140700  0.48840900  0.37620600  1
  O  O81  1  0.45288800  0.22933800  0.21832400  1
  O  O82  1  0.48840900  0.45140700  0.62379400  1
  O  O83  1  0.49699100  0.82506900  0.00001300  1
  O  O84  1  0.50300900  0.17493100  0.50001300  1
  O  O85  1  0.51159100  0.54859300  0.12379400  1
  O  O86  1  0.54711200  0.77066200  0.71832400  1
  O  O87  1  0.54859300  0.51159100  0.87620600  1
  O  O88  1  0.67493100  0.99699100  0.75001300  1
  O  O89  1  0.70806800  0.29472600  0.39125900  1
  O  O90  1  0.70527400  0.29193200  0.10874100  1
  O  O91  1  0.72933800  0.04711200  0.46832400  1
  O  O92  1  0.72444200  0.25945900  0.61024900  1
  O  O93  1  0.74054100  0.27555800  0.88975100  1
  O  O94  1  0.75945900  0.77555800  0.86024900  1
  O  O95  1  0.77555800  0.75945900  0.13975100  1
  O  O96  1  0.77066200  0.54711200  0.28167600  1
  O  O97  1  0.79472600  0.79193200  0.64125900  1
  O  O98  1  0.79193200  0.79472600  0.35874100  1
  O  O99  1  0.82506900  0.49699100  0.99998700  1
  O  O100  1  0.95140700  0.01159100  0.87379400  1
  O  O101  1  0.95288800  0.27066200  0.03167600  1
  O  O102  1  0.98840900  0.04859300  0.62620600  1
  O  O103  1  0.99699100  0.67493100  0.24998700  1
