# generated using pymatgen
data_Zr3(Cu2Si)2
_symmetry_space_group_name_H-M   'P 1'
_cell_length_a   6.38244654
_cell_length_b   6.38244654
_cell_length_c   3.99339400
_cell_angle_alpha   90.00000000
_cell_angle_beta   90.00000000
_cell_angle_gamma   120.00000562
_symmetry_Int_Tables_number   1
_chemical_formula_structural   Zr3(Cu2Si)2
_chemical_formula_sum   'Zr3 Cu4 Si2'
_cell_volume   140.87928540
_cell_formula_units_Z   1
loop_
 _symmetry_equiv_pos_site_id
 _symmetry_equiv_pos_as_xyz
  1  'x, y, z'
loop_
 _atom_site_type_symbol
 _atom_site_label
 _atom_site_symmetry_multiplicity
 _atom_site_fract_x
 _atom_site_fract_y
 _atom_site_fract_z
 _atom_site_occupancy
  Zr  Zr0  1  0.00000000  0.58787400  0.50000000  1
  Zr  Zr1  1  0.41212600  0.41212600  0.50000000  1
  Zr  Zr2  1  0.58787400  0.00000000  0.50000000  1
  Cu  Cu3  1  0.00000000  0.00000000  0.50000000  1
  Cu  Cu4  1  0.24718400  0.00000000  0.00000000  1
  Cu  Cu5  1  0.75281600  0.75281600  0.00000000  1
  Cu  Cu6  1  0.00000000  0.24718400  0.00000000  1
  Si  Si7  1  0.66666700  0.33333300  0.00000000  1
  Si  Si8  1  0.33333300  0.66666700  0.00000000  1
