# generated using pymatgen
data_ScH6Br3N2
_symmetry_space_group_name_H-M   'P 1'
_cell_length_a   7.34674100
_cell_length_b   10.33888175
_cell_length_c   11.58412649
_cell_angle_alpha   105.48825155
_cell_angle_beta   90.77702010
_cell_angle_gamma   109.70482674
_symmetry_Int_Tables_number   1
_chemical_formula_structural   ScH6Br3N2
_chemical_formula_sum   'Sc4 H24 Br12 N8'
_cell_volume   793.06773103
_cell_formula_units_Z   4
loop_
 _symmetry_equiv_pos_site_id
 _symmetry_equiv_pos_as_xyz
  1  'x, y, z'
loop_
 _atom_site_type_symbol
 _atom_site_label
 _atom_site_symmetry_multiplicity
 _atom_site_fract_x
 _atom_site_fract_y
 _atom_site_fract_z
 _atom_site_occupancy
  Sc  Sc0  1  0.16772600  0.79883700  0.19751500  1
  Sc  Sc1  1  0.31217000  0.22258100  0.30352600  1
  Sc  Sc2  1  0.68783000  0.77741900  0.69647400  1
  Sc  Sc3  1  0.83227400  0.20116300  0.80248500  1
  H  H4  1  0.06920100  0.83739100  0.43468600  1
  H  H5  1  0.14987300  0.89694900  0.99517800  1
  H  H6  1  0.08319800  0.72094500  0.94520300  1
  H  H7  1  0.15526300  0.70542100  0.40713700  1
  H  H8  1  0.30712100  0.87335000  0.44464500  1
  H  H9  1  0.31713900  0.82140300  0.97550700  1
  H  H10  1  0.28076200  0.64471000  0.66602100  1
  H  H11  1  0.28288700  0.55631900  0.15080800  1
  H  H12  1  0.36419500  0.54533600  0.56090600  1
  H  H13  1  0.37111400  0.53289500  0.70014100  1
  H  H14  1  0.44123600  0.67345600  0.09547400  1
  H  H15  1  0.46212700  0.69056700  0.24131300  1
  H  H16  1  0.53787300  0.30943300  0.75868700  1
  H  H17  1  0.55876400  0.32654400  0.90452600  1
  H  H18  1  0.62888600  0.46710500  0.29985900  1
  H  H19  1  0.63580500  0.45466400  0.43909400  1
  H  H20  1  0.71711300  0.44368100  0.84919200  1
  H  H21  1  0.71923800  0.35529000  0.33397900  1
  H  H22  1  0.68286100  0.17859700  0.02449300  1
  H  H23  1  0.69287900  0.12665000  0.55535500  1
  H  H24  1  0.84473700  0.29457900  0.59286300  1
  H  H25  1  0.91680200  0.27905500  0.05479700  1
  H  H26  1  0.85012700  0.10305100  0.00482200  1
  H  H27  1  0.93079900  0.16260900  0.56531400  1
  Br  Br28  1  0.14458000  0.42205800  0.86156600  1
  Br  Br29  1  0.12652100  0.40224600  0.34545600  1
  Br  Br30  1  0.01355000  0.01221100  0.75676100  1
  Br  Br31  1  0.49150400  0.97149700  0.74201800  1
  Br  Br32  1  0.33569300  0.22046100  0.53250100  1
  Br  Br33  1  0.34266800  0.22850700  0.07769300  1
  Br  Br34  1  0.65733200  0.77149300  0.92230700  1
  Br  Br35  1  0.66430700  0.77953900  0.46749900  1
  Br  Br36  1  0.50849600  0.02850300  0.25798200  1
  Br  Br37  1  0.98645000  0.98778900  0.24323900  1
  Br  Br38  1  0.87347900  0.59775400  0.65454400  1
  Br  Br39  1  0.85542000  0.57794200  0.13843400  1
  N  N40  1  0.17714000  0.80454100  0.39592900  1
  N  N41  1  0.18198200  0.81071200  0.00405100  1
  N  N42  1  0.36212200  0.66301600  0.16762700  1
  N  N43  1  0.39049900  0.60408100  0.65018300  1
  N  N44  1  0.60950100  0.39591900  0.34981700  1
  N  N45  1  0.63787800  0.33698400  0.83237300  1
  N  N46  1  0.81801800  0.18928800  0.99594900  1
  N  N47  1  0.82286000  0.19545900  0.60407100  1
