# generated using pymatgen
data_Na4AlP2HO9
_symmetry_space_group_name_H-M   'P 1'
_cell_length_a   7.00741800
_cell_length_b   14.86862900
_cell_length_c   15.46785100
_cell_angle_alpha   90.00000000
_cell_angle_beta   90.00000000
_cell_angle_gamma   90.00000000
_symmetry_Int_Tables_number   1
_chemical_formula_structural   Na4AlP2HO9
_chemical_formula_sum   'Na32 Al8 P16 H8 O72'
_cell_volume   1611.60619983
_cell_formula_units_Z   8
loop_
 _symmetry_equiv_pos_site_id
 _symmetry_equiv_pos_as_xyz
  1  'x, y, z'
loop_
 _atom_site_type_symbol
 _atom_site_label
 _atom_site_symmetry_multiplicity
 _atom_site_fract_x
 _atom_site_fract_y
 _atom_site_fract_z
 _atom_site_occupancy
  Na  Na0  1  0.75000000  0.11041500  0.13107900  1
  Na  Na1  1  0.25000000  0.88958500  0.86892100  1
  Na  Na2  1  0.25000000  0.38958500  0.13107900  1
  Na  Na3  1  0.75000000  0.61041500  0.86892100  1
  Na  Na4  1  0.52013500  0.51701800  0.25484100  1
  Na  Na5  1  0.02013500  0.48298200  0.74515900  1
  Na  Na6  1  0.47986500  0.98298200  0.25484100  1
  Na  Na7  1  0.97986500  0.01701800  0.74515900  1
  Na  Na8  1  0.47986500  0.48298200  0.74515900  1
  Na  Na9  1  0.97986500  0.51701800  0.25484100  1
  Na  Na10  1  0.52013500  0.01701800  0.74515900  1
  Na  Na11  1  0.02013500  0.98298200  0.25484100  1
  Na  Na12  1  0.50000000  0.75000000  0.52798900  1
  Na  Na13  1  0.00000000  0.25000000  0.47201100  1
  Na  Na14  1  0.50000000  0.25000000  0.47201100  1
  Na  Na15  1  0.00000000  0.75000000  0.52798900  1
  Na  Na16  1  0.50000000  0.75000000  0.22195700  1
  Na  Na17  1  0.00000000  0.25000000  0.77804300  1
  Na  Na18  1  0.50000000  0.25000000  0.77804300  1
  Na  Na19  1  0.00000000  0.75000000  0.22195700  1
  Na  Na20  1  0.50000000  0.75000000  0.99163400  1
  Na  Na21  1  0.00000000  0.25000000  0.00836600  1
  Na  Na22  1  0.50000000  0.25000000  0.00836600  1
  Na  Na23  1  0.00000000  0.75000000  0.99163400  1
  Na  Na24  1  0.50000000  0.25000000  0.25582200  1
  Na  Na25  1  0.00000000  0.75000000  0.74417800  1
  Na  Na26  1  0.50000000  0.75000000  0.74417800  1
  Na  Na27  1  0.00000000  0.25000000  0.25582200  1
  Na  Na28  1  0.75000000  0.36711600  0.62530400  1
  Na  Na29  1  0.25000000  0.63288400  0.37469600  1
  Na  Na30  1  0.25000000  0.13288400  0.62530400  1
  Na  Na31  1  0.75000000  0.86711600  0.37469600  1
  Al  Al32  1  0.50000000  0.50000000  0.50000000  1
  Al  Al33  1  0.00000000  0.50000000  0.50000000  1
  Al  Al34  1  0.50000000  0.00000000  0.50000000  1
  Al  Al35  1  0.00000000  0.00000000  0.50000000  1
  Al  Al36  1  0.50000000  0.00000000  0.00000000  1
  Al  Al37  1  0.00000000  0.00000000  0.00000000  1
  Al  Al38  1  0.50000000  0.50000000  0.00000000  1
  Al  Al39  1  0.00000000  0.50000000  0.00000000  1
  P  P40  1  0.75000000  0.63572900  0.37965000  1
  P  P41  1  0.25000000  0.36427100  0.62035000  1
  P  P42  1  0.25000000  0.86427100  0.37965000  1
  P  P43  1  0.75000000  0.13572900  0.62035000  1
  P  P44  1  0.75000000  0.87948400  0.12867300  1
  P  P45  1  0.25000000  0.12051600  0.87132700  1
  P  P46  1  0.25000000  0.62051600  0.12867300  1
  P  P47  1  0.75000000  0.37948400  0.87132700  1
  P  P48  1  0.25000000  0.87983400  0.63305700  1
  P  P49  1  0.75000000  0.12016600  0.36694300  1
  P  P50  1  0.75000000  0.62016600  0.63305700  1
  P  P51  1  0.25000000  0.37983400  0.36694300  1
  P  P52  1  0.25000000  0.62992300  0.87507600  1
  P  P53  1  0.75000000  0.37007700  0.12492400  1
  P  P54  1  0.75000000  0.87007700  0.87507600  1
  P  P55  1  0.25000000  0.12992300  0.12492400  1
  H  H56  1  0.75000000  0.08003200  0.93378600  1
  H  H57  1  0.25000000  0.91996800  0.06621400  1
  H  H58  1  0.25000000  0.41996800  0.93378600  1
  H  H59  1  0.75000000  0.58003200  0.06621400  1
  H  H60  1  0.75000000  0.41246400  0.44599900  1
  H  H61  1  0.25000000  0.58753600  0.55400100  1
  H  H62  1  0.25000000  0.08753600  0.44599900  1
  H  H63  1  0.75000000  0.91246400  0.55400100  1
  O  O64  1  0.75000000  0.72667100  0.42681200  1
  O  O65  1  0.25000000  0.27332900  0.57318800  1
  O  O66  1  0.25000000  0.77332900  0.42681200  1
  O  O67  1  0.75000000  0.22667100  0.57318800  1
  O  O68  1  0.75000000  0.64704000  0.27984700  1
  O  O69  1  0.25000000  0.35296000  0.72015300  1
  O  O70  1  0.25000000  0.85296000  0.27984700  1
  O  O71  1  0.75000000  0.14704000  0.72015300  1
  O  O72  1  0.56641700  0.58008100  0.40389300  1
  O  O73  1  0.06641700  0.41991900  0.59610700  1
  O  O74  1  0.43358300  0.91991900  0.40389300  1
  O  O75  1  0.93358300  0.08008100  0.59610700  1
  O  O76  1  0.43358300  0.41991900  0.59610700  1
  O  O77  1  0.93358300  0.58008100  0.40389300  1
  O  O78  1  0.56641700  0.08008100  0.59610700  1
  O  O79  1  0.06641700  0.91991900  0.40389300  1
  O  O80  1  0.75000000  0.78442900  0.08931400  1
  O  O81  1  0.25000000  0.21557100  0.91068600  1
  O  O82  1  0.25000000  0.71557100  0.08931400  1
  O  O83  1  0.75000000  0.28442900  0.91068600  1
  O  O84  1  0.56893600  0.93534400  0.10280900  1
  O  O85  1  0.06893600  0.06465600  0.89719100  1
  O  O86  1  0.43106400  0.56465600  0.10280900  1
  O  O87  1  0.93106400  0.43534400  0.89719100  1
  O  O88  1  0.43106400  0.06465600  0.89719100  1
  O  O89  1  0.93106400  0.93534400  0.10280900  1
  O  O90  1  0.56893600  0.43534400  0.89719100  1
  O  O91  1  0.06893600  0.56465600  0.10280900  1
  O  O92  1  0.75000000  0.87045300  0.22864600  1
  O  O93  1  0.25000000  0.12954700  0.77135400  1
  O  O94  1  0.25000000  0.62954700  0.22864600  1
  O  O95  1  0.75000000  0.37045300  0.77135400  1
  O  O96  1  0.25000000  0.77592600  0.63915900  1
  O  O97  1  0.75000000  0.22407400  0.36084100  1
  O  O98  1  0.75000000  0.72407400  0.63915900  1
  O  O99  1  0.25000000  0.27592600  0.36084100  1
  O  O100  1  0.25000000  0.92092200  0.72502500  1
  O  O101  1  0.75000000  0.07907800  0.27497500  1
  O  O102  1  0.75000000  0.57907800  0.72502500  1
  O  O103  1  0.25000000  0.42092200  0.27497500  1
  O  O104  1  0.43214400  0.91060300  0.58279000  1
  O  O105  1  0.93214400  0.08939700  0.41721000  1
  O  O106  1  0.56785600  0.58939700  0.58279000  1
  O  O107  1  0.06785600  0.41060300  0.41721000  1
  O  O108  1  0.56785600  0.08939700  0.41721000  1
  O  O109  1  0.06785600  0.91060300  0.58279000  1
  O  O110  1  0.43214400  0.41060300  0.41721000  1
  O  O111  1  0.93214400  0.58939700  0.58279000  1
  O  O112  1  0.25000000  0.73414800  0.86725700  1
  O  O113  1  0.75000000  0.26585200  0.13274300  1
  O  O114  1  0.75000000  0.76585200  0.86725700  1
  O  O115  1  0.25000000  0.23414800  0.13274300  1
  O  O116  1  0.43325500  0.60222400  0.92760000  1
  O  O117  1  0.93325500  0.39777600  0.07240000  1
  O  O118  1  0.56674500  0.89777600  0.92760000  1
  O  O119  1  0.06674500  0.10222400  0.07240000  1
  O  O120  1  0.56674500  0.39777600  0.07240000  1
  O  O121  1  0.06674500  0.60222400  0.92760000  1
  O  O122  1  0.43325500  0.10222400  0.07240000  1
  O  O123  1  0.93325500  0.89777600  0.92760000  1
  O  O124  1  0.25000000  0.58628600  0.78532600  1
  O  O125  1  0.75000000  0.41371400  0.21467400  1
  O  O126  1  0.75000000  0.91371400  0.78532600  1
  O  O127  1  0.25000000  0.08628600  0.21467400  1
  O  O128  1  0.75000000  0.04936700  0.98952900  1
  O  O129  1  0.25000000  0.95063300  0.01047100  1
  O  O130  1  0.25000000  0.45063300  0.98952900  1
  O  O131  1  0.75000000  0.54936700  0.01047100  1
  O  O132  1  0.75000000  0.44912300  0.49814400  1
  O  O133  1  0.25000000  0.55087700  0.50185600  1
  O  O134  1  0.25000000  0.05087700  0.49814400  1
  O  O135  1  0.75000000  0.94912300  0.50185600  1
