# generated using pymatgen
data_DyTaO4
_symmetry_space_group_name_H-M   'P 1'
_cell_length_a   5.51878800
_cell_length_b   5.15441000
_cell_length_c   5.34478847
_cell_angle_alpha   83.42024172
_cell_angle_beta   90.00000000
_cell_angle_gamma   90.00000000
_symmetry_Int_Tables_number   1
_chemical_formula_structural   DyTaO4
_chemical_formula_sum   'Dy2 Ta2 O8'
_cell_volume   151.03693648
_cell_formula_units_Z   2
loop_
 _symmetry_equiv_pos_site_id
 _symmetry_equiv_pos_as_xyz
  1  'x, y, z'
loop_
 _atom_site_type_symbol
 _atom_site_label
 _atom_site_symmetry_multiplicity
 _atom_site_fract_x
 _atom_site_fract_y
 _atom_site_fract_z
 _atom_site_occupancy
  Dy  Dy0  1  0.76708900  0.00000000  0.75000000  1
  Dy  Dy1  1  0.23291100  0.00000000  0.25000000  1
  Ta  Ta2  1  0.69300900  0.50000000  0.25000000  1
  Ta  Ta3  1  0.30699100  0.50000000  0.75000000  1
  O  O4  1  0.56451700  0.26867700  0.00483700  1
  O  O5  1  0.56451700  0.73132300  0.49516300  1
  O  O6  1  0.43548300  0.73132300  0.99516300  1
  O  O7  1  0.43548300  0.26867700  0.50483700  1
  O  O8  1  0.08570200  0.75043000  0.60070400  1
  O  O9  1  0.08570200  0.24957000  0.89929600  1
  O  O10  1  0.91429800  0.24957000  0.39929600  1
  O  O11  1  0.91429800  0.75043000  0.10070400  1
