# generated using pymatgen
data_Na2SnGe2(HO4)2
_symmetry_space_group_name_H-M   'P 1'
_cell_length_a   5.67779900
_cell_length_b   5.95107851
_cell_length_c   11.47480708
_cell_angle_alpha   87.61990760
_cell_angle_beta   80.50560647
_cell_angle_gamma   75.49240285
_symmetry_Int_Tables_number   1
_chemical_formula_structural   Na2SnGe2(HO4)2
_chemical_formula_sum   'Na4 Sn2 Ge4 H4 O16'
_cell_volume   370.21803677
_cell_formula_units_Z   2
loop_
 _symmetry_equiv_pos_site_id
 _symmetry_equiv_pos_as_xyz
  1  'x, y, z'
loop_
 _atom_site_type_symbol
 _atom_site_label
 _atom_site_symmetry_multiplicity
 _atom_site_fract_x
 _atom_site_fract_y
 _atom_site_fract_z
 _atom_site_occupancy
  Na  Na0  1  0.78235600  0.38776800  0.56404000  1
  Na  Na1  1  0.21764400  0.61223200  0.43596000  1
  Na  Na2  1  0.49763400  0.18064500  0.85325900  1
  Na  Na3  1  0.50236600  0.81935500  0.14674100  1
  Sn  Sn4  1  0.00000000  0.00000000  0.00000000  1
  Sn  Sn5  1  0.50000000  0.00000000  0.50000000  1
  Ge  Ge6  1  0.31778000  0.72375200  0.74882100  1
  Ge  Ge7  1  0.68222000  0.27624800  0.25117900  1
  Ge  Ge8  1  0.82935000  0.56168500  0.87139900  1
  Ge  Ge9  1  0.17065000  0.43831500  0.12860100  1
  H  H10  1  0.20786200  0.31044700  0.63718500  1
  H  H11  1  0.79213800  0.68955300  0.36281500  1
  H  H12  1  0.77900100  0.91932900  0.65647800  1
  H  H13  1  0.22099900  0.08067100  0.34352200  1
  O  O14  1  0.75007700  0.83044800  0.94497300  1
  O  O15  1  0.24992300  0.16955200  0.05502700  1
  O  O16  1  0.78220000  0.32069600  0.95641500  1
  O  O17  1  0.21780000  0.67930400  0.04358500  1
  O  O18  1  0.14045100  0.50894600  0.79065600  1
  O  O19  1  0.85954900  0.49105400  0.20934400  1
  O  O20  1  0.63149700  0.56884400  0.76162500  1
  O  O21  1  0.36850300  0.43115600  0.23837500  1
  O  O22  1  0.20436800  0.97580800  0.83358400  1
  O  O23  1  0.79563200  0.02419200  0.16641600  1
  O  O24  1  0.32317100  0.76220800  0.59719300  1
  O  O25  1  0.67682900  0.23779200  0.40280700  1
  O  O26  1  0.20445000  0.27713300  0.55454800  1
  O  O27  1  0.79555000  0.72286700  0.44545200  1
  O  O28  1  0.64948100  0.05801800  0.64752000  1
  O  O29  1  0.35051900  0.94198200  0.35248000  1
