# generated using pymatgen
data_Ca2B8H2O15
_symmetry_space_group_name_H-M   'P 1'
_cell_length_a   6.51119300
_cell_length_b   9.41246573
_cell_length_c   10.09911209
_cell_angle_alpha   116.83438119
_cell_angle_beta   90.42632201
_cell_angle_gamma   99.25917792
_symmetry_Int_Tables_number   1
_chemical_formula_structural   Ca2B8H2O15
_chemical_formula_sum   'Ca4 B16 H4 O30'
_cell_volume   542.83405381
_cell_formula_units_Z   2
loop_
 _symmetry_equiv_pos_site_id
 _symmetry_equiv_pos_as_xyz
  1  'x, y, z'
loop_
 _atom_site_type_symbol
 _atom_site_label
 _atom_site_symmetry_multiplicity
 _atom_site_fract_x
 _atom_site_fract_y
 _atom_site_fract_z
 _atom_site_occupancy
  Ca  Ca0  1  0.01249100  0.17582900  0.72115000  1
  Ca  Ca1  1  0.98750900  0.82417100  0.27885000  1
  Ca  Ca2  1  0.32728100  0.18354100  0.16871200  1
  Ca  Ca3  1  0.67271900  0.81645900  0.83128800  1
  B  B4  1  0.24730700  0.93970700  0.78021700  1
  B  B5  1  0.75269300  0.06029300  0.21978300  1
  B  B6  1  0.26482500  0.53199800  0.84449300  1
  B  B7  1  0.73517500  0.46800200  0.15550700  1
  B  B8  1  0.08084100  0.40397600  0.12488000  1
  B  B9  1  0.91915900  0.59602400  0.87512000  1
  B  B10  1  0.44173900  0.84290900  0.18966300  1
  B  B11  1  0.55826100  0.15709100  0.81033700  1
  B  B12  1  0.29001600  0.73753400  0.52083200  1
  B  B13  1  0.70998400  0.26246600  0.47916800  1
  B  B14  1  0.42065000  0.60858000  0.25982400  1
  B  B15  1  0.57935000  0.39142000  0.74017600  1
  B  B16  1  0.22822600  0.82700300  0.97406700  1
  B  B17  1  0.77177400  0.17299700  0.02593300  1
  B  B18  1  0.06192000  0.19196600  0.42001000  1
  B  B19  1  0.93808000  0.80803400  0.57999000  1
  H  H20  1  0.31794000  0.14226000  0.50322700  1
  H  H21  1  0.68206000  0.85774000  0.49677300  1
  H  H22  1  0.32145600  0.37535900  0.49244200  1
  H  H23  1  0.67854400  0.62464100  0.50755800  1
  O  O24  1  0.36325300  0.40406300  0.78158200  1
  O  O25  1  0.63674700  0.59593700  0.21841800  1
  O  O26  1  0.02850200  0.91784600  0.73148100  1
  O  O27  1  0.97149800  0.08215400  0.26851900  1
  O  O28  1  0.16910800  0.09589700  0.47836800  1
  O  O29  1  0.83089200  0.90410300  0.52163200  1
  O  O30  1  0.99926600  0.75933800  0.95218400  1
  O  O31  1  0.00073400  0.24066200  0.04781600  1
  O  O32  1  0.30111100  0.90865600  0.13702500  1
  O  O33  1  0.69888900  0.09134400  0.86297500  1
  O  O34  1  0.34214700  0.72407800  0.22179000  1
  O  O35  1  0.65785300  0.27592200  0.77821000  1
  O  O36  1  0.28617100  0.44655700  0.17493200  1
  O  O37  1  0.71382900  0.55344300  0.82506800  1
  O  O38  1  0.27776700  0.95186500  0.92815100  1
  O  O39  1  0.72223300  0.04813500  0.07184900  1
  O  O40  1  0.34910500  0.69260300  0.89563900  1
  O  O41  1  0.65089500  0.30739700  0.10436100  1
  O  O42  1  0.04992100  0.48405700  0.84879600  1
  O  O43  1  0.95007900  0.51594300  0.15120400  1
  O  O44  1  0.21262600  0.32004500  0.41015200  1
  O  O45  1  0.78737400  0.67995500  0.58984800  1
  O  O46  1  0.43073000  0.66480800  0.42208800  1
  O  O47  1  0.56927000  0.33519200  0.57791200  1
  O  O48  1  0.09578700  0.74532900  0.47284400  1
  O  O49  1  0.90421300  0.25467100  0.52715600  1
  O  O50  1  0.34787700  0.10024300  0.78567800  1
  O  O51  1  0.65212300  0.89975700  0.21432200  1
  O  O52  1  0.35415500  0.81020800  0.67157800  1
  O  O53  1  0.64584500  0.18979200  0.32842200  1
