# generated using pymatgen
data_NdTe3
_symmetry_space_group_name_H-M   'P 1'
_cell_length_a   13.93519827
_cell_length_b   13.93519827
_cell_length_c   4.39527800
_cell_angle_alpha   90.00000000
_cell_angle_beta   90.00000000
_cell_angle_gamma   161.87287475
_symmetry_Int_Tables_number   1
_chemical_formula_structural   NdTe3
_chemical_formula_sum   'Nd2 Te6'
_cell_volume   265.55195740
_cell_formula_units_Z   2
loop_
 _symmetry_equiv_pos_site_id
 _symmetry_equiv_pos_as_xyz
  1  'x, y, z'
loop_
 _atom_site_type_symbol
 _atom_site_label
 _atom_site_symmetry_multiplicity
 _atom_site_fract_x
 _atom_site_fract_y
 _atom_site_fract_z
 _atom_site_occupancy
  Nd  Nd0  1  0.67206400  0.32793600  0.75000000  1
  Nd  Nd1  1  0.32793600  0.67206400  0.25000000  1
  Te  Te2  1  0.92147900  0.07852100  0.25000000  1
  Te  Te3  1  0.07852100  0.92147900  0.75000000  1
  Te  Te4  1  0.20727700  0.79272300  0.25000000  1
  Te  Te5  1  0.79272300  0.20727700  0.75000000  1
  Te  Te6  1  0.42145700  0.57854300  0.75000000  1
  Te  Te7  1  0.57854300  0.42145700  0.25000000  1
