# generated using pymatgen
data_Cs3ScO3
_symmetry_space_group_name_H-M   'P 1'
_cell_length_a   7.41480700
_cell_length_b   8.21137700
_cell_length_c   11.92277010
_cell_angle_alpha   83.71043316
_cell_angle_beta   90.00000000
_cell_angle_gamma   90.00000000
_symmetry_Int_Tables_number   1
_chemical_formula_structural   Cs3ScO3
_chemical_formula_sum   'Cs12 Sc4 O12'
_cell_volume   721.55769265
_cell_formula_units_Z   4
loop_
 _symmetry_equiv_pos_site_id
 _symmetry_equiv_pos_as_xyz
  1  'x, y, z'
loop_
 _atom_site_type_symbol
 _atom_site_label
 _atom_site_symmetry_multiplicity
 _atom_site_fract_x
 _atom_site_fract_y
 _atom_site_fract_z
 _atom_site_occupancy
  Cs  Cs0  1  0.33197200  0.34919100  0.07317600  1
  Cs  Cs1  1  0.62025900  0.95213000  0.15574600  1
  Cs  Cs2  1  0.82175500  0.37639800  0.19434500  1
  Cs  Cs3  1  0.32175500  0.62360200  0.30565500  1
  Cs  Cs4  1  0.12025900  0.04787000  0.34425400  1
  Cs  Cs5  1  0.83197200  0.65080900  0.42682400  1
  Cs  Cs6  1  0.16802800  0.34919100  0.57317600  1
  Cs  Cs7  1  0.87974100  0.95213000  0.65574600  1
  Cs  Cs8  1  0.67824500  0.37639800  0.69434500  1
  Cs  Cs9  1  0.17824500  0.62360200  0.80565500  1
  Cs  Cs10  1  0.37974100  0.04787000  0.84425400  1
  Cs  Cs11  1  0.66802800  0.65080900  0.92682400  1
  Sc  Sc12  1  0.08147000  0.84855800  0.06485100  1
  Sc  Sc13  1  0.58147000  0.15144200  0.43514900  1
  Sc  Sc14  1  0.41853000  0.84855800  0.56485100  1
  Sc  Sc15  1  0.91853000  0.15144200  0.93514900  1
  O  O16  1  0.32605300  0.75924600  0.04193000  1
  O  O17  1  0.05438300  0.09565000  0.08512700  1
  O  O18  1  0.94921400  0.71283800  0.18417100  1
  O  O19  1  0.44921400  0.28716200  0.31582900  1
  O  O20  1  0.55438300  0.90435000  0.41487300  1
  O  O21  1  0.82605300  0.24075400  0.45807000  1
  O  O22  1  0.17394700  0.75924600  0.54193000  1
  O  O23  1  0.44561700  0.09565000  0.58512700  1
  O  O24  1  0.55078600  0.71283800  0.68417100  1
  O  O25  1  0.05078600  0.28716200  0.81582900  1
  O  O26  1  0.94561700  0.90435000  0.91487300  1
  O  O27  1  0.67394700  0.24075400  0.95807000  1
