# generated using pymatgen
data_FeSb3(PO4)6
_symmetry_space_group_name_H-M   'P 1'
_cell_length_a   8.90051589
_cell_length_b   8.90051589
_cell_length_c   8.90051623
_cell_angle_alpha   58.02513685
_cell_angle_beta   58.02513685
_cell_angle_gamma   58.02513317
_symmetry_Int_Tables_number   1
_chemical_formula_structural   FeSb3(PO4)6
_chemical_formula_sum   'Fe1 Sb3 P6 O24'
_cell_volume   475.99211704
_cell_formula_units_Z   1
loop_
 _symmetry_equiv_pos_site_id
 _symmetry_equiv_pos_as_xyz
  1  'x, y, z'
loop_
 _atom_site_type_symbol
 _atom_site_label
 _atom_site_symmetry_multiplicity
 _atom_site_fract_x
 _atom_site_fract_y
 _atom_site_fract_z
 _atom_site_occupancy
  Fe  Fe0  1  0.85765700  0.85765700  0.85765700  1
  Sb  Sb1  1  0.14330600  0.14330600  0.14330600  1
  Sb  Sb2  1  0.35651200  0.35651200  0.35651200  1
  Sb  Sb3  1  0.64361800  0.64361800  0.64361800  1
  P  P4  1  0.03747700  0.46598000  0.75093100  1
  P  P5  1  0.46598000  0.75093100  0.03747700  1
  P  P6  1  0.75093100  0.03747700  0.46598000  1
  P  P7  1  0.24665200  0.96149600  0.54189800  1
  P  P8  1  0.54189800  0.24665200  0.96149600  1
  P  P9  1  0.96149600  0.54189800  0.24665200  1
  O  O10  1  0.13348200  0.51174100  0.27766700  1
  O  O11  1  0.27766700  0.13348200  0.51174100  1
  O  O12  1  0.05971300  0.27962800  0.92388900  1
  O  O13  1  0.51174100  0.27766700  0.13348200  1
  O  O14  1  0.21897100  0.43894900  0.57557200  1
  O  O15  1  0.01073300  0.63318400  0.77665300  1
  O  O16  1  0.27962800  0.92388900  0.05971300  1
  O  O17  1  0.43894900  0.57557200  0.21897100  1
  O  O18  1  0.57557200  0.21897100  0.43894900  1
  O  O19  1  0.22832300  0.98642100  0.36413500  1
  O  O20  1  0.07722200  0.94016100  0.71620800  1
  O  O21  1  0.36413500  0.22832300  0.98642100  1
  O  O22  1  0.63318400  0.77665300  0.01073300  1
  O  O23  1  0.92388900  0.05971300  0.27962800  1
  O  O24  1  0.77665300  0.01073300  0.63318400  1
  O  O25  1  0.42709800  0.78234500  0.55617900  1
  O  O26  1  0.55617900  0.42709800  0.78234500  1
  O  O27  1  0.71620800  0.07722200  0.94016100  1
  O  O28  1  0.98642100  0.36413500  0.22832300  1
  O  O29  1  0.78234500  0.55617900  0.42709800  1
  O  O30  1  0.48389800  0.72463700  0.86766500  1
  O  O31  1  0.94016100  0.71620800  0.07722200  1
  O  O32  1  0.72463700  0.86766500  0.48389800  1
  O  O33  1  0.86766500  0.48389800  0.72463700  1
