# generated using pymatgen
data_TbNiO3
_symmetry_space_group_name_H-M   'P 1'
_cell_length_a   5.22615600
_cell_length_b   5.57849300
_cell_length_c   7.49186300
_cell_angle_alpha   90.00000000
_cell_angle_beta   90.00000000
_cell_angle_gamma   90.00000000
_symmetry_Int_Tables_number   1
_chemical_formula_structural   TbNiO3
_chemical_formula_sum   'Tb4 Ni4 O12'
_cell_volume   218.41833327
_cell_formula_units_Z   4
loop_
 _symmetry_equiv_pos_site_id
 _symmetry_equiv_pos_as_xyz
  1  'x, y, z'
loop_
 _atom_site_type_symbol
 _atom_site_label
 _atom_site_symmetry_multiplicity
 _atom_site_fract_x
 _atom_site_fract_y
 _atom_site_fract_z
 _atom_site_occupancy
  Tb  Tb0  1  0.01957600  0.92616700  0.25000000  1
  Tb  Tb1  1  0.48042400  0.42616700  0.25000000  1
  Tb  Tb2  1  0.51957600  0.57383300  0.75000000  1
  Tb  Tb3  1  0.98042400  0.07383300  0.75000000  1
  Ni  Ni4  1  0.00000000  0.50000000  0.00000000  1
  Ni  Ni5  1  0.00000000  0.50000000  0.50000000  1
  Ni  Ni6  1  0.50000000  0.00000000  0.00000000  1
  Ni  Ni7  1  0.50000000  0.00000000  0.50000000  1
  O  O8  1  0.09977700  0.47141000  0.75000000  1
  O  O9  1  0.19350500  0.19977400  0.44944700  1
  O  O10  1  0.19350500  0.19977400  0.05055300  1
  O  O11  1  0.30649500  0.69977400  0.44944700  1
  O  O12  1  0.30649500  0.69977400  0.05055300  1
  O  O13  1  0.40022300  0.97141000  0.75000000  1
  O  O14  1  0.59977700  0.02859000  0.25000000  1
  O  O15  1  0.69350500  0.30022600  0.94944700  1
  O  O16  1  0.69350500  0.30022600  0.55055300  1
  O  O17  1  0.80649500  0.80022600  0.94944700  1
  O  O18  1  0.80649500  0.80022600  0.55055300  1
  O  O19  1  0.90022300  0.52859000  0.25000000  1
