# generated using pymatgen
data_K3EuSi3(HO5)2
_symmetry_space_group_name_H-M   'P 1'
_cell_length_a   6.05256100
_cell_length_b   13.34059300
_cell_length_c   13.90349300
_cell_angle_alpha   90.00000000
_cell_angle_beta   90.00000000
_cell_angle_gamma   90.00000000
_symmetry_Int_Tables_number   1
_chemical_formula_structural   K3EuSi3(HO5)2
_chemical_formula_sum   'K12 Eu4 Si12 H8 O40'
_cell_volume   1122.63410685
_cell_formula_units_Z   4
loop_
 _symmetry_equiv_pos_site_id
 _symmetry_equiv_pos_as_xyz
  1  'x, y, z'
loop_
 _atom_site_type_symbol
 _atom_site_label
 _atom_site_symmetry_multiplicity
 _atom_site_fract_x
 _atom_site_fract_y
 _atom_site_fract_z
 _atom_site_occupancy
  K  K0  1  0.92838700  0.62499100  0.75000000  1
  K  K1  1  0.59094900  0.63742500  0.51560000  1
  K  K2  1  0.59094900  0.63742500  0.98440000  1
  K  K3  1  0.09094900  0.86257500  0.01560000  1
  K  K4  1  0.09094900  0.86257500  0.48440000  1
  K  K5  1  0.42838700  0.87500900  0.25000000  1
  K  K6  1  0.57161300  0.12499100  0.75000000  1
  K  K7  1  0.90905100  0.13742500  0.51560000  1
  K  K8  1  0.90905100  0.13742500  0.98440000  1
  K  K9  1  0.40905100  0.36257500  0.01560000  1
  K  K10  1  0.40905100  0.36257500  0.48440000  1
  K  K11  1  0.07161300  0.37500900  0.25000000  1
  Eu  Eu12  1  0.58548600  0.54215100  0.25000000  1
  Eu  Eu13  1  0.08548600  0.95784900  0.75000000  1
  Eu  Eu14  1  0.91451400  0.04215100  0.25000000  1
  Eu  Eu15  1  0.41451400  0.45784900  0.75000000  1
  Si  Si16  1  0.08997500  0.59823300  0.10288800  1
  Si  Si17  1  0.08997500  0.59823300  0.39711200  1
  Si  Si18  1  0.42771300  0.74870400  0.75000000  1
  Si  Si19  1  0.92771300  0.75129600  0.25000000  1
  Si  Si20  1  0.58997500  0.90176700  0.60288800  1
  Si  Si21  1  0.58997500  0.90176700  0.89711200  1
  Si  Si22  1  0.41002500  0.09823300  0.10288800  1
  Si  Si23  1  0.41002500  0.09823300  0.39711200  1
  Si  Si24  1  0.07228700  0.24870400  0.75000000  1
  Si  Si25  1  0.57228700  0.25129600  0.25000000  1
  Si  Si26  1  0.91002500  0.40176700  0.60288800  1
  Si  Si27  1  0.91002500  0.40176700  0.89711200  1
  H  H28  1  0.11209400  0.57297800  0.94138700  1
  H  H29  1  0.11209400  0.57297800  0.55861300  1
  H  H30  1  0.61209400  0.92702200  0.44138700  1
  H  H31  1  0.61209400  0.92702200  0.05861300  1
  H  H32  1  0.38790600  0.07297800  0.94138700  1
  H  H33  1  0.38790600  0.07297800  0.55861300  1
  H  H34  1  0.88790600  0.42702200  0.05861300  1
  H  H35  1  0.88790600  0.42702200  0.44138700  1
  O  O36  1  0.87273600  0.53014900  0.12777700  1
  O  O37  1  0.87273600  0.53014900  0.37222300  1
  O  O38  1  0.32130600  0.54286100  0.12745800  1
  O  O39  1  0.32130600  0.54286100  0.37254200  1
  O  O40  1  0.43703600  0.62807800  0.75000000  1
  O  O41  1  0.09045900  0.63233400  0.51412700  1
  O  O42  1  0.09045900  0.63233400  0.98587300  1
  O  O43  1  0.67843000  0.70792600  0.25000000  1
  O  O44  1  0.07126300  0.71099200  0.15447200  1
  O  O45  1  0.07126300  0.71099200  0.34552800  1
  O  O46  1  0.57126300  0.78900800  0.65447200  1
  O  O47  1  0.57126300  0.78900800  0.84552800  1
  O  O48  1  0.17843000  0.79207400  0.75000000  1
  O  O49  1  0.59045900  0.86766600  0.48587300  1
  O  O50  1  0.59045900  0.86766600  0.01412700  1
  O  O51  1  0.93703600  0.87192200  0.25000000  1
  O  O52  1  0.82130600  0.95713900  0.62745800  1
  O  O53  1  0.82130600  0.95713900  0.87254200  1
  O  O54  1  0.37273600  0.96985100  0.62777700  1
  O  O55  1  0.37273600  0.96985100  0.87222300  1
  O  O56  1  0.62726400  0.03014900  0.12777700  1
  O  O57  1  0.62726400  0.03014900  0.37222300  1
  O  O58  1  0.17869400  0.04286100  0.12745800  1
  O  O59  1  0.17869400  0.04286100  0.37254200  1
  O  O60  1  0.06296400  0.12807800  0.75000000  1
  O  O61  1  0.40954100  0.13233400  0.51412700  1
  O  O62  1  0.40954100  0.13233400  0.98587300  1
  O  O63  1  0.82157000  0.20792600  0.25000000  1
  O  O64  1  0.42873700  0.21099200  0.15447200  1
  O  O65  1  0.42873700  0.21099200  0.34552800  1
  O  O66  1  0.92873700  0.28900800  0.65447200  1
  O  O67  1  0.92873700  0.28900800  0.84552800  1
  O  O68  1  0.32157000  0.29207400  0.75000000  1
  O  O69  1  0.90954100  0.36766600  0.01412700  1
  O  O70  1  0.90954100  0.36766600  0.48587300  1
  O  O71  1  0.56296400  0.37192200  0.25000000  1
  O  O72  1  0.67869400  0.45713900  0.62745800  1
  O  O73  1  0.67869400  0.45713900  0.87254200  1
  O  O74  1  0.12726400  0.46985100  0.62777700  1
  O  O75  1  0.12726400  0.46985100  0.87222300  1
