# generated using pymatgen
data_LaH9(SO6)2
_symmetry_space_group_name_H-M   'P 1'
_cell_length_a   6.96125900
_cell_length_b   11.29125300
_cell_length_c   13.63898376
_cell_angle_alpha   69.22404911
_cell_angle_beta   90.00000000
_cell_angle_gamma   90.00000000
_symmetry_Int_Tables_number   1
_chemical_formula_structural   LaH9(SO6)2
_chemical_formula_sum   'La4 H36 S8 O48'
_cell_volume   1002.33241845
_cell_formula_units_Z   4
loop_
 _symmetry_equiv_pos_site_id
 _symmetry_equiv_pos_as_xyz
  1  'x, y, z'
loop_
 _atom_site_type_symbol
 _atom_site_label
 _atom_site_symmetry_multiplicity
 _atom_site_fract_x
 _atom_site_fract_y
 _atom_site_fract_z
 _atom_site_occupancy
  La  La0  1  0.26770200  0.85557800  0.90351200  1
  La  La1  1  0.23229800  0.85557800  0.40351200  1
  La  La2  1  0.76770200  0.14442200  0.59648800  1
  La  La3  1  0.73229800  0.14442200  0.09648800  1
  H  H4  1  0.89782900  0.85296400  0.70864100  1
  H  H5  1  0.83764200  0.87227100  0.59256400  1
  H  H6  1  0.57970800  0.80681600  0.74458300  1
  H  H7  1  0.57924600  0.68650900  0.84774100  1
  H  H8  1  0.97689600  0.65294600  0.86132200  1
  H  H9  1  0.13448100  0.68069800  0.77243600  1
  H  H10  1  0.60217100  0.85296400  0.20864100  1
  H  H11  1  0.66235800  0.87227100  0.09256400  1
  H  H12  1  0.92029200  0.80681600  0.24458300  1
  H  H13  1  0.62338500  0.63592900  0.59112200  1
  H  H14  1  0.87206400  0.62605100  0.58846400  1
  H  H15  1  0.74299400  0.54628700  0.70168300  1
  H  H16  1  0.92075400  0.68650900  0.34774100  1
  H  H17  1  0.52310400  0.65294600  0.36132200  1
  H  H18  1  0.36551900  0.68069800  0.27243600  1
  H  H19  1  0.24299400  0.45371300  0.79831700  1
  H  H20  1  0.37206400  0.37394900  0.91153600  1
  H  H21  1  0.12338500  0.36407100  0.90887800  1
  H  H22  1  0.87661500  0.63592900  0.09112200  1
  H  H23  1  0.62793600  0.62605100  0.08846400  1
  H  H24  1  0.75700600  0.54628700  0.20168300  1
  H  H25  1  0.63448100  0.31930200  0.72756400  1
  H  H26  1  0.47689600  0.34705400  0.63867800  1
  H  H27  1  0.07924600  0.31349100  0.65225900  1
  H  H28  1  0.25700600  0.45371300  0.29831700  1
  H  H29  1  0.12793600  0.37394900  0.41153600  1
  H  H30  1  0.37661500  0.36407100  0.40887800  1
  H  H31  1  0.07970800  0.19318400  0.75541700  1
  H  H32  1  0.33764200  0.12772900  0.90743600  1
  H  H33  1  0.39782900  0.14703600  0.79135900  1
  H  H34  1  0.86551900  0.31930200  0.22756400  1
  H  H35  1  0.02310400  0.34705400  0.13867800  1
  H  H36  1  0.42075400  0.31349100  0.15225900  1
  H  H37  1  0.42029200  0.19318400  0.25541700  1
  H  H38  1  0.16235800  0.12772900  0.40743600  1
  H  H39  1  0.10217100  0.14703600  0.29135900  1
  S  S40  1  0.75228600  0.98438200  0.89509000  1
  S  S41  1  0.74771400  0.98438200  0.39509000  1
  S  S42  1  0.24382500  0.57212300  0.59661700  1
  S  S43  1  0.74382500  0.42787700  0.90338300  1
  S  S44  1  0.25617500  0.57212300  0.09661700  1
  S  S45  1  0.75617500  0.42787700  0.40338300  1
  S  S46  1  0.25228600  0.01561800  0.60491000  1
  S  S47  1  0.24771400  0.01561800  0.10491000  1
  O  O48  1  0.93995100  0.91929100  0.90840100  1
  O  O49  1  0.60548400  0.89042000  0.95810600  1
  O  O50  1  0.19429000  0.97108400  0.71683800  1
  O  O51  1  0.79964300  0.89297800  0.65482900  1
  O  O52  1  0.26049600  0.90753700  0.56765500  1
  O  O53  1  0.49872500  0.75769300  0.80477400  1
  O  O54  1  0.56004900  0.91929100  0.40840100  1
  O  O55  1  0.89451600  0.89042000  0.45810600  1
  O  O56  1  0.06799900  0.71810600  0.81826400  1
  O  O57  1  0.30571000  0.97108400  0.21683800  1
  O  O58  1  0.70035700  0.89297800  0.15482900  1
  O  O59  1  0.76712600  0.55560100  0.90748600  1
  O  O60  1  0.23950400  0.90753700  0.06765500  1
  O  O61  1  0.75056400  0.62468000  0.63108800  1
  O  O62  1  0.41196400  0.65552300  0.54825200  1
  O  O63  1  0.00127500  0.75769300  0.30477400  1
  O  O64  1  0.07399600  0.63992800  0.53297100  1
  O  O65  1  0.21565100  0.56504000  0.70752300  1
  O  O66  1  0.43200100  0.71810600  0.31826400  1
  O  O67  1  0.71565100  0.43496000  0.79247700  1
  O  O68  1  0.57399600  0.36007200  0.96702900  1
  O  O69  1  0.91196400  0.34447700  0.95174800  1
  O  O70  1  0.25056400  0.37532000  0.86891200  1
  O  O71  1  0.73287400  0.55560100  0.40748600  1
  O  O72  1  0.26712600  0.44439900  0.59251400  1
  O  O73  1  0.74943600  0.62468000  0.13108800  1
  O  O74  1  0.08803600  0.65552300  0.04825200  1
  O  O75  1  0.42600400  0.63992800  0.03297100  1
  O  O76  1  0.28434900  0.56504000  0.20752300  1
  O  O77  1  0.56799900  0.28189400  0.68173600  1
  O  O78  1  0.78434900  0.43496000  0.29247700  1
  O  O79  1  0.92600400  0.36007200  0.46702900  1
  O  O80  1  0.99872500  0.24230700  0.69522600  1
  O  O81  1  0.58803600  0.34447700  0.45174800  1
  O  O82  1  0.24943600  0.37532000  0.36891200  1
  O  O83  1  0.76049600  0.09246300  0.93234500  1
  O  O84  1  0.23287400  0.44439900  0.09251400  1
  O  O85  1  0.29964300  0.10702200  0.84517100  1
  O  O86  1  0.69429000  0.02891600  0.78316200  1
  O  O87  1  0.93200100  0.28189400  0.18173600  1
  O  O88  1  0.10548400  0.10958000  0.54189400  1
  O  O89  1  0.43995100  0.08070900  0.59159900  1
  O  O90  1  0.50127500  0.24230700  0.19522600  1
  O  O91  1  0.73950400  0.09246300  0.43234500  1
  O  O92  1  0.20035700  0.10702200  0.34517100  1
  O  O93  1  0.80571000  0.02891600  0.28316200  1
  O  O94  1  0.39451600  0.10958000  0.04189400  1
  O  O95  1  0.06004900  0.08070900  0.09159900  1
