# generated using pymatgen
data_CdH2SeO5
_symmetry_space_group_name_H-M   'P 1'
_cell_length_a   7.81794400
_cell_length_b   7.93896700
_cell_length_c   8.56871503
_cell_angle_alpha   57.23817760
_cell_angle_beta   90.00000000
_cell_angle_gamma   90.00000000
_symmetry_Int_Tables_number   1
_chemical_formula_structural   CdH2SeO5
_chemical_formula_sum   'Cd4 H8 Se4 O20'
_cell_volume   447.22980614
_cell_formula_units_Z   4
loop_
 _symmetry_equiv_pos_site_id
 _symmetry_equiv_pos_as_xyz
  1  'x, y, z'
loop_
 _atom_site_type_symbol
 _atom_site_label
 _atom_site_symmetry_multiplicity
 _atom_site_fract_x
 _atom_site_fract_y
 _atom_site_fract_z
 _atom_site_occupancy
  Cd  Cd0  1  0.73730000  0.78874900  0.75750900  1
  Cd  Cd1  1  0.23730000  0.21125100  0.74249100  1
  Cd  Cd2  1  0.26270000  0.21125100  0.24249100  1
  Cd  Cd3  1  0.76270000  0.78874900  0.25750900  1
  H  H4  1  0.49448100  0.79727600  0.01379200  1
  H  H5  1  0.99448100  0.20272400  0.48620800  1
  H  H6  1  0.50551900  0.20272400  0.98620800  1
  H  H7  1  0.00551900  0.79727600  0.51379200  1
  H  H8  1  0.57580800  0.58182300  0.11741400  1
  H  H9  1  0.07580800  0.41817700  0.38258600  1
  H  H10  1  0.42419200  0.41817700  0.88258600  1
  H  H11  1  0.92419200  0.58182300  0.61741400  1
  Se  Se12  1  0.11734800  0.73672800  0.01655300  1
  Se  Se13  1  0.61734800  0.26327200  0.48344700  1
  Se  Se14  1  0.88265200  0.26327200  0.98344700  1
  Se  Se15  1  0.38265200  0.73672800  0.51655300  1
  O  O16  1  0.99024200  0.88170100  0.83481200  1
  O  O17  1  0.49024200  0.11829900  0.66518800  1
  O  O18  1  0.00975800  0.11829900  0.16518800  1
  O  O19  1  0.50975800  0.88170100  0.33481200  1
  O  O20  1  0.00924500  0.65293300  0.21670900  1
  O  O21  1  0.50924500  0.34706700  0.28329100  1
  O  O22  1  0.99075500  0.34706700  0.78329100  1
  O  O23  1  0.49075500  0.65293300  0.71670900  1
  O  O24  1  0.19791500  0.54323500  0.01631200  1
  O  O25  1  0.69791500  0.45676500  0.48368800  1
  O  O26  1  0.80208500  0.45676500  0.98368800  1
  O  O27  1  0.30208500  0.54323500  0.51631200  1
  O  O28  1  0.27660400  0.89106300  0.99684000  1
  O  O29  1  0.77660400  0.10893700  0.50316000  1
  O  O30  1  0.72339600  0.10893700  0.00316000  1
  O  O31  1  0.22339600  0.89106300  0.49684000  1
  O  O32  1  0.60700600  0.72746500  0.03965100  1
  O  O33  1  0.10700600  0.27253500  0.46034900  1
  O  O34  1  0.39299400  0.27253500  0.96034900  1
  O  O35  1  0.89299400  0.72746500  0.53965100  1
