# generated using pymatgen
data_KSiHO3
_symmetry_space_group_name_H-M   'P 1'
_cell_length_a   7.62017957
_cell_length_b   7.62017957
_cell_length_c   11.44171500
_cell_angle_alpha   90.00000000
_cell_angle_beta   90.00000000
_cell_angle_gamma   100.73148447
_symmetry_Int_Tables_number   1
_chemical_formula_structural   KSiHO3
_chemical_formula_sum   'K8 Si8 H8 O24'
_cell_volume   652.76790338
_cell_formula_units_Z   8
loop_
 _symmetry_equiv_pos_site_id
 _symmetry_equiv_pos_as_xyz
  1  'x, y, z'
loop_
 _atom_site_type_symbol
 _atom_site_label
 _atom_site_symmetry_multiplicity
 _atom_site_fract_x
 _atom_site_fract_y
 _atom_site_fract_z
 _atom_site_occupancy
  K  K0  1  0.32246300  0.32246300  0.54305100  1
  K  K1  1  0.67753700  0.67753700  0.45694900  1
  K  K2  1  0.17753700  0.17753700  0.04305100  1
  K  K3  1  0.82246300  0.82246300  0.95694900  1
  K  K4  1  0.51052700  0.01052700  0.25000000  1
  K  K5  1  0.98947300  0.48947300  0.75000000  1
  K  K6  1  0.48947300  0.98947300  0.75000000  1
  K  K7  1  0.01052700  0.51052700  0.25000000  1
  Si  Si8  1  0.48371600  0.48371600  0.81624200  1
  Si  Si9  1  0.51628400  0.51628400  0.18375800  1
  Si  Si10  1  0.01628400  0.01628400  0.31624200  1
  Si  Si11  1  0.98371600  0.98371600  0.68375800  1
  Si  Si12  1  0.69651700  0.30348300  0.00000000  1
  Si  Si13  1  0.19651700  0.80348300  0.50000000  1
  Si  Si14  1  0.30348300  0.69651700  0.00000000  1
  Si  Si15  1  0.80348300  0.19651700  0.50000000  1
  H  H16  1  0.16846000  0.16846000  0.80653900  1
  H  H17  1  0.83154000  0.83154000  0.19346100  1
  H  H18  1  0.33154000  0.33154000  0.30653900  1
  H  H19  1  0.66846000  0.66846000  0.69346100  1
  H  H20  1  0.50000000  0.00000000  0.00000000  1
  H  H21  1  0.00000000  0.50000000  0.00000000  1
  H  H22  1  0.50000000  0.00000000  0.50000000  1
  H  H23  1  0.00000000  0.50000000  0.50000000  1
  O  O24  1  0.15821200  0.93310700  0.61150600  1
  O  O25  1  0.06689300  0.84178800  0.38849400  1
  O  O26  1  0.56689300  0.34178800  0.11150600  1
  O  O27  1  0.65821200  0.43310700  0.88849400  1
  O  O28  1  0.84178800  0.06689300  0.38849400  1
  O  O29  1  0.93310700  0.15821200  0.61150600  1
  O  O30  1  0.43310700  0.65821200  0.88849400  1
  O  O31  1  0.34178800  0.56689300  0.11150600  1
  O  O32  1  0.63704200  0.09397900  0.96686000  1
  O  O33  1  0.90602100  0.36295800  0.03314000  1
  O  O34  1  0.40602100  0.86295800  0.46686000  1
  O  O35  1  0.13704200  0.59397900  0.53314000  1
  O  O36  1  0.36295800  0.90602100  0.03314000  1
  O  O37  1  0.09397900  0.63704200  0.96686000  1
  O  O38  1  0.59397900  0.13704200  0.53314000  1
  O  O39  1  0.86295800  0.40602100  0.46686000  1
  O  O40  1  0.06242600  0.06242600  0.81182400  1
  O  O41  1  0.93757400  0.93757400  0.18817600  1
  O  O42  1  0.43757400  0.43757400  0.31182400  1
  O  O43  1  0.56242600  0.56242600  0.68817600  1
  O  O44  1  0.32140000  0.32140000  0.79903700  1
  O  O45  1  0.67860000  0.67860000  0.20096300  1
  O  O46  1  0.17860000  0.17860000  0.29903700  1
  O  O47  1  0.82140000  0.82140000  0.70096300  1
