# generated using pymatgen
data_Co(BiO3)2
_symmetry_space_group_name_H-M   'P 1'
_cell_length_a   8.92563778
_cell_length_b   8.92563778
_cell_length_c   5.01495200
_cell_angle_alpha   90.00000000
_cell_angle_beta   90.00000000
_cell_angle_gamma   119.99999838
_symmetry_Int_Tables_number   1
_chemical_formula_structural   Co(BiO3)2
_chemical_formula_sum   'Co3 Bi6 O18'
_cell_volume   345.99987042
_cell_formula_units_Z   3
loop_
 _symmetry_equiv_pos_site_id
 _symmetry_equiv_pos_as_xyz
  1  'x, y, z'
loop_
 _atom_site_type_symbol
 _atom_site_label
 _atom_site_symmetry_multiplicity
 _atom_site_fract_x
 _atom_site_fract_y
 _atom_site_fract_z
 _atom_site_occupancy
  Co  Co0  1  0.00000000  0.00000000  0.50000000  1
  Co  Co1  1  0.33333300  0.66666700  0.99955700  1
  Co  Co2  1  0.66666700  0.33333300  0.00044300  1
  Bi  Bi3  1  0.00000000  0.37399700  0.50000000  1
  Bi  Bi4  1  0.29230100  0.29230100  0.00000000  1
  Bi  Bi5  1  0.00000000  0.70769900  0.00000000  1
  Bi  Bi6  1  0.62600300  0.62600300  0.50000000  1
  Bi  Bi7  1  0.37399700  0.00000000  0.50000000  1
  Bi  Bi8  1  0.70769900  0.00000000  0.00000000  1
  O  O9  1  0.08252500  0.19983600  0.71733900  1
  O  O10  1  0.23302300  0.46542100  0.22052300  1
  O  O11  1  0.13646700  0.59784900  0.78072600  1
  O  O12  1  0.40215100  0.53861800  0.78072600  1
  O  O13  1  0.23239800  0.76697700  0.22052300  1
  O  O14  1  0.11731100  0.91747500  0.71733900  1
  O  O15  1  0.53457900  0.76760200  0.22052300  1
  O  O16  1  0.19983600  0.08252500  0.28266100  1
  O  O17  1  0.46138200  0.86353300  0.78072600  1
  O  O18  1  0.80016400  0.88268900  0.71733900  1
  O  O19  1  0.46542100  0.23302300  0.77947700  1
  O  O20  1  0.59784900  0.13646700  0.21927400  1
  O  O21  1  0.53861800  0.40215100  0.21927400  1
  O  O22  1  0.76697700  0.23239800  0.77947700  1
  O  O23  1  0.91747500  0.11731100  0.28266100  1
  O  O24  1  0.76760200  0.53457900  0.77947700  1
  O  O25  1  0.86353300  0.46138200  0.21927400  1
  O  O26  1  0.88268900  0.80016400  0.28266100  1
