# generated using pymatgen
data_Gd5Y3O12
_symmetry_space_group_name_H-M   'P 1'
_cell_length_a   9.35625319
_cell_length_b   9.35625319
_cell_length_c   9.35625319
_cell_angle_alpha   109.49196900
_cell_angle_beta   109.48841437
_cell_angle_gamma   109.43328521
_symmetry_Int_Tables_number   1
_chemical_formula_structural   Gd5Y3O12
_chemical_formula_sum   'Gd10 Y6 O24'
_cell_volume   630.49821749
_cell_formula_units_Z   2
loop_
 _symmetry_equiv_pos_site_id
 _symmetry_equiv_pos_as_xyz
  1  'x, y, z'
loop_
 _atom_site_type_symbol
 _atom_site_label
 _atom_site_symmetry_multiplicity
 _atom_site_fract_x
 _atom_site_fract_y
 _atom_site_fract_z
 _atom_site_occupancy
  Gd  Gd0  1  0.21649000  0.96649000  0.25000000  1
  Gd  Gd1  1  0.03247800  0.75000000  0.78247800  1
  Gd  Gd2  1  0.53203300  0.75000000  0.28203300  1
  Gd  Gd3  1  0.71816100  0.46816100  0.25000000  1
  Gd  Gd4  1  0.28351000  0.53351000  0.75000000  1
  Gd  Gd5  1  0.46752200  0.25000000  0.71752200  1
  Gd  Gd6  1  0.96796700  0.25000000  0.21796700  1
  Gd  Gd7  1  0.75000000  0.28240600  0.53240600  1
  Gd  Gd8  1  0.25000000  0.21759400  0.96759400  1
  Gd  Gd9  1  0.78183900  0.03183900  0.75000000  1
  Y  Y10  1  0.99951400  0.50059500  0.00079900  1
  Y  Y11  1  0.75000000  0.78329200  0.03329200  1
  Y  Y12  1  0.25000000  0.71670800  0.46670800  1
  Y  Y13  1  0.99979600  0.99871500  0.49920100  1
  Y  Y14  1  0.50020400  0.99940500  0.99891900  1
  Y  Y15  1  0.50048600  0.50128500  0.50108100  1
  O  O16  1  0.49114100  0.76351300  0.03163800  1
  O  O17  1  0.26812500  0.73648700  0.22762800  1
  O  O18  1  0.04178400  0.27333100  0.01059700  1
  O  O19  1  0.23740100  0.96610400  0.51038900  1
  O  O20  1  0.26259900  0.77298800  0.72870300  1
  O  O21  1  0.45821600  0.46881300  0.23154700  1
  O  O22  1  0.00885900  0.04049700  0.27237200  1
  O  O23  1  0.23187500  0.45950300  0.46836200  1
  O  O24  1  0.52920600  0.76933000  0.54186200  1
  O  O25  1  0.77253200  0.73067000  0.25987600  1
  O  O26  1  0.03202100  0.49033600  0.76358400  1
  O  O27  1  0.27324800  0.00966400  0.04168500  1
  O  O28  1  0.22675200  0.26843700  0.73641600  1
  O  O29  1  0.46797900  0.23156300  0.45831500  1
  O  O30  1  0.72746800  0.98734400  0.95813800  1
  O  O31  1  0.97079400  0.51265600  0.24012400  1
  O  O32  1  0.76867700  0.54222500  0.53139900  1
  O  O33  1  0.98917400  0.95777500  0.72645200  1
  O  O34  1  0.54428500  0.53389600  0.77129700  1
  O  O35  1  0.73726600  0.22666900  0.26845300  1
  O  O36  1  0.95571500  0.72701200  0.98961100  1
  O  O37  1  0.76273400  0.03118700  0.48940300  1
  O  O38  1  0.51082600  0.23727800  0.96860100  1
  O  O39  1  0.73132300  0.26272200  0.77354800  1
