# generated using pymatgen
data_SmBiO4
_symmetry_space_group_name_H-M   'P 1'
_cell_length_a   6.78680736
_cell_length_b   6.78680736
_cell_length_c   5.35300620
_cell_angle_alpha   69.51892275
_cell_angle_beta   69.51892275
_cell_angle_gamma   114.31929759
_symmetry_Int_Tables_number   1
_chemical_formula_structural   SmBiO4
_chemical_formula_sum   'Sm2 Bi2 O8'
_cell_volume   171.66000880
_cell_formula_units_Z   2
loop_
 _symmetry_equiv_pos_site_id
 _symmetry_equiv_pos_as_xyz
  1  'x, y, z'
loop_
 _atom_site_type_symbol
 _atom_site_label
 _atom_site_symmetry_multiplicity
 _atom_site_fract_x
 _atom_site_fract_y
 _atom_site_fract_z
 _atom_site_occupancy
  Sm  Sm0  1  0.86281800  0.13718200  0.75000000  1
  Sm  Sm1  1  0.13718200  0.86281800  0.25000000  1
  Bi  Bi2  1  0.59910400  0.40089600  0.25000000  1
  Bi  Bi3  1  0.40089600  0.59910400  0.75000000  1
  O  O4  1  0.45111100  0.88763400  0.83500100  1
  O  O5  1  0.28352900  0.23132500  0.73328700  1
  O  O6  1  0.76867500  0.71647100  0.76671300  1
  O  O7  1  0.88763400  0.45111100  0.33500100  1
  O  O8  1  0.11236600  0.54888900  0.66499900  1
  O  O9  1  0.23132500  0.28352900  0.23328700  1
  O  O10  1  0.71647100  0.76867500  0.26671300  1
  O  O11  1  0.54888900  0.11236600  0.16499900  1
