# generated using pymatgen
data_K2Zn3P4(HO3)4
_symmetry_space_group_name_H-M   'P 1'
_cell_length_a   13.85102700
_cell_length_b   8.75424200
_cell_length_c   12.55645281
_cell_angle_alpha   89.24649933
_cell_angle_beta   90.00000000
_cell_angle_gamma   90.00000000
_symmetry_Int_Tables_number   1
_chemical_formula_structural   K2Zn3P4(HO3)4
_chemical_formula_sum   'K8 Zn12 P16 H16 O48'
_cell_volume   1522.40406783
_cell_formula_units_Z   4
loop_
 _symmetry_equiv_pos_site_id
 _symmetry_equiv_pos_as_xyz
  1  'x, y, z'
loop_
 _atom_site_type_symbol
 _atom_site_label
 _atom_site_symmetry_multiplicity
 _atom_site_fract_x
 _atom_site_fract_y
 _atom_site_fract_z
 _atom_site_occupancy
  K  K0  1  0.94610100  0.76109600  0.01885500  1
  K  K1  1  0.44610100  0.73890400  0.98114500  1
  K  K2  1  0.05389900  0.23890400  0.98114500  1
  K  K3  1  0.55389900  0.26109600  0.01885500  1
  K  K4  1  0.94561400  0.74342400  0.47401800  1
  K  K5  1  0.44561400  0.75657600  0.52598200  1
  K  K6  1  0.05438600  0.25657600  0.52598200  1
  K  K7  1  0.55438600  0.24342400  0.47401800  1
  Zn  Zn8  1  0.93674000  0.94324400  0.75017100  1
  Zn  Zn9  1  0.43674000  0.55675600  0.24982900  1
  Zn  Zn10  1  0.06326000  0.05675600  0.24982900  1
  Zn  Zn11  1  0.56326000  0.44324400  0.75017100  1
  Zn  Zn12  1  0.17579700  0.61773300  0.57582900  1
  Zn  Zn13  1  0.67579700  0.88226700  0.42417100  1
  Zn  Zn14  1  0.82420300  0.38226700  0.42417100  1
  Zn  Zn15  1  0.32420300  0.11773300  0.57582900  1
  Zn  Zn16  1  0.68500200  0.91263200  0.07166200  1
  Zn  Zn17  1  0.18500200  0.58736800  0.92833800  1
  Zn  Zn18  1  0.31499800  0.08736800  0.92833800  1
  Zn  Zn19  1  0.81499800  0.41263200  0.07166200  1
  P  P20  1  0.79881400  0.09579100  0.57671000  1
  P  P21  1  0.29881400  0.40420900  0.42329000  1
  P  P22  1  0.20118600  0.90420900  0.42329000  1
  P  P23  1  0.70118600  0.59579100  0.57671000  1
  P  P24  1  0.01038300  0.56887000  0.75645500  1
  P  P25  1  0.51038300  0.93113000  0.24354500  1
  P  P26  1  0.98961700  0.43113000  0.24354500  1
  P  P27  1  0.48961700  0.06887000  0.75645500  1
  P  P28  1  0.80287000  0.12844700  0.91873500  1
  P  P29  1  0.30287000  0.37155300  0.08126500  1
  P  P30  1  0.19713000  0.87155300  0.08126500  1
  P  P31  1  0.69713000  0.62844700  0.91873500  1
  P  P32  1  0.15644600  0.06975100  0.74402100  1
  P  P33  1  0.65644600  0.43024900  0.25597900  1
  P  P34  1  0.84355400  0.93024900  0.25597900  1
  P  P35  1  0.34355400  0.56975100  0.74402100  1
  H  H36  1  0.77221800  0.19031500  0.66214900  1
  H  H37  1  0.27221800  0.30968500  0.33785100  1
  H  H38  1  0.22778200  0.80968500  0.33785100  1
  H  H39  1  0.72778200  0.69031500  0.66214900  1
  H  H40  1  0.92844300  0.47305300  0.75940800  1
  H  H41  1  0.42844300  0.02694700  0.24059200  1
  H  H42  1  0.07155700  0.52694700  0.24059200  1
  H  H43  1  0.57155700  0.97305300  0.75940800  1
  H  H44  1  0.78146800  0.21946600  0.82846800  1
  H  H45  1  0.28146800  0.28053400  0.17153200  1
  H  H46  1  0.21853200  0.78053400  0.17153200  1
  H  H47  1  0.71853200  0.71946600  0.82846800  1
  H  H48  1  0.18049600  0.91429100  0.73184200  1
  H  H49  1  0.68049600  0.58570900  0.26815800  1
  H  H50  1  0.81950400  0.08570900  0.26815800  1
  H  H51  1  0.31950400  0.41429100  0.73184200  1
  O  O52  1  0.04596500  0.08691400  0.73716000  1
  O  O53  1  0.54596500  0.41308600  0.26284000  1
  O  O54  1  0.95403500  0.91308600  0.26284000  1
  O  O55  1  0.45403500  0.58691400  0.73716000  1
  O  O56  1  0.86791300  0.99590500  0.88251300  1
  O  O57  1  0.36791300  0.50409500  0.11748700  1
  O  O58  1  0.13208700  0.00409500  0.11748700  1
  O  O59  1  0.63208700  0.49590500  0.88251300  1
  O  O60  1  0.85752600  0.95902200  0.62101500  1
  O  O61  1  0.35752600  0.54097800  0.37898500  1
  O  O62  1  0.14247400  0.04097800  0.37898500  1
  O  O63  1  0.64247400  0.45902200  0.62101500  1
  O  O64  1  0.97609800  0.73203700  0.77729000  1
  O  O65  1  0.47609800  0.76796300  0.22271000  1
  O  O66  1  0.02390200  0.26796300  0.22271000  1
  O  O67  1  0.52390200  0.23203700  0.77729000  1
  O  O68  1  0.05394100  0.54811500  0.64349700  1
  O  O69  1  0.55394100  0.95188500  0.35650300  1
  O  O70  1  0.94605900  0.45188500  0.35650300  1
  O  O71  1  0.44605900  0.04811500  0.64349700  1
  O  O72  1  0.70215400  0.04651800  0.52749400  1
  O  O73  1  0.20215400  0.45348200  0.47250600  1
  O  O74  1  0.29784600  0.95348200  0.47250600  1
  O  O75  1  0.79784600  0.54651800  0.52749400  1
  O  O76  1  0.86259000  0.19360700  0.50099900  1
  O  O77  1  0.36259000  0.30639300  0.49900100  1
  O  O78  1  0.13741000  0.80639300  0.49900100  1
  O  O79  1  0.63741000  0.69360700  0.50099900  1
  O  O80  1  0.20422900  0.15922700  0.65110900  1
  O  O81  1  0.70422900  0.34077300  0.34889100  1
  O  O82  1  0.79577100  0.84077300  0.34889100  1
  O  O83  1  0.29577100  0.65922700  0.65110900  1
  O  O84  1  0.19358400  0.12023400  0.85336600  1
  O  O85  1  0.69358400  0.37976600  0.14663400  1
  O  O86  1  0.80641600  0.87976600  0.14663400  1
  O  O87  1  0.30641600  0.62023400  0.85336600  1
  O  O88  1  0.07503300  0.50667500  0.84729400  1
  O  O89  1  0.57503300  0.99332500  0.15270600  1
  O  O90  1  0.92496700  0.49332500  0.15270600  1
  O  O91  1  0.42496700  0.00667500  0.84729400  1
  O  O92  1  0.85932000  0.23084800  0.99613300  1
  O  O93  1  0.35932000  0.26915200  0.00386700  1
  O  O94  1  0.14068000  0.76915200  0.00386700  1
  O  O95  1  0.64068000  0.73084800  0.99613300  1
  O  O96  1  0.70437900  0.07484000  0.96177400  1
  O  O97  1  0.20437900  0.42516000  0.03822600  1
  O  O98  1  0.29562100  0.92516000  0.03822600  1
  O  O99  1  0.79562100  0.57484000  0.96177400  1
