# generated using pymatgen
data_CaTi2(HO3)2
_symmetry_space_group_name_H-M   'P 1'
_cell_length_a   12.20023400
_cell_length_b   4.97458500
_cell_length_c   16.06461528
_cell_angle_alpha   81.05251697
_cell_angle_beta   90.00000000
_cell_angle_gamma   90.00000000
_symmetry_Int_Tables_number   1
_chemical_formula_structural   CaTi2(HO3)2
_chemical_formula_sum   'Ca8 Ti16 H16 O48'
_cell_volume   963.11497245
_cell_formula_units_Z   8
loop_
 _symmetry_equiv_pos_site_id
 _symmetry_equiv_pos_as_xyz
  1  'x, y, z'
loop_
 _atom_site_type_symbol
 _atom_site_label
 _atom_site_symmetry_multiplicity
 _atom_site_fract_x
 _atom_site_fract_y
 _atom_site_fract_z
 _atom_site_occupancy
  Ca  Ca0  1  0.45040300  0.78648700  0.74025100  1
  Ca  Ca1  1  0.04959700  0.78648700  0.24025100  1
  Ca  Ca2  1  0.54959700  0.21351300  0.25974900  1
  Ca  Ca3  1  0.95040300  0.21351300  0.75974900  1
  Ca  Ca4  1  0.81180000  0.21184200  0.37766000  1
  Ca  Ca5  1  0.68820000  0.21184200  0.87766000  1
  Ca  Ca6  1  0.18820000  0.78815800  0.62234000  1
  Ca  Ca7  1  0.31180000  0.78815800  0.12234000  1
  Ti  Ti8  1  0.19649200  0.37077900  0.45762200  1
  Ti  Ti9  1  0.30350800  0.37077900  0.95762200  1
  Ti  Ti10  1  0.80350800  0.62922100  0.54237800  1
  Ti  Ti11  1  0.69649200  0.62922100  0.04237800  1
  Ti  Ti12  1  0.01237900  0.78658100  0.43928800  1
  Ti  Ti13  1  0.48762100  0.78658100  0.93928800  1
  Ti  Ti14  1  0.98762100  0.21341900  0.56071200  1
  Ti  Ti15  1  0.51237900  0.21341900  0.06071200  1
  Ti  Ti16  1  0.40995300  0.40607400  0.57267000  1
  Ti  Ti17  1  0.09004700  0.40607400  0.07267000  1
  Ti  Ti18  1  0.59004700  0.59392600  0.42733000  1
  Ti  Ti19  1  0.90995300  0.59392600  0.92733000  1
  Ti  Ti20  1  0.61237400  0.03643800  0.54859800  1
  Ti  Ti21  1  0.88762600  0.03643800  0.04859800  1
  Ti  Ti22  1  0.38762600  0.96356200  0.45140200  1
  Ti  Ti23  1  0.11237400  0.96356200  0.95140200  1
  H  H24  1  0.70423200  0.78507600  0.28950800  1
  H  H25  1  0.79576800  0.78507600  0.78950800  1
  H  H26  1  0.29576800  0.21492400  0.71049200  1
  H  H27  1  0.20423200  0.21492400  0.21049200  1
  H  H28  1  0.58453300  0.34993000  0.70241900  1
  H  H29  1  0.91546700  0.34993000  0.20241900  1
  H  H30  1  0.41546700  0.65007000  0.29758100  1
  H  H31  1  0.08453300  0.65007000  0.79758100  1
  H  H32  1  0.74833500  0.97005700  0.20617300  1
  H  H33  1  0.75166500  0.97005700  0.70617300  1
  H  H34  1  0.25166500  0.02994300  0.79382700  1
  H  H35  1  0.24833500  0.02994300  0.29382700  1
  H  H36  1  0.66316100  0.60168300  0.70125600  1
  H  H37  1  0.83683900  0.60168300  0.20125600  1
  H  H38  1  0.33683900  0.39831700  0.29874400  1
  H  H39  1  0.16316100  0.39831700  0.79874400  1
  O  O40  1  0.90258300  0.49739800  0.45989400  1
  O  O41  1  0.59741700  0.49739800  0.95989400  1
  O  O42  1  0.09741700  0.50260200  0.54010600  1
  O  O43  1  0.40258300  0.50260200  0.04010600  1
  O  O44  1  0.31254100  0.12532800  0.54738400  1
  O  O45  1  0.18745900  0.12532800  0.04738400  1
  O  O46  1  0.68745900  0.87467200  0.45261600  1
  O  O47  1  0.81254100  0.87467200  0.95261600  1
  O  O48  1  0.69226100  0.36901600  0.51600400  1
  O  O49  1  0.80773900  0.36901600  0.01600400  1
  O  O50  1  0.30773900  0.63098400  0.48399600  1
  O  O51  1  0.19226100  0.63098400  0.98399600  1
  O  O52  1  0.50330100  0.73754800  0.53505700  1
  O  O53  1  0.99669900  0.73754800  0.03505700  1
  O  O54  1  0.49669900  0.26245200  0.46494300  1
  O  O55  1  0.00330100  0.26245200  0.96494300  1
  O  O56  1  0.10111300  0.05555800  0.48752300  1
  O  O57  1  0.39888700  0.05555800  0.98752300  1
  O  O58  1  0.89888700  0.94444200  0.51247700  1
  O  O59  1  0.60111300  0.94444200  0.01247700  1
  O  O60  1  0.71213800  0.82663800  0.61781200  1
  O  O61  1  0.78786200  0.82663800  0.11781200  1
  O  O62  1  0.28786200  0.17336200  0.38218800  1
  O  O63  1  0.21213800  0.17336200  0.88218800  1
  O  O64  1  0.52052700  0.16345700  0.63295000  1
  O  O65  1  0.97947300  0.16345700  0.13295000  1
  O  O66  1  0.47947300  0.83654300  0.36705000  1
  O  O67  1  0.02052700  0.83654300  0.86705000  1
  O  O68  1  0.34529000  0.51340400  0.66235000  1
  O  O69  1  0.15471000  0.51340400  0.16235000  1
  O  O70  1  0.65471000  0.48659600  0.33765000  1
  O  O71  1  0.84529000  0.48659600  0.83765000  1
  O  O72  1  0.72355800  0.97931500  0.26488200  1
  O  O73  1  0.77644200  0.97931500  0.76488200  1
  O  O74  1  0.27644200  0.02068500  0.73511800  1
  O  O75  1  0.22355800  0.02068500  0.23511800  1
  O  O76  1  0.61152000  0.48268800  0.73910000  1
  O  O77  1  0.88848000  0.48268800  0.23910000  1
  O  O78  1  0.38848000  0.51731200  0.26090000  1
  O  O79  1  0.11152000  0.51731200  0.76090000  1
  O  O80  1  0.96441500  0.97444100  0.34420400  1
  O  O81  1  0.53558500  0.97444100  0.84420400  1
  O  O82  1  0.03558500  0.02555900  0.65579600  1
  O  O83  1  0.46441500  0.02555900  0.15579600  1
  O  O84  1  0.12026600  0.59208700  0.37630200  1
  O  O85  1  0.37973400  0.59208700  0.87630200  1
  O  O86  1  0.87973400  0.40791300  0.62369800  1
  O  O87  1  0.62026700  0.40791300  0.12369800  1
