# generated using pymatgen
data_Dy2TeO6
_symmetry_space_group_name_H-M   'P 1'
_cell_length_a   5.32125700
_cell_length_b   9.13300900
_cell_length_c   10.02224500
_cell_angle_alpha   90.00000000
_cell_angle_beta   90.00000000
_cell_angle_gamma   90.00000000
_symmetry_Int_Tables_number   1
_chemical_formula_structural   Dy2TeO6
_chemical_formula_sum   'Dy8 Te4 O24'
_cell_volume   487.07196744
_cell_formula_units_Z   4
loop_
 _symmetry_equiv_pos_site_id
 _symmetry_equiv_pos_as_xyz
  1  'x, y, z'
loop_
 _atom_site_type_symbol
 _atom_site_label
 _atom_site_symmetry_multiplicity
 _atom_site_fract_x
 _atom_site_fract_y
 _atom_site_fract_z
 _atom_site_occupancy
  Dy  Dy0  1  0.02558600  0.39681600  0.03930300  1
  Dy  Dy1  1  0.03499200  0.28209300  0.63503700  1
  Dy  Dy2  1  0.46500800  0.71790700  0.13503700  1
  Dy  Dy3  1  0.47441400  0.60318400  0.53930300  1
  Dy  Dy4  1  0.52558600  0.10318400  0.96069700  1
  Dy  Dy5  1  0.53499200  0.21790700  0.36496300  1
  Dy  Dy6  1  0.96500800  0.78209300  0.86496300  1
  Dy  Dy7  1  0.97441400  0.89681600  0.46069700  1
  Te  Te8  1  0.04106900  0.00534400  0.14648800  1
  Te  Te9  1  0.45893100  0.99465600  0.64648800  1
  Te  Te10  1  0.54106900  0.49465600  0.85351200  1
  Te  Te11  1  0.95893100  0.50534400  0.35351200  1
  O  O12  1  0.07970900  0.65494900  0.47524200  1
  O  O13  1  0.17562200  0.54952500  0.20493900  1
  O  O14  1  0.18645800  0.85902400  0.26253300  1
  O  O15  1  0.18204500  0.85770500  0.67875700  1
  O  O16  1  0.22630100  0.38486800  0.43622300  1
  O  O17  1  0.24781400  0.08687100  0.50639500  1
  O  O18  1  0.25218600  0.91312900  0.00639500  1
  O  O19  1  0.27369900  0.61513200  0.93622300  1
  O  O20  1  0.31795500  0.14229500  0.17875700  1
  O  O21  1  0.31354200  0.14097600  0.76253300  1
  O  O22  1  0.32437800  0.45047500  0.70493900  1
  O  O23  1  0.42029100  0.34505100  0.97524200  1
  O  O24  1  0.57970900  0.84505100  0.52475800  1
  O  O25  1  0.67562200  0.95047500  0.79506100  1
  O  O26  1  0.68645800  0.64097600  0.73746700  1
  O  O27  1  0.68204500  0.64229500  0.32124300  1
  O  O28  1  0.72630100  0.11513200  0.56377700  1
  O  O29  1  0.74781400  0.41312900  0.49360500  1
  O  O30  1  0.75218600  0.58687100  0.99360500  1
  O  O31  1  0.77369900  0.88486800  0.06377700  1
  O  O32  1  0.81795500  0.35770500  0.82124300  1
  O  O33  1  0.81354200  0.35902400  0.23746700  1
  O  O34  1  0.82437800  0.04952500  0.29506100  1
  O  O35  1  0.92029100  0.15494900  0.02475800  1
