# generated using pymatgen
data_Hf3Tl10Mo12PbO48
_symmetry_space_group_name_H-M   'P 1'
_cell_length_a   14.60862201
_cell_length_b   14.60862201
_cell_length_c   14.60862229
_cell_angle_alpha   43.94761026
_cell_angle_beta   43.94761026
_cell_angle_gamma   43.94761014
_symmetry_Int_Tables_number   1
_chemical_formula_structural   Hf3Tl10Mo12PbO48
_chemical_formula_sum   'Hf3 Tl10 Mo12 Pb1 O48'
_cell_volume   1363.68943813
_cell_formula_units_Z   1
loop_
 _symmetry_equiv_pos_site_id
 _symmetry_equiv_pos_as_xyz
  1  'x, y, z'
loop_
 _atom_site_type_symbol
 _atom_site_label
 _atom_site_symmetry_multiplicity
 _atom_site_fract_x
 _atom_site_fract_y
 _atom_site_fract_z
 _atom_site_occupancy
  Hf  Hf0  1  0.00000000  0.00000000  0.00000000  1
  Hf  Hf1  1  0.25081300  0.25081300  0.25081300  1
  Hf  Hf2  1  0.74918700  0.74918700  0.74918700  1
  Tl  Tl3  1  0.14675600  0.14675600  0.14675600  1
  Tl  Tl4  1  0.37358200  0.37358200  0.37358200  1
  Tl  Tl5  1  0.36051700  0.14376200  0.75790500  1
  Tl  Tl6  1  0.75790500  0.36051700  0.14376200  1
  Tl  Tl7  1  0.14376200  0.75790500  0.36051700  1
  Tl  Tl8  1  0.85623800  0.24209500  0.63948300  1
  Tl  Tl9  1  0.24209500  0.63948300  0.85623800  1
  Tl  Tl10  1  0.63948300  0.85623800  0.24209500  1
  Tl  Tl11  1  0.62641800  0.62641800  0.62641800  1
  Tl  Tl12  1  0.85324400  0.85324400  0.85324400  1
  Mo  Mo13  1  0.24997100  0.04134200  0.61417500  1
  Mo  Mo14  1  0.61417500  0.24997100  0.04134200  1
  Mo  Mo15  1  0.04134200  0.61417500  0.24997100  1
  Mo  Mo16  1  0.76741000  0.10837200  0.51726500  1
  Mo  Mo17  1  0.10837200  0.51726500  0.76741000  1
  Mo  Mo18  1  0.51726500  0.76741000  0.10837200  1
  Mo  Mo19  1  0.48273500  0.23259000  0.89162800  1
  Mo  Mo20  1  0.89162800  0.48273500  0.23259000  1
  Mo  Mo21  1  0.23259000  0.89162800  0.48273500  1
  Mo  Mo22  1  0.95865800  0.38582500  0.75002900  1
  Mo  Mo23  1  0.38582500  0.75002900  0.95865800  1
  Mo  Mo24  1  0.75002900  0.95865800  0.38582500  1
  Pb  Pb25  1  0.50000000  0.50000000  0.50000000  1
  O  O26  1  0.29074800  0.04391100  0.32681100  1
  O  O27  1  0.32681100  0.29074800  0.04391100  1
  O  O28  1  0.04391100  0.32681100  0.29074800  1
  O  O29  1  0.09619600  0.01645700  0.79578300  1
  O  O30  1  0.19277600  0.18703000  0.46299400  1
  O  O31  1  0.46299400  0.19277600  0.18703000  1
  O  O32  1  0.79578300  0.09619600  0.01645700  1
  O  O33  1  0.18703000  0.46299400  0.19277600  1
  O  O34  1  0.34032200  0.08685400  0.60448200  1
  O  O35  1  0.60448200  0.34032200  0.08685400  1
  O  O36  1  0.62922800  0.12267700  0.40495400  1
  O  O37  1  0.01645700  0.79578300  0.09619600  1
  O  O38  1  0.08685400  0.60448200  0.34032200  1
  O  O39  1  0.12267700  0.40495400  0.62922800  1
  O  O40  1  0.90033200  0.08351100  0.35293400  1
  O  O41  1  0.40495400  0.62922800  0.12267700  1
  O  O42  1  0.08351100  0.35293400  0.90033200  1
  O  O43  1  0.61304100  0.27544800  0.48541000  1
  O  O44  1  0.43585300  0.16301100  0.87551300  1
  O  O45  1  0.27544800  0.48541000  0.61304100  1
  O  O46  1  0.83698900  0.12448700  0.56414700  1
  O  O47  1  0.48541000  0.61304100  0.27544800  1
  O  O48  1  0.87551300  0.43585300  0.16301100  1
  O  O49  1  0.35293400  0.90033200  0.08351100  1
  O  O50  1  0.64706600  0.09966800  0.91648900  1
  O  O51  1  0.12448700  0.56414700  0.83698900  1
  O  O52  1  0.51459000  0.38695900  0.72455200  1
  O  O53  1  0.16301100  0.87551300  0.43585300  1
  O  O54  1  0.72455200  0.51459000  0.38695900  1
  O  O55  1  0.56414700  0.83698900  0.12448700  1
  O  O56  1  0.38695900  0.72455200  0.51459000  1
  O  O57  1  0.91648900  0.64706600  0.09966800  1
  O  O58  1  0.59504600  0.37077200  0.87732300  1
  O  O59  1  0.09966800  0.91648900  0.64706600  1
  O  O60  1  0.87732300  0.59504600  0.37077200  1
  O  O61  1  0.91314600  0.39551800  0.65967800  1
  O  O62  1  0.98354300  0.20421700  0.90380400  1
  O  O63  1  0.37077200  0.87732300  0.59504600  1
  O  O64  1  0.39551800  0.65967800  0.91314600  1
  O  O65  1  0.65967800  0.91314600  0.39551800  1
  O  O66  1  0.81297000  0.53700600  0.80722400  1
  O  O67  1  0.20421700  0.90380400  0.98354300  1
  O  O68  1  0.53700600  0.80722400  0.81297000  1
  O  O69  1  0.80722400  0.81297000  0.53700600  1
  O  O70  1  0.90380400  0.98354300  0.20421700  1
  O  O71  1  0.95608900  0.67318900  0.70925200  1
  O  O72  1  0.67318900  0.70925200  0.95608900  1
  O  O73  1  0.70925200  0.95608900  0.67318900  1
