# generated using pymatgen
data_NaDyO2
_symmetry_space_group_name_H-M   'P 1'
_cell_length_a   7.43843315
_cell_length_b   7.43843315
_cell_length_c   5.98228685
_cell_angle_alpha   75.95271000
_cell_angle_beta   75.95271000
_cell_angle_gamma   126.67862505
_symmetry_Int_Tables_number   1
_chemical_formula_structural   NaDyO2
_chemical_formula_sum   'Na4 Dy4 O8'
_cell_volume   223.27061405
_cell_formula_units_Z   4
loop_
 _symmetry_equiv_pos_site_id
 _symmetry_equiv_pos_as_xyz
  1  'x, y, z'
loop_
 _atom_site_type_symbol
 _atom_site_label
 _atom_site_symmetry_multiplicity
 _atom_site_fract_x
 _atom_site_fract_y
 _atom_site_fract_z
 _atom_site_occupancy
  Na  Na0  1  0.05585400  0.94414600  0.25000000  1
  Na  Na1  1  0.81964400  0.18035600  0.25000000  1
  Na  Na2  1  0.18035600  0.81964400  0.75000000  1
  Na  Na3  1  0.94414600  0.05585400  0.75000000  1
  Dy  Dy4  1  0.56716700  0.43283300  0.25000000  1
  Dy  Dy5  1  0.30688600  0.69311400  0.25000000  1
  Dy  Dy6  1  0.43283300  0.56716700  0.75000000  1
  Dy  Dy7  1  0.69311400  0.30688600  0.75000000  1
  O  O8  1  0.54038800  0.91668100  0.79214300  1
  O  O9  1  0.35770700  0.23088100  0.70639500  1
  O  O10  1  0.91668100  0.54038800  0.29214300  1
  O  O11  1  0.23088100  0.35770700  0.20639500  1
  O  O12  1  0.76911900  0.64229300  0.79360500  1
  O  O13  1  0.08331900  0.45961200  0.70785700  1
  O  O14  1  0.64229300  0.76911900  0.29360500  1
  O  O15  1  0.45961200  0.08331900  0.20785700  1
