# generated using pymatgen
data_Li2Mn3SbO8
_symmetry_space_group_name_H-M   'P 1'
_cell_length_a   6.02957900
_cell_length_b   6.02958713
_cell_length_c   9.80313200
_cell_angle_alpha   90.00102488
_cell_angle_beta   89.99948993
_cell_angle_gamma   119.99987897
_symmetry_Int_Tables_number   1
_chemical_formula_structural   Li2Mn3SbO8
_chemical_formula_sum   'Li4 Mn6 Sb2 O16'
_cell_volume   308.65305294
_cell_formula_units_Z   2
loop_
 _symmetry_equiv_pos_site_id
 _symmetry_equiv_pos_as_xyz
  1  'x, y, z'
loop_
 _atom_site_type_symbol
 _atom_site_label
 _atom_site_symmetry_multiplicity
 _atom_site_fract_x
 _atom_site_fract_y
 _atom_site_fract_z
 _atom_site_occupancy
  Li  Li0  1  0.33332500  0.66667800  0.90488400  1
  Li  Li1  1  0.00000400  0.99999900  0.98616500  1
  Li  Li2  1  0.99999500  0.99999600  0.48616300  1
  Li  Li3  1  0.66667700  0.33335400  0.40488400  1
  Mn  Mn4  1  0.16049000  0.82168000  0.21328500  1
  Mn  Mn5  1  0.17834000  0.33882500  0.21327600  1
  Mn  Mn6  1  0.66119800  0.83953900  0.21327300  1
  Mn  Mn7  1  0.33881800  0.17835400  0.71327800  1
  Mn  Mn8  1  0.83951700  0.66119800  0.71328200  1
  Mn  Mn9  1  0.82166200  0.16048500  0.71327200  1
  Sb  Sb10  1  0.33333600  0.66667500  0.48513300  1
  Sb  Sb11  1  0.66666300  0.33334200  0.98513800  1
  O  O12  1  0.14278000  0.80733000  0.59115000  1
  O  O13  1  0.03655000  0.47911700  0.35009000  1
  O  O14  1  0.33334100  0.66668400  0.11810200  1
  O  O15  1  0.00000300  0.00002100  0.29609100  1
  O  O16  1  0.99999200  0.00001400  0.79609000  1
  O  O17  1  0.19266500  0.33546200  0.59114300  1
  O  O18  1  0.44255800  0.96347000  0.35009600  1
  O  O19  1  0.52090900  0.55746200  0.35008600  1
  O  O20  1  0.33545300  0.19267400  0.09114400  1
  O  O21  1  0.66454200  0.85722200  0.59114700  1
  O  O22  1  0.55743700  0.52090900  0.85009700  1
  O  O23  1  0.47908700  0.03655000  0.85008800  1
  O  O24  1  0.66665700  0.33334100  0.61810200  1
  O  O25  1  0.85721900  0.66455300  0.09115200  1
  O  O26  1  0.96344900  0.44257000  0.85008900  1
  O  O27  1  0.80733600  0.14279700  0.09114000  1
