# generated using pymatgen
data_Rb2SnO3
_symmetry_space_group_name_H-M   'P 1'
_cell_length_a   6.65688511
_cell_length_b   6.65688511
_cell_length_c   5.87300300
_cell_angle_alpha   90.00000000
_cell_angle_beta   90.00000000
_cell_angle_gamma   111.08157205
_symmetry_Int_Tables_number   1
_chemical_formula_structural   Rb2SnO3
_chemical_formula_sum   'Rb4 Sn2 O6'
_cell_volume   242.83776870
_cell_formula_units_Z   2
loop_
 _symmetry_equiv_pos_site_id
 _symmetry_equiv_pos_as_xyz
  1  'x, y, z'
loop_
 _atom_site_type_symbol
 _atom_site_label
 _atom_site_symmetry_multiplicity
 _atom_site_fract_x
 _atom_site_fract_y
 _atom_site_fract_z
 _atom_site_occupancy
  Rb  Rb0  1  0.80582400  0.48214400  0.25521600  1
  Rb  Rb1  1  0.51785600  0.19417600  0.75521600  1
  Rb  Rb2  1  0.19417600  0.51785600  0.75521600  1
  Rb  Rb3  1  0.48214400  0.80582400  0.25521600  1
  Sn  Sn4  1  0.91278300  0.91278300  0.73788700  1
  Sn  Sn5  1  0.08721700  0.08721700  0.23788700  1
  O  O6  1  0.88761900  0.13453600  0.49352400  1
  O  O7  1  0.86546400  0.11238100  0.99352400  1
  O  O8  1  0.65409800  0.65409800  0.70463000  1
  O  O9  1  0.34590200  0.34590200  0.20463000  1
  O  O10  1  0.11238100  0.86546400  0.99352400  1
  O  O11  1  0.13453600  0.88761900  0.49352400  1
