# generated using pymatgen
data_BaY2F8
_symmetry_space_group_name_H-M   'P 1'
_cell_length_a   6.39332571
_cell_length_b   6.39332571
_cell_length_c   4.33404409
_cell_angle_alpha   84.78556013
_cell_angle_beta   84.78556013
_cell_angle_gamma   112.75347870
_symmetry_Int_Tables_number   1
_chemical_formula_structural   BaY2F8
_chemical_formula_sum   'Ba1 Y2 F8'
_cell_volume   161.15048756
_cell_formula_units_Z   1
loop_
 _symmetry_equiv_pos_site_id
 _symmetry_equiv_pos_as_xyz
  1  'x, y, z'
loop_
 _atom_site_type_symbol
 _atom_site_label
 _atom_site_symmetry_multiplicity
 _atom_site_fract_x
 _atom_site_fract_y
 _atom_site_fract_z
 _atom_site_occupancy
  Ba  Ba0  1  0.00000000  0.00000000  0.50000000  1
  Y  Y1  1  0.67416700  0.32583300  0.00000000  1
  Y  Y2  1  0.32583300  0.67416700  0.00000000  1
  F  F3  1  0.95088300  0.67264000  0.06403000  1
  F  F4  1  0.67264000  0.95088300  0.06403000  1
  F  F5  1  0.60880100  0.60880100  0.72538000  1
  F  F6  1  0.25783300  0.74216700  0.50000000  1
  F  F7  1  0.74216700  0.25783300  0.50000000  1
  F  F8  1  0.39119900  0.39119900  0.27462000  1
  F  F9  1  0.32736000  0.04911700  0.93597000  1
  F  F10  1  0.04911700  0.32736000  0.93597000  1
