# generated using pymatgen
data_Ba(CuO)2
_symmetry_space_group_name_H-M   'P 1'
_cell_length_a   6.52359177
_cell_length_b   6.52359177
_cell_length_c   6.52359177
_cell_angle_alpha   127.23679486
_cell_angle_beta   127.23679486
_cell_angle_gamma   77.86469454
_symmetry_Int_Tables_number   1
_chemical_formula_structural   Ba(CuO)2
_chemical_formula_sum   'Ba2 Cu4 O4'
_cell_volume   170.56237837
_cell_formula_units_Z   2
loop_
 _symmetry_equiv_pos_site_id
 _symmetry_equiv_pos_as_xyz
  1  'x, y, z'
loop_
 _atom_site_type_symbol
 _atom_site_label
 _atom_site_symmetry_multiplicity
 _atom_site_fract_x
 _atom_site_fract_y
 _atom_site_fract_z
 _atom_site_occupancy
  Ba  Ba0  1  0.00000000  0.00000000  0.00000000  1
  Ba  Ba1  1  0.75000000  0.25000000  0.50000000  1
  Cu  Cu2  1  0.37500000  0.62500000  0.25000000  1
  Cu  Cu3  1  0.87500000  0.62500000  0.25000000  1
  Cu  Cu4  1  0.37500000  0.12500000  0.75000000  1
  Cu  Cu5  1  0.37500000  0.62500000  0.75000000  1
  O  O6  1  0.73792200  0.73792200  0.00000000  1
  O  O7  1  0.48792200  0.98792200  0.50000000  1
  O  O8  1  0.01207800  0.51207800  0.50000000  1
  O  O9  1  0.26207800  0.26207800  0.00000000  1
