# generated using pymatgen
data_Mg2Te3O8
_symmetry_space_group_name_H-M   'P 1'
_cell_length_a   6.94193935
_cell_length_b   6.94193935
_cell_length_c   11.79229832
_cell_angle_alpha   82.22766713
_cell_angle_beta   82.22766713
_cell_angle_gamma   45.06865111
_symmetry_Int_Tables_number   1
_chemical_formula_structural   Mg2Te3O8
_chemical_formula_sum   'Mg4 Te6 O16'
_cell_volume   397.97801931
_cell_formula_units_Z   2
loop_
 _symmetry_equiv_pos_site_id
 _symmetry_equiv_pos_as_xyz
  1  'x, y, z'
loop_
 _atom_site_type_symbol
 _atom_site_label
 _atom_site_symmetry_multiplicity
 _atom_site_fract_x
 _atom_site_fract_y
 _atom_site_fract_z
 _atom_site_occupancy
  Mg  Mg0  1  0.57701200  0.95910800  0.85199900  1
  Mg  Mg1  1  0.04089200  0.42298800  0.64800100  1
  Mg  Mg2  1  0.42298800  0.04089200  0.14800100  1
  Mg  Mg3  1  0.95910800  0.57701200  0.35199900  1
  Te  Te4  1  0.15393400  0.84606600  0.75000000  1
  Te  Te5  1  0.84606600  0.15393400  0.25000000  1
  Te  Te6  1  0.95209800  0.32346100  0.94282900  1
  Te  Te7  1  0.67653900  0.04790200  0.55717100  1
  Te  Te8  1  0.04790200  0.67653900  0.05717100  1
  Te  Te9  1  0.32346100  0.95209800  0.44282900  1
  O  O10  1  0.25675100  0.27005300  0.97291900  1
  O  O11  1  0.72994700  0.74324900  0.52708100  1
  O  O12  1  0.74324900  0.72994700  0.02708100  1
  O  O13  1  0.27005300  0.25675100  0.47291900  1
  O  O14  1  0.24758200  0.98202900  0.86309800  1
  O  O15  1  0.01797100  0.75241800  0.63690200  1
  O  O16  1  0.75241800  0.01797100  0.13690200  1
  O  O17  1  0.98202900  0.24758200  0.36309800  1
  O  O18  1  0.01292700  0.14789500  0.64652700  1
  O  O19  1  0.85210500  0.98707300  0.85347300  1
  O  O20  1  0.98707300  0.85210500  0.35347300  1
  O  O21  1  0.14789500  0.01292700  0.14652700  1
  O  O22  1  0.84514800  0.55522500  0.80778800  1
  O  O23  1  0.44477500  0.15485200  0.69221200  1
  O  O24  1  0.15485200  0.44477500  0.19221200  1
  O  O25  1  0.55522500  0.84514800  0.30778800  1
