# generated using pymatgen
data_Tm2TiO5
_symmetry_space_group_name_H-M   'P 1'
_cell_length_a   3.65200200
_cell_length_b   10.36467800
_cell_length_c   11.18992400
_cell_angle_alpha   90.00000000
_cell_angle_beta   90.00000000
_cell_angle_gamma   90.00000000
_symmetry_Int_Tables_number   1
_chemical_formula_structural   Tm2TiO5
_chemical_formula_sum   'Tm8 Ti4 O20'
_cell_volume   423.55904261
_cell_formula_units_Z   4
loop_
 _symmetry_equiv_pos_site_id
 _symmetry_equiv_pos_as_xyz
  1  'x, y, z'
loop_
 _atom_site_type_symbol
 _atom_site_label
 _atom_site_symmetry_multiplicity
 _atom_site_fract_x
 _atom_site_fract_y
 _atom_site_fract_z
 _atom_site_occupancy
  Tm  Tm0  1  0.25000000  0.11492300  0.27593600  1
  Tm  Tm1  1  0.25000000  0.13467200  0.94304500  1
  Tm  Tm2  1  0.75000000  0.36532800  0.44304500  1
  Tm  Tm3  1  0.75000000  0.38507700  0.77593600  1
  Tm  Tm4  1  0.25000000  0.61492300  0.22406400  1
  Tm  Tm5  1  0.25000000  0.63467200  0.55695500  1
  Tm  Tm6  1  0.75000000  0.86532800  0.05695500  1
  Tm  Tm7  1  0.75000000  0.88507700  0.72406400  1
  Ti  Ti8  1  0.25000000  0.17603800  0.61948000  1
  Ti  Ti9  1  0.75000000  0.32396200  0.11948000  1
  Ti  Ti10  1  0.25000000  0.67603800  0.88052000  1
  Ti  Ti11  1  0.75000000  0.82396200  0.38052000  1
  O  O12  1  0.75000000  0.00779500  0.89559200  1
  O  O13  1  0.25000000  0.00803500  0.65788100  1
  O  O14  1  0.25000000  0.22532900  0.45522800  1
  O  O15  1  0.75000000  0.24411800  0.61626400  1
  O  O16  1  0.75000000  0.24123800  0.27258800  1
  O  O17  1  0.25000000  0.25876200  0.77258800  1
  O  O18  1  0.25000000  0.25588200  0.11626400  1
  O  O19  1  0.75000000  0.27467100  0.95522800  1
  O  O20  1  0.75000000  0.49196500  0.15788100  1
  O  O21  1  0.25000000  0.49220500  0.39559200  1
  O  O22  1  0.75000000  0.50779500  0.60440800  1
  O  O23  1  0.25000000  0.50803500  0.84211900  1
  O  O24  1  0.25000000  0.72532900  0.04477200  1
  O  O25  1  0.75000000  0.74411800  0.88373600  1
  O  O26  1  0.75000000  0.74123800  0.22741200  1
  O  O27  1  0.25000000  0.75876200  0.72741200  1
  O  O28  1  0.25000000  0.75588200  0.38373600  1
  O  O29  1  0.75000000  0.77467100  0.54477200  1
  O  O30  1  0.75000000  0.99196500  0.34211900  1
  O  O31  1  0.25000000  0.99220500  0.10440800  1
