# generated using pymatgen
data_Nb9VO25
_symmetry_space_group_name_H-M   'P 1'
_cell_length_a   11.50270604
_cell_length_b   11.50270604
_cell_length_c   11.50270604
_cell_angle_alpha   91.63062595
_cell_angle_beta   91.63062595
_cell_angle_gamma   160.57680290
_symmetry_Int_Tables_number   1
_chemical_formula_structural   Nb9VO25
_chemical_formula_sum   'Nb9 V1 O25'
_cell_volume   498.86047978
_cell_formula_units_Z   1
loop_
 _symmetry_equiv_pos_site_id
 _symmetry_equiv_pos_as_xyz
  1  'x, y, z'
loop_
 _atom_site_type_symbol
 _atom_site_label
 _atom_site_symmetry_multiplicity
 _atom_site_fract_x
 _atom_site_fract_y
 _atom_site_fract_z
 _atom_site_occupancy
  Nb  Nb0  1  0.00000000  0.00000000  0.00000000  1
  Nb  Nb1  1  0.88717200  0.21178600  0.11283400  1
  Nb  Nb2  1  0.13190800  0.34052300  0.44154700  1
  Nb  Nb3  1  0.30963900  0.86809200  0.20861500  1
  Nb  Nb4  1  0.78821400  0.90104700  0.67538600  1
  Nb  Nb5  1  0.22566200  0.11282800  0.32461400  1
  Nb  Nb6  1  0.65947700  0.10102400  0.79138500  1
  Nb  Nb7  1  0.89897600  0.69036100  0.55845300  1
  Nb  Nb8  1  0.09895300  0.77433800  0.88716600  1
  V  V9  1  0.75000000  0.25000000  0.50000000  1
  O  O10  1  0.50000000  0.50000000  0.00000000  1
  O  O11  1  0.95135900  0.11827000  0.06639300  1
  O  O12  1  0.17960300  0.22018700  0.39153100  1
  O  O13  1  0.38295500  0.74710600  0.13919000  1
  O  O14  1  0.02010300  0.28818400  0.29237500  1
  O  O15  1  0.21192900  0.82039700  0.04058400  1
  O  O16  1  0.65273700  0.84713600  0.48899900  1
  O  O17  1  0.83626200  0.34726300  0.19439900  1
  O  O18  1  0.25289400  0.39208500  0.63584900  1
  O  O19  1  0.45382700  0.93598400  0.37172900  1
  O  O20  1  0.06401600  0.43574500  0.51784300  1
  O  O21  1  0.88173000  0.94812300  0.83308800  1
  O  O22  1  0.27227200  0.97989700  0.26808100  1
  O  O23  1  0.71181600  0.00419200  0.73191900  1
  O  O24  1  0.11503500  0.04864100  0.16691200  1
  O  O25  1  0.91790200  0.54617300  0.48215700  1
  O  O26  1  0.56425500  0.08209800  0.62827100  1
  O  O27  1  0.75623600  0.61704500  0.36415100  1
  O  O28  1  0.15286400  0.64186300  0.80560100  1
  O  O29  1  0.35813700  0.16373800  0.51100100  1
  O  O30  1  0.77981300  0.17134400  0.95941600  1
  O  O31  1  0.99580800  0.72772800  0.70762500  1
  O  O32  1  0.60791500  0.24376400  0.86081000  1
  O  O33  1  0.82865600  0.78807100  0.60846900  1
  O  O34  1  0.05187700  0.88496500  0.93360700  1
