# generated using pymatgen
data_K3Ti8O17
_symmetry_space_group_name_H-M   'P 1'
_cell_length_a   7.64912800
_cell_length_b   8.15197652
_cell_length_c   12.22026617
_cell_angle_alpha   95.15865287
_cell_angle_beta   90.01099474
_cell_angle_gamma   103.60744837
_symmetry_Int_Tables_number   1
_chemical_formula_structural   K3Ti8O17
_chemical_formula_sum   'K6 Ti16 O34'
_cell_volume   737.43273053
_cell_formula_units_Z   2
loop_
 _symmetry_equiv_pos_site_id
 _symmetry_equiv_pos_as_xyz
  1  'x, y, z'
loop_
 _atom_site_type_symbol
 _atom_site_label
 _atom_site_symmetry_multiplicity
 _atom_site_fract_x
 _atom_site_fract_y
 _atom_site_fract_z
 _atom_site_occupancy
  K  K0  1  0.25514700  0.02020100  0.53959500  1
  K  K1  1  0.77809200  0.11298000  0.82430000  1
  K  K2  1  0.27890300  0.11537300  0.83278600  1
  K  K3  1  0.72109700  0.88462700  0.16721400  1
  K  K4  1  0.22190800  0.88702000  0.17570000  1
  K  K5  1  0.74485300  0.97979900  0.46040500  1
  Ti  Ti6  1  0.55643300  0.22346600  0.07009100  1
  Ti  Ti7  1  0.05543500  0.22358000  0.06985700  1
  Ti  Ti8  1  0.07653300  0.30274800  0.32469400  1
  Ti  Ti9  1  0.57527400  0.30344800  0.32449200  1
  Ti  Ti10  1  0.09729300  0.39447200  0.57775600  1
  Ti  Ti11  1  0.60009700  0.39461500  0.57745100  1
  Ti  Ti12  1  0.62113700  0.48471700  0.83015600  1
  Ti  Ti13  1  0.12133100  0.48498700  0.83024800  1
  Ti  Ti14  1  0.37886300  0.51528300  0.16984400  1
  Ti  Ti15  1  0.87866900  0.51501300  0.16975200  1
  Ti  Ti16  1  0.90270700  0.60552800  0.42224400  1
  Ti  Ti17  1  0.39990300  0.60538500  0.42254900  1
  Ti  Ti18  1  0.42472600  0.69655200  0.67550800  1
  Ti  Ti19  1  0.92346700  0.69725200  0.67530600  1
  Ti  Ti20  1  0.94456500  0.77642000  0.93014300  1
  Ti  Ti21  1  0.44356700  0.77653400  0.92990900  1
  O  O22  1  0.00000000  0.00000000  0.00000000  1
  O  O23  1  0.50000000  0.00000000  0.00000000  1
  O  O24  1  0.53369300  0.12602000  0.22494300  1
  O  O25  1  0.02892900  0.12561900  0.22481500  1
  O  O26  1  0.55425200  0.21526100  0.46333200  1
  O  O27  1  0.05332500  0.21459300  0.46341600  1
  O  O28  1  0.57179600  0.29977400  0.70628800  1
  O  O29  1  0.07808400  0.29940400  0.70634500  1
  O  O30  1  0.58577900  0.34402500  0.93536700  1
  O  O31  1  0.08562100  0.34403400  0.93544000  1
  O  O32  1  0.31858200  0.27321400  0.08830900  1
  O  O33  1  0.81884000  0.27400700  0.08797300  1
  O  O34  1  0.84249600  0.36981700  0.32519700  1
  O  O35  1  0.34234600  0.36969500  0.32479900  1
  O  O36  1  0.86243300  0.45023200  0.56728900  1
  O  O37  1  0.36210900  0.44899700  0.56652600  1
  O  O38  1  0.88517300  0.54079100  0.81439000  1
  O  O39  1  0.38577600  0.54155700  0.81489600  1
  O  O40  1  0.61422400  0.45844300  0.18510400  1
  O  O41  1  0.11482700  0.45920900  0.18561000  1
  O  O42  1  0.63789100  0.55100300  0.43347400  1
  O  O43  1  0.13756700  0.54976800  0.43271100  1
  O  O44  1  0.65765400  0.63030500  0.67520100  1
  O  O45  1  0.15750400  0.63018300  0.67480300  1
  O  O46  1  0.68141800  0.72678600  0.91169100  1
  O  O47  1  0.18116000  0.72599300  0.91202700  1
  O  O48  1  0.91437900  0.65596600  0.06456000  1
  O  O49  1  0.41422100  0.65597500  0.06463300  1
  O  O50  1  0.92191600  0.70059600  0.29365500  1
  O  O51  1  0.42820400  0.70022600  0.29371200  1
  O  O52  1  0.94667500  0.78540700  0.53658400  1
  O  O53  1  0.44574800  0.78473900  0.53666800  1
  O  O54  1  0.46630700  0.87398000  0.77505700  1
  O  O55  1  0.97107100  0.87438100  0.77518500  1
