# generated using pymatgen
data_Bi2(SO4)3
_symmetry_space_group_name_H-M   'P 1'
_cell_length_a   9.76973895
_cell_length_b   9.76973895
_cell_length_c   9.76973921
_cell_angle_alpha   55.81798041
_cell_angle_beta   55.81798041
_cell_angle_gamma   55.81798238
_symmetry_Int_Tables_number   1
_chemical_formula_structural   Bi2(SO4)3
_chemical_formula_sum   'Bi4 S6 O24'
_cell_volume   595.44123885
_cell_formula_units_Z   2
loop_
 _symmetry_equiv_pos_site_id
 _symmetry_equiv_pos_as_xyz
  1  'x, y, z'
loop_
 _atom_site_type_symbol
 _atom_site_label
 _atom_site_symmetry_multiplicity
 _atom_site_fract_x
 _atom_site_fract_y
 _atom_site_fract_z
 _atom_site_occupancy
  Bi  Bi0  1  0.34861800  0.34861800  0.34861800  1
  Bi  Bi1  1  0.14363300  0.14363300  0.14363300  1
  Bi  Bi2  1  0.85636700  0.85636700  0.85636700  1
  Bi  Bi3  1  0.65138200  0.65138200  0.65138200  1
  S  S4  1  0.75476900  0.03444400  0.45949600  1
  S  S5  1  0.54050400  0.24523100  0.96555600  1
  S  S6  1  0.03444400  0.45949600  0.75476900  1
  S  S7  1  0.96555600  0.54050400  0.24523100  1
  S  S8  1  0.45949600  0.75476900  0.03444400  1
  S  S9  1  0.24523100  0.96555600  0.54050400  1
  O  O10  1  0.79761300  0.02352900  0.59022500  1
  O  O11  1  0.86570200  0.11847500  0.27601900  1
  O  O12  1  0.72398100  0.13429800  0.88152500  1
  O  O13  1  0.56422200  0.14290500  0.48704900  1
  O  O14  1  0.51899600  0.20435800  0.14752800  1
  O  O15  1  0.40977500  0.20238700  0.97647100  1
  O  O16  1  0.51295100  0.43577800  0.85709500  1
  O  O17  1  0.20435800  0.14752800  0.51899600  1
  O  O18  1  0.11847500  0.27601900  0.86570200  1
  O  O19  1  0.14290500  0.48704900  0.56422200  1
  O  O20  1  0.14752800  0.51899600  0.20435800  1
  O  O21  1  0.97647100  0.40977500  0.20238700  1
  O  O22  1  0.02352900  0.59022500  0.79761300  1
  O  O23  1  0.85247200  0.48100400  0.79564200  1
  O  O24  1  0.85709500  0.51295100  0.43577800  1
  O  O25  1  0.88152500  0.72398100  0.13429800  1
  O  O26  1  0.79564200  0.85247200  0.48100400  1
  O  O27  1  0.48704900  0.56422200  0.14290500  1
  O  O28  1  0.59022500  0.79761300  0.02352900  1
  O  O29  1  0.48100400  0.79564200  0.85247200  1
  O  O30  1  0.43577800  0.85709500  0.51295100  1
  O  O31  1  0.27601900  0.86570200  0.11847500  1
  O  O32  1  0.13429800  0.88152500  0.72398100  1
  O  O33  1  0.20238700  0.97647100  0.40977500  1
