# generated using pymatgen
data_NaSc(SiO3)2
_symmetry_space_group_name_H-M   'P 1'
_cell_length_a   6.77819937
_cell_length_b   6.77819937
_cell_length_c   5.42133879
_cell_angle_alpha   77.10823919
_cell_angle_beta   77.10823919
_cell_angle_gamma   84.95283882
_symmetry_Int_Tables_number   1
_chemical_formula_structural   NaSc(SiO3)2
_chemical_formula_sum   'Na2 Sc2 Si4 O12'
_cell_volume   236.48799885
_cell_formula_units_Z   2
loop_
 _symmetry_equiv_pos_site_id
 _symmetry_equiv_pos_as_xyz
  1  'x, y, z'
loop_
 _atom_site_type_symbol
 _atom_site_label
 _atom_site_symmetry_multiplicity
 _atom_site_fract_x
 _atom_site_fract_y
 _atom_site_fract_z
 _atom_site_occupancy
  Na  Na0  1  0.30025600  0.69974400  0.25000000  1
  Na  Na1  1  0.69974400  0.30025600  0.75000000  1
  Sc  Sc2  1  0.89443000  0.10557000  0.25000000  1
  Sc  Sc3  1  0.10557000  0.89443000  0.75000000  1
  Si  Si4  1  0.37709200  0.20374000  0.25524800  1
  Si  Si5  1  0.20374000  0.37709200  0.75524800  1
  Si  Si6  1  0.79626000  0.62290800  0.24475200  1
  Si  Si7  1  0.62290800  0.79626000  0.74475200  1
  O  O8  1  0.35324100  0.34519600  0.47577700  1
  O  O9  1  0.65480400  0.64675900  0.02422300  1
  O  O10  1  0.64675900  0.65480400  0.52422300  1
  O  O11  1  0.34519600  0.35324100  0.97577700  1
  O  O12  1  0.60727400  0.11357500  0.19603500  1
  O  O13  1  0.88642500  0.39272600  0.30396500  1
  O  O14  1  0.39272600  0.88642500  0.80396500  1
  O  O15  1  0.11357500  0.60727400  0.69603500  1
  O  O16  1  0.03941100  0.19700400  0.85448900  1
  O  O17  1  0.80299600  0.96058900  0.64551100  1
  O  O18  1  0.96058900  0.80299600  0.14551100  1
  O  O19  1  0.19700400  0.03941100  0.35448900  1
