# generated using pymatgen
data_Sm3Ta17O47
_symmetry_space_group_name_H-M   'P 1'
_cell_length_a   3.91321700
_cell_length_b   12.80890100
_cell_length_c   19.39584771
_cell_angle_alpha   76.92194620
_cell_angle_beta   90.00000000
_cell_angle_gamma   90.00000000
_symmetry_Int_Tables_number   1
_chemical_formula_structural   Sm3Ta17O47
_chemical_formula_sum   'Sm3 Ta17 O47'
_cell_volume   946.98147649
_cell_formula_units_Z   1
loop_
 _symmetry_equiv_pos_site_id
 _symmetry_equiv_pos_as_xyz
  1  'x, y, z'
loop_
 _atom_site_type_symbol
 _atom_site_label
 _atom_site_symmetry_multiplicity
 _atom_site_fract_x
 _atom_site_fract_y
 _atom_site_fract_z
 _atom_site_occupancy
  Sm  Sm0  1  0.50000000  0.00000000  0.00000000  1
  Sm  Sm1  1  0.50000000  0.62427700  0.66884000  1
  Sm  Sm2  1  0.50000000  0.37572300  0.33116000  1
  Ta  Ta3  1  0.00000000  0.97602100  0.85327300  1
  Ta  Ta4  1  0.00000000  0.81036200  0.71670900  1
  Ta  Ta5  1  0.00000000  0.89194400  0.35267200  1
  Ta  Ta6  1  0.00000000  0.72076500  0.52936200  1
  Ta  Ta7  1  0.00000000  0.76231600  0.21673000  1
  Ta  Ta8  1  0.00000000  0.77206100  0.04227500  1
  Ta  Ta9  1  0.00000000  0.49167700  0.80888700  1
  Ta  Ta10  1  0.00000000  0.58653300  0.37539100  1
  Ta  Ta11  1  0.00000000  0.41346700  0.62460900  1
  Ta  Ta12  1  0.00000000  0.50832300  0.19111300  1
  Ta  Ta13  1  0.00000000  0.22793900  0.95772500  1
  Ta  Ta14  1  0.00000000  0.23768400  0.78327000  1
  Ta  Ta15  1  0.00000000  0.50000000  0.00000000  1
  Ta  Ta16  1  0.00000000  0.27923500  0.47063800  1
  Ta  Ta17  1  0.00000000  0.10805600  0.64732800  1
  Ta  Ta18  1  0.00000000  0.18963800  0.28329100  1
  Ta  Ta19  1  0.00000000  0.02397900  0.14672700  1
  O  O20  1  0.50000000  0.97519300  0.87159000  1
  O  O21  1  0.00000000  0.91276300  0.96373400  1
  O  O22  1  0.00000000  0.95316500  0.66491600  1
  O  O23  1  0.00000000  0.85833600  0.80710800  1
  O  O24  1  0.50000000  0.78244200  0.72019500  1
  O  O25  1  0.00000000  0.91814000  0.23749200  1
  O  O26  1  0.00000000  0.84648600  0.45604400  1
  O  O27  1  0.50000000  0.88847000  0.35233300  1
  O  O28  1  0.00000000  0.65976600  0.99653300  1
  O  O29  1  0.00000000  0.76727500  0.62206500  1
  O  O30  1  0.00000000  0.87568600  0.11625500  1
  O  O31  1  0.00000000  0.63536900  0.74484600  1
  O  O32  1  0.50000000  0.70834900  0.54410200  1
  O  O33  1  0.00000000  0.74616800  0.32755800  1
  O  O34  1  0.50000000  0.76424800  0.21551400  1
  O  O35  1  0.00000000  0.52954500  0.89560500  1
  O  O36  1  0.50000000  0.80161200  0.03844900  1
  O  O37  1  0.00000000  0.62416300  0.46480000  1
  O  O38  1  0.00000000  0.57226300  0.61134100  1
  O  O39  1  0.50000000  0.49983600  0.79045300  1
  O  O40  1  0.00000000  0.67172600  0.13738400  1
  O  O41  1  0.00000000  0.60018800  0.26688100  1
  O  O42  1  0.50000000  0.56617600  0.37201100  1
  O  O43  1  0.50000000  0.43382400  0.62798900  1
  O  O44  1  0.00000000  0.39981200  0.73311900  1
  O  O45  1  0.00000000  0.32827400  0.86261600  1
  O  O46  1  0.50000000  0.50016400  0.20954700  1
  O  O47  1  0.00000000  0.42773700  0.38865900  1
  O  O48  1  0.00000000  0.37583700  0.53520000  1
  O  O49  1  0.50000000  0.19838800  0.96155100  1
  O  O50  1  0.00000000  0.47045500  0.10439500  1
  O  O51  1  0.50000000  0.50000000  0.00000000  1
  O  O52  1  0.50000000  0.23575200  0.78448600  1
  O  O53  1  0.00000000  0.25383200  0.67244200  1
  O  O54  1  0.50000000  0.29165100  0.45589800  1
  O  O55  1  0.00000000  0.36463100  0.25515400  1
  O  O56  1  0.00000000  0.12431400  0.88374500  1
  O  O57  1  0.00000000  0.23272500  0.37793500  1
  O  O58  1  0.00000000  0.34023400  0.00346700  1
  O  O59  1  0.50000000  0.11153000  0.64766700  1
  O  O60  1  0.00000000  0.15351400  0.54395600  1
  O  O61  1  0.00000000  0.08186000  0.76250800  1
  O  O62  1  0.50000000  0.21755800  0.27980500  1
  O  O63  1  0.00000000  0.14166400  0.19289200  1
  O  O64  1  0.00000000  0.04683500  0.33508400  1
  O  O65  1  0.00000000  0.08723700  0.03626600  1
  O  O66  1  0.50000000  0.02480700  0.12841000  1
