# generated using pymatgen
data_SmHIClO13
_symmetry_space_group_name_H-M   'P 1'
_cell_length_a   7.26802500
_cell_length_b   11.11126000
_cell_length_c   13.26578750
_cell_angle_alpha   83.99396506
_cell_angle_beta   90.00000000
_cell_angle_gamma   90.00000000
_symmetry_Int_Tables_number   1
_chemical_formula_structural   SmHIClO13
_chemical_formula_sum   'Sm4 H4 I4 Cl4 O52'
_cell_volume   1065.42356298
_cell_formula_units_Z   4
loop_
 _symmetry_equiv_pos_site_id
 _symmetry_equiv_pos_as_xyz
  1  'x, y, z'
loop_
 _atom_site_type_symbol
 _atom_site_label
 _atom_site_symmetry_multiplicity
 _atom_site_fract_x
 _atom_site_fract_y
 _atom_site_fract_z
 _atom_site_occupancy
  Sm  Sm0  1  0.14111400  0.02046100  0.18031300  1
  Sm  Sm1  1  0.64111400  0.97953900  0.31968700  1
  Sm  Sm2  1  0.85888600  0.97953900  0.81968700  1
  Sm  Sm3  1  0.35888600  0.02046100  0.68031300  1
  H  H4  1  0.18438600  0.71316600  0.48924400  1
  H  H5  1  0.68438600  0.28683400  0.01075600  1
  H  H6  1  0.81561400  0.28683400  0.51075600  1
  H  H7  1  0.31561400  0.71316600  0.98924400  1
  I  I8  1  0.13326100  0.92744300  0.43963700  1
  I  I9  1  0.63326100  0.07255700  0.06036300  1
  I  I10  1  0.86673900  0.07255700  0.56036300  1
  I  I11  1  0.36673900  0.92744300  0.93963700  1
  Cl  Cl12  1  0.26625000  0.45035600  0.38584200  1
  Cl  Cl13  1  0.76625000  0.54964400  0.11415800  1
  Cl  Cl14  1  0.73375000  0.54964400  0.61415800  1
  Cl  Cl15  1  0.23375000  0.45035600  0.88584200  1
  O  O16  1  0.30496100  0.91842100  0.54266200  1
  O  O17  1  0.80496100  0.08157900  0.95733800  1
  O  O18  1  0.69503900  0.08157900  0.45733800  1
  O  O19  1  0.19503900  0.91842100  0.04266200  1
  O  O20  1  0.07716400  0.09779900  0.46354400  1
  O  O21  1  0.57716400  0.90220100  0.03645600  1
  O  O22  1  0.92283600  0.90220100  0.53645600  1
  O  O23  1  0.42283600  0.09779900  0.96354400  1
  O  O24  1  0.96643600  0.94303600  0.32877600  1
  O  O25  1  0.46643600  0.05696400  0.17122400  1
  O  O26  1  0.03356400  0.05696400  0.67122400  1
  O  O27  1  0.53356400  0.94303600  0.82877600  1
  O  O28  1  0.13463000  0.75923600  0.42708800  1
  O  O29  1  0.63463000  0.24076400  0.07291200  1
  O  O30  1  0.86537000  0.24076400  0.57291200  1
  O  O31  1  0.36537000  0.75923600  0.92708800  1
  O  O32  1  0.11106600  0.22253500  0.08572400  1
  O  O33  1  0.61106600  0.77746500  0.41427600  1
  O  O34  1  0.88893400  0.77746500  0.91427600  1
  O  O35  1  0.38893400  0.22253500  0.58572400  1
  O  O36  1  0.22508600  0.71105900  0.19738000  1
  O  O37  1  0.72508600  0.28894100  0.30262000  1
  O  O38  1  0.77491400  0.28894100  0.80262000  1
  O  O39  1  0.27491400  0.71105900  0.69738000  1
  O  O40  1  0.80951200  0.02515400  0.16097800  1
  O  O41  1  0.30951200  0.97484600  0.33902200  1
  O  O42  1  0.19048800  0.97484600  0.83902200  1
  O  O43  1  0.69048800  0.02515400  0.66097800  1
  O  O44  1  0.10191600  0.23616200  0.18118700  1
  O  O45  1  0.60191600  0.76383800  0.31881300  1
  O  O46  1  0.89808400  0.76383800  0.81881300  1
  O  O47  1  0.39808400  0.23616200  0.68118700  1
  O  O48  1  0.23314700  0.64521700  0.63208500  1
  O  O49  1  0.73314700  0.35478300  0.86791500  1
  O  O50  1  0.76685300  0.35478300  0.36791500  1
  O  O51  1  0.26685300  0.64521700  0.13208500  1
  O  O52  1  0.32635400  0.34810300  0.33471900  1
  O  O53  1  0.82635400  0.65189700  0.16528100  1
  O  O54  1  0.67364600  0.65189700  0.66528100  1
  O  O55  1  0.17364600  0.34810300  0.83471900  1
  O  O56  1  0.21461700  0.40577500  0.49175000  1
  O  O57  1  0.71461700  0.59422500  0.00825000  1
  O  O58  1  0.78538300  0.59422500  0.50825000  1
  O  O59  1  0.28538300  0.40577500  0.99175000  1
  O  O60  1  0.09733100  0.50331400  0.34042300  1
  O  O61  1  0.59733100  0.49668600  0.15957700  1
  O  O62  1  0.90266900  0.49668600  0.65957700  1
  O  O63  1  0.40266900  0.50331400  0.84042300  1
  O  O64  1  0.40850300  0.54120800  0.38531700  1
  O  O65  1  0.90850300  0.45879200  0.11468300  1
  O  O66  1  0.59149700  0.45879200  0.61468300  1
  O  O67  1  0.09149700  0.54120800  0.88531700  1
