# generated using pymatgen
data_KAsF6
_symmetry_space_group_name_H-M   'P 1'
_cell_length_a   5.03579722
_cell_length_b   5.03579722
_cell_length_c   5.03579693
_cell_angle_alpha   97.98375563
_cell_angle_beta   97.98375563
_cell_angle_gamma   97.98375461
_symmetry_Int_Tables_number   1
_chemical_formula_structural   KAsF6
_chemical_formula_sum   'K1 As1 F6'
_cell_volume   123.60063407
_cell_formula_units_Z   1
loop_
 _symmetry_equiv_pos_site_id
 _symmetry_equiv_pos_as_xyz
  1  'x, y, z'
loop_
 _atom_site_type_symbol
 _atom_site_label
 _atom_site_symmetry_multiplicity
 _atom_site_fract_x
 _atom_site_fract_y
 _atom_site_fract_z
 _atom_site_occupancy
  K  K0  1  0.50000000  0.50000000  0.50000000  1
  As  As1  1  0.00000000  0.00000000  0.00000000  1
  F  F2  1  0.07827600  0.75040100  0.75040100  1
  F  F3  1  0.75040100  0.07827600  0.75040100  1
  F  F4  1  0.24959900  0.24959900  0.92172400  1
  F  F5  1  0.24959900  0.92172400  0.24959900  1
  F  F6  1  0.92172400  0.24959900  0.24959900  1
  F  F7  1  0.75040100  0.75040100  0.07827600  1
