# generated using pymatgen
data_TbCrO3
_symmetry_space_group_name_H-M   'P 1'
_cell_length_a   5.32639400
_cell_length_b   5.60689500
_cell_length_c   7.68288000
_cell_angle_alpha   90.00000000
_cell_angle_beta   90.00000000
_cell_angle_gamma   90.00000000
_symmetry_Int_Tables_number   1
_chemical_formula_structural   TbCrO3
_chemical_formula_sum   'Tb4 Cr4 O12'
_cell_volume   229.44561474
_cell_formula_units_Z   4
loop_
 _symmetry_equiv_pos_site_id
 _symmetry_equiv_pos_as_xyz
  1  'x, y, z'
loop_
 _atom_site_type_symbol
 _atom_site_label
 _atom_site_symmetry_multiplicity
 _atom_site_fract_x
 _atom_site_fract_y
 _atom_site_fract_z
 _atom_site_occupancy
  Tb  Tb0  1  0.51943000  0.56568300  0.25000000  1
  Tb  Tb1  1  0.98057000  0.06568300  0.25000000  1
  Tb  Tb2  1  0.48057000  0.43431700  0.75000000  1
  Tb  Tb3  1  0.01943000  0.93431700  0.75000000  1
  Cr  Cr4  1  0.50000000  0.00000000  0.00000000  1
  Cr  Cr5  1  0.00000000  0.50000000  0.50000000  1
  Cr  Cr6  1  0.50000000  0.00000000  0.50000000  1
  Cr  Cr7  1  0.00000000  0.50000000  0.00000000  1
  O  O8  1  0.38882100  0.96005900  0.25000000  1
  O  O9  1  0.11117900  0.46005900  0.25000000  1
  O  O10  1  0.61117900  0.03994100  0.75000000  1
  O  O11  1  0.88882100  0.53994100  0.75000000  1
  O  O12  1  0.80491800  0.80136900  0.05745200  1
  O  O13  1  0.69508200  0.30136900  0.44254800  1
  O  O14  1  0.19508200  0.19863100  0.55745200  1
  O  O15  1  0.30491800  0.69863100  0.94254800  1
  O  O16  1  0.19508200  0.19863100  0.94254800  1
  O  O17  1  0.30491800  0.69863100  0.55745200  1
  O  O18  1  0.80491800  0.80136900  0.44254800  1
  O  O19  1  0.69508200  0.30136900  0.05745200  1
