# generated using pymatgen
data_Hf3Cu8
_symmetry_space_group_name_H-M   'P 1'
_cell_length_a   7.81923200
_cell_length_b   8.12440700
_cell_length_c   9.93620100
_cell_angle_alpha   90.00000000
_cell_angle_beta   90.00000000
_cell_angle_gamma   90.00000000
_symmetry_Int_Tables_number   1
_chemical_formula_structural   Hf3Cu8
_chemical_formula_sum   'Hf12 Cu32'
_cell_volume   631.21329692
_cell_formula_units_Z   4
loop_
 _symmetry_equiv_pos_site_id
 _symmetry_equiv_pos_as_xyz
  1  'x, y, z'
loop_
 _atom_site_type_symbol
 _atom_site_label
 _atom_site_symmetry_multiplicity
 _atom_site_fract_x
 _atom_site_fract_y
 _atom_site_fract_z
 _atom_site_occupancy
  Hf  Hf0  1  0.03900900  0.75000000  0.54713300  1
  Hf  Hf1  1  0.53900900  0.75000000  0.95286700  1
  Hf  Hf2  1  0.96099100  0.25000000  0.45286700  1
  Hf  Hf3  1  0.46099100  0.25000000  0.04713300  1
  Hf  Hf4  1  0.56204400  0.44580200  0.35996600  1
  Hf  Hf5  1  0.06204400  0.05419800  0.14003400  1
  Hf  Hf6  1  0.43795600  0.94580200  0.64003400  1
  Hf  Hf7  1  0.93795600  0.55419800  0.85996600  1
  Hf  Hf8  1  0.43795600  0.55419800  0.64003400  1
  Hf  Hf9  1  0.93795600  0.94580200  0.85996600  1
  Hf  Hf10  1  0.56204400  0.05419800  0.35996600  1
  Hf  Hf11  1  0.06204400  0.44580200  0.14003400  1
  Cu  Cu12  1  0.17701300  0.75000000  0.01685000  1
  Cu  Cu13  1  0.67701300  0.75000000  0.48315000  1
  Cu  Cu14  1  0.82298700  0.25000000  0.98315000  1
  Cu  Cu15  1  0.32298700  0.25000000  0.51685000  1
  Cu  Cu16  1  0.12943600  0.75000000  0.26535000  1
  Cu  Cu17  1  0.62943600  0.75000000  0.23465000  1
  Cu  Cu18  1  0.87056400  0.25000000  0.73465000  1
  Cu  Cu19  1  0.37056400  0.25000000  0.76535000  1
  Cu  Cu20  1  0.38352500  0.75000000  0.40381800  1
  Cu  Cu21  1  0.88352500  0.75000000  0.09618200  1
  Cu  Cu22  1  0.61647500  0.25000000  0.59618200  1
  Cu  Cu23  1  0.11647500  0.25000000  0.90381800  1
  Cu  Cu24  1  0.37865100  0.57500000  0.15986800  1
  Cu  Cu25  1  0.87865100  0.92500000  0.34013200  1
  Cu  Cu26  1  0.62134900  0.07500000  0.84013200  1
  Cu  Cu27  1  0.12134900  0.42500000  0.65986800  1
  Cu  Cu28  1  0.62134900  0.42500000  0.84013200  1
  Cu  Cu29  1  0.12134900  0.07500000  0.65986800  1
  Cu  Cu30  1  0.37865100  0.92500000  0.15986800  1
  Cu  Cu31  1  0.87865100  0.57500000  0.34013200  1
  Cu  Cu32  1  0.19841300  0.49971500  0.40676600  1
  Cu  Cu33  1  0.69841300  0.00028500  0.09323400  1
  Cu  Cu34  1  0.80158700  0.99971500  0.59323400  1
  Cu  Cu35  1  0.30158700  0.50028500  0.90676600  1
  Cu  Cu36  1  0.80158700  0.50028500  0.59323400  1
  Cu  Cu37  1  0.30158700  0.99971500  0.90676600  1
  Cu  Cu38  1  0.19841300  0.00028500  0.40676600  1
  Cu  Cu39  1  0.69841300  0.49971500  0.09323400  1
  Cu  Cu40  1  0.28454300  0.25000000  0.27278900  1
  Cu  Cu41  1  0.78454300  0.25000000  0.22721100  1
  Cu  Cu42  1  0.71545700  0.75000000  0.72721100  1
  Cu  Cu43  1  0.21545700  0.75000000  0.77278900  1
