# generated using pymatgen
data_Sr3CrN4
_symmetry_space_group_name_H-M   'P 1'
_cell_length_a   9.62624700
_cell_length_b   10.23686300
_cell_length_c   11.36235600
_cell_angle_alpha   90.00000000
_cell_angle_beta   90.00000000
_cell_angle_gamma   90.00000000
_symmetry_Int_Tables_number   1
_chemical_formula_structural   Sr3CrN4
_chemical_formula_sum   'Sr24 Cr8 N32'
_cell_volume   1119.67578130
_cell_formula_units_Z   8
loop_
 _symmetry_equiv_pos_site_id
 _symmetry_equiv_pos_as_xyz
  1  'x, y, z'
loop_
 _atom_site_type_symbol
 _atom_site_label
 _atom_site_symmetry_multiplicity
 _atom_site_fract_x
 _atom_site_fract_y
 _atom_site_fract_z
 _atom_site_occupancy
  Sr  Sr0  1  0.52893500  0.37238700  0.39357500  1
  Sr  Sr1  1  0.20015900  0.71725200  0.38483700  1
  Sr  Sr2  1  0.79984100  0.78274800  0.88483700  1
  Sr  Sr3  1  0.29984100  0.21725200  0.61516300  1
  Sr  Sr4  1  0.29984100  0.71725200  0.88483700  1
  Sr  Sr5  1  0.79984100  0.28274800  0.61516300  1
  Sr  Sr6  1  0.20015900  0.21725200  0.11516300  1
  Sr  Sr7  1  0.70015900  0.78274800  0.38483700  1
  Sr  Sr8  1  0.70015900  0.28274800  0.11516300  1
  Sr  Sr9  1  0.02893500  0.62761300  0.10642500  1
  Sr  Sr10  1  0.97106500  0.87238700  0.60642500  1
  Sr  Sr11  1  0.47106500  0.12761300  0.89357500  1
  Sr  Sr12  1  0.47106500  0.62761300  0.60642500  1
  Sr  Sr13  1  0.97106500  0.37238700  0.89357500  1
  Sr  Sr14  1  0.02893500  0.12761300  0.39357500  1
  Sr  Sr15  1  0.52893500  0.87238700  0.10642500  1
  Sr  Sr16  1  0.87417600  0.47236800  0.35800600  1
  Sr  Sr17  1  0.37417600  0.52763200  0.14199400  1
  Sr  Sr18  1  0.62582400  0.97236800  0.64199400  1
  Sr  Sr19  1  0.12582400  0.02763200  0.85800600  1
  Sr  Sr20  1  0.12582400  0.52763200  0.64199400  1
  Sr  Sr21  1  0.62582400  0.47236800  0.85800600  1
  Sr  Sr22  1  0.37417600  0.02763200  0.35800600  1
  Sr  Sr23  1  0.87417600  0.97236800  0.14199400  1
  Cr  Cr24  1  0.69646000  0.09818000  0.38814300  1
  Cr  Cr25  1  0.19646000  0.90182000  0.11185700  1
  Cr  Cr26  1  0.80354000  0.59818000  0.61185700  1
  Cr  Cr27  1  0.30354000  0.40182000  0.88814300  1
  Cr  Cr28  1  0.30354000  0.90182000  0.61185700  1
  Cr  Cr29  1  0.80354000  0.09818000  0.88814300  1
  Cr  Cr30  1  0.19646000  0.40182000  0.38814300  1
  Cr  Cr31  1  0.69646000  0.59818000  0.11185700  1
  N  N32  1  0.78680200  0.23059000  0.32583300  1
  N  N33  1  0.28680200  0.76941000  0.17416700  1
  N  N34  1  0.71319800  0.73059000  0.67416700  1
  N  N35  1  0.21319800  0.26941000  0.82583300  1
  N  N36  1  0.21319800  0.76941000  0.67416700  1
  N  N37  1  0.71319800  0.23059000  0.82583300  1
  N  N38  1  0.28680200  0.26941000  0.32583300  1
  N  N39  1  0.78680200  0.73059000  0.17416700  1
  N  N40  1  0.81229300  0.49735500  0.03305700  1
  N  N41  1  0.31229300  0.50264500  0.46694300  1
  N  N42  1  0.68770700  0.99735500  0.96694300  1
  N  N43  1  0.18770700  0.00264500  0.53305700  1
  N  N44  1  0.18770700  0.50264500  0.96694300  1
  N  N45  1  0.68770700  0.49735500  0.53305700  1
  N  N46  1  0.31229300  0.00264500  0.03305700  1
  N  N47  1  0.62065200  0.00071900  0.28005400  1
  N  N48  1  0.56927700  0.15417000  0.48826700  1
  N  N49  1  0.06927700  0.84583000  0.01173300  1
  N  N50  1  0.93072300  0.65417000  0.51173300  1
  N  N51  1  0.43072300  0.34583000  0.98826700  1
  N  N52  1  0.43072300  0.84583000  0.51173300  1
  N  N53  1  0.93072300  0.15417000  0.98826700  1
  N  N54  1  0.06927700  0.34583000  0.48826700  1
  N  N55  1  0.56927700  0.65417000  0.01173300  1
  N  N56  1  0.62065200  0.50071900  0.21994600  1
  N  N57  1  0.12065200  0.49928100  0.28005400  1
  N  N58  1  0.87934800  0.00071900  0.78005400  1
  N  N59  1  0.37934800  0.99928100  0.71994600  1
  N  N60  1  0.37934800  0.49928100  0.78005400  1
  N  N61  1  0.87934800  0.50071900  0.71994600  1
  N  N62  1  0.12065200  0.99928100  0.21994600  1
  N  N63  1  0.81229300  0.99735500  0.46694300  1
