# generated using pymatgen
data_La(BRu)4
_symmetry_space_group_name_H-M   'P 1'
_cell_length_a   7.59259000
_cell_length_b   7.59259000
_cell_length_c   4.01887200
_cell_angle_alpha   90.00000000
_cell_angle_beta   90.00000000
_cell_angle_gamma   90.00000000
_symmetry_Int_Tables_number   1
_chemical_formula_structural   La(BRu)4
_chemical_formula_sum   'La2 B8 Ru8'
_cell_volume   231.67761380
_cell_formula_units_Z   2
loop_
 _symmetry_equiv_pos_site_id
 _symmetry_equiv_pos_as_xyz
  1  'x, y, z'
loop_
 _atom_site_type_symbol
 _atom_site_label
 _atom_site_symmetry_multiplicity
 _atom_site_fract_x
 _atom_site_fract_y
 _atom_site_fract_z
 _atom_site_occupancy
  La  La0  1  0.50000000  0.50000000  0.00000000  1
  La  La1  1  0.00000000  0.00000000  0.50000000  1
  B  B2  1  0.66651500  0.78812900  0.60939900  1
  B  B3  1  0.28812900  0.83348500  0.10939900  1
  B  B4  1  0.83348500  0.71187100  0.89060100  1
  B  B5  1  0.21187100  0.66651500  0.39060100  1
  B  B6  1  0.78812900  0.33348500  0.39060100  1
  B  B7  1  0.16651500  0.28812900  0.89060100  1
  B  B8  1  0.71187100  0.16651500  0.10939900  1
  B  B9  1  0.33348500  0.21187100  0.60939900  1
  Ru  Ru10  1  0.35602600  0.10802500  0.10868400  1
  Ru  Ru11  1  0.39197500  0.85602600  0.60868400  1
  Ru  Ru12  1  0.10802500  0.64397400  0.89131600  1
  Ru  Ru13  1  0.14397400  0.39197500  0.39131600  1
  Ru  Ru14  1  0.85602600  0.60802500  0.39131600  1
  Ru  Ru15  1  0.89197500  0.35602600  0.89131600  1
  Ru  Ru16  1  0.64397400  0.89197500  0.10868400  1
  Ru  Ru17  1  0.60802500  0.14397400  0.60868400  1
