# generated using pymatgen
data_Rb3LuO3
_symmetry_space_group_name_H-M   'P 1'
_cell_length_a   7.30910300
_cell_length_b   7.91829400
_cell_length_c   11.65734787
_cell_angle_alpha   85.57376166
_cell_angle_beta   90.00000000
_cell_angle_gamma   90.00000000
_symmetry_Int_Tables_number   1
_chemical_formula_structural   Rb3LuO3
_chemical_formula_sum   'Rb12 Lu4 O12'
_cell_volume   672.66409824
_cell_formula_units_Z   4
loop_
 _symmetry_equiv_pos_site_id
 _symmetry_equiv_pos_as_xyz
  1  'x, y, z'
loop_
 _atom_site_type_symbol
 _atom_site_label
 _atom_site_symmetry_multiplicity
 _atom_site_fract_x
 _atom_site_fract_y
 _atom_site_fract_z
 _atom_site_occupancy
  Rb  Rb0  1  0.32816900  0.35873900  0.07801100  1
  Rb  Rb1  1  0.62195600  0.93620600  0.15476500  1
  Rb  Rb2  1  0.80448800  0.37384500  0.19243100  1
  Rb  Rb3  1  0.30448800  0.62615500  0.30756900  1
  Rb  Rb4  1  0.12195600  0.06379400  0.34523500  1
  Rb  Rb5  1  0.82816900  0.64126100  0.42198900  1
  Rb  Rb6  1  0.17183100  0.35873900  0.57801100  1
  Rb  Rb7  1  0.87804400  0.93620600  0.65476500  1
  Rb  Rb8  1  0.69551200  0.37384500  0.69243100  1
  Rb  Rb9  1  0.19551200  0.62615500  0.80756900  1
  Rb  Rb10  1  0.37804400  0.06379400  0.84523500  1
  Rb  Rb11  1  0.67183100  0.64126100  0.92198900  1
  Lu  Lu12  1  0.08724100  0.84049800  0.06609100  1
  Lu  Lu13  1  0.58724100  0.15950200  0.43390900  1
  Lu  Lu14  1  0.41275900  0.84049800  0.56609100  1
  Lu  Lu15  1  0.91275900  0.15950200  0.93390900  1
  O  O16  1  0.34910500  0.74864200  0.04156300  1
  O  O17  1  0.04832800  0.10343400  0.09461300  1
  O  O18  1  0.94172400  0.69335100  0.18681200  1
  O  O19  1  0.44172400  0.30664900  0.31318800  1
  O  O20  1  0.54832800  0.89656600  0.40538700  1
  O  O21  1  0.84910500  0.25135800  0.45843700  1
  O  O22  1  0.15089500  0.74864200  0.54156300  1
  O  O23  1  0.45167200  0.10343400  0.59461300  1
  O  O24  1  0.55827600  0.69335100  0.68681200  1
  O  O25  1  0.05827600  0.30664900  0.81318800  1
  O  O26  1  0.95167200  0.89656600  0.90538700  1
  O  O27  1  0.65089500  0.25135800  0.95843700  1
