# generated using pymatgen
data_ThAs2
_symmetry_space_group_name_H-M   'P 1'
_cell_length_a   4.12765400
_cell_length_b   4.12765400
_cell_length_c   8.54400200
_cell_angle_alpha   90.00000000
_cell_angle_beta   90.00000000
_cell_angle_gamma   90.00000000
_symmetry_Int_Tables_number   1
_chemical_formula_structural   ThAs2
_chemical_formula_sum   'Th2 As4'
_cell_volume   145.56866941
_cell_formula_units_Z   2
loop_
 _symmetry_equiv_pos_site_id
 _symmetry_equiv_pos_as_xyz
  1  'x, y, z'
loop_
 _atom_site_type_symbol
 _atom_site_label
 _atom_site_symmetry_multiplicity
 _atom_site_fract_x
 _atom_site_fract_y
 _atom_site_fract_z
 _atom_site_occupancy
  Th  Th0  1  0.00000000  0.50000000  0.28186500  1
  Th  Th1  1  0.50000000  0.00000000  0.71813500  1
  As  As2  1  0.50000000  0.50000000  0.00000000  1
  As  As3  1  0.00000000  0.00000000  0.00000000  1
  As  As4  1  0.00000000  0.50000000  0.63960200  1
  As  As5  1  0.50000000  0.00000000  0.36039800  1
