# generated using pymatgen
data_Li3CuF6
_symmetry_space_group_name_H-M   'P 1'
_cell_length_a   8.46315164
_cell_length_b   8.46315164
_cell_length_c   10.10373618
_cell_angle_alpha   86.18345758
_cell_angle_beta   86.18345758
_cell_angle_gamma   61.54142594
_symmetry_Int_Tables_number   1
_chemical_formula_structural   Li3CuF6
_chemical_formula_sum   'Li18 Cu6 F36'
_cell_volume   634.31942105
_cell_formula_units_Z   6
loop_
 _symmetry_equiv_pos_site_id
 _symmetry_equiv_pos_as_xyz
  1  'x, y, z'
loop_
 _atom_site_type_symbol
 _atom_site_label
 _atom_site_symmetry_multiplicity
 _atom_site_fract_x
 _atom_site_fract_y
 _atom_site_fract_z
 _atom_site_occupancy
  Li  Li0  1  0.94014600  0.65698000  0.43214000  1
  Li  Li1  1  0.99439100  0.28889400  0.23253300  1
  Li  Li2  1  0.65698000  0.94014600  0.93214000  1
  Li  Li3  1  0.87603800  0.45704300  0.94844500  1
  Li  Li4  1  0.45704300  0.87603800  0.44844500  1
  Li  Li5  1  0.67480600  0.37083200  0.46081800  1
  Li  Li6  1  0.81208500  0.18791500  0.75000000  1
  Li  Li7  1  0.62916800  0.32519400  0.03918200  1
  Li  Li8  1  0.71110600  0.00560900  0.26746700  1
  Li  Li9  1  0.28889400  0.99439100  0.73253300  1
  Li  Li10  1  0.37083200  0.67480600  0.96081800  1
  Li  Li11  1  0.18791500  0.81208500  0.25000000  1
  Li  Li12  1  0.32519400  0.62916800  0.53918200  1
  Li  Li13  1  0.54295700  0.12396200  0.55155500  1
  Li  Li14  1  0.12396200  0.54295700  0.05155500  1
  Li  Li15  1  0.34302000  0.05985400  0.06786000  1
  Li  Li16  1  0.00560900  0.71110600  0.76746700  1
  Li  Li17  1  0.05985400  0.34302000  0.56786000  1
  Cu  Cu18  1  0.00000000  0.00000000  0.00000000  1
  Cu  Cu19  1  0.66108300  0.66529100  0.20434800  1
  Cu  Cu20  1  0.00000000  0.00000000  0.50000000  1
  Cu  Cu21  1  0.66529100  0.66108300  0.70434800  1
  Cu  Cu22  1  0.33470900  0.33891700  0.29565200  1
  Cu  Cu23  1  0.33891700  0.33470900  0.79565200  1
  F  F24  1  0.93602100  0.91912200  0.16546700  1
  F  F25  1  0.91912200  0.93602100  0.66546700  1
  F  F26  1  0.89084000  0.56881700  0.11045100  1
  F  F27  1  0.89360000  0.58390100  0.60749400  1
  F  F28  1  0.73088700  0.77367200  0.33710700  1
  F  F29  1  0.77367200  0.73088700  0.83710700  1
  F  F30  1  0.91416500  0.23852700  0.06387500  1
  F  F31  1  0.58390100  0.89360000  0.10749400  1
  F  F32  1  0.75978200  0.44305400  0.30464300  1
  F  F33  1  0.90578200  0.23788100  0.56546800  1
  F  F34  1  0.56881700  0.89084000  0.61045100  1
  F  F35  1  0.75420500  0.43474800  0.80287400  1
  F  F36  1  0.58798700  0.57017200  0.06672300  1
  F  F37  1  0.76147300  0.08583500  0.43612500  1
  F  F38  1  0.43474800  0.75420600  0.30287400  1
  F  F39  1  0.57017200  0.58798700  0.56672300  1
  F  F40  1  0.76211900  0.09421800  0.93453200  1
  F  F41  1  0.44305400  0.75978200  0.80464300  1
  F  F42  1  0.55694600  0.24021800  0.19535700  1
  F  F43  1  0.23788100  0.90578200  0.06546800  1
  F  F44  1  0.42982800  0.41201300  0.43327700  1
  F  F45  1  0.56525200  0.24579500  0.69712600  1
  F  F46  1  0.23852700  0.91416500  0.56387500  1
  F  F47  1  0.41201300  0.42982800  0.93327700  1
  F  F48  1  0.24579400  0.56525200  0.19712600  1
  F  F49  1  0.43118300  0.10916000  0.38954900  1
  F  F50  1  0.09421800  0.76211900  0.43453200  1
  F  F51  1  0.24021800  0.55694600  0.69535700  1
  F  F52  1  0.41609900  0.10640000  0.89250600  1
  F  F53  1  0.08583500  0.76147300  0.93612500  1
  F  F54  1  0.22632800  0.26911300  0.16289300  1
  F  F55  1  0.26911300  0.22632800  0.66289300  1
  F  F56  1  0.10640000  0.41609900  0.39250600  1
  F  F57  1  0.10916000  0.43118300  0.88954900  1
  F  F58  1  0.08087800  0.06397900  0.33453300  1
  F  F59  1  0.06397900  0.08087800  0.83453300  1
