# generated using pymatgen
data_Li5Mn5(SeO3)8
_symmetry_space_group_name_H-M   'P 1'
_cell_length_a   8.50256900
_cell_length_b   10.64017715
_cell_length_c   13.89879938
_cell_angle_alpha   81.94029084
_cell_angle_beta   82.15058910
_cell_angle_gamma   73.70695954
_symmetry_Int_Tables_number   1
_chemical_formula_structural   Li5Mn5(SeO3)8
_chemical_formula_sum   'Li10 Mn10 Se16 O48'
_cell_volume   1188.71753354
_cell_formula_units_Z   2
loop_
 _symmetry_equiv_pos_site_id
 _symmetry_equiv_pos_as_xyz
  1  'x, y, z'
loop_
 _atom_site_type_symbol
 _atom_site_label
 _atom_site_symmetry_multiplicity
 _atom_site_fract_x
 _atom_site_fract_y
 _atom_site_fract_z
 _atom_site_occupancy
  Li  Li0  1  0.08224600  0.92826700  0.87490700  1
  Li  Li1  1  0.02859500  0.41557900  0.92600600  1
  Li  Li2  1  0.97140500  0.58442100  0.07399400  1
  Li  Li3  1  0.59931500  0.66967800  0.27877100  1
  Li  Li4  1  0.91775400  0.07173300  0.12509300  1
  Li  Li5  1  0.57994800  0.92335500  0.37255200  1
  Li  Li6  1  0.52996400  0.41821900  0.42454800  1
  Li  Li7  1  0.47003600  0.58178100  0.57545200  1
  Li  Li8  1  0.42005200  0.07664500  0.62744800  1
  Li  Li9  1  0.40068500  0.33032200  0.72122900  1
  Mn  Mn10  1  0.74939600  0.00180900  0.74954400  1
  Mn  Mn11  1  0.74937000  0.49831100  0.74879500  1
  Mn  Mn12  1  0.43595700  0.77970200  0.78049300  1
  Mn  Mn13  1  0.09877700  0.66528400  0.77895900  1
  Mn  Mn14  1  0.56404300  0.22029800  0.21950700  1
  Mn  Mn15  1  0.25060400  0.99819100  0.25045600  1
  Mn  Mn16  1  0.25063000  0.50168900  0.25120500  1
  Mn  Mn17  1  0.90122300  0.33471600  0.22104100  1
  Mn  Mn18  1  0.93331000  0.77739300  0.27999600  1
  Mn  Mn19  1  0.06669000  0.22260700  0.72000400  1
  Se  Se20  1  0.39562100  0.47405600  0.89382000  1
  Se  Se21  1  0.37295100  0.06822800  0.88083400  1
  Se  Se22  1  0.62704900  0.93177200  0.11916600  1
  Se  Se23  1  0.60437900  0.52594400  0.10618000  1
  Se  Se24  1  0.84620500  0.20392400  0.91263400  1
  Se  Se25  1  0.76789700  0.73697900  0.90944600  1
  Se  Se26  1  0.23210300  0.26302100  0.09055400  1
  Se  Se27  1  0.15379500  0.79607600  0.08736600  1
  Se  Se28  1  0.34691600  0.20380000  0.41287700  1
  Se  Se29  1  0.27083900  0.73580000  0.40812500  1
  Se  Se30  1  0.72916100  0.26420000  0.59187500  1
  Se  Se31  1  0.65308400  0.79620000  0.58712300  1
  Se  Se32  1  0.89165700  0.47932200  0.39501900  1
  Se  Se33  1  0.87340900  0.06687200  0.38301900  1
  Se  Se34  1  0.12659100  0.93312800  0.61698100  1
  Se  Se35  1  0.10834300  0.52067800  0.60498100  1
  O  O36  1  0.54292200  0.42629500  0.79905800  1
  O  O37  1  0.65598200  0.66325000  0.85189600  1
  O  O38  1  0.31886800  0.14800100  0.76890700  1
  O  O39  1  0.58954100  0.02086400  0.86598200  1
  O  O40  1  0.30566600  0.64142400  0.85818900  1
  O  O41  1  0.32711400  0.92026900  0.88352700  1
  O  O42  1  0.25138100  0.40645400  0.86395500  1
  O  O43  1  0.86573100  0.82400200  0.81107700  1
  O  O44  1  0.92699500  0.09544900  0.82108400  1
  O  O45  1  0.91311000  0.33787900  0.84641500  1
  O  O46  1  0.74861900  0.59354600  0.13604500  1
  O  O47  1  0.67288600  0.07973100  0.11647300  1
  O  O48  1  0.69433400  0.35857600  0.14181100  1
  O  O49  1  0.94440500  0.61178100  0.92468300  1
  O  O50  1  0.41045900  0.97913600  0.13401800  1
  O  O51  1  0.01245600  0.84918800  0.00632000  1
  O  O52  1  0.68113200  0.85199900  0.23109300  1
  O  O53  1  0.98754400  0.15081200  0.99368000  1
  O  O54  1  0.34401800  0.33675000  0.14810400  1
  O  O55  1  0.45707800  0.57370500  0.20094200  1
  O  O56  1  0.05559500  0.38821900  0.07531700  1
  O  O57  1  0.08689000  0.66212100  0.15358500  1
  O  O58  1  0.07300500  0.90455100  0.17891600  1
  O  O59  1  0.13426900  0.17599800  0.18892300  1
  O  O60  1  0.36637200  0.82418100  0.31082300  1
  O  O61  1  0.42616300  0.09564100  0.32074300  1
  O  O62  1  0.41361300  0.33755200  0.34558300  1
  O  O63  1  0.44062300  0.60998800  0.42846300  1
  O  O64  1  0.04245600  0.42688000  0.29883400  1
  O  O65  1  0.15559200  0.66251700  0.35028300  1
  O  O66  1  0.51156400  0.85013700  0.50681900  1
  O  O67  1  0.82050000  0.14979000  0.26911900  1
  O  O68  1  0.48843600  0.14986300  0.49318100  1
  O  O69  1  0.08859500  0.02347500  0.36672100  1
  O  O70  1  0.55937700  0.39001200  0.57153700  1
  O  O71  1  0.80271100  0.64109000  0.35836200  1
  O  O72  1  0.82674400  0.92121000  0.38266300  1
  O  O73  1  0.75838200  0.40048800  0.36215400  1
  O  O74  1  0.58638700  0.66244800  0.65441700  1
  O  O75  1  0.57383700  0.90435900  0.67925700  1
  O  O76  1  0.63362800  0.17581900  0.68917700  1
  O  O77  1  0.24161800  0.59951200  0.63784600  1
  O  O78  1  0.17325600  0.07879000  0.61733700  1
  O  O79  1  0.19728900  0.35891000  0.64163800  1
  O  O80  1  0.91140500  0.97652500  0.63327900  1
  O  O81  1  0.17950000  0.85021000  0.73088100  1
  O  O82  1  0.84440800  0.33748300  0.64971700  1
  O  O83  1  0.95754400  0.57312000  0.70116600  1
