# generated using pymatgen
data_Na2CrAsCO7
_symmetry_space_group_name_H-M   'P 1'
_cell_length_a   9.12710451
_cell_length_b   6.74195500
_cell_length_c   5.35750483
_cell_angle_alpha   89.99899231
_cell_angle_beta   87.77110582
_cell_angle_gamma   90.00241664
_symmetry_Int_Tables_number   1
_chemical_formula_structural   Na2CrAsCO7
_chemical_formula_sum   'Na4 Cr2 As2 C2 O14'
_cell_volume   329.42211086
_cell_formula_units_Z   2
loop_
 _symmetry_equiv_pos_site_id
 _symmetry_equiv_pos_as_xyz
  1  'x, y, z'
loop_
 _atom_site_type_symbol
 _atom_site_label
 _atom_site_symmetry_multiplicity
 _atom_site_fract_x
 _atom_site_fract_y
 _atom_site_fract_z
 _atom_site_occupancy
  Na  Na0  1  0.22231800  0.00219700  0.23562800  1
  Na  Na1  1  0.22232000  0.49781900  0.23566400  1
  Na  Na2  1  0.77762200  0.50225300  0.76431200  1
  Na  Na3  1  0.77763300  0.99779800  0.76432800  1
  Cr  Cr4  1  0.34445400  0.74984300  0.78898700  1
  Cr  Cr5  1  0.65530200  0.24998500  0.21119200  1
  As  As6  1  0.42454700  0.24999800  0.71483700  1
  As  As7  1  0.57549600  0.75000500  0.28510900  1
  C  C8  1  0.07867600  0.75000800  0.72229700  1
  C  C9  1  0.92132400  0.25001900  0.27774700  1
  O  O10  1  0.05641000  0.25001300  0.31128500  1
  O  O11  1  0.13689100  0.74998200  0.94388700  1
  O  O12  1  0.17983200  0.74999100  0.53747100  1
  O  O13  1  0.32102500  0.04836800  0.80368700  1
  O  O14  1  0.32101600  0.45161900  0.80370600  1
  O  O15  1  0.40850600  0.74999000  0.14623100  1
  O  O16  1  0.45505300  0.25001300  0.39240300  1
  O  O17  1  0.54503400  0.74997700  0.60755200  1
  O  O18  1  0.59149200  0.25001000  0.85367100  1
  O  O19  1  0.67904200  0.54836300  0.19620200  1
  O  O20  1  0.67903800  0.95166900  0.19621800  1
  O  O21  1  0.82012800  0.25002100  0.46251800  1
  O  O22  1  0.86322300  0.25002300  0.05613800  1
  O  O23  1  0.94361500  0.75003400  0.68892900  1
