# generated using pymatgen
data_Na2BiO3
_symmetry_space_group_name_H-M   'P 1'
_cell_length_a   5.95874647
_cell_length_b   5.95874647
_cell_length_c   11.32982933
_cell_angle_alpha   85.23275387
_cell_angle_beta   85.23275387
_cell_angle_gamma   119.88683423
_symmetry_Int_Tables_number   1
_chemical_formula_structural   Na2BiO3
_chemical_formula_sum   'Na8 Bi4 O12'
_cell_volume   343.94992832
_cell_formula_units_Z   4
loop_
 _symmetry_equiv_pos_site_id
 _symmetry_equiv_pos_as_xyz
  1  'x, y, z'
loop_
 _atom_site_type_symbol
 _atom_site_label
 _atom_site_symmetry_multiplicity
 _atom_site_fract_x
 _atom_site_fract_y
 _atom_site_fract_z
 _atom_site_occupancy
  Na  Na0  1  0.84705400  0.67862000  0.00135700  1
  Na  Na1  1  0.67862000  0.84705400  0.50135700  1
  Na  Na2  1  0.00000000  0.50000000  0.50000000  1
  Na  Na3  1  0.91616200  0.08383800  0.75000000  1
  Na  Na4  1  0.08383800  0.91616200  0.25000000  1
  Na  Na5  1  0.32138000  0.15294600  0.49864300  1
  Na  Na6  1  0.50000000  0.00000000  0.00000000  1
  Na  Na7  1  0.15294600  0.32138000  0.99864300  1
  Bi  Bi8  1  0.58254700  0.41745300  0.75000000  1
  Bi  Bi9  1  0.24974900  0.75025100  0.75000000  1
  Bi  Bi10  1  0.41745300  0.58254700  0.25000000  1
  Bi  Bi11  1  0.75025100  0.24974900  0.25000000  1
  O  O12  1  0.97920700  0.77617400  0.63778600  1
  O  O13  1  0.90902600  0.42166200  0.85865600  1
  O  O14  1  0.77617400  0.97920700  0.13778600  1
  O  O15  1  0.50462400  0.70091600  0.86337400  1
  O  O16  1  0.42166200  0.90902600  0.35865600  1
  O  O17  1  0.70091600  0.50462400  0.36337400  1
  O  O18  1  0.29908400  0.49537600  0.63662600  1
  O  O19  1  0.57833800  0.09097400  0.64134400  1
  O  O20  1  0.49537600  0.29908400  0.13662600  1
  O  O21  1  0.22382600  0.02079300  0.86221400  1
  O  O22  1  0.09097400  0.57833800  0.14134400  1
  O  O23  1  0.02079300  0.22382600  0.36221400  1
