# generated using pymatgen
data_Rb2Be2O3
_symmetry_space_group_name_H-M   'P 1'
_cell_length_a   5.40352900
_cell_length_b   7.78548700
_cell_length_c   10.96467900
_cell_angle_alpha   90.00000000
_cell_angle_beta   90.00000000
_cell_angle_gamma   90.00000000
_symmetry_Int_Tables_number   1
_chemical_formula_structural   Rb2Be2O3
_chemical_formula_sum   'Rb8 Be8 O12'
_cell_volume   461.27422977
_cell_formula_units_Z   4
loop_
 _symmetry_equiv_pos_site_id
 _symmetry_equiv_pos_as_xyz
  1  'x, y, z'
loop_
 _atom_site_type_symbol
 _atom_site_label
 _atom_site_symmetry_multiplicity
 _atom_site_fract_x
 _atom_site_fract_y
 _atom_site_fract_z
 _atom_site_occupancy
  Rb  Rb0  1  0.25000000  0.86956500  0.08026500  1
  Rb  Rb1  1  0.75000000  0.50703200  0.11637700  1
  Rb  Rb2  1  0.25000000  0.00703200  0.38362300  1
  Rb  Rb3  1  0.75000000  0.36956500  0.41973500  1
  Rb  Rb4  1  0.25000000  0.63043500  0.58026500  1
  Rb  Rb5  1  0.75000000  0.99296800  0.61637700  1
  Rb  Rb6  1  0.25000000  0.49296800  0.88362300  1
  Rb  Rb7  1  0.75000000  0.13043500  0.91973500  1
  Be  Be8  1  0.25000000  0.27544400  0.16758900  1
  Be  Be9  1  0.75000000  0.10531800  0.21321300  1
  Be  Be10  1  0.25000000  0.60531800  0.28678700  1
  Be  Be11  1  0.75000000  0.77544400  0.33241100  1
  Be  Be12  1  0.25000000  0.22455600  0.66758900  1
  Be  Be13  1  0.75000000  0.39468200  0.71321300  1
  Be  Be14  1  0.25000000  0.89468200  0.78678700  1
  Be  Be15  1  0.75000000  0.72455600  0.83241100  1
  O  O16  1  0.25000000  0.47570000  0.17864100  1
  O  O17  1  0.99949100  0.17491400  0.16054600  1
  O  O18  1  0.50050900  0.17491400  0.16054600  1
  O  O19  1  0.00050900  0.67491400  0.33945400  1
  O  O20  1  0.49949100  0.67491400  0.33945400  1
  O  O21  1  0.75000000  0.97570000  0.32135900  1
  O  O22  1  0.25000000  0.02430000  0.67864100  1
  O  O23  1  0.99949100  0.32508600  0.66054600  1
  O  O24  1  0.50050900  0.32508600  0.66054600  1
  O  O25  1  0.49949100  0.82508600  0.83945400  1
  O  O26  1  0.00050900  0.82508600  0.83945400  1
  O  O27  1  0.75000000  0.52430000  0.82135900  1
