# generated using pymatgen
data_Na6U5V2O23
_symmetry_space_group_name_H-M   'P 1'
_cell_length_a   24.57190700
_cell_length_b   7.10854200
_cell_length_c   12.79931142
_cell_angle_alpha   79.42676208
_cell_angle_beta   90.00000000
_cell_angle_gamma   90.00000000
_symmetry_Int_Tables_number   1
_chemical_formula_structural   Na6U5V2O23
_chemical_formula_sum   'Na24 U20 V8 O92'
_cell_volume   2197.70233910
_cell_formula_units_Z   4
loop_
 _symmetry_equiv_pos_site_id
 _symmetry_equiv_pos_as_xyz
  1  'x, y, z'
loop_
 _atom_site_type_symbol
 _atom_site_label
 _atom_site_symmetry_multiplicity
 _atom_site_fract_x
 _atom_site_fract_y
 _atom_site_fract_z
 _atom_site_occupancy
  Na  Na0  1  0.53842400  0.27166300  0.97756200  1
  Na  Na1  1  0.46592800  0.73784600  0.52448900  1
  Na  Na2  1  0.79447300  0.76992400  0.88598400  1
  Na  Na3  1  0.30941800  0.75079200  0.62303500  1
  Na  Na4  1  0.62245200  0.78507200  0.92330800  1
  Na  Na5  1  0.19058200  0.25079200  0.62303500  1
  Na  Na6  1  0.20552700  0.23007600  0.11401600  1
  Na  Na7  1  0.70552700  0.26992400  0.88598400  1
  Na  Na8  1  0.37754800  0.21492800  0.07669200  1
  Na  Na9  1  0.03842400  0.22833700  0.02243800  1
  Na  Na10  1  0.03407200  0.23784600  0.52448900  1
  Na  Na11  1  0.96592800  0.76215400  0.47551100  1
  Na  Na12  1  0.29447300  0.73007600  0.11401600  1
  Na  Na13  1  0.89995900  0.25810400  0.42609300  1
  Na  Na14  1  0.87754800  0.28507200  0.92330800  1
  Na  Na15  1  0.39995900  0.24189600  0.57390700  1
  Na  Na16  1  0.80941800  0.74920800  0.37696500  1
  Na  Na17  1  0.10004100  0.74189600  0.57390700  1
  Na  Na18  1  0.46157600  0.72833700  0.02243800  1
  Na  Na19  1  0.53407200  0.26215400  0.47551100  1
  Na  Na20  1  0.69058200  0.24920800  0.37696500  1
  Na  Na21  1  0.12245200  0.71492800  0.07669200  1
  Na  Na22  1  0.60004100  0.75810400  0.42609300  1
  Na  Na23  1  0.96157600  0.77166300  0.97756200  1
  U  U24  1  0.92656400  0.02271600  0.18685600  1
  U  U25  1  0.85252600  0.52733900  0.65360300  1
  U  U26  1  0.41218900  0.48771100  0.29190300  1
  U  U27  1  0.42656400  0.47728400  0.81314400  1
  U  U28  1  0.85964300  0.53771100  0.16576500  1
  U  U29  1  0.35252600  0.97266100  0.34639700  1
  U  U30  1  0.57343600  0.52271600  0.18685600  1
  U  U31  1  0.14747400  0.47266100  0.34639700  1
  U  U32  1  0.07343600  0.97728400  0.81314400  1
  U  U33  1  0.00727700  0.48943800  0.23723800  1
  U  U34  1  0.50727700  0.01056200  0.76276200  1
  U  U35  1  0.49272300  0.98943800  0.23723800  1
  U  U36  1  0.64035700  0.03771100  0.16576500  1
  U  U37  1  0.64747400  0.02733900  0.65360300  1
  U  U38  1  0.99272300  0.51056200  0.76276200  1
  U  U39  1  0.08781100  0.98771100  0.29190300  1
  U  U40  1  0.14035700  0.46228900  0.83423500  1
  U  U41  1  0.35964300  0.96228900  0.83423500  1
  U  U42  1  0.91218900  0.01228900  0.70809700  1
  U  U43  1  0.58781100  0.51228900  0.70809700  1
  V  V44  1  0.29490500  0.45180600  0.89121100  1
  V  V45  1  0.79490500  0.04819400  0.10878900  1
  V  V46  1  0.20065400  0.95040300  0.43900900  1
  V  V47  1  0.70509500  0.54819400  0.10878900  1
  V  V48  1  0.70065400  0.54959700  0.56099100  1
  V  V49  1  0.79934600  0.04959700  0.56099100  1
  V  V50  1  0.20509500  0.95180600  0.89121100  1
  V  V51  1  0.29934600  0.45040300  0.43900900  1
  O  O52  1  0.06341400  0.92995700  0.96116700  1
  O  O53  1  0.57919000  0.19482100  0.71013800  1
  O  O54  1  0.38428600  0.91292900  0.48057500  1
  O  O55  1  0.53206200  0.97497600  0.90325800  1
  O  O56  1  0.98418500  0.45068200  0.38042100  1
  O  O57  1  0.51299600  0.43829500  0.79525400  1
  O  O58  1  0.27092400  0.92402400  0.43154100  1
  O  O59  1  0.64957800  0.98883900  0.31236400  1
  O  O60  1  0.42081000  0.80517900  0.28986200  1
  O  O61  1  0.56796400  0.83644800  0.19818300  1
  O  O62  1  0.18073100  0.52907800  0.21266400  1
  O  O63  1  0.77092400  0.57597600  0.56845900  1
  O  O64  1  0.35042200  0.01116100  0.68763600  1
  O  O65  1  0.71797900  0.55271500  0.97889800  1
  O  O66  1  0.17211800  0.14863100  0.35318500  1
  O  O67  1  0.93658600  0.07004300  0.03883300  1
  O  O68  1  0.55844500  0.20938000  0.18274900  1
  O  O69  1  0.32788200  0.64863100  0.35318500  1
  O  O70  1  0.01581500  0.54931800  0.61957900  1
  O  O71  1  0.16109800  0.14249700  0.82895900  1
  O  O72  1  0.22907600  0.42402400  0.43154100  1
  O  O73  1  0.05187000  0.94144300  0.42517900  1
  O  O74  1  0.92081000  0.69482100  0.71013800  1
  O  O75  1  0.94155500  0.70938000  0.18274900  1
  O  O76  1  0.66037800  0.72640900  0.60687500  1
  O  O77  1  0.18572700  0.95507600  0.56618300  1
  O  O78  1  0.33853900  0.26222700  0.87563100  1
  O  O79  1  0.16146100  0.76222700  0.87563100  1
  O  O80  1  0.73433300  0.05254100  0.17608800  1
  O  O81  1  0.33890200  0.64249700  0.82895900  1
  O  O82  1  0.57599000  0.82089000  0.72636000  1
  O  O83  1  0.03206200  0.52502400  0.09674200  1
  O  O84  1  0.14957800  0.51116100  0.68763600  1
  O  O85  1  0.16037800  0.77359100  0.39312500  1
  O  O86  1  0.07599000  0.67911000  0.27364000  1
  O  O87  1  0.43203600  0.16355200  0.80181700  1
  O  O88  1  0.61571400  0.08707100  0.51942500  1
  O  O89  1  0.11571400  0.41292900  0.48057500  1
  O  O90  1  0.83962200  0.22640900  0.60687500  1
  O  O91  1  0.06796400  0.66355200  0.80181700  1
  O  O92  1  0.86589700  0.60522600  0.01858400  1
  O  O93  1  0.07919000  0.30517900  0.28986200  1
  O  O94  1  0.41645200  0.53145500  0.66578700  1
  O  O95  1  0.26566700  0.94745900  0.82391200  1
  O  O96  1  0.83890200  0.85750300  0.17104100  1
  O  O97  1  0.46793800  0.02502400  0.09674200  1
  O  O98  1  0.78202100  0.05271500  0.97889800  1
  O  O99  1  0.76566700  0.55254100  0.17608800  1
  O  O100  1  0.44813000  0.44144300  0.42517900  1
  O  O101  1  0.36589700  0.89477400  0.98141600  1
  O  O102  1  0.68572700  0.54492400  0.43381700  1
  O  O103  1  0.12653200  0.02500500  0.16466700  1
  O  O104  1  0.58354800  0.46854500  0.33421300  1
  O  O105  1  0.98700400  0.93829500  0.79525400  1
  O  O106  1  0.66109800  0.35750300  0.17104100  1
  O  O107  1  0.05844500  0.29062000  0.81725100  1
  O  O108  1  0.51581500  0.95068200  0.38042100  1
  O  O109  1  0.81926900  0.47092200  0.78733600  1
  O  O110  1  0.56341400  0.57004300  0.03883300  1
  O  O111  1  0.87346800  0.97499500  0.83533300  1
  O  O112  1  0.43658600  0.42995700  0.96116700  1
  O  O113  1  0.44155500  0.79062000  0.81725100  1
  O  O114  1  0.01299600  0.06170500  0.20474600  1
  O  O115  1  0.66146100  0.73777300  0.12436900  1
  O  O116  1  0.83853900  0.23777300  0.12436900  1
  O  O117  1  0.62653200  0.47499500  0.83533300  1
  O  O118  1  0.81427300  0.04492400  0.43381700  1
  O  O119  1  0.37346800  0.52500500  0.16466700  1
  O  O120  1  0.48418500  0.04931800  0.61957900  1
  O  O121  1  0.28202100  0.44728500  0.02110200  1
  O  O122  1  0.96793800  0.47497600  0.90325800  1
  O  O123  1  0.33962200  0.27359100  0.39312500  1
  O  O124  1  0.67211800  0.35136900  0.64681500  1
  O  O125  1  0.23433300  0.44745900  0.82391200  1
  O  O126  1  0.94813000  0.05855700  0.57482100  1
  O  O127  1  0.08354800  0.03145500  0.66578700  1
  O  O128  1  0.91645200  0.96854500  0.33421300  1
  O  O129  1  0.63410300  0.10522600  0.01858400  1
  O  O130  1  0.88428600  0.58707100  0.51942500  1
  O  O131  1  0.82788200  0.85136900  0.64681500  1
  O  O132  1  0.42401000  0.17911000  0.27364000  1
  O  O133  1  0.93203600  0.33644800  0.19818300  1
  O  O134  1  0.92401000  0.32089000  0.72636000  1
  O  O135  1  0.68073100  0.97092200  0.78733600  1
  O  O136  1  0.85042200  0.48883900  0.31236400  1
  O  O137  1  0.48700400  0.56170500  0.20474600  1
  O  O138  1  0.31926900  0.02907800  0.21266400  1
  O  O139  1  0.21797900  0.94728500  0.02110200  1
  O  O140  1  0.13410300  0.39477400  0.98141600  1
  O  O141  1  0.72907600  0.07597600  0.56845900  1
  O  O142  1  0.31427300  0.45507600  0.56618300  1
  O  O143  1  0.55187000  0.55855700  0.57482100  1
