# generated using pymatgen
data_Li3V2P4(HO8)2
_symmetry_space_group_name_H-M   'P 1'
_cell_length_a   4.85802773
_cell_length_b   16.13055584
_cell_length_c   7.58003871
_cell_angle_alpha   90.83780625
_cell_angle_beta   104.74799664
_cell_angle_gamma   89.38549613
_symmetry_Int_Tables_number   1
_chemical_formula_structural   Li3V2P4(HO8)2
_chemical_formula_sum   'Li6 V4 P8 H4 O32'
_cell_volume   574.34656622
_cell_formula_units_Z   2
loop_
 _symmetry_equiv_pos_site_id
 _symmetry_equiv_pos_as_xyz
  1  'x, y, z'
loop_
 _atom_site_type_symbol
 _atom_site_label
 _atom_site_symmetry_multiplicity
 _atom_site_fract_x
 _atom_site_fract_y
 _atom_site_fract_z
 _atom_site_occupancy
  Li  Li0  1  0.38684000  0.43361900  0.84441500  1
  Li  Li1  1  0.38687500  0.93342900  0.84434400  1
  Li  Li2  1  0.60465500  0.06659800  0.15674500  1
  Li  Li3  1  0.60485500  0.56641800  0.15659300  1
  Li  Li4  1  0.90780000  0.31629500  0.35617000  1
  Li  Li5  1  0.90842400  0.81617500  0.35639500  1
  V  V6  1  0.49332600  0.74860900  0.99665700  1
  V  V7  1  0.00020600  0.00238100  0.50049200  1
  V  V8  1  0.49292500  0.24871600  0.99639300  1
  V  V9  1  0.00001300  0.50245900  0.50056600  1
  P  P10  1  0.13000900  0.17599400  0.26481600  1
  P  P11  1  0.13024800  0.67587100  0.26497000  1
  P  P12  1  0.36714300  0.42380500  0.23042900  1
  P  P13  1  0.36748200  0.92381600  0.23038400  1
  P  P14  1  0.63257800  0.07816000  0.76415600  1
  P  P15  1  0.63310600  0.57810600  0.76441500  1
  P  P16  1  0.87011400  0.32476300  0.73719400  1
  P  P17  1  0.87035900  0.82466000  0.73740200  1
  H  H18  1  0.51425100  0.25250100  0.50631500  1
  H  H19  1  0.51465800  0.75244000  0.50657900  1
  H  H20  1  0.97162500  0.00468600  0.98847100  1
  H  H21  1  0.97237500  0.50457400  0.98894800  1
  O  O22  1  0.12904800  0.27462400  0.85561200  1
  O  O23  1  0.12929300  0.77452900  0.85586100  1
  O  O24  1  0.01834800  0.09205200  0.30637800  1
  O  O25  1  0.01861400  0.59193100  0.30652600  1
  O  O26  1  0.15116800  0.41355700  0.34786000  1
  O  O27  1  0.15144800  0.91350600  0.34776700  1
  O  O28  1  0.25685600  0.22880300  0.43427000  1
  O  O29  1  0.25703200  0.72867300  0.43444400  1
  O  O30  1  0.37696100  0.02400900  0.66885700  1
  O  O31  1  0.37730700  0.52407900  0.66909500  1
  O  O32  1  0.54183400  0.16387100  0.82279300  1
  O  O33  1  0.54268500  0.66390600  0.82285400  1
  O  O34  1  0.24086200  0.46950400  0.05016000  1
  O  O35  1  0.24118600  0.96950100  0.05017100  1
  O  O36  1  0.34046700  0.16394800  0.13960900  1
  O  O37  1  0.34078100  0.66381100  0.13978400  1
  O  O38  1  0.65085400  0.33570000  0.85429500  1
  O  O39  1  0.65115400  0.83562900  0.85447300  1
  O  O40  1  0.75894700  0.02948600  0.94822000  1
  O  O41  1  0.75938600  0.52949900  0.94848200  1
  O  O42  1  0.48391000  0.33765700  0.18650900  1
  O  O43  1  0.48476500  0.83770500  0.18663800  1
  O  O44  1  0.61854200  0.47764800  0.33715000  1
  O  O45  1  0.61847000  0.97778500  0.33742100  1
  O  O46  1  0.73883500  0.27784000  0.55621500  1
  O  O47  1  0.73915300  0.77770200  0.55639400  1
  O  O48  1  0.84359300  0.08595000  0.64760100  1
  O  O49  1  0.84436500  0.58589400  0.64792000  1
  O  O50  1  0.98547000  0.40724700  0.68974400  1
  O  O51  1  0.98576200  0.90711100  0.68975700  1
  O  O52  1  0.86589900  0.22795300  0.15175800  1
  O  O53  1  0.86603300  0.72778200  0.15193500  1
