# generated using pymatgen
data_Ho3Sb5O12
_symmetry_space_group_name_H-M   'P 1'
_cell_length_a   9.42759238
_cell_length_b   9.42759238
_cell_length_c   9.42759238
_cell_angle_alpha   109.47122063
_cell_angle_beta   109.47122063
_cell_angle_gamma   109.47122063
_symmetry_Int_Tables_number   1
_chemical_formula_structural   Ho3Sb5O12
_chemical_formula_sum   'Ho6 Sb10 O24'
_cell_volume   645.03087011
_cell_formula_units_Z   2
loop_
 _symmetry_equiv_pos_site_id
 _symmetry_equiv_pos_as_xyz
  1  'x, y, z'
loop_
 _atom_site_type_symbol
 _atom_site_label
 _atom_site_symmetry_multiplicity
 _atom_site_fract_x
 _atom_site_fract_y
 _atom_site_fract_z
 _atom_site_occupancy
  Ho  Ho0  1  0.75000000  0.25000000  0.50000000  1
  Ho  Ho1  1  0.75000000  0.50000000  0.25000000  1
  Ho  Ho2  1  0.50000000  0.25000000  0.75000000  1
  Ho  Ho3  1  0.50000000  0.75000000  0.25000000  1
  Ho  Ho4  1  0.25000000  0.75000000  0.50000000  1
  Ho  Ho5  1  0.25000000  0.50000000  0.75000000  1
  Sb  Sb6  1  0.51556100  0.00000000  0.00000000  1
  Sb  Sb7  1  0.28399400  0.00000000  0.28399400  1
  Sb  Sb8  1  0.28399400  0.28399400  0.00000000  1
  Sb  Sb9  1  0.71600600  0.00000000  0.71600600  1
  Sb  Sb10  1  0.71600600  0.71600600  0.00000000  1
  Sb  Sb11  1  0.00000000  0.51556100  0.00000000  1
  Sb  Sb12  1  0.00000000  0.00000000  0.51556100  1
  Sb  Sb13  1  0.48443900  0.48443900  0.48443900  1
  Sb  Sb14  1  0.00000000  0.28399400  0.28399400  1
  Sb  Sb15  1  0.00000000  0.71600600  0.71600600  1
  O  O16  1  0.47991800  0.00000000  0.20184600  1
  O  O17  1  0.47991800  0.20184700  0.00000000  1
  O  O18  1  0.70287500  0.50087500  0.00000000  1
  O  O19  1  0.70287500  0.00000000  0.50087500  1
  O  O20  1  0.79800000  0.29712500  0.29712500  1
  O  O21  1  0.49912500  0.49912500  0.20200000  1
  O  O22  1  0.49912500  0.20200000  0.49912500  1
  O  O23  1  0.50087500  0.70287500  0.00000000  1
  O  O24  1  0.50087500  0.00000000  0.70287500  1
  O  O25  1  0.72192900  0.52008200  0.52008200  1
  O  O26  1  0.79815400  0.27807100  0.79815300  1
  O  O27  1  0.79815400  0.79815400  0.27807100  1
  O  O28  1  0.20184700  0.47991800  0.00000000  1
  O  O29  1  0.20184700  0.00000000  0.47991800  1
  O  O30  1  0.52008200  0.72192900  0.52008200  1
  O  O31  1  0.52008200  0.52008200  0.72192900  1
  O  O32  1  0.00000000  0.47991800  0.20184600  1
  O  O33  1  0.00000000  0.20184600  0.47991800  1
  O  O34  1  0.29712500  0.79800000  0.29712500  1
  O  O35  1  0.29712500  0.29712500  0.79800000  1
  O  O36  1  0.20200000  0.49912500  0.49912500  1
  O  O37  1  0.00000000  0.70287500  0.50087500  1
  O  O38  1  0.00000000  0.50087500  0.70287500  1
  O  O39  1  0.27807100  0.79815300  0.79815300  1
