# generated using pymatgen
data_ZnCoH18N6Cl5
_symmetry_space_group_name_H-M   'P 1'
_cell_length_a   7.82769100
_cell_length_b   8.27724200
_cell_length_c   21.69926900
_cell_angle_alpha   90.00000000
_cell_angle_beta   90.00000000
_cell_angle_gamma   90.00000000
_symmetry_Int_Tables_number   1
_chemical_formula_structural   ZnCoH18N6Cl5
_chemical_formula_sum   'Zn4 Co4 H72 N24 Cl20'
_cell_volume   1405.93236904
_cell_formula_units_Z   4
loop_
 _symmetry_equiv_pos_site_id
 _symmetry_equiv_pos_as_xyz
  1  'x, y, z'
loop_
 _atom_site_type_symbol
 _atom_site_label
 _atom_site_symmetry_multiplicity
 _atom_site_fract_x
 _atom_site_fract_y
 _atom_site_fract_z
 _atom_site_occupancy
  Zn  Zn0  1  0.25000000  0.86607000  0.09152600  1
  Zn  Zn1  1  0.25000000  0.63393000  0.59152600  1
  Zn  Zn2  1  0.75000000  0.13393000  0.90847400  1
  Zn  Zn3  1  0.75000000  0.36607000  0.40847400  1
  Co  Co4  1  0.25000000  0.88464400  0.35927400  1
  Co  Co5  1  0.25000000  0.61535600  0.85927400  1
  Co  Co6  1  0.75000000  0.11535600  0.64072600  1
  Co  Co7  1  0.75000000  0.38464400  0.14072600  1
  H  H8  1  0.25000000  0.73925900  0.25588400  1
  H  H9  1  0.25000000  0.76074100  0.75588400  1
  H  H10  1  0.75000000  0.26074100  0.74411600  1
  H  H11  1  0.75000000  0.23925900  0.24411600  1
  H  H12  1  0.14487600  0.62778800  0.30699500  1
  H  H13  1  0.35512400  0.87221200  0.80699500  1
  H  H14  1  0.64487600  0.37221200  0.69300500  1
  H  H15  1  0.85512400  0.12778800  0.19300500  1
  H  H16  1  0.85512400  0.37221200  0.69300500  1
  H  H17  1  0.64487600  0.12778800  0.19300500  1
  H  H18  1  0.35512400  0.62778800  0.30699500  1
  H  H19  1  0.14487600  0.87221200  0.80699500  1
  H  H20  1  0.95506600  0.77253300  0.38619000  1
  H  H21  1  0.54493400  0.72746700  0.88619000  1
  H  H22  1  0.45506600  0.22746700  0.61381000  1
  H  H23  1  0.04493400  0.27253300  0.11381000  1
  H  H24  1  0.04493400  0.22746700  0.61381000  1
  H  H25  1  0.45506600  0.27253300  0.11381000  1
  H  H26  1  0.54493400  0.77253300  0.38619000  1
  H  H27  1  0.95506600  0.72746700  0.88619000  1
  H  H28  1  0.05050900  0.83267000  0.45050200  1
  H  H29  1  0.44949100  0.66733000  0.95050200  1
  H  H30  1  0.55050900  0.16733000  0.54949800  1
  H  H31  1  0.94949100  0.33267000  0.04949800  1
  H  H32  1  0.94949100  0.16733000  0.54949800  1
  H  H33  1  0.55050900  0.33267000  0.04949800  1
  H  H34  1  0.44949100  0.83267000  0.45050200  1
  H  H35  1  0.05050900  0.66733000  0.95050200  1
  H  H36  1  0.10113100  0.65893800  0.41951800  1
  H  H37  1  0.39886900  0.84106200  0.91951800  1
  H  H38  1  0.60113100  0.34106200  0.58048200  1
  H  H39  1  0.89886900  0.15893800  0.08048200  1
  H  H40  1  0.89886900  0.34106200  0.58048200  1
  H  H41  1  0.60113100  0.15893800  0.08048200  1
  H  H42  1  0.39886900  0.65893800  0.41951800  1
  H  H43  1  0.10113100  0.84106200  0.91951800  1
  H  H44  1  0.11879200  0.02953400  0.26762000  1
  H  H45  1  0.38120800  0.47046600  0.76762000  1
  H  H46  1  0.61879200  0.97046600  0.73238000  1
  H  H47  1  0.88120800  0.52953400  0.23238000  1
  H  H48  1  0.88120800  0.97046600  0.73238000  1
  H  H49  1  0.61879200  0.52953400  0.23238000  1
  H  H50  1  0.38120800  0.02953400  0.26762000  1
  H  H51  1  0.11879200  0.47046600  0.76762000  1
  H  H52  1  0.02262400  0.08878000  0.33090800  1
  H  H53  1  0.47737600  0.41122000  0.83090800  1
  H  H54  1  0.52262400  0.91122000  0.66909200  1
  H  H55  1  0.97737600  0.58878000  0.16909200  1
  H  H56  1  0.97737600  0.91122000  0.66909200  1
  H  H57  1  0.52262400  0.58878000  0.16909200  1
  H  H58  1  0.47737600  0.08878000  0.33090800  1
  H  H59  1  0.02262400  0.41122000  0.83090800  1
  H  H60  1  0.97122100  0.91072400  0.30030400  1
  H  H61  1  0.52877900  0.58927600  0.80030400  1
  H  H62  1  0.47122100  0.08927600  0.69969600  1
  H  H63  1  0.02877900  0.41072400  0.19969600  1
  H  H64  1  0.02877900  0.08927600  0.69969600  1
  H  H65  1  0.47122100  0.41072400  0.19969600  1
  H  H66  1  0.52877900  0.91072400  0.30030400  1
  H  H67  1  0.97122100  0.58927600  0.80030400  1
  H  H68  1  0.35421500  0.14538900  0.40888400  1
  H  H69  1  0.14578500  0.35461100  0.90888400  1
  H  H70  1  0.85421500  0.85461100  0.59111600  1
  H  H71  1  0.64578500  0.64538900  0.09111600  1
  H  H72  1  0.64578500  0.85461100  0.59111600  1
  H  H73  1  0.85421500  0.64538900  0.09111600  1
  H  H74  1  0.14578500  0.14538900  0.40888400  1
  H  H75  1  0.35421500  0.35461100  0.90888400  1
  H  H76  1  0.25000000  0.03725000  0.46132500  1
  H  H77  1  0.25000000  0.46275000  0.96132500  1
  H  H78  1  0.75000000  0.96275000  0.53867500  1
  H  H79  1  0.75000000  0.53725000  0.03867500  1
  N  N80  1  0.25000000  0.70048000  0.30099600  1
  N  N81  1  0.25000000  0.79952000  0.80099600  1
  N  N82  1  0.75000000  0.29952000  0.69900400  1
  N  N83  1  0.75000000  0.20048000  0.19900400  1
  N  N84  1  0.07086000  0.77656400  0.40891900  1
  N  N85  1  0.42914000  0.72343600  0.90891900  1
  N  N86  1  0.57086000  0.22343600  0.59108100  1
  N  N87  1  0.92914000  0.27656400  0.09108100  1
  N  N88  1  0.92914000  0.22343600  0.59108100  1
  N  N89  1  0.57086000  0.27656400  0.09108100  1
  N  N90  1  0.42914000  0.77656400  0.40891900  1
  N  N91  1  0.07086000  0.72343600  0.90891900  1
  N  N92  1  0.07225300  0.98807900  0.30914400  1
  N  N93  1  0.42774700  0.51192100  0.80914400  1
  N  N94  1  0.57225300  0.01192100  0.69085600  1
  N  N95  1  0.92774700  0.48807900  0.19085600  1
  N  N96  1  0.92774700  0.01192100  0.69085600  1
  N  N97  1  0.57225300  0.48807900  0.19085600  1
  N  N98  1  0.42774700  0.98807900  0.30914400  1
  N  N99  1  0.07225300  0.51192100  0.80914400  1
  N  N100  1  0.25000000  0.07166800  0.41557100  1
  N  N101  1  0.25000000  0.42833200  0.91557100  1
  N  N102  1  0.75000000  0.92833200  0.58442900  1
  N  N103  1  0.75000000  0.57166800  0.08442900  1
  Cl  Cl104  1  0.25000000  0.59045300  0.05746400  1
  Cl  Cl105  1  0.25000000  0.90954700  0.55746400  1
  Cl  Cl106  1  0.75000000  0.40954700  0.94253600  1
  Cl  Cl107  1  0.75000000  0.09045300  0.44253600  1
  Cl  Cl108  1  0.00726700  0.87326900  0.15233300  1
  Cl  Cl109  1  0.49273300  0.62673100  0.65233300  1
  Cl  Cl110  1  0.50726700  0.12673100  0.84766700  1
  Cl  Cl111  1  0.99273300  0.37326900  0.34766700  1
  Cl  Cl112  1  0.99273300  0.12673100  0.84766700  1
  Cl  Cl113  1  0.50726700  0.37326900  0.34766700  1
  Cl  Cl114  1  0.49273300  0.87326900  0.15233300  1
  Cl  Cl115  1  0.00726700  0.62673100  0.65233300  1
  Cl  Cl116  1  0.25000000  0.03584300  0.01015700  1
  Cl  Cl117  1  0.25000000  0.46415700  0.51015700  1
  Cl  Cl118  1  0.75000000  0.96415700  0.98984300  1
  Cl  Cl119  1  0.75000000  0.53584300  0.48984300  1
  Cl  Cl120  1  0.25000000  0.23838100  0.19873400  1
  Cl  Cl121  1  0.25000000  0.26161900  0.69873400  1
  Cl  Cl122  1  0.75000000  0.76161900  0.80126600  1
  Cl  Cl123  1  0.75000000  0.73838100  0.30126600  1
