# generated using pymatgen
data_KSmH4(N2O7)2
_symmetry_space_group_name_H-M   'P 1'
_cell_length_a   8.04395300
_cell_length_b   11.74867000
_cell_length_c   13.01281500
_cell_angle_alpha   90.00000000
_cell_angle_beta   90.00000000
_cell_angle_gamma   90.00000000
_symmetry_Int_Tables_number   1
_chemical_formula_structural   KSmH4(N2O7)2
_chemical_formula_sum   'K4 Sm4 H16 N16 O56'
_cell_volume   1229.78583198
_cell_formula_units_Z   4
loop_
 _symmetry_equiv_pos_site_id
 _symmetry_equiv_pos_as_xyz
  1  'x, y, z'
loop_
 _atom_site_type_symbol
 _atom_site_label
 _atom_site_symmetry_multiplicity
 _atom_site_fract_x
 _atom_site_fract_y
 _atom_site_fract_z
 _atom_site_occupancy
  K  K0  1  0.41204400  0.83319500  0.02245000  1
  K  K1  1  0.91204400  0.33319500  0.47755000  1
  K  K2  1  0.41204400  0.66680500  0.52245000  1
  K  K3  1  0.91204400  0.16680500  0.97755000  1
  Sm  Sm4  1  0.87500900  0.66738000  0.20581500  1
  Sm  Sm5  1  0.37500900  0.16738000  0.29418500  1
  Sm  Sm6  1  0.87500900  0.83262000  0.70581500  1
  Sm  Sm7  1  0.37500900  0.33262000  0.79418500  1
  H  H8  1  0.34946100  0.43252100  0.01689400  1
  H  H9  1  0.33630400  0.29980500  0.03269300  1
  H  H10  1  0.79145800  0.41802300  0.18661700  1
  H  H11  1  0.60937800  0.46404300  0.19315500  1
  H  H12  1  0.10937800  0.96404300  0.30684500  1
  H  H13  1  0.29145800  0.91802300  0.31338300  1
  H  H14  1  0.83630400  0.79980500  0.46730700  1
  H  H15  1  0.84946100  0.93252100  0.48310600  1
  H  H16  1  0.34946100  0.06747900  0.51689400  1
  H  H17  1  0.33630400  0.20019500  0.53269300  1
  H  H18  1  0.79145800  0.08197700  0.68661700  1
  H  H19  1  0.60937800  0.03595700  0.69315500  1
  H  H20  1  0.10937800  0.53595700  0.80684500  1
  H  H21  1  0.29145800  0.58197700  0.81338300  1
  H  H22  1  0.83630400  0.70019500  0.96730700  1
  H  H23  1  0.84946100  0.56747900  0.98310600  1
  N  N24  1  0.53276800  0.08807200  0.09919300  1
  N  N25  1  0.19624400  0.60895400  0.11191100  1
  N  N26  1  0.88437600  0.92115800  0.17591400  1
  N  N27  1  0.05383300  0.24520200  0.20496500  1
  N  N28  1  0.55383300  0.74520200  0.29503500  1
  N  N29  1  0.38437600  0.42115800  0.32408600  1
  N  N30  1  0.69624400  0.10895400  0.38808900  1
  N  N31  1  0.03276800  0.58807200  0.40080700  1
  N  N32  1  0.53276800  0.41192800  0.59919300  1
  N  N33  1  0.19624400  0.89104600  0.61191100  1
  N  N34  1  0.88437600  0.57884200  0.67591400  1
  N  N35  1  0.05383300  0.25479800  0.70496500  1
  N  N36  1  0.55383300  0.75479800  0.79503500  1
  N  N37  1  0.38437600  0.07884200  0.82408600  1
  N  N38  1  0.69624400  0.39104600  0.88808900  1
  N  N39  1  0.03276800  0.91192800  0.90080700  1
  O  O40  1  0.84337400  0.64090200  0.01961800  1
  O  O41  1  0.60428300  0.05224300  0.02135300  1
  O  O42  1  0.32649800  0.58681400  0.06400100  1
  O  O43  1  0.83625100  0.85543200  0.10430800  1
  O  O44  1  0.15475800  0.71254500  0.13083600  1
  O  O45  1  0.55116000  0.19030000  0.13203200  1
  O  O46  1  0.09772800  0.53125200  0.14362900  1
  O  O47  1  0.16920900  0.20443700  0.14715900  1
  O  O48  1  0.43539100  0.02393800  0.15209100  1
  O  O49  1  0.92485900  0.28565300  0.16769300  1
  O  O50  1  0.89045900  0.02602500  0.16725600  1
  O  O51  1  0.72483400  0.48812200  0.18073600  1
  O  O52  1  0.57905200  0.74040000  0.19811500  1
  O  O53  1  0.42893700  0.37209500  0.23884600  1
  O  O54  1  0.92893700  0.87209500  0.26115400  1
  O  O55  1  0.07905200  0.24040000  0.30188500  1
  O  O56  1  0.22483400  0.98812200  0.31926400  1
  O  O57  1  0.39045900  0.52602500  0.33274400  1
  O  O58  1  0.42485900  0.78565300  0.33230700  1
  O  O59  1  0.93539100  0.52393800  0.34790900  1
  O  O60  1  0.66920900  0.70443700  0.35284100  1
  O  O61  1  0.59772800  0.03125200  0.35637100  1
  O  O62  1  0.05116000  0.69030000  0.36796800  1
  O  O63  1  0.65475800  0.21254500  0.36916400  1
  O  O64  1  0.33625100  0.35543200  0.39569200  1
  O  O65  1  0.82649800  0.08681400  0.43599900  1
  O  O66  1  0.10428300  0.55224300  0.47864700  1
  O  O67  1  0.34337400  0.14090200  0.48038200  1
  O  O68  1  0.84337400  0.85909800  0.51961800  1
  O  O69  1  0.60428300  0.44775700  0.52135300  1
  O  O70  1  0.32649800  0.91318600  0.56400100  1
  O  O71  1  0.83625100  0.64456800  0.60430800  1
  O  O72  1  0.15475800  0.78745500  0.63083600  1
  O  O73  1  0.55116000  0.30970000  0.63203200  1
  O  O74  1  0.09772800  0.96874800  0.64362900  1
  O  O75  1  0.16920900  0.29556300  0.64715900  1
  O  O76  1  0.43539100  0.47606200  0.65209100  1
  O  O77  1  0.92485900  0.21434700  0.66769300  1
  O  O78  1  0.89045900  0.47397500  0.66725600  1
  O  O79  1  0.72483400  0.01187800  0.68073600  1
  O  O80  1  0.57905200  0.75960000  0.69811500  1
  O  O81  1  0.42893700  0.12790500  0.73884600  1
  O  O82  1  0.92893700  0.62790500  0.76115400  1
  O  O83  1  0.07905200  0.25960000  0.80188500  1
  O  O84  1  0.22483400  0.51187800  0.81926400  1
  O  O85  1  0.39045900  0.97397500  0.83274400  1
  O  O86  1  0.42485900  0.71434700  0.83230700  1
  O  O87  1  0.93539100  0.97606200  0.84790900  1
  O  O88  1  0.66920900  0.79556300  0.85284100  1
  O  O89  1  0.59772800  0.46874800  0.85637100  1
  O  O90  1  0.05116000  0.80970000  0.86796800  1
  O  O91  1  0.65475800  0.28745500  0.86916400  1
  O  O92  1  0.33625100  0.14456800  0.89569200  1
  O  O93  1  0.82649800  0.41318600  0.93599900  1
  O  O94  1  0.10428300  0.94775700  0.97864700  1
  O  O95  1  0.34337400  0.35909800  0.98038200  1
