# generated using pymatgen
data_CdP4O11
_symmetry_space_group_name_H-M   'P 1'
_cell_length_a   9.55315100
_cell_length_b   9.57595048
_cell_length_c   11.04132956
_cell_angle_alpha   108.85030022
_cell_angle_beta   108.76675292
_cell_angle_gamma   90.11256389
_symmetry_Int_Tables_number   1
_chemical_formula_structural   CdP4O11
_chemical_formula_sum   'Cd4 P16 O44'
_cell_volume   898.72914434
_cell_formula_units_Z   4
loop_
 _symmetry_equiv_pos_site_id
 _symmetry_equiv_pos_as_xyz
  1  'x, y, z'
loop_
 _atom_site_type_symbol
 _atom_site_label
 _atom_site_symmetry_multiplicity
 _atom_site_fract_x
 _atom_site_fract_y
 _atom_site_fract_z
 _atom_site_occupancy
  Cd  Cd0  1  0.73910300  0.74141000  0.97935800  1
  Cd  Cd1  1  0.22647000  0.76423500  0.48770400  1
  Cd  Cd2  1  0.77353000  0.23576500  0.51229600  1
  Cd  Cd3  1  0.26089700  0.25859000  0.02064200  1
  P  P4  1  0.89172900  0.58661700  0.22941800  1
  P  P5  1  0.76867500  0.91525500  0.60673600  1
  P  P6  1  0.42679600  0.74354300  0.07880400  1
  P  P7  1  0.89750300  0.26791300  0.08822600  1
  P  P8  1  0.74410700  0.58617900  0.43833800  1
  P  P9  1  0.55905200  0.93379200  0.76269500  1
  P  P10  1  0.42073900  0.59078400  0.27743900  1
  P  P11  1  0.91583500  0.06342700  0.25275100  1
  P  P12  1  0.08416500  0.93657300  0.74724900  1
  P  P13  1  0.57926100  0.40921600  0.72256100  1
  P  P14  1  0.44094800  0.06620800  0.23730500  1
  P  P15  1  0.25589300  0.41382100  0.56166200  1
  P  P16  1  0.10249700  0.73208700  0.91177400  1
  P  P17  1  0.57320400  0.25645700  0.92119600  1
  P  P18  1  0.23132500  0.08474500  0.39326400  1
  P  P19  1  0.10827100  0.41338300  0.77058200  1
  O  O20  1  0.82675500  0.91525500  0.19460600  1
  O  O21  1  0.77650100  0.98180800  0.50479100  1
  O  O22  1  0.91000200  0.95677200  0.74155900  1
  O  O23  1  0.77743300  0.58579400  0.10032200  1
  O  O24  1  0.49393400  0.90109800  0.19011800  1
  O  O25  1  0.82091800  0.63759800  0.35165600  1
  O  O26  1  0.90254300  0.40953600  0.21356600  1
  O  O27  1  0.63554700  0.96291600  0.65791000  1
  O  O28  1  0.74185600  0.73744900  0.55386400  1
  O  O29  1  0.97451000  0.74077100  0.95880200  1
  O  O30  1  0.46621000  0.63283300  0.16021400  1
  O  O31  1  0.25002500  0.74196100  0.03752000  1
  O  O32  1  0.67804600  0.91392700  0.87981600  1
  O  O33  1  0.81320300  0.47506400  0.49788800  1
  O  O34  1  0.86171200  0.13610500  0.13235100  1
  O  O35  1  0.57657800  0.53117300  0.34657100  1
  O  O36  1  0.39896600  0.72972300  0.37758000  1
  O  O37  1  0.92515600  0.17576800  0.38606900  1
  O  O38  1  0.51704800  0.29175400  0.03646500  1
  O  O39  1  0.95737900  0.32957100  0.71660000  1
  O  O40  1  0.42284800  0.82565600  0.68402600  1
  O  O41  1  0.69294200  0.54146400  0.78805300  1
  O  O42  1  0.30705800  0.45853600  0.21194700  1
  O  O43  1  0.57715200  0.17434400  0.31597400  1
  O  O44  1  0.04262100  0.67042900  0.28340000  1
  O  O45  1  0.48295200  0.70824600  0.96353500  1
  O  O46  1  0.07484400  0.82423200  0.61393100  1
  O  O47  1  0.60103400  0.27027700  0.62242000  1
  O  O48  1  0.42342200  0.46882700  0.65342900  1
  O  O49  1  0.13828800  0.86389500  0.86764900  1
  O  O50  1  0.18679700  0.52493600  0.50211200  1
  O  O51  1  0.32195400  0.08607300  0.12018400  1
  O  O52  1  0.74997500  0.25803900  0.96248000  1
  O  O53  1  0.53379000  0.36716700  0.83978600  1
  O  O54  1  0.02549000  0.25922900  0.04119800  1
  O  O55  1  0.25814400  0.26255100  0.44613600  1
  O  O56  1  0.36445300  0.03708400  0.34209000  1
  O  O57  1  0.09745700  0.59046400  0.78643400  1
  O  O58  1  0.17908200  0.36240200  0.64834400  1
  O  O59  1  0.50606600  0.09890200  0.80988200  1
  O  O60  1  0.22256700  0.41420600  0.89967800  1
  O  O61  1  0.08999800  0.04322800  0.25844100  1
  O  O62  1  0.22349900  0.01819200  0.49520900  1
  O  O63  1  0.17324500  0.08474500  0.80539400  1
