# generated using pymatgen
data_Li2VCrP2(HO5)2
_symmetry_space_group_name_H-M   'P 1'
_cell_length_a   5.41996100
_cell_length_b   7.37403800
_cell_length_c   14.30882982
_cell_angle_alpha   93.38946420
_cell_angle_beta   95.19262126
_cell_angle_gamma   106.28750142
_symmetry_Int_Tables_number   1
_chemical_formula_structural   Li2VCrP2(HO5)2
_chemical_formula_sum   'Li6 V3 Cr3 P6 H6 O30'
_cell_volume   544.53633601
_cell_formula_units_Z   3
loop_
 _symmetry_equiv_pos_site_id
 _symmetry_equiv_pos_as_xyz
  1  'x, y, z'
loop_
 _atom_site_type_symbol
 _atom_site_label
 _atom_site_symmetry_multiplicity
 _atom_site_fract_x
 _atom_site_fract_y
 _atom_site_fract_z
 _atom_site_occupancy
  Li  Li0  1  0.85109100  0.42569700  0.24902000  1
  Li  Li1  1  0.81599100  0.24093800  0.41750700  1
  Li  Li2  1  0.51780200  0.09341900  0.91562500  1
  Li  Li3  1  0.48219800  0.90658100  0.08437500  1
  Li  Li4  1  0.18400900  0.75906200  0.58249300  1
  Li  Li5  1  0.14890900  0.57430300  0.75098000  1
  V  V6  1  0.00000000  0.00000000  0.00000000  1
  V  V7  1  0.66717200  0.16698700  0.66646200  1
  V  V8  1  0.33282800  0.83301300  0.33353800  1
  Cr  Cr9  1  0.00000000  0.50000000  0.00000000  1
  Cr  Cr10  1  0.66623900  0.66663500  0.66666200  1
  Cr  Cr11  1  0.33376100  0.33336500  0.33333800  1
  P  P12  1  0.80030900  0.67257200  0.44169100  1
  P  P13  1  0.86530200  0.99385900  0.22590300  1
  P  P14  1  0.46923500  0.34124100  0.10779100  1
  P  P15  1  0.53076500  0.65875900  0.89220900  1
  P  P16  1  0.13469800  0.00614100  0.77409700  1
  P  P17  1  0.19969100  0.32742800  0.55830900  1
  H  H18  1  0.93875600  0.22119800  0.87996300  1
  H  H19  1  0.72777900  0.44942200  0.78644500  1
  H  H20  1  0.39397100  0.11573500  0.45290800  1
  H  H21  1  0.60602900  0.88426500  0.54709200  1
  H  H22  1  0.27222100  0.55057800  0.21355500  1
  H  H23  1  0.06124400  0.77880200  0.12003700  1
  O  O24  1  0.87068700  0.05081300  0.12364100  1
  O  O25  1  0.95728300  0.17582200  0.29616500  1
  O  O26  1  0.96023200  0.13840200  0.75784100  1
  O  O27  1  0.91199700  0.22372200  0.56429500  1
  O  O28  1  0.89892600  0.22377900  0.94620200  1
  O  O29  1  0.75852900  0.44300000  0.10191300  1
  O  O30  1  0.70957100  0.49071600  0.37123100  1
  O  O31  1  0.79336800  0.61488000  0.54396000  1
  O  O32  1  0.77157400  0.44746500  0.72069600  1
  O  O33  1  0.37798300  0.15757700  0.03792100  1
  O  O34  1  0.46253000  0.28310200  0.21017900  1
  O  O35  1  0.43828000  0.11388000  0.38727400  1
  O  O36  1  0.70496600  0.52752500  0.90918500  1
  O  O37  1  0.62644300  0.80485200  0.42470700  1
  O  O38  1  0.42232900  0.11019600  0.76830000  1
  O  O39  1  0.57767100  0.88980400  0.23170000  1
  O  O40  1  0.37355700  0.19514800  0.57529300  1
  O  O41  1  0.29503400  0.47247500  0.09081500  1
  O  O42  1  0.56172000  0.88612000  0.61272600  1
  O  O43  1  0.53747000  0.71689800  0.78982100  1
  O  O44  1  0.62201700  0.84242300  0.96207900  1
  O  O45  1  0.22842600  0.55253500  0.27930400  1
  O  O46  1  0.20663200  0.38512000  0.45604000  1
  O  O47  1  0.29042900  0.50928400  0.62876900  1
  O  O48  1  0.24147100  0.55700000  0.89808700  1
  O  O49  1  0.10107400  0.77622100  0.05379800  1
  O  O50  1  0.08800300  0.77627800  0.43570500  1
  O  O51  1  0.03976800  0.86159800  0.24215900  1
  O  O52  1  0.04271700  0.82417800  0.70383500  1
  O  O53  1  0.12931300  0.94918700  0.87635900  1
