# generated using pymatgen
data_LiYO2
_symmetry_space_group_name_H-M   'P 1'
_cell_length_a   6.17436800
_cell_length_b   6.26870700
_cell_length_c   6.36226075
_cell_angle_alpha   60.28298794
_cell_angle_beta   90.00000000
_cell_angle_gamma   90.00000000
_symmetry_Int_Tables_number   1
_chemical_formula_structural   LiYO2
_chemical_formula_sum   'Li4 Y4 O8'
_cell_volume   213.86708564
_cell_formula_units_Z   4
loop_
 _symmetry_equiv_pos_site_id
 _symmetry_equiv_pos_as_xyz
  1  'x, y, z'
loop_
 _atom_site_type_symbol
 _atom_site_label
 _atom_site_symmetry_multiplicity
 _atom_site_fract_x
 _atom_site_fract_y
 _atom_site_fract_z
 _atom_site_occupancy
  Li  Li0  1  0.34223600  0.70468200  0.07096200  1
  Li  Li1  1  0.84223600  0.29531800  0.42903800  1
  Li  Li2  1  0.65776400  0.29531800  0.92903800  1
  Li  Li3  1  0.15776400  0.70468200  0.57096200  1
  Y  Y4  1  0.86862600  0.76871600  0.97568700  1
  Y  Y5  1  0.63137400  0.76871600  0.47568700  1
  Y  Y6  1  0.13137400  0.23128400  0.02431300  1
  Y  Y7  1  0.36862600  0.23128400  0.52431300  1
  O  O8  1  0.60750600  0.54876800  0.26347900  1
  O  O9  1  0.82498800  0.01338000  0.14902200  1
  O  O10  1  0.10750600  0.45123200  0.23652100  1
  O  O11  1  0.39249400  0.45123200  0.73652100  1
  O  O12  1  0.17501200  0.98662000  0.85097800  1
  O  O13  1  0.32498800  0.98662000  0.35097800  1
  O  O14  1  0.67501200  0.01338000  0.64902200  1
  O  O15  1  0.89249400  0.54876800  0.76347900  1
