# generated using pymatgen
data_Ba3Ga4O9
_symmetry_space_group_name_H-M   'P 1'
_cell_length_a   7.13116300
_cell_length_b   8.35370638
_cell_length_c   10.09572444
_cell_angle_alpha   85.06627421
_cell_angle_beta   73.15274800
_cell_angle_gamma   74.61485976
_symmetry_Int_Tables_number   1
_chemical_formula_structural   Ba3Ga4O9
_chemical_formula_sum   'Ba6 Ga8 O18'
_cell_volume   554.95211670
_cell_formula_units_Z   2
loop_
 _symmetry_equiv_pos_site_id
 _symmetry_equiv_pos_as_xyz
  1  'x, y, z'
loop_
 _atom_site_type_symbol
 _atom_site_label
 _atom_site_symmetry_multiplicity
 _atom_site_fract_x
 _atom_site_fract_y
 _atom_site_fract_z
 _atom_site_occupancy
  Ba  Ba0  1  0.05488400  0.05551300  0.69073400  1
  Ba  Ba1  1  0.18155500  0.56651800  0.66835700  1
  Ba  Ba2  1  0.30612800  0.21814800  0.96464600  1
  Ba  Ba3  1  0.69387200  0.78185200  0.03535400  1
  Ba  Ba4  1  0.81844500  0.43348200  0.33164300  1
  Ba  Ba5  1  0.94511600  0.94448700  0.30926600  1
  Ga  Ga6  1  0.40222700  0.17416300  0.30316200  1
  Ga  Ga7  1  0.34084300  0.55035200  0.23067400  1
  Ga  Ga8  1  0.73935600  0.25859800  0.06002800  1
  Ga  Ga9  1  0.55962900  0.19009400  0.58520600  1
  Ga  Ga10  1  0.44037100  0.80990600  0.41479400  1
  Ga  Ga11  1  0.26064400  0.74140200  0.93997200  1
  Ga  Ga12  1  0.65915700  0.44964800  0.76932600  1
  Ga  Ga13  1  0.59777300  0.82583700  0.69683800  1
  O  O14  1  0.26104600  0.01797800  0.39113400  1
  O  O15  1  0.22109000  0.37153700  0.26758800  1
  O  O16  1  0.22089800  0.72732700  0.13113700  1
  O  O17  1  0.56737300  0.11000900  0.12166700  1
  O  O18  1  0.03441000  0.80803400  0.87806200  1
  O  O19  1  0.30051800  0.23994400  0.69827800  1
  O  O20  1  0.30433900  0.64860200  0.39986100  1
  O  O21  1  0.58546500  0.20197400  0.39403600  1
  O  O22  1  0.61528600  0.47623600  0.13373100  1
  O  O23  1  0.38471400  0.52376400  0.86626900  1
  O  O24  1  0.41453500  0.79802600  0.60596400  1
  O  O25  1  0.69566100  0.35139800  0.60013900  1
  O  O26  1  0.69948200  0.76005600  0.30172200  1
  O  O27  1  0.96559000  0.19196600  0.12193800  1
  O  O28  1  0.43262700  0.88999100  0.87833300  1
  O  O29  1  0.77910200  0.27267300  0.86886300  1
  O  O30  1  0.77891000  0.62846300  0.73241200  1
  O  O31  1  0.73895400  0.98202200  0.60886600  1
