# generated using pymatgen
data_Li5Ti6FeO16
_symmetry_space_group_name_H-M   'P 1'
_cell_length_a   8.43666900
_cell_length_b   8.43845100
_cell_length_c   8.43873164
_cell_angle_alpha   89.96428660
_cell_angle_beta   90.00000000
_cell_angle_gamma   90.00000000
_symmetry_Int_Tables_number   1
_chemical_formula_structural   Li5Ti6FeO16
_chemical_formula_sum   'Li10 Ti12 Fe2 O32'
_cell_volume   600.77359321
_cell_formula_units_Z   2
loop_
 _symmetry_equiv_pos_site_id
 _symmetry_equiv_pos_as_xyz
  1  'x, y, z'
loop_
 _atom_site_type_symbol
 _atom_site_label
 _atom_site_symmetry_multiplicity
 _atom_site_fract_x
 _atom_site_fract_y
 _atom_site_fract_z
 _atom_site_occupancy
  Li  Li0  1  0.50363200  0.24812200  0.49692500  1
  Li  Li1  1  0.37506700  0.12462200  0.87438000  1
  Li  Li2  1  0.75136500  0.00327100  0.74577700  1
  Li  Li3  1  0.25136500  0.99672900  0.25422300  1
  Li  Li4  1  0.87506700  0.87537800  0.12562000  1
  Li  Li5  1  0.00363200  0.75187800  0.50307500  1
  Li  Li6  1  0.62504300  0.62413100  0.62509800  1
  Li  Li7  1  0.24702800  0.50160500  0.75025700  1
  Li  Li8  1  0.74702800  0.49839500  0.24974300  1
  Li  Li9  1  0.12504300  0.37586900  0.37490200  1
  Ti  Ti10  1  0.13619800  0.13619700  0.61636800  1
  Ti  Ti11  1  0.88090500  0.12070700  0.37798700  1
  Ti  Ti12  1  0.62077100  0.12283700  0.12015200  1
  Ti  Ti13  1  0.12077100  0.87716300  0.87984800  1
  Ti  Ti14  1  0.38090500  0.87929300  0.62201300  1
  Ti  Ti15  1  0.63619800  0.86380300  0.38363200  1
  Ti  Ti16  1  0.87317000  0.63648900  0.87186200  1
  Ti  Ti17  1  0.11027600  0.63427300  0.13745000  1
  Ti  Ti18  1  0.37564400  0.61573200  0.39085900  1
  Ti  Ti19  1  0.87564400  0.38426800  0.60914100  1
  Ti  Ti20  1  0.61027600  0.36572700  0.86255000  1
  Ti  Ti21  1  0.37317000  0.36351100  0.12813800  1
  Fe  Fe22  1  0.49771400  0.74647500  0.00185500  1
  Fe  Fe23  1  0.99771400  0.25352500  0.99814500  1
  O  O24  1  0.39072200  0.14213500  0.12552400  1
  O  O25  1  0.62659400  0.14068600  0.89333900  1
  O  O26  1  0.88778800  0.13773700  0.60752400  1
  O  O27  1  0.10802800  0.12401300  0.39157600  1
  O  O28  1  0.86552800  0.13125200  0.13691500  1
  O  O29  1  0.64163200  0.10845500  0.35468300  1
  O  O30  1  0.35787600  0.10964300  0.62643200  1
  O  O31  1  0.11878200  0.11207400  0.86753200  1
  O  O32  1  0.61878200  0.88792600  0.13246800  1
  O  O33  1  0.85787600  0.89035700  0.37356800  1
  O  O34  1  0.14163200  0.89154500  0.64531700  1
  O  O35  1  0.36552800  0.86874800  0.86308500  1
  O  O36  1  0.60802800  0.87598700  0.60842400  1
  O  O37  1  0.38778800  0.86226300  0.39247600  1
  O  O38  1  0.12659400  0.85931400  0.10666100  1
  O  O39  1  0.89072200  0.85786500  0.87447600  1
  O  O40  1  0.60780600  0.64376600  0.37255500  1
  O  O41  1  0.37388900  0.64101900  0.60777800  1
  O  O42  1  0.10872000  0.64164700  0.88721600  1
  O  O43  1  0.89308700  0.62381300  0.10946300  1
  O  O44  1  0.14340300  0.62486800  0.35519800  1
  O  O45  1  0.36546400  0.61531400  0.13104000  1
  O  O46  1  0.63918500  0.61362300  0.88225800  1
  O  O47  1  0.87472800  0.60620500  0.64507900  1
  O  O48  1  0.37472800  0.39379500  0.35492100  1
  O  O49  1  0.13918500  0.38637700  0.11774200  1
  O  O50  1  0.86546400  0.38468600  0.86896000  1
  O  O51  1  0.64340300  0.37513200  0.64480200  1
  O  O52  1  0.39308700  0.37618700  0.89053700  1
  O  O53  1  0.60872000  0.35835300  0.11278400  1
  O  O54  1  0.87388900  0.35898100  0.39222200  1
  O  O55  1  0.10780600  0.35623400  0.62744500  1
