# generated using pymatgen
data_Cs4Zr3Se14
_symmetry_space_group_name_H-M   'P 1'
_cell_length_a   12.47192672
_cell_length_b   12.47192672
_cell_length_c   14.99201097
_cell_angle_alpha   69.17193382
_cell_angle_beta   69.17193382
_cell_angle_gamma   42.89983005
_symmetry_Int_Tables_number   1
_chemical_formula_structural   Cs4Zr3Se14
_chemical_formula_sum   'Cs8 Zr6 Se28'
_cell_volume   1467.02701869
_cell_formula_units_Z   2
loop_
 _symmetry_equiv_pos_site_id
 _symmetry_equiv_pos_as_xyz
  1  'x, y, z'
loop_
 _atom_site_type_symbol
 _atom_site_label
 _atom_site_symmetry_multiplicity
 _atom_site_fract_x
 _atom_site_fract_y
 _atom_site_fract_z
 _atom_site_occupancy
  Cs  Cs0  1  0.97480300  0.62121100  0.61015500  1
  Cs  Cs1  1  0.62121100  0.97480300  0.11015500  1
  Cs  Cs2  1  0.81002400  0.31647100  0.84884900  1
  Cs  Cs3  1  0.31647100  0.81002400  0.34884900  1
  Cs  Cs4  1  0.68352900  0.18997600  0.65115100  1
  Cs  Cs5  1  0.18997600  0.68352900  0.15115100  1
  Cs  Cs6  1  0.37878900  0.02519700  0.88984500  1
  Cs  Cs7  1  0.02519700  0.37878900  0.38984500  1
  Zr  Zr8  1  0.41133600  0.92368800  0.58431300  1
  Zr  Zr9  1  0.92368800  0.41133600  0.08431300  1
  Zr  Zr10  1  0.23969100  0.76030900  0.75000000  1
  Zr  Zr11  1  0.76030800  0.23969200  0.25000000  1
  Zr  Zr12  1  0.07631200  0.58866400  0.91568700  1
  Zr  Zr13  1  0.58866400  0.07631200  0.41568700  1
  Se  Se14  1  0.93925000  0.89850800  0.86811500  1
  Se  Se15  1  0.81178300  0.83984800  0.83640300  1
  Se  Se16  1  0.89850800  0.93925000  0.36811600  1
  Se  Se17  1  0.56249000  0.99744000  0.60109200  1
  Se  Se18  1  0.83984800  0.81178300  0.33640300  1
  Se  Se19  1  0.99744000  0.56249000  0.10109200  1
  Se  Se20  1  0.68468300  0.60546700  0.60949300  1
  Se  Se21  1  0.45135800  0.74812700  0.77878500  1
  Se  Se22  1  0.20318100  0.87080200  0.89598500  1
  Se  Se23  1  0.46364700  0.66485500  0.58164900  1
  Se  Se24  1  0.60546700  0.68468300  0.10949300  1
  Se  Se25  1  0.74812700  0.45135800  0.27878500  1
  Se  Se26  1  0.33514500  0.53635300  0.91835100  1
  Se  Se27  1  0.87080200  0.20318100  0.39598600  1
  Se  Se28  1  0.12919800  0.79681900  0.60401500  1
  Se  Se29  1  0.66485500  0.46364700  0.08164900  1
  Se  Se30  1  0.25187300  0.54864200  0.72121400  1
  Se  Se31  1  0.39453300  0.31531700  0.89050700  1
  Se  Se32  1  0.53635300  0.33514500  0.41835100  1
  Se  Se33  1  0.79681900  0.12919800  0.10401400  1
  Se  Se34  1  0.54864200  0.25187300  0.22121500  1
  Se  Se35  1  0.31531700  0.39453300  0.39050700  1
  Se  Se36  1  0.00256000  0.43751000  0.89890800  1
  Se  Se37  1  0.16015200  0.18821700  0.66359700  1
  Se  Se38  1  0.43751000  0.00256000  0.39890800  1
  Se  Se39  1  0.10149200  0.06075000  0.63188400  1
  Se  Se40  1  0.18821700  0.16015200  0.16359700  1
  Se  Se41  1  0.06075000  0.10149200  0.13188400  1
