# generated using pymatgen
data_NaMgSb
_symmetry_space_group_name_H-M   'P 1'
_cell_length_a   4.65876600
_cell_length_b   4.65876600
_cell_length_c   7.71906400
_cell_angle_alpha   90.00000000
_cell_angle_beta   90.00000000
_cell_angle_gamma   90.00000000
_symmetry_Int_Tables_number   1
_chemical_formula_structural   NaMgSb
_chemical_formula_sum   'Na2 Mg2 Sb2'
_cell_volume   167.53534192
_cell_formula_units_Z   2
loop_
 _symmetry_equiv_pos_site_id
 _symmetry_equiv_pos_as_xyz
  1  'x, y, z'
loop_
 _atom_site_type_symbol
 _atom_site_label
 _atom_site_symmetry_multiplicity
 _atom_site_fract_x
 _atom_site_fract_y
 _atom_site_fract_z
 _atom_site_occupancy
  Na  Na0  1  0.50000000  0.00000000  0.35764700  1
  Na  Na1  1  0.00000000  0.50000000  0.64235300  1
  Mg  Mg2  1  0.50000000  0.50000000  0.00000000  1
  Mg  Mg3  1  0.00000000  0.00000000  0.00000000  1
  Sb  Sb4  1  0.50000000  0.00000000  0.77229700  1
  Sb  Sb5  1  0.00000000  0.50000000  0.22770300  1
