# generated using pymatgen
data_AlPO4
_symmetry_space_group_name_H-M   'P 1'
_cell_length_a   5.17722412
_cell_length_b   5.17722412
_cell_length_c   5.17722412
_cell_angle_alpha   121.19742778
_cell_angle_beta   121.19742778
_cell_angle_gamma   87.93821238
_symmetry_Int_Tables_number   1
_chemical_formula_structural   AlPO4
_chemical_formula_sum   'Al1 P1 O4'
_cell_volume   96.28049187
_cell_formula_units_Z   1
loop_
 _symmetry_equiv_pos_site_id
 _symmetry_equiv_pos_as_xyz
  1  'x, y, z'
loop_
 _atom_site_type_symbol
 _atom_site_label
 _atom_site_symmetry_multiplicity
 _atom_site_fract_x
 _atom_site_fract_y
 _atom_site_fract_z
 _atom_site_occupancy
  Al  Al0  1  0.00000000  0.00000000  0.00000000  1
  P  P1  1  0.75000000  0.25000000  0.50000000  1
  O  O2  1  0.86333800  0.22480900  0.82324200  1
  O  O3  1  0.77519100  0.59843300  0.63852800  1
  O  O4  1  0.40156700  0.04009600  0.17675800  1
  O  O5  1  0.95990400  0.13666200  0.36147200  1
