# generated using pymatgen
data_Cr2P4Pb3O16
_symmetry_space_group_name_H-M   'P 1'
_cell_length_a   9.11049600
_cell_length_b   9.11049600
_cell_length_c   16.75098600
_cell_angle_alpha   90.00000000
_cell_angle_beta   90.00000000
_cell_angle_gamma   90.00000000
_symmetry_Int_Tables_number   1
_chemical_formula_structural   Cr2P4Pb3O16
_chemical_formula_sum   'Cr8 P16 Pb12 O64'
_cell_volume   1390.35089000
_cell_formula_units_Z   4
loop_
 _symmetry_equiv_pos_site_id
 _symmetry_equiv_pos_as_xyz
  1  'x, y, z'
loop_
 _atom_site_type_symbol
 _atom_site_label
 _atom_site_symmetry_multiplicity
 _atom_site_fract_x
 _atom_site_fract_y
 _atom_site_fract_z
 _atom_site_occupancy
  Cr  Cr0  1  0.26520600  0.50061100  0.87901300  1
  Cr  Cr1  1  0.99938900  0.76520600  0.12901300  1
  Cr  Cr2  1  0.73479400  0.49938900  0.37901300  1
  Cr  Cr3  1  0.49938900  0.73479400  0.62098700  1
  Cr  Cr4  1  0.50061100  0.26520600  0.12098700  1
  Cr  Cr5  1  0.00061100  0.23479400  0.62901300  1
  Cr  Cr6  1  0.23479400  0.00061100  0.37098700  1
  Cr  Cr7  1  0.76520600  0.99938900  0.87098700  1
  P  P8  1  0.27377400  0.45467700  0.67959000  1
  P  P9  1  0.00524100  0.72469100  0.32874000  1
  P  P10  1  0.77377400  0.04532300  0.07041000  1
  P  P11  1  0.45467700  0.27377400  0.32041000  1
  P  P12  1  0.22469100  0.49475900  0.07874000  1
  P  P13  1  0.72622600  0.54532300  0.17959000  1
  P  P14  1  0.49475900  0.22469100  0.92126000  1
  P  P15  1  0.72469100  0.00524100  0.67126000  1
  P  P16  1  0.22622600  0.95467700  0.57041000  1
  P  P17  1  0.50524100  0.77530900  0.42126000  1
  P  P18  1  0.04532300  0.77377400  0.92959000  1
  P  P19  1  0.54532300  0.72622600  0.82041000  1
  P  P20  1  0.27530900  0.99475900  0.17126000  1
  P  P21  1  0.95467700  0.22622600  0.42959000  1
  P  P22  1  0.99475900  0.27530900  0.82874000  1
  P  P23  1  0.77530900  0.50524100  0.57874000  1
  Pb  Pb24  1  0.65583600  0.92215300  0.23573200  1
  Pb  Pb25  1  0.13383400  0.13383400  0.00000000  1
  Pb  Pb26  1  0.07784700  0.34416400  0.26426800  1
  Pb  Pb27  1  0.84416400  0.42215300  0.01426800  1
  Pb  Pb28  1  0.36616600  0.63383400  0.25000000  1
  Pb  Pb29  1  0.42215300  0.84416400  0.98573200  1
  Pb  Pb30  1  0.92215300  0.65583600  0.76426800  1
  Pb  Pb31  1  0.34416400  0.07784700  0.73573200  1
  Pb  Pb32  1  0.86616600  0.86616600  0.50000000  1
  Pb  Pb33  1  0.57784700  0.15583600  0.48573200  1
  Pb  Pb34  1  0.15583600  0.57784700  0.51426800  1
  Pb  Pb35  1  0.63383400  0.36616600  0.75000000  1
  O  O36  1  0.88010400  0.17638600  0.06571800  1
  O  O37  1  0.41269500  0.13315700  0.36896000  1
  O  O38  1  0.63315700  0.08730500  0.11896000  1
  O  O39  1  0.17342100  0.62573400  0.13281700  1
  O  O40  1  0.38493400  0.09682100  0.93268300  1
  O  O41  1  0.38010400  0.32361400  0.68428200  1
  O  O42  1  0.41867200  0.66346500  0.87349400  1
  O  O43  1  0.11989600  0.82361400  0.56571800  1
  O  O44  1  0.71437800  0.45358500  0.49752200  1
  O  O45  1  0.67638600  0.61989600  0.81571800  1
  O  O46  1  0.14954100  0.92651400  0.11996100  1
  O  O47  1  0.82657900  0.37426600  0.63281700  1
  O  O48  1  0.16346500  0.08132800  0.62349400  1
  O  O49  1  0.54641500  0.28562200  0.00247800  1
  O  O50  1  0.67342100  0.87426600  0.61718300  1
  O  O51  1  0.82361400  0.11989600  0.43428200  1
  O  O52  1  0.61506600  0.90317900  0.43268300  1
  O  O53  1  0.35045900  0.42651400  0.13003900  1
  O  O54  1  0.57348600  0.64954100  0.36996100  1
  O  O55  1  0.17638600  0.88010400  0.93428200  1
  O  O56  1  0.04641500  0.21437800  0.74752200  1
  O  O57  1  0.08730500  0.63315700  0.88104000  1
  O  O58  1  0.90317900  0.61506600  0.56731700  1
  O  O59  1  0.07348600  0.85045900  0.38003900  1
  O  O60  1  0.95358500  0.78562200  0.24752200  1
  O  O61  1  0.78562200  0.95358500  0.75247800  1
  O  O62  1  0.58730500  0.86684300  0.86896000  1
  O  O63  1  0.40317900  0.88493400  0.18268300  1
  O  O64  1  0.98606500  0.73050300  0.01200900  1
  O  O65  1  0.28562200  0.54641500  0.99752200  1
  O  O66  1  0.08132800  0.16346500  0.37650600  1
  O  O67  1  0.58132800  0.33653500  0.37349400  1
  O  O68  1  0.88493400  0.40317900  0.81731700  1
  O  O69  1  0.86684300  0.58730500  0.13104000  1
  O  O70  1  0.66346500  0.41867200  0.12650600  1
  O  O71  1  0.36684300  0.91269500  0.61896000  1
  O  O72  1  0.33653500  0.58132800  0.62650600  1
  O  O73  1  0.12573400  0.32657900  0.88281700  1
  O  O74  1  0.61989600  0.67638600  0.18428200  1
  O  O75  1  0.32361400  0.38010400  0.31571800  1
  O  O76  1  0.48606500  0.76949700  0.73799100  1
  O  O77  1  0.42651400  0.35045900  0.86996100  1
  O  O78  1  0.87426600  0.67342100  0.38281700  1
  O  O79  1  0.62573400  0.17342100  0.86718300  1
  O  O80  1  0.76949700  0.48606500  0.26200900  1
  O  O81  1  0.45358500  0.71437800  0.50247800  1
  O  O82  1  0.73050300  0.98606500  0.98799100  1
  O  O83  1  0.92651400  0.14954100  0.88003900  1
  O  O84  1  0.32657900  0.12573400  0.11718300  1
  O  O85  1  0.91867200  0.83653500  0.87650600  1
  O  O86  1  0.85045900  0.07348600  0.61996100  1
  O  O87  1  0.64954100  0.57348600  0.63003900  1
  O  O88  1  0.59682100  0.11506600  0.68268300  1
  O  O89  1  0.11506600  0.59682100  0.31731700  1
  O  O90  1  0.23050300  0.51393500  0.76200900  1
  O  O91  1  0.13315700  0.41269500  0.63104000  1
  O  O92  1  0.83653500  0.91867200  0.12349400  1
  O  O93  1  0.91269500  0.36684300  0.38104000  1
  O  O94  1  0.21437800  0.04641500  0.25247800  1
  O  O95  1  0.51393500  0.23050300  0.23799100  1
  O  O96  1  0.26949700  0.01393500  0.48799100  1
  O  O97  1  0.09682100  0.38493400  0.06731700  1
  O  O98  1  0.01393500  0.26949700  0.51200900  1
  O  O99  1  0.37426600  0.82657900  0.36718300  1
