# generated using pymatgen
data_K2Te3
_symmetry_space_group_name_H-M   'P 1'
_cell_length_a   4.61694600
_cell_length_b   10.41162100
_cell_length_c   16.04268100
_cell_angle_alpha   90.00000000
_cell_angle_beta   90.00000000
_cell_angle_gamma   90.00000000
_symmetry_Int_Tables_number   1
_chemical_formula_structural   K2Te3
_chemical_formula_sum   'K8 Te12'
_cell_volume   771.16994193
_cell_formula_units_Z   4
loop_
 _symmetry_equiv_pos_site_id
 _symmetry_equiv_pos_as_xyz
  1  'x, y, z'
loop_
 _atom_site_type_symbol
 _atom_site_label
 _atom_site_symmetry_multiplicity
 _atom_site_fract_x
 _atom_site_fract_y
 _atom_site_fract_z
 _atom_site_occupancy
  K  K0  1  0.72408700  0.97191900  0.37655600  1
  K  K1  1  0.22408700  0.02808100  0.12344400  1
  K  K2  1  0.27591300  0.47191900  0.62344400  1
  K  K3  1  0.77591300  0.52808100  0.87655600  1
  K  K4  1  0.27591300  0.02808100  0.62344400  1
  K  K5  1  0.77591300  0.97191900  0.87655600  1
  K  K6  1  0.72408700  0.52808100  0.37655600  1
  K  K7  1  0.22408700  0.47191900  0.12344400  1
  Te  Te8  1  0.19603000  0.75000000  0.48276000  1
  Te  Te9  1  0.69603000  0.25000000  0.01724000  1
  Te  Te10  1  0.80397000  0.25000000  0.51724000  1
  Te  Te11  1  0.30397000  0.75000000  0.98276000  1
  Te  Te12  1  0.29482400  0.75000000  0.26146000  1
  Te  Te13  1  0.79482400  0.25000000  0.23854000  1
  Te  Te14  1  0.70517600  0.25000000  0.73854000  1
  Te  Te15  1  0.20517600  0.75000000  0.76146000  1
  Te  Te16  1  0.69658400  0.75000000  0.12319000  1
  Te  Te17  1  0.19658400  0.25000000  0.37681000  1
  Te  Te18  1  0.30341600  0.25000000  0.87681000  1
  Te  Te19  1  0.80341600  0.75000000  0.62319000  1
