# generated using pymatgen
data_K2SrTa2O7
_symmetry_space_group_name_H-M   'P 1'
_cell_length_a   11.40392245
_cell_length_b   11.40392245
_cell_length_c   11.40392245
_cell_angle_alpha   159.70744540
_cell_angle_beta   159.70744540
_cell_angle_gamma   28.85212749
_symmetry_Int_Tables_number   1
_chemical_formula_structural   K2SrTa2O7
_chemical_formula_sum   'K2 Sr1 Ta2 O7'
_cell_volume   178.29230150
_cell_formula_units_Z   1
loop_
 _symmetry_equiv_pos_site_id
 _symmetry_equiv_pos_as_xyz
  1  'x, y, z'
loop_
 _atom_site_type_symbol
 _atom_site_label
 _atom_site_symmetry_multiplicity
 _atom_site_fract_x
 _atom_site_fract_y
 _atom_site_fract_z
 _atom_site_occupancy
  K  K0  1  0.80683000  0.80683000  0.00000000  1
  K  K1  1  0.19317000  0.19317000  0.00000000  1
  Sr  Sr2  1  0.00000000  0.00000000  0.00000000  1
  Ta  Ta3  1  0.59606600  0.59606600  0.00000000  1
  Ta  Ta4  1  0.40393400  0.40393400  0.00000000  1
  O  O5  1  0.50000000  0.50000000  0.00000000  1
  O  O6  1  0.31908900  0.31908900  0.00000000  1
  O  O7  1  0.68091100  0.68091100  0.00000000  1
  O  O8  1  0.91261700  0.41261700  0.50000000  1
  O  O9  1  0.41261700  0.91261700  0.50000000  1
  O  O10  1  0.58738300  0.08738300  0.50000000  1
  O  O11  1  0.08738300  0.58738300  0.50000000  1
