# generated using pymatgen
data_K3Cu3P2
_symmetry_space_group_name_H-M   'P 1'
_cell_length_a   7.42981547
_cell_length_b   7.42981547
_cell_length_c   7.42981544
_cell_angle_alpha   45.32239437
_cell_angle_beta   45.32239437
_cell_angle_gamma   45.32239353
_symmetry_Int_Tables_number   1
_chemical_formula_structural   K3Cu3P2
_chemical_formula_sum   'K3 Cu3 P2'
_cell_volume   188.88112248
_cell_formula_units_Z   1
loop_
 _symmetry_equiv_pos_site_id
 _symmetry_equiv_pos_as_xyz
  1  'x, y, z'
loop_
 _atom_site_type_symbol
 _atom_site_label
 _atom_site_symmetry_multiplicity
 _atom_site_fract_x
 _atom_site_fract_y
 _atom_site_fract_z
 _atom_site_occupancy
  K  K0  1  0.90808400  0.90808400  0.90808400  1
  K  K1  1  0.50000000  0.50000000  0.50000000  1
  K  K2  1  0.09191600  0.09191600  0.09191600  1
  Cu  Cu3  1  0.00000000  0.50000000  0.50000000  1
  Cu  Cu4  1  0.50000000  0.50000000  0.00000000  1
  Cu  Cu5  1  0.50000000  0.00000000  0.50000000  1
  P  P6  1  0.25642800  0.25642800  0.25642800  1
  P  P7  1  0.74357200  0.74357200  0.74357200  1
