# generated using pymatgen
data_Mg17(As3O16)2
_symmetry_space_group_name_H-M   'P 1'
_cell_length_a   6.12438100
_cell_length_b   9.95552600
_cell_length_c   10.52715854
_cell_angle_alpha   69.25893329
_cell_angle_beta   90.00000000
_cell_angle_gamma   90.00000000
_symmetry_Int_Tables_number   1
_chemical_formula_structural   Mg17(As3O16)2
_chemical_formula_sum   'Mg17 As6 O32'
_cell_volume   600.25755139
_cell_formula_units_Z   1
loop_
 _symmetry_equiv_pos_site_id
 _symmetry_equiv_pos_as_xyz
  1  'x, y, z'
loop_
 _atom_site_type_symbol
 _atom_site_label
 _atom_site_symmetry_multiplicity
 _atom_site_fract_x
 _atom_site_fract_y
 _atom_site_fract_z
 _atom_site_occupancy
  Mg  Mg0  1  0.25307100  0.26542300  0.99530200  1
  Mg  Mg1  1  0.50000000  0.73608700  0.75356500  1
  Mg  Mg2  1  0.74692900  0.26542300  0.99530200  1
  Mg  Mg3  1  0.00000000  0.26947300  0.74230200  1
  Mg  Mg4  1  0.24108400  0.74472800  0.50434200  1
  Mg  Mg5  1  0.24045100  0.99927700  0.73909600  1
  Mg  Mg6  1  0.24108400  0.25527200  0.49565800  1
  Mg  Mg7  1  0.00000000  0.73052700  0.25769800  1
  Mg  Mg8  1  0.75954900  0.99927700  0.73909600  1
  Mg  Mg9  1  0.75891600  0.74472800  0.50434200  1
  Mg  Mg10  1  0.75891600  0.25527200  0.49565800  1
  Mg  Mg11  1  0.24045100  0.00072300  0.26090400  1
  Mg  Mg12  1  0.50000000  0.26391300  0.24643500  1
  Mg  Mg13  1  0.25307100  0.73457700  0.00469800  1
  Mg  Mg14  1  0.74692900  0.73457700  0.00469800  1
  Mg  Mg15  1  0.75954900  0.00072300  0.26090400  1
  Mg  Mg16  1  0.50000000  0.00000000  0.00000000  1
  As  As17  1  0.00000000  0.57792700  0.80726100  1
  As  As18  1  0.50000000  0.42443500  0.68938300  1
  As  As19  1  0.50000000  0.57556500  0.31061700  1
  As  As20  1  0.00000000  0.42207300  0.19273900  1
  As  As21  1  0.50000000  0.00000000  0.50000000  1
  As  As22  1  0.00000000  0.00000000  0.00000000  1
  O  O23  1  0.00000000  0.88377200  0.89184400  1
  O  O24  1  0.00000000  0.38823200  0.87184800  1
  O  O25  1  0.23141300  0.63191300  0.86708100  1
  O  O26  1  0.50000000  0.86680500  0.87958600  1
  O  O27  1  0.21765300  0.11607300  0.89020400  1
  O  O28  1  0.00000000  0.63036300  0.63471100  1
  O  O29  1  0.50000000  0.36740000  0.86485200  1
  O  O30  1  0.76858700  0.63191300  0.86708100  1
  O  O31  1  0.29172800  0.88032800  0.61458100  1
  O  O32  1  0.50000000  0.61284700  0.62841200  1
  O  O33  1  0.78234700  0.11607300  0.89020400  1
  O  O34  1  0.70827200  0.88032800  0.61458100  1
  O  O35  1  0.00000000  0.85794100  0.36826200  1
  O  O36  1  0.00000000  0.14205900  0.63173800  1
  O  O37  1  0.26940200  0.36780000  0.63281100  1
  O  O38  1  0.50000000  0.88377100  0.39055800  1
  O  O39  1  0.73059800  0.36780000  0.63281100  1
  O  O40  1  0.00000000  0.36963700  0.36528900  1
  O  O41  1  0.26940200  0.63220000  0.36718900  1
  O  O42  1  0.50000000  0.11622900  0.60944200  1
  O  O43  1  0.50000000  0.38715300  0.37158800  1
  O  O44  1  0.21765300  0.88392700  0.10979600  1
  O  O45  1  0.29172800  0.11967200  0.38541900  1
  O  O46  1  0.73059800  0.63220000  0.36718900  1
  O  O47  1  0.00000000  0.61176800  0.12815200  1
  O  O48  1  0.70827200  0.11967200  0.38541900  1
  O  O49  1  0.50000000  0.63260000  0.13514800  1
  O  O50  1  0.23141300  0.36808700  0.13291900  1
  O  O51  1  0.78234700  0.88392700  0.10979600  1
  O  O52  1  0.00000000  0.11622800  0.10815600  1
  O  O53  1  0.50000000  0.13319500  0.12041400  1
  O  O54  1  0.76858700  0.36808700  0.13291900  1
