# generated using pymatgen
data_Mn(AsO2)2
_symmetry_space_group_name_H-M   'P 1'
_cell_length_a   5.86965100
_cell_length_b   8.74859200
_cell_length_c   8.74870000
_cell_angle_alpha   89.99979043
_cell_angle_beta   89.99996738
_cell_angle_gamma   89.99994131
_symmetry_Int_Tables_number   1
_chemical_formula_structural   Mn(AsO2)2
_chemical_formula_sum   'Mn4 As8 O16'
_cell_volume   449.25608405
_cell_formula_units_Z   4
loop_
 _symmetry_equiv_pos_site_id
 _symmetry_equiv_pos_as_xyz
  1  'x, y, z'
loop_
 _atom_site_type_symbol
 _atom_site_label
 _atom_site_symmetry_multiplicity
 _atom_site_fract_x
 _atom_site_fract_y
 _atom_site_fract_z
 _atom_site_occupancy
  Mn  Mn0  1  0.75001000  0.00003300  0.50001800  1
  Mn  Mn1  1  0.74995600  0.49995100  0.99999800  1
  Mn  Mn2  1  0.25000200  0.99998400  0.49997300  1
  Mn  Mn3  1  0.24999800  0.50000500  0.99997800  1
  As  As4  1  0.49999400  0.17603300  0.80746100  1
  As  As5  1  0.00001200  0.19253700  0.17603000  1
  As  As6  1  0.00001300  0.30746400  0.67603200  1
  As  As7  1  0.49999400  0.32396000  0.30747100  1
  As  As8  1  0.49999900  0.67603100  0.69253200  1
  As  As9  1  0.00000600  0.69253900  0.32395600  1
  As  As10  1  0.00000500  0.80745600  0.82396200  1
  As  As11  1  0.49999900  0.82397000  0.19253500  1
  O  O12  1  0.00002600  0.10957200  0.64082600  1
  O  O13  1  0.49997600  0.14082600  0.60957100  1
  O  O14  1  0.49997400  0.35917300  0.10957700  1
  O  O15  1  0.00001700  0.39043200  0.14081900  1
  O  O16  1  0.99999900  0.60957000  0.85917800  1
  O  O17  1  0.49999300  0.64081900  0.89042900  1
  O  O18  1  0.50000300  0.85918300  0.39043000  1
  O  O19  1  0.00000800  0.89043000  0.35917800  1
  O  O20  1  0.25000200  0.18554500  0.31444800  1
  O  O21  1  0.75000000  0.18555600  0.31443500  1
  O  O22  1  0.25000100  0.31444900  0.81445200  1
  O  O23  1  0.74999700  0.31444500  0.81443800  1
  O  O24  1  0.25000400  0.68555700  0.18553600  1
  O  O25  1  0.75000100  0.68556400  0.18555100  1
  O  O26  1  0.25000800  0.81444800  0.68554300  1
  O  O27  1  0.75000200  0.81444300  0.68555200  1
