# generated using pymatgen
data_Rb2S2O7
_symmetry_space_group_name_H-M   'P 1'
_cell_length_a   7.74196100
_cell_length_b   7.76993700
_cell_length_c   15.29223512
_cell_angle_alpha   60.04122393
_cell_angle_beta   90.00000000
_cell_angle_gamma   90.00000000
_symmetry_Int_Tables_number   1
_chemical_formula_structural   Rb2S2O7
_chemical_formula_sum   'Rb8 S8 O28'
_cell_volume   796.98533683
_cell_formula_units_Z   4
loop_
 _symmetry_equiv_pos_site_id
 _symmetry_equiv_pos_as_xyz
  1  'x, y, z'
loop_
 _atom_site_type_symbol
 _atom_site_label
 _atom_site_symmetry_multiplicity
 _atom_site_fract_x
 _atom_site_fract_y
 _atom_site_fract_z
 _atom_site_occupancy
  Rb  Rb0  1  0.22579400  0.67697300  0.13065200  1
  Rb  Rb1  1  0.87691400  0.20219000  0.15695000  1
  Rb  Rb2  1  0.37691400  0.79781000  0.34305000  1
  Rb  Rb3  1  0.72579400  0.32302700  0.36934800  1
  Rb  Rb4  1  0.27420600  0.67697300  0.63065200  1
  Rb  Rb5  1  0.62308600  0.20219000  0.65695000  1
  Rb  Rb6  1  0.12308600  0.79781000  0.84305000  1
  Rb  Rb7  1  0.77420600  0.32302700  0.86934800  1
  S  S8  1  0.32633800  0.23899500  0.07946500  1
  S  S9  1  0.72405400  0.76690700  0.11239000  1
  S  S10  1  0.22405400  0.23309300  0.38761000  1
  S  S11  1  0.82633800  0.76100500  0.42053500  1
  S  S12  1  0.17366200  0.23899500  0.57946500  1
  S  S13  1  0.77594600  0.76690700  0.61239000  1
  S  S14  1  0.27594600  0.23309300  0.88761000  1
  S  S15  1  0.67366200  0.76100500  0.92053500  1
  O  O16  1  0.59837000  0.76505400  0.02316200  1
  O  O17  1  0.21638800  0.41491200  0.04154000  1
  O  O18  1  0.81942800  0.95318800  0.06348800  1
  O  O19  1  0.48665700  0.24895400  0.12597600  1
  O  O20  1  0.23014700  0.05343700  0.13766900  1
  O  O21  1  0.83469700  0.59105300  0.15149200  1
  O  O22  1  0.59180900  0.75311400  0.18362900  1
  O  O23  1  0.09180900  0.24688600  0.31637100  1
  O  O24  1  0.73014700  0.94656300  0.36233100  1
  O  O25  1  0.98665700  0.75104600  0.37402400  1
  O  O26  1  0.33469700  0.40894700  0.34850800  1
  O  O27  1  0.31942800  0.04681200  0.43651200  1
  O  O28  1  0.71638800  0.58508800  0.45846000  1
  O  O29  1  0.09837000  0.23494600  0.47683800  1
  O  O30  1  0.90163000  0.76505400  0.52316200  1
  O  O31  1  0.28361200  0.41491200  0.54154000  1
  O  O32  1  0.68057200  0.95318800  0.56348800  1
  O  O33  1  0.66530300  0.59105300  0.65149200  1
  O  O34  1  0.01334300  0.24895400  0.62597600  1
  O  O35  1  0.26985300  0.05343700  0.63766900  1
  O  O36  1  0.90819100  0.75311400  0.68362900  1
  O  O37  1  0.40819100  0.24688600  0.81637100  1
  O  O38  1  0.16530300  0.40894700  0.84850800  1
  O  O39  1  0.76985300  0.94656300  0.86233100  1
  O  O40  1  0.51334300  0.75104600  0.87402400  1
  O  O41  1  0.18057200  0.04681200  0.93651200  1
  O  O42  1  0.78361200  0.58508800  0.95846000  1
  O  O43  1  0.40163000  0.23494600  0.97683800  1
