# generated using pymatgen
data_Rb2CrH2Cl5O
_symmetry_space_group_name_H-M   'P 1'
_cell_length_a   7.34614900
_cell_length_b   9.84369900
_cell_length_c   14.19591900
_cell_angle_alpha   90.00000000
_cell_angle_beta   90.00000000
_cell_angle_gamma   90.00000000
_symmetry_Int_Tables_number   1
_chemical_formula_structural   Rb2CrH2Cl5O
_chemical_formula_sum   'Rb8 Cr4 H8 Cl20 O4'
_cell_volume   1026.55345933
_cell_formula_units_Z   4
loop_
 _symmetry_equiv_pos_site_id
 _symmetry_equiv_pos_as_xyz
  1  'x, y, z'
loop_
 _atom_site_type_symbol
 _atom_site_label
 _atom_site_symmetry_multiplicity
 _atom_site_fract_x
 _atom_site_fract_y
 _atom_site_fract_z
 _atom_site_occupancy
  Rb  Rb0  1  0.34693800  0.99896200  0.64514000  1
  Rb  Rb1  1  0.15306200  0.50103800  0.14514000  1
  Rb  Rb2  1  0.65306200  0.49896200  0.35486000  1
  Rb  Rb3  1  0.84693800  0.00103800  0.85486000  1
  Rb  Rb4  1  0.65306200  0.00103800  0.35486000  1
  Rb  Rb5  1  0.84693800  0.49896200  0.85486000  1
  Rb  Rb6  1  0.34693800  0.50103800  0.64514000  1
  Rb  Rb7  1  0.15306200  0.99896200  0.14514000  1
  Cr  Cr8  1  0.80890400  0.25000000  0.61125800  1
  Cr  Cr9  1  0.69109600  0.25000000  0.11125800  1
  Cr  Cr10  1  0.19109600  0.75000000  0.38874200  1
  Cr  Cr11  1  0.30890400  0.75000000  0.88874200  1
  H  H12  1  0.04133000  0.16846900  0.47097900  1
  H  H13  1  0.45867000  0.33153100  0.97097900  1
  H  H14  1  0.95867000  0.66846900  0.52902100  1
  H  H15  1  0.54133000  0.83153100  0.02902100  1
  H  H16  1  0.95867000  0.83153100  0.52902100  1
  H  H17  1  0.54133000  0.66846900  0.02902100  1
  H  H18  1  0.04133000  0.33153100  0.47097900  1
  H  H19  1  0.45867000  0.16846900  0.97097900  1
  Cl  Cl20  1  0.06349700  0.25000000  0.71527000  1
  Cl  Cl21  1  0.43650300  0.25000000  0.21527000  1
  Cl  Cl22  1  0.93650300  0.75000000  0.28473000  1
  Cl  Cl23  1  0.56349700  0.75000000  0.78473000  1
  Cl  Cl24  1  0.54815800  0.25000000  0.50884500  1
  Cl  Cl25  1  0.95184200  0.25000000  0.00884500  1
  Cl  Cl26  1  0.45184200  0.75000000  0.49115500  1
  Cl  Cl27  1  0.04815800  0.75000000  0.99115500  1
  Cl  Cl28  1  0.60982500  0.25000000  0.74239000  1
  Cl  Cl29  1  0.89017500  0.25000000  0.24239000  1
  Cl  Cl30  1  0.39017500  0.75000000  0.25761000  1
  Cl  Cl31  1  0.10982500  0.75000000  0.75761000  1
  Cl  Cl32  1  0.81924100  0.00710100  0.60366700  1
  Cl  Cl33  1  0.68075900  0.49289900  0.10366700  1
  Cl  Cl34  1  0.18075900  0.50710100  0.39633300  1
  Cl  Cl35  1  0.31924100  0.99289900  0.89633300  1
  Cl  Cl36  1  0.18075900  0.99289900  0.39633300  1
  Cl  Cl37  1  0.31924100  0.50710100  0.89633300  1
  Cl  Cl38  1  0.81924100  0.49289900  0.60366700  1
  Cl  Cl39  1  0.68075900  0.00710100  0.10366700  1
  O  O40  1  0.97823200  0.25000000  0.49368400  1
  O  O41  1  0.52176800  0.25000000  0.99368400  1
  O  O42  1  0.02176800  0.75000000  0.50631600  1
  O  O43  1  0.47823200  0.75000000  0.00631600  1
