# generated using pymatgen
data_ThC2
_symmetry_space_group_name_H-M   'P 1'
_cell_length_a   3.98753222
_cell_length_b   3.98753222
_cell_length_c   6.71096069
_cell_angle_alpha   78.21459792
_cell_angle_beta   78.21459792
_cell_angle_gamma   65.10008532
_symmetry_Int_Tables_number   1
_chemical_formula_structural   ThC2
_chemical_formula_sum   'Th2 C4'
_cell_volume   93.90371325
_cell_formula_units_Z   2
loop_
 _symmetry_equiv_pos_site_id
 _symmetry_equiv_pos_as_xyz
  1  'x, y, z'
loop_
 _atom_site_type_symbol
 _atom_site_label
 _atom_site_symmetry_multiplicity
 _atom_site_fract_x
 _atom_site_fract_y
 _atom_site_fract_z
 _atom_site_occupancy
  Th  Th0  1  0.20892900  0.79107100  0.25000000  1
  Th  Th1  1  0.79107100  0.20892900  0.75000000  1
  C  C2  1  0.43239200  0.16944500  0.44743500  1
  C  C3  1  0.83055500  0.56760800  0.05256500  1
  C  C4  1  0.16944500  0.43239200  0.94743500  1
  C  C5  1  0.56760800  0.83055500  0.55256500  1
