# generated using pymatgen
data_RbPrTe4
_symmetry_space_group_name_H-M   'P 1'
_cell_length_a   6.99142100
_cell_length_b   6.99142100
_cell_length_c   9.35150000
_cell_angle_alpha   90.00000000
_cell_angle_beta   90.00000000
_cell_angle_gamma   90.00000000
_symmetry_Int_Tables_number   1
_chemical_formula_structural   RbPrTe4
_chemical_formula_sum   'Rb2 Pr2 Te8'
_cell_volume   457.10101700
_cell_formula_units_Z   2
loop_
 _symmetry_equiv_pos_site_id
 _symmetry_equiv_pos_as_xyz
  1  'x, y, z'
loop_
 _atom_site_type_symbol
 _atom_site_label
 _atom_site_symmetry_multiplicity
 _atom_site_fract_x
 _atom_site_fract_y
 _atom_site_fract_z
 _atom_site_occupancy
  Rb  Rb0  1  0.50000000  0.50000000  0.00000000  1
  Rb  Rb1  1  0.00000000  0.00000000  0.00000000  1
  Pr  Pr2  1  0.50000000  0.50000000  0.50000000  1
  Pr  Pr3  1  0.00000000  0.00000000  0.50000000  1
  Te  Te4  1  0.35676800  0.85676800  0.29355400  1
  Te  Te5  1  0.14323200  0.35676800  0.29355400  1
  Te  Te6  1  0.85676800  0.64323200  0.29355400  1
  Te  Te7  1  0.35676800  0.14323200  0.70644600  1
  Te  Te8  1  0.64323200  0.85676800  0.70644600  1
  Te  Te9  1  0.64323200  0.14323200  0.29355400  1
  Te  Te10  1  0.85676800  0.35676800  0.70644600  1
  Te  Te11  1  0.14323200  0.64323200  0.70644600  1
