# generated using pymatgen
data_Yb2P4O13
_symmetry_space_group_name_H-M   'P 1'
_cell_length_a   9.61815231
_cell_length_b   9.61815231
_cell_length_c   8.74610500
_cell_angle_alpha   90.00000000
_cell_angle_beta   90.00000000
_cell_angle_gamma   136.47618996
_symmetry_Int_Tables_number   1
_chemical_formula_structural   Yb2P4O13
_chemical_formula_sum   'Yb4 P8 O26'
_cell_volume   557.18612672
_cell_formula_units_Z   2
loop_
 _symmetry_equiv_pos_site_id
 _symmetry_equiv_pos_as_xyz
  1  'x, y, z'
loop_
 _atom_site_type_symbol
 _atom_site_label
 _atom_site_symmetry_multiplicity
 _atom_site_fract_x
 _atom_site_fract_y
 _atom_site_fract_z
 _atom_site_occupancy
  Yb  Yb0  1  0.89346700  0.60007900  0.35257400  1
  Yb  Yb1  1  0.39992100  0.10653300  0.14742600  1
  Yb  Yb2  1  0.60007900  0.89346700  0.64742600  1
  Yb  Yb3  1  0.10653300  0.39992100  0.85257400  1
  P  P4  1  0.83792000  0.72066400  0.72797200  1
  P  P5  1  0.27933600  0.16208000  0.77202800  1
  P  P6  1  0.41441800  0.09720700  0.50188300  1
  P  P7  1  0.90279300  0.58558200  0.99811700  1
  P  P8  1  0.09720700  0.41441800  0.49811700  1
  P  P9  1  0.58558200  0.90279300  0.00188300  1
  P  P10  1  0.16208000  0.27933600  0.22797200  1
  P  P11  1  0.72066400  0.83792000  0.27202800  1
  O  O12  1  0.29984200  0.25672900  0.20568400  1
  O  O13  1  0.74327100  0.70015800  0.29431600  1
  O  O14  1  0.06107300  0.93892700  0.75000000  1
  O  O15  1  0.38125600  0.21056800  0.60860300  1
  O  O16  1  0.78943200  0.61874400  0.89139700  1
  O  O17  1  0.38521100  0.15945000  0.89570900  1
  O  O18  1  0.84055000  0.61478900  0.60429100  1
  O  O19  1  0.22149500  0.93279500  0.40830900  1
  O  O20  1  0.06720500  0.77850500  0.09169100  1
  O  O21  1  0.74131100  0.41758000  0.10952300  1
  O  O22  1  0.58242000  0.25868900  0.39047700  1
  O  O23  1  0.98334900  0.53018100  0.89511500  1
  O  O24  1  0.46981900  0.01665100  0.60488500  1
  O  O25  1  0.01665100  0.46981900  0.39511500  1
  O  O26  1  0.53018100  0.98334900  0.10488500  1
  O  O27  1  0.25868900  0.58242000  0.60952300  1
  O  O28  1  0.41758000  0.74131100  0.89047700  1
  O  O29  1  0.77850500  0.06720500  0.90830900  1
  O  O30  1  0.93279500  0.22149500  0.59169100  1
  O  O31  1  0.61478900  0.84055000  0.39570900  1
  O  O32  1  0.15945000  0.38521100  0.10429100  1
  O  O33  1  0.21056800  0.38125600  0.39139700  1
  O  O34  1  0.61874400  0.78943200  0.10860300  1
  O  O35  1  0.93892700  0.06107300  0.25000000  1
  O  O36  1  0.25672900  0.29984200  0.79431600  1
  O  O37  1  0.70015800  0.74327100  0.70568400  1
