# generated using pymatgen
data_ZrCd2H12(O3F4)2
_symmetry_space_group_name_H-M   'P 1'
_cell_length_a   7.16218586
_cell_length_b   7.16218586
_cell_length_c   12.83055758
_cell_angle_alpha   72.91976688
_cell_angle_beta   72.91976688
_cell_angle_gamma   71.60067880
_symmetry_Int_Tables_number   1
_chemical_formula_structural   ZrCd2H12(O3F4)2
_chemical_formula_sum   'Zr2 Cd4 H24 O12 F16'
_cell_volume   582.13400035
_cell_formula_units_Z   2
loop_
 _symmetry_equiv_pos_site_id
 _symmetry_equiv_pos_as_xyz
  1  'x, y, z'
loop_
 _atom_site_type_symbol
 _atom_site_label
 _atom_site_symmetry_multiplicity
 _atom_site_fract_x
 _atom_site_fract_y
 _atom_site_fract_z
 _atom_site_occupancy
  Zr  Zr0  1  0.23523600  0.76476400  0.25000000  1
  Zr  Zr1  1  0.76476400  0.23523600  0.75000000  1
  Cd  Cd2  1  0.70798300  0.93581200  0.21131200  1
  Cd  Cd3  1  0.06418800  0.29201700  0.28868800  1
  Cd  Cd4  1  0.29201700  0.06418800  0.78868800  1
  Cd  Cd5  1  0.93581200  0.70798300  0.71131200  1
  H  H6  1  0.64674400  0.46107800  0.35777900  1
  H  H7  1  0.53892200  0.35325600  0.14222100  1
  H  H8  1  0.35325600  0.53892200  0.64222100  1
  H  H9  1  0.46107800  0.64674400  0.85777900  1
  H  H10  1  0.73472900  0.34499900  0.46694800  1
  H  H11  1  0.65500100  0.26527100  0.03305200  1
  H  H12  1  0.26527100  0.65500100  0.53305200  1
  H  H13  1  0.34499900  0.73472900  0.96694800  1
  H  H14  1  0.90479900  0.56666000  0.10350800  1
  H  H15  1  0.43334000  0.09520100  0.39649200  1
  H  H16  1  0.09520100  0.43334000  0.89649200  1
  H  H17  1  0.56666000  0.90479900  0.60350800  1
  H  H18  1  0.88721100  0.35042300  0.11074200  1
  H  H19  1  0.64957700  0.11278900  0.38925800  1
  H  H20  1  0.11278900  0.64957700  0.88925800  1
  H  H21  1  0.35042300  0.88721100  0.61074200  1
  H  H22  1  0.63115500  0.81763600  0.04798200  1
  H  H23  1  0.18236400  0.36884500  0.45201800  1
  H  H24  1  0.36884500  0.18236400  0.95201800  1
  H  H25  1  0.81763600  0.63115500  0.54798200  1
  H  H26  1  0.82589900  0.90451400  0.98021800  1
  H  H27  1  0.09548600  0.17410100  0.51978200  1
  H  H28  1  0.17410100  0.09548600  0.01978200  1
  H  H29  1  0.90451400  0.82589900  0.48021800  1
  O  O30  1  0.72891000  0.33013000  0.39335000  1
  O  O31  1  0.66987000  0.27109000  0.10665000  1
  O  O32  1  0.27109000  0.66987000  0.60665000  1
  O  O33  1  0.33013000  0.72891000  0.89335000  1
  O  O34  1  0.57864300  0.02814300  0.37465700  1
  O  O35  1  0.97185700  0.42135700  0.12534300  1
  O  O36  1  0.42135700  0.97185700  0.62534300  1
  O  O37  1  0.02814300  0.57864300  0.87465700  1
  O  O38  1  0.76615200  0.82286400  0.05250500  1
  O  O39  1  0.17713600  0.23384800  0.44749500  1
  O  O40  1  0.23384800  0.17713600  0.94749500  1
  O  O41  1  0.82286400  0.76615200  0.55250500  1
  F  F42  1  0.04307400  0.97625800  0.14252300  1
  F  F43  1  0.02374200  0.95692600  0.35747700  1
  F  F44  1  0.95692600  0.02374200  0.85747700  1
  F  F45  1  0.97625800  0.04307400  0.64252300  1
  F  F46  1  0.96338100  0.66667800  0.28568000  1
  F  F47  1  0.33332200  0.03661900  0.21432000  1
  F  F48  1  0.03661900  0.33332200  0.71432000  1
  F  F49  1  0.66667800  0.96338100  0.78568000  1
  F  F50  1  0.53863100  0.67680000  0.27337600  1
  F  F51  1  0.32320000  0.46136900  0.22662400  1
  F  F52  1  0.46136900  0.32320000  0.72662400  1
  F  F53  1  0.67680000  0.53863100  0.77337600  1
  F  F54  1  0.22697000  0.59717800  0.41935000  1
  F  F55  1  0.40282200  0.77303000  0.08065000  1
  F  F56  1  0.77303000  0.40282200  0.58065000  1
  F  F57  1  0.59717800  0.22697000  0.91935000  1
