# generated using pymatgen
data_YbV4O8
_symmetry_space_group_name_H-M   'P 1'
_cell_length_a   9.17125200
_cell_length_b   5.87740500
_cell_length_c   11.16700034
_cell_angle_alpha   75.13461932
_cell_angle_beta   90.00000000
_cell_angle_gamma   90.00000000
_symmetry_Int_Tables_number   1
_chemical_formula_structural   YbV4O8
_chemical_formula_sum   'Yb4 V16 O32'
_cell_volume   581.79057667
_cell_formula_units_Z   4
loop_
 _symmetry_equiv_pos_site_id
 _symmetry_equiv_pos_as_xyz
  1  'x, y, z'
loop_
 _atom_site_type_symbol
 _atom_site_label
 _atom_site_symmetry_multiplicity
 _atom_site_fract_x
 _atom_site_fract_y
 _atom_site_fract_z
 _atom_site_occupancy
  Yb  Yb0  1  0.74342200  0.79547400  0.15687100  1
  Yb  Yb1  1  0.25657800  0.20452600  0.84312900  1
  Yb  Yb2  1  0.24342200  0.20452600  0.34312900  1
  Yb  Yb3  1  0.75657800  0.79547400  0.65687100  1
  V  V4  1  0.07369100  0.81694000  0.11764000  1
  V  V5  1  0.92630900  0.18306000  0.88236000  1
  V  V6  1  0.57369100  0.18306000  0.38236000  1
  V  V7  1  0.42630900  0.81694000  0.61764000  1
  V  V8  1  0.09085800  0.57227700  0.60114000  1
  V  V9  1  0.90914200  0.42772300  0.39886000  1
  V  V10  1  0.59085800  0.42772300  0.89886000  1
  V  V11  1  0.40914200  0.57227700  0.10114000  1
  V  V12  1  0.04747400  0.31524500  0.11168800  1
  V  V13  1  0.95252600  0.68475500  0.88831200  1
  V  V14  1  0.54747400  0.68475500  0.38831200  1
  V  V15  1  0.45252600  0.31524500  0.61168800  1
  V  V16  1  0.07932800  0.07889400  0.60361500  1
  V  V17  1  0.92067200  0.92110600  0.39638500  1
  V  V18  1  0.57932800  0.92110600  0.89638500  1
  V  V19  1  0.42067200  0.07889400  0.10361500  1
  O  O20  1  0.29989200  0.52644800  0.65325900  1
  O  O21  1  0.70010800  0.47355200  0.34674100  1
  O  O22  1  0.79989200  0.47355200  0.84674100  1
  O  O23  1  0.20010800  0.52644800  0.15325900  1
  O  O24  1  0.38915200  0.37114600  0.97796600  1
  O  O25  1  0.61084800  0.62885400  0.02203400  1
  O  O26  1  0.88915200  0.62885400  0.52203400  1
  O  O27  1  0.11084800  0.37114600  0.47796600  1
  O  O28  1  0.96493400  0.74474700  0.27809700  1
  O  O29  1  0.03506600  0.25525300  0.72190300  1
  O  O30  1  0.46493400  0.25525300  0.22190300  1
  O  O31  1  0.53506600  0.74474700  0.77809700  1
  O  O32  1  0.07896100  0.41027600  0.92892600  1
  O  O33  1  0.92103900  0.58972400  0.07107400  1
  O  O34  1  0.57896100  0.58972400  0.57107400  1
  O  O35  1  0.42103900  0.41027600  0.42892600  1
  O  O36  1  0.29186300  0.06889800  0.64886400  1
  O  O37  1  0.70813700  0.93110200  0.35113600  1
  O  O38  1  0.79186300  0.93110200  0.85113600  1
  O  O39  1  0.20813700  0.06889800  0.14886400  1
  O  O40  1  0.38170400  0.89814400  0.97961700  1
  O  O41  1  0.61829600  0.10185600  0.02038300  1
  O  O42  1  0.88170400  0.10185600  0.52038300  1
  O  O43  1  0.11829600  0.89814400  0.47961700  1
  O  O44  1  0.98220500  0.22295700  0.28668400  1
  O  O45  1  0.01779500  0.77704300  0.71331600  1
  O  O46  1  0.48220500  0.77704300  0.21331600  1
  O  O47  1  0.51779500  0.22295700  0.78668400  1
  O  O48  1  0.08010900  0.90847200  0.92886300  1
  O  O49  1  0.91989100  0.09152800  0.07113700  1
  O  O50  1  0.58010900  0.09152800  0.57113700  1
  O  O51  1  0.41989100  0.90847200  0.42886300  1
