# generated using pymatgen
data_Rb4TiO4
_symmetry_space_group_name_H-M   'P 1'
_cell_length_a   6.91769400
_cell_length_b   11.12880400
_cell_length_c   11.24109273
_cell_angle_alpha   67.84115174
_cell_angle_beta   90.00000000
_cell_angle_gamma   90.00000000
_symmetry_Int_Tables_number   1
_chemical_formula_structural   Rb4TiO4
_chemical_formula_sum   'Rb16 Ti4 O16'
_cell_volume   801.48578033
_cell_formula_units_Z   4
loop_
 _symmetry_equiv_pos_site_id
 _symmetry_equiv_pos_as_xyz
  1  'x, y, z'
loop_
 _atom_site_type_symbol
 _atom_site_label
 _atom_site_symmetry_multiplicity
 _atom_site_fract_x
 _atom_site_fract_y
 _atom_site_fract_z
 _atom_site_occupancy
  Rb  Rb0  1  0.68252100  0.28545700  0.08373000  1
  Rb  Rb1  1  0.17488600  0.39311600  0.12447600  1
  Rb  Rb2  1  0.38486300  0.07410000  0.34414900  1
  Rb  Rb3  1  0.81747900  0.78545700  0.08373000  1
  Rb  Rb4  1  0.32511400  0.89311600  0.12447600  1
  Rb  Rb5  1  0.91811300  0.20437400  0.43203200  1
  Rb  Rb6  1  0.11513700  0.57410000  0.34414900  1
  Rb  Rb7  1  0.41811300  0.29562600  0.56796800  1
  Rb  Rb8  1  0.58188700  0.70437400  0.43203200  1
  Rb  Rb9  1  0.88486300  0.42590000  0.65585100  1
  Rb  Rb10  1  0.08188700  0.79562600  0.56796800  1
  Rb  Rb11  1  0.67488600  0.10688400  0.87552400  1
  Rb  Rb12  1  0.18252100  0.21454300  0.91627000  1
  Rb  Rb13  1  0.61513700  0.92590000  0.65585100  1
  Rb  Rb14  1  0.82511400  0.60688400  0.87552400  1
  Rb  Rb15  1  0.31747900  0.71454300  0.91627000  1
  Ti  Ti16  1  0.62365400  0.48680600  0.25965600  1
  Ti  Ti17  1  0.87634600  0.98680600  0.25965600  1
  Ti  Ti18  1  0.12365400  0.01319400  0.74034400  1
  Ti  Ti19  1  0.37634600  0.51319400  0.74034400  1
  O  O20  1  0.03414600  0.13193100  0.18796100  1
  O  O21  1  0.82725800  0.50046200  0.14768400  1
  O  O22  1  0.48817500  0.33448100  0.28878100  1
  O  O23  1  0.46585400  0.63193100  0.18796100  1
  O  O24  1  0.67274200  0.00046200  0.14768400  1
  O  O25  1  0.72740700  0.47795700  0.41325800  1
  O  O26  1  0.22740700  0.02204300  0.58674200  1
  O  O27  1  0.01182500  0.83448100  0.28878100  1
  O  O28  1  0.98817500  0.16551900  0.71121900  1
  O  O29  1  0.77259300  0.97795700  0.41325800  1
  O  O30  1  0.27259300  0.52204300  0.58674200  1
  O  O31  1  0.32725800  0.99953800  0.85231600  1
  O  O32  1  0.53414600  0.36806900  0.81203900  1
  O  O33  1  0.51182500  0.66551900  0.71121900  1
  O  O34  1  0.17274200  0.49953800  0.85231600  1
  O  O35  1  0.96585400  0.86806900  0.81203900  1
