# generated using pymatgen
data_Sr2RhO4
_symmetry_space_group_name_H-M   'P 1'
_cell_length_a   13.71693355
_cell_length_b   13.71693355
_cell_length_c   13.71693355
_cell_angle_alpha   156.89279184
_cell_angle_beta   156.89279184
_cell_angle_gamma   32.90797380
_symmetry_Int_Tables_number   1
_chemical_formula_structural   Sr2RhO4
_chemical_formula_sum   'Sr8 Rh4 O16'
_cell_volume   397.16089084
_cell_formula_units_Z   4
loop_
 _symmetry_equiv_pos_site_id
 _symmetry_equiv_pos_as_xyz
  1  'x, y, z'
loop_
 _atom_site_type_symbol
 _atom_site_label
 _atom_site_symmetry_multiplicity
 _atom_site_fract_x
 _atom_site_fract_y
 _atom_site_fract_z
 _atom_site_occupancy
  Sr  Sr0  1  0.82479100  0.82479100  0.00000000  1
  Sr  Sr1  1  0.67520900  0.67520900  0.00000000  1
  Sr  Sr2  1  0.42520900  0.92520900  0.50000000  1
  Sr  Sr3  1  0.57479100  0.07479100  0.50000000  1
  Sr  Sr4  1  0.17520900  0.17520900  0.00000000  1
  Sr  Sr5  1  0.32479100  0.32479100  0.00000000  1
  Sr  Sr6  1  0.92520900  0.42520900  0.50000000  1
  Sr  Sr7  1  0.07479100  0.57479100  0.50000000  1
  Rh  Rh8  1  0.00000000  0.00000000  0.00000000  1
  Rh  Rh9  1  0.25000000  0.75000000  0.50000000  1
  Rh  Rh10  1  0.75000000  0.25000000  0.50000000  1
  Rh  Rh11  1  0.50000000  0.50000000  0.00000000  1
  O  O12  1  0.44345500  0.44345500  0.38691000  1
  O  O13  1  0.94345500  0.55654500  0.00000000  1
  O  O14  1  0.91995800  0.91995800  0.00000000  1
  O  O15  1  0.08004200  0.08004200  0.00000000  1
  O  O16  1  0.16995800  0.66995800  0.50000000  1
  O  O17  1  0.33004200  0.83004200  0.50000000  1
  O  O18  1  0.55654500  0.94345500  0.00000000  1
  O  O19  1  0.69345500  0.19345500  0.88691000  1
  O  O20  1  0.19345500  0.30654500  0.50000000  1
  O  O21  1  0.05654500  0.05654500  0.61309000  1
  O  O22  1  0.83004200  0.33004200  0.50000000  1
  O  O23  1  0.41995800  0.41995800  0.00000000  1
  O  O24  1  0.58004200  0.58004200  0.00000000  1
  O  O25  1  0.66995800  0.16995800  0.50000000  1
  O  O26  1  0.80654500  0.69345500  0.50000000  1
  O  O27  1  0.30654500  0.80654500  0.11309000  1
