# generated using pymatgen
data_TbSiPt
_symmetry_space_group_name_H-M   'P 1'
_cell_length_a   4.31179700
_cell_length_b   7.05988700
_cell_length_c   7.47018500
_cell_angle_alpha   90.00000000
_cell_angle_beta   90.00000000
_cell_angle_gamma   90.00000000
_symmetry_Int_Tables_number   1
_chemical_formula_structural   TbSiPt
_chemical_formula_sum   'Tb4 Si4 Pt4'
_cell_volume   227.39840446
_cell_formula_units_Z   4
loop_
 _symmetry_equiv_pos_site_id
 _symmetry_equiv_pos_as_xyz
  1  'x, y, z'
loop_
 _atom_site_type_symbol
 _atom_site_label
 _atom_site_symmetry_multiplicity
 _atom_site_fract_x
 _atom_site_fract_y
 _atom_site_fract_z
 _atom_site_occupancy
  Tb  Tb0  1  0.25000000  0.99568300  0.79767700  1
  Tb  Tb1  1  0.25000000  0.49568300  0.70232300  1
  Tb  Tb2  1  0.75000000  0.00431700  0.20232300  1
  Tb  Tb3  1  0.75000000  0.50431700  0.29767700  1
  Si  Si4  1  0.25000000  0.81372900  0.41297100  1
  Si  Si5  1  0.25000000  0.31372900  0.08702900  1
  Si  Si6  1  0.75000000  0.18627100  0.58702900  1
  Si  Si7  1  0.75000000  0.68627100  0.91297100  1
  Pt  Pt8  1  0.25000000  0.20113800  0.41506900  1
  Pt  Pt9  1  0.25000000  0.70113800  0.08493100  1
  Pt  Pt10  1  0.75000000  0.79886200  0.58493100  1
  Pt  Pt11  1  0.75000000  0.29886200  0.91506900  1
