# generated using pymatgen
data_B5H7
_symmetry_space_group_name_H-M   'P 1'
_cell_length_a   5.63607900
_cell_length_b   12.46380600
_cell_length_c   14.31442474
_cell_angle_alpha   55.00304770
_cell_angle_beta   90.00000000
_cell_angle_gamma   90.00000000
_symmetry_Int_Tables_number   1
_chemical_formula_structural   B5H7
_chemical_formula_sum   'B40 H56'
_cell_volume   823.72518775
_cell_formula_units_Z   8
loop_
 _symmetry_equiv_pos_site_id
 _symmetry_equiv_pos_as_xyz
  1  'x, y, z'
loop_
 _atom_site_type_symbol
 _atom_site_label
 _atom_site_symmetry_multiplicity
 _atom_site_fract_x
 _atom_site_fract_y
 _atom_site_fract_z
 _atom_site_occupancy
  B  B0  1  0.99969600  0.66268300  0.20186100  1
  B  B1  1  0.00030400  0.33731700  0.79813900  1
  B  B2  1  0.00030400  0.66268300  0.70186100  1
  B  B3  1  0.99969600  0.33731700  0.29813900  1
  B  B4  1  0.49516300  0.83750500  0.36552600  1
  B  B5  1  0.50483700  0.16249500  0.63447400  1
  B  B6  1  0.50483700  0.83750500  0.86552600  1
  B  B7  1  0.49516300  0.16249500  0.13447400  1
  B  B8  1  0.00076800  0.40018900  0.39748600  1
  B  B9  1  0.99923200  0.59981100  0.60251400  1
  B  B10  1  0.99923200  0.40018900  0.89748600  1
  B  B11  1  0.00076800  0.59981100  0.10251400  1
  B  B12  1  0.49607100  0.10098600  0.29624800  1
  B  B13  1  0.50392900  0.89901400  0.70375200  1
  B  B14  1  0.50392900  0.10098600  0.79624800  1
  B  B15  1  0.49607100  0.89901400  0.20375200  1
  B  B16  1  0.17280500  0.54762200  0.32499300  1
  B  B17  1  0.82719500  0.45237800  0.67500700  1
  B  B18  1  0.82719500  0.54762200  0.82499300  1
  B  B19  1  0.17280500  0.45237800  0.17500700  1
  B  B20  1  0.32329400  0.95388600  0.37220200  1
  B  B21  1  0.67670600  0.04611400  0.62779800  1
  B  B22  1  0.67670600  0.95388600  0.87220200  1
  B  B23  1  0.32329400  0.04611400  0.12779800  1
  B  B24  1  0.23901800  0.41772900  0.31116400  1
  B  B25  1  0.76098200  0.58227100  0.68883600  1
  B  B26  1  0.76098200  0.41772900  0.81116400  1
  B  B27  1  0.23901800  0.58227100  0.18883600  1
  B  B28  1  0.25700100  0.08251800  0.22841400  1
  B  B29  1  0.74299900  0.91748200  0.77158600  1
  B  B30  1  0.74299900  0.08251800  0.72841400  1
  B  B31  1  0.25700100  0.91748200  0.27158600  1
  B  B32  1  0.87035500  0.55687800  0.33987800  1
  B  B33  1  0.12964500  0.44312200  0.66012200  1
  B  B34  1  0.12964500  0.55687800  0.83987800  1
  B  B35  1  0.87035500  0.44312200  0.16012200  1
  B  B36  1  0.62566700  0.94448600  0.39637700  1
  B  B37  1  0.37433300  0.05551400  0.60362300  1
  B  B38  1  0.37433300  0.94448600  0.89637700  1
  B  B39  1  0.62566700  0.05551400  0.10362300  1
  H  H40  1  0.99288100  0.77809600  0.15518700  1
  H  H41  1  0.00711900  0.22190400  0.84481300  1
  H  H42  1  0.00711900  0.77809600  0.65518700  1
  H  H43  1  0.99288100  0.22190400  0.34481300  1
  H  H44  1  0.50003900  0.72229500  0.43469100  1
  H  H45  1  0.49996100  0.27770500  0.56530900  1
  H  H46  1  0.49996100  0.72229500  0.93469100  1
  H  H47  1  0.50003900  0.27770500  0.06530900  1
  H  H48  1  0.30799200  0.57656400  0.37076400  1
  H  H49  1  0.69200800  0.42343600  0.62923600  1
  H  H50  1  0.69200800  0.57656400  0.87076400  1
  H  H51  1  0.30799200  0.42343600  0.12923600  1
  H  H52  1  0.18729700  0.92616600  0.44624900  1
  H  H53  1  0.81270300  0.07383400  0.55375100  1
  H  H54  1  0.81270300  0.92616600  0.94624900  1
  H  H55  1  0.18729700  0.07383400  0.05375100  1
  H  H56  1  0.76271600  0.58899800  0.39099200  1
  H  H57  1  0.23728400  0.41100200  0.60900800  1
  H  H58  1  0.23728400  0.58899800  0.89099200  1
  H  H59  1  0.76271600  0.41100200  0.10900800  1
  H  H60  1  0.73510700  0.91328500  0.47911800  1
  H  H61  1  0.26489300  0.08671500  0.52088200  1
  H  H62  1  0.26489300  0.91328500  0.97911800  1
  H  H63  1  0.73510700  0.08671500  0.02088200  1
  H  H64  1  0.99436400  0.31906500  0.49768600  1
  H  H65  1  0.00563600  0.68093500  0.50231400  1
  H  H66  1  0.00563600  0.31906500  0.99768600  1
  H  H67  1  0.99436400  0.68093500  0.00231400  1
  H  H68  1  0.50207200  0.18307100  0.31428000  1
  H  H69  1  0.49792800  0.81692900  0.68572000  1
  H  H70  1  0.49792800  0.18307100  0.81428000  1
  H  H71  1  0.50207200  0.81692900  0.18572000  1
  H  H72  1  0.40599000  0.34955600  0.36171800  1
  H  H73  1  0.59401000  0.65044400  0.63828200  1
  H  H74  1  0.59401000  0.34955600  0.86171800  1
  H  H75  1  0.40599000  0.65044400  0.13828200  1
  H  H76  1  0.09002300  0.15103900  0.21024500  1
  H  H77  1  0.90997700  0.84896100  0.78975600  1
  H  H78  1  0.90997700  0.15103900  0.71024400  1
  H  H79  1  0.09002300  0.84896100  0.28975500  1
  H  H80  1  0.77810100  0.62177000  0.23387200  1
  H  H81  1  0.22189900  0.37823000  0.76612800  1
  H  H82  1  0.22189900  0.62177000  0.73387200  1
  H  H83  1  0.77810100  0.37823000  0.26612800  1
  H  H84  1  0.71754000  0.87694600  0.35768200  1
  H  H85  1  0.28246000  0.12305400  0.64231800  1
  H  H86  1  0.28246000  0.87694600  0.85768200  1
  H  H87  1  0.71754000  0.12305400  0.14231800  1
  H  H88  1  0.77825600  0.44151100  0.36909700  1
  H  H89  1  0.22174400  0.55848900  0.63090300  1
  H  H90  1  0.22174400  0.44151100  0.86909700  1
  H  H91  1  0.77825600  0.55848900  0.13090300  1
  H  H92  1  0.71788500  0.05893000  0.30886900  1
  H  H93  1  0.28211500  0.94107000  0.69113100  1
  H  H94  1  0.28211500  0.05893000  0.80886900  1
  H  H95  1  0.71788500  0.94107000  0.19113100  1
