# generated using pymatgen
data_CaHfO3
_symmetry_space_group_name_H-M   'P 1'
_cell_length_a   5.58080400
_cell_length_b   5.76822900
_cell_length_c   8.01690800
_cell_angle_alpha   90.00000000
_cell_angle_beta   90.00000000
_cell_angle_gamma   90.00000000
_symmetry_Int_Tables_number   1
_chemical_formula_structural   CaHfO3
_chemical_formula_sum   'Ca4 Hf4 O12'
_cell_volume   258.07513525
_cell_formula_units_Z   4
loop_
 _symmetry_equiv_pos_site_id
 _symmetry_equiv_pos_as_xyz
  1  'x, y, z'
loop_
 _atom_site_type_symbol
 _atom_site_label
 _atom_site_symmetry_multiplicity
 _atom_site_fract_x
 _atom_site_fract_y
 _atom_site_fract_z
 _atom_site_occupancy
  Ca  Ca0  1  0.01309800  0.94890700  0.75000000  1
  Ca  Ca1  1  0.48690200  0.44890700  0.75000000  1
  Ca  Ca2  1  0.51309800  0.55109300  0.25000000  1
  Ca  Ca3  1  0.98690200  0.05109300  0.25000000  1
  Hf  Hf4  1  0.00000000  0.50000000  0.00000000  1
  Hf  Hf5  1  0.00000000  0.50000000  0.50000000  1
  Hf  Hf6  1  0.50000000  0.00000000  0.00000000  1
  Hf  Hf7  1  0.50000000  0.00000000  0.50000000  1
  O  O8  1  0.10219200  0.46266000  0.25000000  1
  O  O9  1  0.19851500  0.20107400  0.55397300  1
  O  O10  1  0.19851500  0.20107400  0.94602700  1
  O  O11  1  0.30148500  0.70107400  0.55397300  1
  O  O12  1  0.30148500  0.70107400  0.94602700  1
  O  O13  1  0.39780800  0.96266000  0.25000000  1
  O  O14  1  0.60219200  0.03734000  0.75000000  1
  O  O15  1  0.69851500  0.29892600  0.05397300  1
  O  O16  1  0.69851500  0.29892600  0.44602700  1
  O  O17  1  0.80148500  0.79892600  0.05397300  1
  O  O18  1  0.80148500  0.79892600  0.44602700  1
  O  O19  1  0.89780800  0.53734000  0.75000000  1
