# generated using pymatgen
data_Pr2P3(HO2)5
_symmetry_space_group_name_H-M   'P 1'
_cell_length_a   8.07432800
_cell_length_b   9.75131800
_cell_length_c   13.69841087
_cell_angle_alpha   66.95089693
_cell_angle_beta   90.00000000
_cell_angle_gamma   90.00000000
_symmetry_Int_Tables_number   1
_chemical_formula_structural   Pr2P3(HO2)5
_chemical_formula_sum   'Pr8 P12 H20 O40'
_cell_volume   992.44809477
_cell_formula_units_Z   4
loop_
 _symmetry_equiv_pos_site_id
 _symmetry_equiv_pos_as_xyz
  1  'x, y, z'
loop_
 _atom_site_type_symbol
 _atom_site_label
 _atom_site_symmetry_multiplicity
 _atom_site_fract_x
 _atom_site_fract_y
 _atom_site_fract_z
 _atom_site_occupancy
  Pr  Pr0  1  0.08080200  0.81941200  0.23180100  1
  Pr  Pr1  1  0.41919800  0.81941200  0.73180100  1
  Pr  Pr2  1  0.91919800  0.18058800  0.76819900  1
  Pr  Pr3  1  0.58080200  0.18058800  0.26819900  1
  Pr  Pr4  1  0.21154600  0.59187300  0.03595400  1
  Pr  Pr5  1  0.28845400  0.59187300  0.53595400  1
  Pr  Pr6  1  0.78845400  0.40812700  0.96404600  1
  Pr  Pr7  1  0.71154600  0.40812700  0.46404600  1
  P  P8  1  0.19593200  0.23351400  0.10044200  1
  P  P9  1  0.30406800  0.23351400  0.60044200  1
  P  P10  1  0.80406800  0.76648600  0.89955800  1
  P  P11  1  0.69593200  0.76648600  0.39955800  1
  P  P12  1  0.25037300  0.94422900  0.94640800  1
  P  P13  1  0.24962700  0.94422900  0.44640800  1
  P  P14  1  0.74962700  0.05577100  0.05359200  1
  P  P15  1  0.75037300  0.05577100  0.55359200  1
  P  P16  1  0.11335000  0.46226900  0.32422200  1
  P  P17  1  0.38665000  0.46226900  0.82422200  1
  P  P18  1  0.88665000  0.53773100  0.67577800  1
  P  P19  1  0.61335000  0.53773100  0.17577800  1
  H  H20  1  0.26372300  0.20373400  0.01600300  1
  H  H21  1  0.23627700  0.20373400  0.51600300  1
  H  H22  1  0.73627700  0.79626600  0.98399700  1
  H  H23  1  0.76372300  0.79626600  0.48399700  1
  H  H24  1  0.38651200  0.99984500  0.98378200  1
  H  H25  1  0.11348800  0.99984500  0.48378200  1
  H  H26  1  0.61348800  0.00015500  0.01621800  1
  H  H27  1  0.88651200  0.00015500  0.51621800  1
  H  H28  1  0.23840500  0.35960800  0.32842600  1
  H  H29  1  0.26159500  0.35960800  0.82842600  1
  H  H30  1  0.76159500  0.64039200  0.67157400  1
  H  H31  1  0.73840500  0.64039200  0.17157400  1
  H  H32  1  0.47161200  0.85934500  0.24545700  1
  H  H33  1  0.02838800  0.85934500  0.74545700  1
  H  H34  1  0.52838800  0.14065500  0.75454300  1
  H  H35  1  0.97161200  0.14065500  0.25454300  1
  H  H36  1  0.42855300  0.76946500  0.17140200  1
  H  H37  1  0.07144700  0.76946500  0.67140200  1
  H  H38  1  0.57144700  0.23053500  0.82859800  1
  H  H39  1  0.92855300  0.23053500  0.32859800  1
  O  O40  1  0.33306500  0.30758100  0.14187700  1
  O  O41  1  0.16693500  0.30758100  0.64187700  1
  O  O42  1  0.66693500  0.69241900  0.85812300  1
  O  O43  1  0.83306500  0.69241900  0.35812300  1
  O  O44  1  0.06019700  0.35487300  0.05173900  1
  O  O45  1  0.43980300  0.35487300  0.55173900  1
  O  O46  1  0.93980300  0.64512700  0.94826100  1
  O  O47  1  0.56019700  0.64512700  0.44826100  1
  O  O48  1  0.12516100  0.08762400  0.18099000  1
  O  O49  1  0.37483900  0.08762400  0.68099000  1
  O  O50  1  0.87483900  0.91237600  0.81901000  1
  O  O51  1  0.62516100  0.91237600  0.31901000  1
  O  O52  1  0.15150800  0.84155700  0.04516500  1
  O  O53  1  0.34849200  0.84155700  0.54516500  1
  O  O54  1  0.84849200  0.15844300  0.95483500  1
  O  O55  1  0.65150800  0.15844300  0.45483500  1
  O  O56  1  0.31917600  0.83700300  0.89655200  1
  O  O57  1  0.18082400  0.83700300  0.39655200  1
  O  O58  1  0.68082400  0.16299700  0.10344800  1
  O  O59  1  0.81917600  0.16299700  0.60344800  1
  O  O60  1  0.15872900  0.07879000  0.86926900  1
  O  O61  1  0.34127100  0.07879000  0.36926900  1
  O  O62  1  0.84127100  0.92121000  0.13073100  1
  O  O63  1  0.65872900  0.92121000  0.63073100  1
  O  O64  1  0.17295800  0.56052100  0.38229000  1
  O  O65  1  0.32704200  0.56052100  0.88229000  1
  O  O66  1  0.82704200  0.43947900  0.61771000  1
  O  O67  1  0.67295800  0.43947900  0.11771000  1
  O  O68  1  0.08749100  0.56858700  0.20639200  1
  O  O69  1  0.41250900  0.56858700  0.70639200  1
  O  O70  1  0.91250900  0.43141300  0.79360800  1
  O  O71  1  0.58749100  0.43141300  0.29360800  1
  O  O72  1  0.95773700  0.37244100  0.37350200  1
  O  O73  1  0.54226300  0.37244100  0.87350200  1
  O  O74  1  0.04226300  0.62755900  0.62649800  1
  O  O75  1  0.45773700  0.62755900  0.12649800  1
  O  O76  1  0.38448500  0.84018200  0.20134500  1
  O  O77  1  0.11551500  0.84018200  0.70134500  1
  O  O78  1  0.61551500  0.15981800  0.79865500  1
  O  O79  1  0.88448500  0.15981800  0.29865500  1
