# generated using pymatgen
data_Na2Cr2O7
_symmetry_space_group_name_H-M   'P 1'
_cell_length_a   7.77206000
_cell_length_b   9.49204516
_cell_length_c   10.15017187
_cell_angle_alpha   75.73951745
_cell_angle_beta   70.06605346
_cell_angle_gamma   70.35793886
_symmetry_Int_Tables_number   1
_chemical_formula_structural   Na2Cr2O7
_chemical_formula_sum   'Na8 Cr8 O28'
_cell_volume   655.60181709
_cell_formula_units_Z   4
loop_
 _symmetry_equiv_pos_site_id
 _symmetry_equiv_pos_as_xyz
  1  'x, y, z'
loop_
 _atom_site_type_symbol
 _atom_site_label
 _atom_site_symmetry_multiplicity
 _atom_site_fract_x
 _atom_site_fract_y
 _atom_site_fract_z
 _atom_site_occupancy
  Na  Na0  1  0.53393600  0.60643500  0.22620400  1
  Na  Na1  1  0.02608600  0.26381900  0.35195500  1
  Na  Na2  1  0.02467900  0.10199400  0.74079600  1
  Na  Na3  1  0.97532100  0.89800600  0.25920400  1
  Na  Na4  1  0.53207600  0.21483100  0.17382700  1
  Na  Na5  1  0.46606400  0.39356500  0.77379600  1
  Na  Na6  1  0.97391400  0.73618100  0.64804500  1
  Na  Na7  1  0.46792400  0.78516900  0.82617300  1
  Cr  Cr8  1  0.32455100  0.90910300  0.44193800  1
  Cr  Cr9  1  0.29806900  0.37143200  0.52863200  1
  Cr  Cr10  1  0.70193100  0.62856800  0.47136800  1
  Cr  Cr11  1  0.16788800  0.59114500  0.08083200  1
  Cr  Cr12  1  0.67544900  0.09089700  0.55806200  1
  Cr  Cr13  1  0.83211200  0.40885500  0.91916800  1
  Cr  Cr14  1  0.79420100  0.84784700  0.01145600  1
  Cr  Cr15  1  0.20579900  0.15215300  0.98854400  1
  O  O16  1  0.28742300  0.59225600  0.91249300  1
  O  O17  1  0.45632800  0.23011300  0.62085600  1
  O  O18  1  0.14985400  0.86222600  0.42386700  1
  O  O19  1  0.91637400  0.87653400  0.84507500  1
  O  O20  1  0.07991600  0.32420600  0.90071700  1
  O  O21  1  0.80242600  0.58219900  0.83680500  1
  O  O22  1  0.33507500  0.07436100  0.34751100  1
  O  O23  1  0.85014600  0.13777400  0.57613300  1
  O  O24  1  0.92008400  0.67579400  0.09928300  1
  O  O25  1  0.75722100  0.47502100  0.40223400  1
  O  O26  1  0.77111700  0.98615200  0.09227400  1
  O  O27  1  0.22888300  0.01384800  0.90772600  1
  O  O28  1  0.89037900  0.68391900  0.44632100  1
  O  O29  1  0.19757400  0.41780100  0.16319500  1
  O  O30  1  0.24523200  0.69000800  0.14886700  1
  O  O31  1  0.71257700  0.40774400  0.08750700  1
  O  O32  1  0.58867900  0.82516400  0.02638500  1
  O  O33  1  0.59082500  0.60264400  0.64001700  1
  O  O34  1  0.75476800  0.30999200  0.85113300  1
  O  O35  1  0.66492500  0.92563900  0.65248900  1
  O  O36  1  0.71585500  0.08390000  0.39078800  1
  O  O37  1  0.54367200  0.76988700  0.37914400  1
  O  O38  1  0.40917500  0.39735600  0.35998300  1
  O  O39  1  0.41132100  0.17483600  0.97361500  1
  O  O40  1  0.10962100  0.31608100  0.55367900  1
  O  O41  1  0.28414500  0.91610000  0.60921200  1
  O  O42  1  0.08362600  0.12346600  0.15492500  1
  O  O43  1  0.24277900  0.52497900  0.59776600  1
