# generated using pymatgen
data_Cs2O2
_symmetry_space_group_name_H-M   'P 1'
_cell_length_a   5.49975130
_cell_length_b   5.49975130
_cell_length_c   5.49975130
_cell_angle_alpha   132.90168758
_cell_angle_beta   106.53789612
_cell_angle_gamma   91.98329398
_symmetry_Int_Tables_number   1
_chemical_formula_structural   Cs2O2
_chemical_formula_sum   'Cs2 O2'
_cell_volume   110.46533767
_cell_formula_units_Z   1
loop_
 _symmetry_equiv_pos_site_id
 _symmetry_equiv_pos_as_xyz
  1  'x, y, z'
loop_
 _atom_site_type_symbol
 _atom_site_label
 _atom_site_symmetry_multiplicity
 _atom_site_fract_x
 _atom_site_fract_y
 _atom_site_fract_z
 _atom_site_occupancy
  Cs  Cs0  1  0.25627600  0.25627600  0.00000000  1
  Cs  Cs1  1  0.74372400  0.74372400  0.00000000  1
  O  O2  1  0.61535100  0.00000000  0.61535100  1
  O  O3  1  0.38464900  0.00000000  0.38464900  1
