# generated using pymatgen
data_Na5Cu(HO2)2
_symmetry_space_group_name_H-M   'P 1'
_cell_length_a   6.10900400
_cell_length_b   8.89518100
_cell_length_c   12.05800400
_cell_angle_alpha   90.00000000
_cell_angle_beta   90.00000000
_cell_angle_gamma   90.00000000
_symmetry_Int_Tables_number   1
_chemical_formula_structural   Na5Cu(HO2)2
_chemical_formula_sum   'Na20 Cu4 H8 O16'
_cell_volume   655.24033347
_cell_formula_units_Z   4
loop_
 _symmetry_equiv_pos_site_id
 _symmetry_equiv_pos_as_xyz
  1  'x, y, z'
loop_
 _atom_site_type_symbol
 _atom_site_label
 _atom_site_symmetry_multiplicity
 _atom_site_fract_x
 _atom_site_fract_y
 _atom_site_fract_z
 _atom_site_occupancy
  Na  Na0  1  0.55227700  0.25000000  0.04164400  1
  Na  Na1  1  0.56341200  0.75000000  0.20753800  1
  Na  Na2  1  0.58647500  0.75000000  0.72915200  1
  Na  Na3  1  0.74097900  0.00577200  0.36067400  1
  Na  Na4  1  0.74097900  0.49422800  0.36067400  1
  Na  Na5  1  0.75902100  0.50577200  0.86067400  1
  Na  Na6  1  0.75902100  0.99422800  0.86067400  1
  Na  Na7  1  0.91352500  0.25000000  0.22915200  1
  Na  Na8  1  0.93658800  0.25000000  0.70753800  1
  Na  Na9  1  0.94772300  0.75000000  0.54164400  1
  Na  Na10  1  0.05227700  0.25000000  0.45835600  1
  Na  Na11  1  0.06341200  0.75000000  0.29246200  1
  Na  Na12  1  0.08647500  0.75000000  0.77084800  1
  Na  Na13  1  0.24097900  0.00577200  0.13932600  1
  Na  Na14  1  0.24097900  0.49422800  0.13932600  1
  Na  Na15  1  0.25902100  0.50577200  0.63932600  1
  Na  Na16  1  0.25902100  0.99422800  0.63932600  1
  Na  Na17  1  0.41352500  0.25000000  0.27084800  1
  Na  Na18  1  0.43658800  0.25000000  0.79246200  1
  Na  Na19  1  0.44772300  0.75000000  0.95835600  1
  Cu  Cu20  1  0.50254900  0.25000000  0.52414200  1
  Cu  Cu21  1  0.99745100  0.75000000  0.02414200  1
  Cu  Cu22  1  0.00254900  0.25000000  0.97585800  1
  Cu  Cu23  1  0.49745100  0.75000000  0.47585800  1
  H  H24  1  0.72690500  0.00559300  0.12350000  1
  H  H25  1  0.72690500  0.49440700  0.12350000  1
  H  H26  1  0.77309500  0.50559300  0.62350000  1
  H  H27  1  0.77309500  0.99440700  0.62350000  1
  H  H28  1  0.22690500  0.00559300  0.37650000  1
  H  H29  1  0.22690500  0.49440700  0.37650000  1
  H  H30  1  0.27309500  0.50559300  0.87650000  1
  H  H31  1  0.27309500  0.99440700  0.87650000  1
  O  O32  1  0.62146500  0.04909600  0.17565500  1
  O  O33  1  0.62146500  0.45090400  0.17565500  1
  O  O34  1  0.69427900  0.25000000  0.41109400  1
  O  O35  1  0.72866100  0.75000000  0.37874400  1
  O  O36  1  0.77133900  0.25000000  0.87874400  1
  O  O37  1  0.80572100  0.75000000  0.91109400  1
  O  O38  1  0.87853500  0.54909600  0.67565500  1
  O  O39  1  0.87853500  0.95090400  0.67565500  1
  O  O40  1  0.12146500  0.45090400  0.32434500  1
  O  O41  1  0.12146500  0.04909600  0.32434500  1
  O  O42  1  0.19427900  0.25000000  0.08890600  1
  O  O43  1  0.22866100  0.75000000  0.12125600  1
  O  O44  1  0.27133900  0.25000000  0.62125600  1
  O  O45  1  0.30572100  0.75000000  0.58890600  1
  O  O46  1  0.37853500  0.54909600  0.82434500  1
  O  O47  1  0.37853500  0.95090400  0.82434500  1
