# generated using pymatgen
data_NiPH6NO5
_symmetry_space_group_name_H-M   'P 1'
_cell_length_a   4.76776700
_cell_length_b   5.62929900
_cell_length_c   8.89786500
_cell_angle_alpha   90.00000000
_cell_angle_beta   90.00000000
_cell_angle_gamma   90.00000000
_symmetry_Int_Tables_number   1
_chemical_formula_structural   NiPH6NO5
_chemical_formula_sum   'Ni2 P2 H12 N2 O10'
_cell_volume   238.81145379
_cell_formula_units_Z   2
loop_
 _symmetry_equiv_pos_site_id
 _symmetry_equiv_pos_as_xyz
  1  'x, y, z'
loop_
 _atom_site_type_symbol
 _atom_site_label
 _atom_site_symmetry_multiplicity
 _atom_site_fract_x
 _atom_site_fract_y
 _atom_site_fract_z
 _atom_site_occupancy
  Ni  Ni0  1  0.06992800  0.00000000  0.98113100  1
  Ni  Ni1  1  0.56992800  0.50000000  0.01886900  1
  P  P2  1  0.49789900  0.00000000  0.18940100  1
  P  P3  1  0.99789900  0.50000000  0.81059900  1
  H  H4  1  0.48565800  0.13929000  0.81817100  1
  H  H5  1  0.48565800  0.86071000  0.81817100  1
  H  H6  1  0.98565800  0.36071000  0.18182900  1
  H  H7  1  0.98565800  0.63929000  0.18182900  1
  H  H8  1  0.75328100  0.00000000  0.46198600  1
  H  H9  1  0.25328100  0.50000000  0.53801400  1
  H  H10  1  0.11359400  0.00000000  0.45611400  1
  H  H11  1  0.61359400  0.50000000  0.54388600  1
  H  H12  1  0.94296500  0.15134400  0.59366500  1
  H  H13  1  0.94296500  0.84865600  0.59366500  1
  H  H14  1  0.44296500  0.34865600  0.40633500  1
  H  H15  1  0.44296500  0.65134400  0.40633500  1
  N  N16  1  0.93790700  0.00000000  0.52725700  1
  N  N17  1  0.43790700  0.50000000  0.47274300  1
  O  O18  1  0.36331200  0.00000000  0.80325700  1
  O  O19  1  0.86331200  0.50000000  0.19674300  1
  O  O20  1  0.81595800  0.00000000  0.16443900  1
  O  O21  1  0.31595800  0.50000000  0.83556100  1
  O  O22  1  0.35115500  0.21991000  0.11326700  1
  O  O23  1  0.35115500  0.78009000  0.11326700  1
  O  O24  1  0.85115500  0.28009000  0.88673300  1
  O  O25  1  0.85115500  0.71991000  0.88673300  1
  O  O26  1  0.43956300  0.00000000  0.36133500  1
  O  O27  1  0.93956300  0.50000000  0.63866500  1
