# generated using pymatgen
data_Li4V3Cr3(SnO8)2
_symmetry_space_group_name_H-M   'P 1'
_cell_length_a   5.94751500
_cell_length_b   5.98976856
_cell_length_c   9.77152756
_cell_angle_alpha   89.80318296
_cell_angle_beta   89.66324888
_cell_angle_gamma   60.32700680
_symmetry_Int_Tables_number   1
_chemical_formula_structural   Li4V3Cr3(SnO8)2
_chemical_formula_sum   'Li4 V3 Cr3 Sn2 O16'
_cell_volume   302.44941586
_cell_formula_units_Z   1
loop_
 _symmetry_equiv_pos_site_id
 _symmetry_equiv_pos_as_xyz
  1  'x, y, z'
loop_
 _atom_site_type_symbol
 _atom_site_label
 _atom_site_symmetry_multiplicity
 _atom_site_fract_x
 _atom_site_fract_y
 _atom_site_fract_z
 _atom_site_occupancy
  Li  Li0  1  0.67251800  0.66748700  0.10463600  1
  Li  Li1  1  0.99787300  0.99880700  0.00679900  1
  Li  Li2  1  0.99472500  0.00146200  0.50553700  1
  Li  Li3  1  0.33689100  0.33522500  0.60583000  1
  V  V4  1  0.65364000  0.17378600  0.28140300  1
  V  V5  1  0.82804500  0.82832700  0.78177200  1
  V  V6  1  0.17157400  0.65946000  0.28725700  1
  Cr  Cr7  1  0.83078500  0.33926900  0.78585300  1
  Cr  Cr8  1  0.33914800  0.83078600  0.78625000  1
  Cr  Cr9  1  0.16682700  0.17087300  0.28628200  1
  Sn  Sn10  1  0.66311700  0.66712900  0.50814500  1
  Sn  Sn11  1  0.33067600  0.33189500  0.00681500  1
  O  O12  1  0.83507800  0.32259700  0.40087900  1
  O  O13  1  0.51769900  0.51955200  0.66395400  1
  O  O14  1  0.67698000  0.67585800  0.89131800  1
  O  O15  1  0.99319400  0.99411500  0.69261400  1
  O  O16  1  0.98374600  0.00999700  0.19306400  1
  O  O17  1  0.31650800  0.83952500  0.40119500  1
  O  O18  1  0.96692700  0.52354800  0.66172300  1
  O  O19  1  0.52195500  0.96759000  0.66266700  1
  O  O20  1  0.15877400  0.15756800  0.90091500  1
  O  O21  1  0.83540200  0.84082800  0.39973200  1
  O  O22  1  0.48542700  0.03336100  0.16275100  1
  O  O23  1  0.03695500  0.48224100  0.16147800  1
  O  O24  1  0.35372900  0.31781300  0.39429200  1
  O  O25  1  0.67933100  0.15657000  0.89973100  1
  O  O26  1  0.49500500  0.47436000  0.15857700  1
  O  O27  1  0.15777000  0.67967200  0.90069600  1
