# generated using pymatgen
data_H4WNCl6
_symmetry_space_group_name_H-M   'P 1'
_cell_length_a   6.78917491
_cell_length_b   6.78917491
_cell_length_c   12.19932809
_cell_angle_alpha   80.26574738
_cell_angle_beta   80.26574738
_cell_angle_gamma   54.77057562
_symmetry_Int_Tables_number   1
_chemical_formula_structural   H4WNCl6
_chemical_formula_sum   'H8 W2 N2 Cl12'
_cell_volume   450.91192019
_cell_formula_units_Z   2
loop_
 _symmetry_equiv_pos_site_id
 _symmetry_equiv_pos_as_xyz
  1  'x, y, z'
loop_
 _atom_site_type_symbol
 _atom_site_label
 _atom_site_symmetry_multiplicity
 _atom_site_fract_x
 _atom_site_fract_y
 _atom_site_fract_z
 _atom_site_occupancy
  H  H0  1  0.98717600  0.99549300  0.32035300  1
  H  H1  1  0.11556100  0.74272200  0.25445400  1
  H  H2  1  0.99549300  0.98717600  0.82035300  1
  H  H3  1  0.74272200  0.11556100  0.75445400  1
  H  H4  1  0.25727800  0.88443900  0.24554600  1
  H  H5  1  0.00450700  0.01282400  0.17964700  1
  H  H6  1  0.88443900  0.25727800  0.74554600  1
  H  H7  1  0.01282400  0.00450700  0.67964700  1
  W  W8  1  0.00000000  0.50000000  0.00000000  1
  W  W9  1  0.50000000  0.00000000  0.50000000  1
  N  N10  1  0.09190200  0.90809800  0.25000000  1
  N  N11  1  0.90809800  0.09190200  0.75000000  1
  Cl  Cl12  1  0.52245200  0.31191400  0.39691600  1
  Cl  Cl13  1  0.31191400  0.52245200  0.89691600  1
  Cl  Cl14  1  0.79174500  0.90833000  0.03437500  1
  Cl  Cl15  1  0.19695300  0.37903300  0.16355000  1
  Cl  Cl16  1  0.62096700  0.80304700  0.33645000  1
  Cl  Cl17  1  0.90833000  0.79174500  0.53437500  1
  Cl  Cl18  1  0.09167000  0.20825500  0.46562500  1
  Cl  Cl19  1  0.37903300  0.19695300  0.66355000  1
  Cl  Cl20  1  0.80304700  0.62096700  0.83645000  1
  Cl  Cl21  1  0.20825500  0.09167000  0.96562500  1
  Cl  Cl22  1  0.68808600  0.47754800  0.10308400  1
  Cl  Cl23  1  0.47754800  0.68808600  0.60308400  1
