# generated using pymatgen
data_TlAsO4
_symmetry_space_group_name_H-M   'P 1'
_cell_length_a   6.89777133
_cell_length_b   6.89777133
_cell_length_c   6.89777133
_cell_angle_alpha   137.54173752
_cell_angle_beta   137.54173752
_cell_angle_gamma   61.60557864
_symmetry_Int_Tables_number   1
_chemical_formula_structural   TlAsO4
_chemical_formula_sum   'Tl2 As2 O8'
_cell_volume   147.84281607
_cell_formula_units_Z   2
loop_
 _symmetry_equiv_pos_site_id
 _symmetry_equiv_pos_as_xyz
  1  'x, y, z'
loop_
 _atom_site_type_symbol
 _atom_site_label
 _atom_site_symmetry_multiplicity
 _atom_site_fract_x
 _atom_site_fract_y
 _atom_site_fract_z
 _atom_site_occupancy
  Tl  Tl0  1  0.50000000  0.50000000  0.00000000  1
  Tl  Tl1  1  0.25000000  0.75000000  0.50000000  1
  As  As2  1  0.00000000  0.00000000  0.00000000  1
  As  As3  1  0.75000000  0.25000000  0.50000000  1
  O  O4  1  0.67181700  0.07859200  0.90559600  1
  O  O5  1  0.57700400  0.48377800  0.40559600  1
  O  O6  1  0.51622200  0.92181700  0.09322600  1
  O  O7  1  0.92140800  0.82700400  0.59322600  1
  O  O8  1  0.23377800  0.32818300  0.40677400  1
  O  O9  1  0.82859200  0.42299600  0.90677400  1
  O  O10  1  0.07818300  0.17140800  0.59440400  1
  O  O11  1  0.17299600  0.76622200  0.09440400  1
