# generated using pymatgen
data_Li2FeF6
_symmetry_space_group_name_H-M   'P 1'
_cell_length_a   4.76816300
_cell_length_b   4.76816300
_cell_length_c   8.87754100
_cell_angle_alpha   90.00000000
_cell_angle_beta   90.00000000
_cell_angle_gamma   90.00000000
_symmetry_Int_Tables_number   1
_chemical_formula_structural   Li2FeF6
_chemical_formula_sum   'Li4 Fe2 F12'
_cell_volume   201.83425385
_cell_formula_units_Z   2
loop_
 _symmetry_equiv_pos_site_id
 _symmetry_equiv_pos_as_xyz
  1  'x, y, z'
loop_
 _atom_site_type_symbol
 _atom_site_label
 _atom_site_symmetry_multiplicity
 _atom_site_fract_x
 _atom_site_fract_y
 _atom_site_fract_z
 _atom_site_occupancy
  Li  Li0  1  0.00000000  0.00000000  0.34631100  1
  Li  Li1  1  0.00000000  0.00000000  0.65368900  1
  Li  Li2  1  0.50000000  0.50000000  0.15368900  1
  Li  Li3  1  0.50000000  0.50000000  0.84631100  1
  Fe  Fe4  1  0.00000000  0.00000000  0.00000000  1
  Fe  Fe5  1  0.50000000  0.50000000  0.50000000  1
  F  F6  1  0.18493800  0.81506200  0.84673200  1
  F  F7  1  0.18493800  0.81506200  0.15326800  1
  F  F8  1  0.21129600  0.78870400  0.50000000  1
  F  F9  1  0.28870400  0.28870400  0.00000000  1
  F  F10  1  0.31506200  0.31506200  0.34673200  1
  F  F11  1  0.31506200  0.31506200  0.65326800  1
  F  F12  1  0.68493800  0.68493800  0.65326800  1
  F  F13  1  0.68493800  0.68493800  0.34673200  1
  F  F14  1  0.71129600  0.71129600  0.00000000  1
  F  F15  1  0.78870400  0.21129600  0.50000000  1
  F  F16  1  0.81506200  0.18493800  0.15326800  1
  F  F17  1  0.81506200  0.18493800  0.84673200  1
