# generated using pymatgen
data_Nb3CoS6
_symmetry_space_group_name_H-M   'P 1'
_cell_length_a   5.81605579
_cell_length_b   5.81605579
_cell_length_c   11.81201500
_cell_angle_alpha   90.00000000
_cell_angle_beta   90.00000000
_cell_angle_gamma   119.99999758
_symmetry_Int_Tables_number   1
_chemical_formula_structural   Nb3CoS6
_chemical_formula_sum   'Nb6 Co2 S12'
_cell_volume   346.02841167
_cell_formula_units_Z   2
loop_
 _symmetry_equiv_pos_site_id
 _symmetry_equiv_pos_as_xyz
  1  'x, y, z'
loop_
 _atom_site_type_symbol
 _atom_site_label
 _atom_site_symmetry_multiplicity
 _atom_site_fract_x
 _atom_site_fract_y
 _atom_site_fract_z
 _atom_site_occupancy
  Nb  Nb0  1  0.33333300  0.66666700  0.99722700  1
  Nb  Nb1  1  0.66666700  0.33333300  0.49722700  1
  Nb  Nb2  1  0.33333300  0.66666700  0.50277300  1
  Nb  Nb3  1  0.00000000  0.00000000  0.00000000  1
  Nb  Nb4  1  0.66666700  0.33333300  0.00277300  1
  Nb  Nb5  1  0.00000000  0.00000000  0.50000000  1
  Co  Co6  1  0.66666700  0.33333300  0.75000000  1
  Co  Co7  1  0.33333300  0.66666700  0.25000000  1
  S  S8  1  0.00274800  0.66806700  0.13287300  1
  S  S9  1  0.66806700  0.66531900  0.63287300  1
  S  S10  1  0.00274800  0.33468100  0.36712700  1
  S  S11  1  0.33193300  0.33468100  0.13287300  1
  S  S12  1  0.33468100  0.00274800  0.63287300  1
  S  S13  1  0.33468100  0.33193300  0.86712700  1
  S  S14  1  0.66531900  0.66806700  0.36712700  1
  S  S15  1  0.99725200  0.66531900  0.86712700  1
  S  S16  1  0.66806700  0.00274800  0.86712700  1
  S  S17  1  0.33193300  0.99725200  0.36712700  1
  S  S18  1  0.66531900  0.99725200  0.13287300  1
  S  S19  1  0.99725200  0.33193300  0.63287300  1
