# generated using pymatgen
data_MnAl2O4
_symmetry_space_group_name_H-M   'P 1'
_cell_length_a   5.87327673
_cell_length_b   5.87327600
_cell_length_c   5.87330179
_cell_angle_alpha   60.00014526
_cell_angle_beta   119.99985119
_cell_angle_gamma   90.00000000
_symmetry_Int_Tables_number   1
_chemical_formula_structural   MnAl2O4
_chemical_formula_sum   'Mn2 Al4 O8'
_cell_volume   143.26170763
_cell_formula_units_Z   2
loop_
 _symmetry_equiv_pos_site_id
 _symmetry_equiv_pos_as_xyz
  1  'x, y, z'
loop_
 _atom_site_type_symbol
 _atom_site_label
 _atom_site_symmetry_multiplicity
 _atom_site_fract_x
 _atom_site_fract_y
 _atom_site_fract_z
 _atom_site_occupancy
  Mn  Mn0  1  0.75000000  0.75000000  0.50000000  1
  Mn  Mn1  1  0.00000000  0.00000000  0.00000000  1
  Al  Al2  1  0.37500000  0.37500000  0.25000000  1
  Al  Al3  1  0.87500000  0.37500000  0.25000000  1
  Al  Al4  1  0.37500000  0.37500000  0.75000000  1
  Al  Al5  1  0.37500000  0.87500000  0.75000000  1
  O  O6  1  0.14170300  0.14169900  0.28340800  1
  O  O7  1  0.60829700  0.17510600  0.21659200  1
  O  O8  1  0.57489400  0.14170300  0.71659200  1
  O  O9  1  0.14169900  0.14170300  0.71659200  1
  O  O10  1  0.60829700  0.60830100  0.21659200  1
  O  O11  1  0.14170300  0.57489400  0.28340800  1
  O  O12  1  0.60830100  0.60829700  0.78340800  1
  O  O13  1  0.17510600  0.60829700  0.78340800  1
