# generated using pymatgen
data_Dy2Mn2O7
_symmetry_space_group_name_H-M   'P 1'
_cell_length_a   7.09597918
_cell_length_b   7.09597918
_cell_length_c   7.09597918
_cell_angle_alpha   60.00000000
_cell_angle_beta   60.00000000
_cell_angle_gamma   60.00000000
_symmetry_Int_Tables_number   1
_chemical_formula_structural   Dy2Mn2O7
_chemical_formula_sum   'Dy4 Mn4 O14'
_cell_volume   252.65156958
_cell_formula_units_Z   2
loop_
 _symmetry_equiv_pos_site_id
 _symmetry_equiv_pos_as_xyz
  1  'x, y, z'
loop_
 _atom_site_type_symbol
 _atom_site_label
 _atom_site_symmetry_multiplicity
 _atom_site_fract_x
 _atom_site_fract_y
 _atom_site_fract_z
 _atom_site_occupancy
  Dy  Dy0  1  0.12500000  0.62500000  0.12500000  1
  Dy  Dy1  1  0.12500000  0.12500000  0.62500000  1
  Dy  Dy2  1  0.62500000  0.12500000  0.12500000  1
  Dy  Dy3  1  0.12500000  0.12500000  0.12500000  1
  Mn  Mn4  1  0.62500000  0.62500000  0.62500000  1
  Mn  Mn5  1  0.12500000  0.62500000  0.62500000  1
  Mn  Mn6  1  0.62500000  0.62500000  0.12500000  1
  Mn  Mn7  1  0.62500000  0.12500000  0.62500000  1
  O  O8  1  0.29502300  0.70497700  0.70497700  1
  O  O9  1  0.54502300  0.95497700  0.95497700  1
  O  O10  1  0.70497700  0.70497700  0.29502300  1
  O  O11  1  0.29502300  0.29502300  0.70497700  1
  O  O12  1  0.00000000  0.00000000  0.00000000  1
  O  O13  1  0.70497700  0.29502300  0.70497700  1
  O  O14  1  0.29502300  0.70497700  0.29502300  1
  O  O15  1  0.95497700  0.54502300  0.95497700  1
  O  O16  1  0.54502300  0.54502300  0.95497700  1
  O  O17  1  0.95497700  0.95497700  0.54502300  1
  O  O18  1  0.25000000  0.25000000  0.25000000  1
  O  O19  1  0.54502300  0.95497700  0.54502300  1
  O  O20  1  0.70497700  0.29502300  0.29502300  1
  O  O21  1  0.95497700  0.54502300  0.54502300  1
