# generated using pymatgen
data_Rb5FeO4
_symmetry_space_group_name_H-M   'P 1'
_cell_length_a   7.11007700
_cell_length_b   12.19755300
_cell_length_c   21.62294200
_cell_angle_alpha   90.00000000
_cell_angle_beta   90.00000000
_cell_angle_gamma   90.00000000
_symmetry_Int_Tables_number   1
_chemical_formula_structural   Rb5FeO4
_chemical_formula_sum   'Rb40 Fe8 O32'
_cell_volume   1875.26134386
_cell_formula_units_Z   8
loop_
 _symmetry_equiv_pos_site_id
 _symmetry_equiv_pos_as_xyz
  1  'x, y, z'
loop_
 _atom_site_type_symbol
 _atom_site_label
 _atom_site_symmetry_multiplicity
 _atom_site_fract_x
 _atom_site_fract_y
 _atom_site_fract_z
 _atom_site_occupancy
  Rb  Rb0  1  0.91876300  0.93975000  0.43420700  1
  Rb  Rb1  1  0.58123700  0.93975000  0.93420700  1
  Rb  Rb2  1  0.39418700  0.91871600  0.74947200  1
  Rb  Rb3  1  0.10581300  0.91871600  0.24947200  1
  Rb  Rb4  1  0.42493900  0.85546600  0.50091300  1
  Rb  Rb5  1  0.07506100  0.85546600  0.00091300  1
  Rb  Rb6  1  0.90028000  0.82917500  0.82755700  1
  Rb  Rb7  1  0.59972000  0.82917500  0.32755700  1
  Rb  Rb8  1  0.43153100  0.79497300  0.13669600  1
  Rb  Rb9  1  0.06846900  0.79497300  0.63669600  1
  Rb  Rb10  1  0.93153100  0.70502700  0.13669600  1
  Rb  Rb11  1  0.56846900  0.70502700  0.63669600  1
  Rb  Rb12  1  0.09972000  0.67082500  0.32755700  1
  Rb  Rb13  1  0.40028000  0.67082500  0.82755700  1
  Rb  Rb14  1  0.57506100  0.64453400  0.00091300  1
  Rb  Rb15  1  0.92493900  0.64453400  0.50091300  1
  Rb  Rb16  1  0.60581300  0.58128400  0.24947200  1
  Rb  Rb17  1  0.89418700  0.58128400  0.74947200  1
  Rb  Rb18  1  0.08123700  0.56025000  0.93420700  1
  Rb  Rb19  1  0.41876300  0.56025000  0.43420700  1
  Rb  Rb20  1  0.91876300  0.43975000  0.06579300  1
  Rb  Rb21  1  0.58123700  0.43975000  0.56579300  1
  Rb  Rb22  1  0.39418700  0.41871600  0.75052800  1
  Rb  Rb23  1  0.10581300  0.41871600  0.25052800  1
  Rb  Rb24  1  0.42493900  0.35546600  0.99908700  1
  Rb  Rb25  1  0.07506100  0.35546600  0.49908700  1
  Rb  Rb26  1  0.90028000  0.32917500  0.67244300  1
  Rb  Rb27  1  0.59972000  0.32917500  0.17244300  1
  Rb  Rb28  1  0.06846900  0.29497300  0.86330400  1
  Rb  Rb29  1  0.43153100  0.29497300  0.36330400  1
  Rb  Rb30  1  0.93153100  0.20502700  0.36330400  1
  Rb  Rb31  1  0.56846900  0.20502700  0.86330400  1
  Rb  Rb32  1  0.40028000  0.17082500  0.67244300  1
  Rb  Rb33  1  0.09972000  0.17082500  0.17244300  1
  Rb  Rb34  1  0.57506100  0.14453400  0.49908700  1
  Rb  Rb35  1  0.92493900  0.14453400  0.99908700  1
  Rb  Rb36  1  0.89418700  0.08128400  0.75052800  1
  Rb  Rb37  1  0.60581300  0.08128400  0.25052800  1
  Rb  Rb38  1  0.08123700  0.06025000  0.56579300  1
  Rb  Rb39  1  0.41876300  0.06025000  0.06579300  1
  Fe  Fe40  1  0.82202200  0.96509100  0.12477700  1
  Fe  Fe41  1  0.67797800  0.96509100  0.62477700  1
  Fe  Fe42  1  0.32202200  0.53490900  0.12477700  1
  Fe  Fe43  1  0.17797800  0.53490900  0.62477700  1
  Fe  Fe44  1  0.67797800  0.46509100  0.87522300  1
  Fe  Fe45  1  0.82202200  0.46509100  0.37522300  1
  Fe  Fe46  1  0.32202200  0.03490900  0.37522300  1
  Fe  Fe47  1  0.17797800  0.03490900  0.87522300  1
  O  O48  1  0.09520500  0.95712800  0.11803000  1
  O  O49  1  0.40479500  0.95712800  0.61803000  1
  O  O50  1  0.74278800  0.89091200  0.19985900  1
  O  O51  1  0.75721200  0.89091200  0.69985900  1
  O  O52  1  0.71011600  0.89029800  0.05417300  1
  O  O53  1  0.78988400  0.89029800  0.55417300  1
  O  O54  1  0.24883700  0.88212700  0.37283600  1
  O  O55  1  0.25116300  0.88212700  0.87283600  1
  O  O56  1  0.75116300  0.61787300  0.87283600  1
  O  O57  1  0.74883700  0.61787300  0.37283600  1
  O  O58  1  0.21011600  0.60970200  0.05417300  1
  O  O59  1  0.28988400  0.60970200  0.55417300  1
  O  O60  1  0.25721200  0.60908800  0.69985900  1
  O  O61  1  0.24278800  0.60908800  0.19985900  1
  O  O62  1  0.59520500  0.54287200  0.11803000  1
  O  O63  1  0.90479500  0.54287200  0.61803000  1
  O  O64  1  0.40479500  0.45712800  0.88197000  1
  O  O65  1  0.09520500  0.45712800  0.38197000  1
  O  O66  1  0.75721200  0.39091200  0.80014100  1
  O  O67  1  0.74278800  0.39091200  0.30014100  1
  O  O68  1  0.78988400  0.39029800  0.94582700  1
  O  O69  1  0.71011600  0.39029800  0.44582700  1
  O  O70  1  0.24883700  0.38212700  0.12716400  1
  O  O71  1  0.25116300  0.38212700  0.62716400  1
  O  O72  1  0.75116300  0.11787300  0.62716400  1
  O  O73  1  0.74883700  0.11787300  0.12716400  1
  O  O74  1  0.21011600  0.10970200  0.44582700  1
  O  O75  1  0.28988400  0.10970200  0.94582700  1
  O  O76  1  0.25721200  0.10908800  0.80014100  1
  O  O77  1  0.24278800  0.10908800  0.30014100  1
  O  O78  1  0.59520500  0.04287200  0.38197000  1
  O  O79  1  0.90479500  0.04287200  0.88197000  1
