# generated using pymatgen
data_BeH8(NO5)2
_symmetry_space_group_name_H-M   'P 1'
_cell_length_a   8.86449396
_cell_length_b   8.86449396
_cell_length_c   8.86449396
_cell_angle_alpha   97.24952020
_cell_angle_beta   97.24952020
_cell_angle_gamma   138.38451916
_symmetry_Int_Tables_number   1
_chemical_formula_structural   BeH8(NO5)2
_chemical_formula_sum   'Be2 H16 N4 O20'
_cell_volume   432.43628887
_cell_formula_units_Z   2
loop_
 _symmetry_equiv_pos_site_id
 _symmetry_equiv_pos_as_xyz
  1  'x, y, z'
loop_
 _atom_site_type_symbol
 _atom_site_label
 _atom_site_symmetry_multiplicity
 _atom_site_fract_x
 _atom_site_fract_y
 _atom_site_fract_z
 _atom_site_occupancy
  Be  Be0  1  0.75000000  0.25000000  0.50000000  1
  Be  Be1  1  0.50000000  0.50000000  0.00000000  1
  H  H2  1  0.22386400  0.46866400  0.03562700  1
  H  H3  1  0.02613600  0.56176200  0.74479900  1
  H  H4  1  0.43303700  0.18823800  0.96437300  1
  H  H5  1  0.81696300  0.28133600  0.25520100  1
  H  H6  1  0.53133600  0.56696300  0.75520100  1
  H  H7  1  0.71866400  0.97386400  0.53562700  1
  H  H8  1  0.81176200  0.77613600  0.24479900  1
  H  H9  1  0.43823800  0.18303700  0.46437300  1
  H  H10  1  0.35654600  0.96470300  0.33436600  1
  H  H11  1  0.89345400  0.72782100  0.10815700  1
  H  H12  1  0.63033700  0.02217900  0.66563400  1
  H  H13  1  0.61966300  0.78529700  0.89184300  1
  H  H14  1  0.03529700  0.36966300  0.39184300  1
  H  H15  1  0.21470300  0.10654600  0.83436600  1
  H  H16  1  0.97782100  0.64345400  0.60815700  1
  H  H17  1  0.27217900  0.38033700  0.16563400  1
  N  N18  1  0.12500000  0.67786300  0.05286300  1
  N  N19  1  0.62500000  0.07213700  0.94713700  1
  N  N20  1  0.32213700  0.37500000  0.44713700  1
  N  N21  1  0.92786300  0.87500000  0.55286300  1
  O  O22  1  0.12500000  0.56874700  0.94374700  1
  O  O23  1  0.62500000  0.18125300  0.05625300  1
  O  O24  1  0.43125300  0.37500000  0.55625300  1
  O  O25  1  0.81874700  0.87500000  0.44374700  1
  O  O26  1  0.18650400  0.69928200  0.19772300  1
  O  O27  1  0.06349600  0.76121900  0.01277800  1
  O  O28  1  0.50155900  0.98878100  0.80227700  1
  O  O29  1  0.74844100  0.05071800  0.98722200  1
  O  O30  1  0.30071800  0.49844100  0.48722200  1
  O  O31  1  0.94928200  0.93650400  0.69772300  1
  O  O32  1  0.01121900  0.81349600  0.51277800  1
  O  O33  1  0.23878100  0.25155900  0.30227700  1
  O  O34  1  0.32868700  0.46661600  0.08491300  1
  O  O35  1  0.92131300  0.50622600  0.63792900  1
  O  O36  1  0.38170400  0.24377400  0.91508700  1
  O  O37  1  0.86829600  0.28338400  0.36207100  1
  O  O38  1  0.53338400  0.61829600  0.86207100  1
  O  O39  1  0.71661600  0.07868700  0.58491200  1
  O  O40  1  0.75622600  0.67131300  0.13792900  1
  O  O41  1  0.49377400  0.13170400  0.41508800  1
