# generated using pymatgen
data_PH4NO3
_symmetry_space_group_name_H-M   'P 1'
_cell_length_a   7.60316847
_cell_length_b   7.60316847
_cell_length_c   12.76868700
_cell_angle_alpha   90.00000000
_cell_angle_beta   90.00000000
_cell_angle_gamma   91.90768385
_symmetry_Int_Tables_number   1
_chemical_formula_structural   PH4NO3
_chemical_formula_sum   'P8 H32 N8 O24'
_cell_volume   737.72533575
_cell_formula_units_Z   8
loop_
 _symmetry_equiv_pos_site_id
 _symmetry_equiv_pos_as_xyz
  1  'x, y, z'
loop_
 _atom_site_type_symbol
 _atom_site_label
 _atom_site_symmetry_multiplicity
 _atom_site_fract_x
 _atom_site_fract_y
 _atom_site_fract_z
 _atom_site_occupancy
  P  P0  1  0.53350900  0.46649100  0.65027200  1
  P  P1  1  0.46649100  0.53350900  0.34972800  1
  P  P2  1  0.96649100  0.03350900  0.15027200  1
  P  P3  1  0.03350900  0.96649100  0.84972800  1
  P  P4  1  0.28873300  0.28873300  0.50000000  1
  P  P5  1  0.78873300  0.78873300  0.00000000  1
  P  P6  1  0.71126700  0.71126700  0.50000000  1
  P  P7  1  0.21126700  0.21126700  0.00000000  1
  H  H8  1  0.87390700  0.12609300  0.38767300  1
  H  H9  1  0.12609300  0.87390700  0.61232700  1
  H  H10  1  0.62609300  0.37390700  0.88767300  1
  H  H11  1  0.37390700  0.62609300  0.11232700  1
  H  H12  1  0.73243900  0.26756100  0.43324000  1
  H  H13  1  0.26756100  0.73243900  0.56676000  1
  H  H14  1  0.76756100  0.23243900  0.93324000  1
  H  H15  1  0.23243900  0.76756100  0.06676000  1
  H  H16  1  0.76392100  0.07407000  0.49997100  1
  H  H17  1  0.07407000  0.76392100  0.50002900  1
  H  H18  1  0.57407000  0.26392100  0.99997100  1
  H  H19  1  0.26392100  0.57407000  0.00002900  1
  H  H20  1  0.23607900  0.92593000  0.50002900  1
  H  H21  1  0.92593000  0.23607900  0.49997100  1
  H  H22  1  0.42593000  0.73607900  0.00002900  1
  H  H23  1  0.73607900  0.42593000  0.99997100  1
  H  H24  1  0.39068400  0.94794500  0.74858100  1
  H  H25  1  0.94794500  0.39068400  0.25141900  1
  H  H26  1  0.44794500  0.89068400  0.24858100  1
  H  H27  1  0.89068400  0.44794500  0.75141900  1
  H  H28  1  0.60931600  0.05205500  0.25141900  1
  H  H29  1  0.05205500  0.60931600  0.74858100  1
  H  H30  1  0.55205500  0.10931600  0.75141900  1
  H  H31  1  0.10931600  0.55205500  0.24858100  1
  H  H32  1  0.58332100  0.92354500  0.68265400  1
  H  H33  1  0.92354500  0.58332100  0.31734600  1
  H  H34  1  0.42354500  0.08332100  0.18265400  1
  H  H35  1  0.08332100  0.42354500  0.81734600  1
  H  H36  1  0.41667900  0.07645500  0.31734600  1
  H  H37  1  0.07645500  0.41667900  0.68265400  1
  H  H38  1  0.57645500  0.91667900  0.81734600  1
  H  H39  1  0.91667900  0.57645500  0.18265400  1
  N  N40  1  0.52498900  0.97501100  0.75000000  1
  N  N41  1  0.97501100  0.52498900  0.25000000  1
  N  N42  1  0.47501100  0.02498900  0.25000000  1
  N  N43  1  0.02498900  0.47501100  0.75000000  1
  N  N44  1  0.82353400  0.17646600  0.45661900  1
  N  N45  1  0.17646600  0.82353400  0.54338100  1
  N  N46  1  0.67646600  0.32353400  0.95661900  1
  N  N47  1  0.32353400  0.67646600  0.04338100  1
  O  O48  1  0.39760100  0.60239900  0.66285000  1
  O  O49  1  0.60239900  0.39760100  0.33715000  1
  O  O50  1  0.10239900  0.89760100  0.16285000  1
  O  O51  1  0.89760100  0.10239900  0.83715000  1
  O  O52  1  0.62002100  0.37997900  0.74157200  1
  O  O53  1  0.37997900  0.62002100  0.25842800  1
  O  O54  1  0.87997900  0.12002100  0.24157200  1
  O  O55  1  0.12002100  0.87997900  0.75842800  1
  O  O56  1  0.12381900  0.30793900  0.56342800  1
  O  O57  1  0.30793900  0.12381900  0.43657200  1
  O  O58  1  0.80793900  0.62381900  0.06342800  1
  O  O59  1  0.62381900  0.80793900  0.93657200  1
  O  O60  1  0.87618100  0.69206100  0.43657200  1
  O  O61  1  0.69206100  0.87618100  0.56342800  1
  O  O62  1  0.19206100  0.37618100  0.93657200  1
  O  O63  1  0.37618100  0.19206100  0.06342800  1
  O  O64  1  0.46026100  0.30409200  0.57564600  1
  O  O65  1  0.30409200  0.46026100  0.42435400  1
  O  O66  1  0.80409200  0.96026100  0.07564600  1
  O  O67  1  0.96026100  0.80409200  0.92435400  1
  O  O68  1  0.53973900  0.69590800  0.42435400  1
  O  O69  1  0.69590800  0.53973900  0.57564600  1
  O  O70  1  0.19590800  0.03973900  0.92435400  1
  O  O71  1  0.03973900  0.19590800  0.07564600  1
