# generated using pymatgen
data_LiMnO2
_symmetry_space_group_name_H-M   'P 1'
_cell_length_a   3.10737297
_cell_length_b   5.08584203
_cell_length_c   5.12107447
_cell_angle_alpha   106.00503957
_cell_angle_beta   86.70487350
_cell_angle_gamma   84.84339280
_symmetry_Int_Tables_number   1
_chemical_formula_structural   LiMnO2
_chemical_formula_sum   'Li2 Mn2 O4'
_cell_volume   77.19293841
_cell_formula_units_Z   2
loop_
 _symmetry_equiv_pos_site_id
 _symmetry_equiv_pos_as_xyz
  1  'x, y, z'
loop_
 _atom_site_type_symbol
 _atom_site_label
 _atom_site_symmetry_multiplicity
 _atom_site_fract_x
 _atom_site_fract_y
 _atom_site_fract_z
 _atom_site_occupancy
  Li  Li0  1  0.99999900  0.49999900  0.50000000  1
  Li  Li1  1  0.49999900  0.99999900  0.50000000  1
  Mn  Mn2  1  0.50000000  0.50000200  0.00000000  1
  Mn  Mn3  1  0.00000300  0.00000100  0.00000100  1
  O  O4  1  0.52453700  0.25221500  0.23173000  1
  O  O5  1  0.02453600  0.75221400  0.23173300  1
  O  O6  1  0.47546300  0.74778400  0.76826900  1
  O  O7  1  0.97546300  0.24778500  0.76826600  1
