# generated using pymatgen
data_LaOF
_symmetry_space_group_name_H-M   'P 1'
_cell_length_a   4.09177100
_cell_length_b   4.09177100
_cell_length_c   5.85720600
_cell_angle_alpha   90.00000000
_cell_angle_beta   90.00000000
_cell_angle_gamma   90.00000000
_symmetry_Int_Tables_number   1
_chemical_formula_structural   LaOF
_chemical_formula_sum   'La2 O2 F2'
_cell_volume   98.06479811
_cell_formula_units_Z   2
loop_
 _symmetry_equiv_pos_site_id
 _symmetry_equiv_pos_as_xyz
  1  'x, y, z'
loop_
 _atom_site_type_symbol
 _atom_site_label
 _atom_site_symmetry_multiplicity
 _atom_site_fract_x
 _atom_site_fract_y
 _atom_site_fract_z
 _atom_site_occupancy
  La  La0  1  0.50000000  0.00000000  0.71426800  1
  La  La1  1  0.00000000  0.50000000  0.28573200  1
  O  O2  1  0.00000000  0.00000000  0.50000000  1
  O  O3  1  0.50000000  0.50000000  0.50000000  1
  F  F4  1  0.50000000  0.50000000  0.00000000  1
  F  F5  1  0.00000000  0.00000000  0.00000000  1
