# generated using pymatgen
data_K6BiH3(Cl2F)4
_symmetry_space_group_name_H-M   'P 1'
_cell_length_a   9.25259584
_cell_length_b   9.25259584
_cell_length_c   14.66797600
_cell_angle_alpha   90.00000000
_cell_angle_beta   90.00000000
_cell_angle_gamma   119.99999884
_symmetry_Int_Tables_number   1
_chemical_formula_structural   K6BiH3(Cl2F)4
_chemical_formula_sum   'K12 Bi2 H6 Cl16 F8'
_cell_volume   1087.49686047
_cell_formula_units_Z   2
loop_
 _symmetry_equiv_pos_site_id
 _symmetry_equiv_pos_as_xyz
  1  'x, y, z'
loop_
 _atom_site_type_symbol
 _atom_site_label
 _atom_site_symmetry_multiplicity
 _atom_site_fract_x
 _atom_site_fract_y
 _atom_site_fract_z
 _atom_site_occupancy
  K  K0  1  0.50000000  0.50000000  0.50000000  1
  K  K1  1  0.50000000  0.00000000  0.50000000  1
  K  K2  1  0.00000000  0.50000000  0.50000000  1
  K  K3  1  0.50000000  0.50000000  0.00000000  1
  K  K4  1  0.50000000  0.00000000  0.00000000  1
  K  K5  1  0.00000000  0.50000000  0.00000000  1
  K  K6  1  0.17890400  0.35780800  0.25000000  1
  K  K7  1  0.64219200  0.82109600  0.25000000  1
  K  K8  1  0.17890400  0.82109600  0.25000000  1
  K  K9  1  0.82109600  0.64219200  0.75000000  1
  K  K10  1  0.35780800  0.17890400  0.75000000  1
  K  K11  1  0.82109600  0.17890400  0.75000000  1
  Bi  Bi12  1  0.00000000  0.00000000  0.50000000  1
  Bi  Bi13  1  0.00000000  0.00000000  0.00000000  1
  H  H14  1  0.42169500  0.84339100  0.75000000  1
  H  H15  1  0.15660900  0.57830500  0.75000000  1
  H  H16  1  0.42169500  0.57830500  0.75000000  1
  H  H17  1  0.57830500  0.15660900  0.25000000  1
  H  H18  1  0.84339100  0.42169500  0.25000000  1
  H  H19  1  0.57830500  0.42169500  0.25000000  1
  Cl  Cl20  1  0.13989200  0.86010800  0.89264500  1
  Cl  Cl21  1  0.13989200  0.27978300  0.89264500  1
  Cl  Cl22  1  0.72021700  0.86010800  0.89264500  1
  Cl  Cl23  1  0.86010800  0.13989200  0.10735500  1
  Cl  Cl24  1  0.86010800  0.72021700  0.10735500  1
  Cl  Cl25  1  0.27978300  0.13989200  0.10735500  1
  Cl  Cl26  1  0.86010800  0.13989200  0.39264500  1
  Cl  Cl27  1  0.86010800  0.72021700  0.39264500  1
  Cl  Cl28  1  0.27978300  0.13989200  0.39264500  1
  Cl  Cl29  1  0.13989200  0.86010800  0.60735500  1
  Cl  Cl30  1  0.13989200  0.27978300  0.60735500  1
  Cl  Cl31  1  0.72021700  0.86010800  0.60735500  1
  Cl  Cl32  1  0.33333300  0.66666700  0.10651000  1
  Cl  Cl33  1  0.66666700  0.33333300  0.89349000  1
  Cl  Cl34  1  0.66666700  0.33333300  0.60651000  1
  Cl  Cl35  1  0.33333300  0.66666700  0.39349000  1
  F  F36  1  0.33333300  0.66666700  0.75000000  1
  F  F37  1  0.66666700  0.33333300  0.25000000  1
  F  F38  1  0.48439200  0.96878500  0.75000000  1
  F  F39  1  0.03121500  0.51560800  0.75000000  1
  F  F40  1  0.48439200  0.51560800  0.75000000  1
  F  F41  1  0.51560800  0.03121500  0.25000000  1
  F  F42  1  0.96878500  0.48439200  0.25000000  1
  F  F43  1  0.51560800  0.48439200  0.25000000  1
