# generated using pymatgen
data_Na6Co2C4SO16
_symmetry_space_group_name_H-M   'P 1'
_cell_length_a   9.88670479
_cell_length_b   9.88670479
_cell_length_c   9.88670479
_cell_angle_alpha   60.00000000
_cell_angle_beta   60.00000000
_cell_angle_gamma   60.00000000
_symmetry_Int_Tables_number   1
_chemical_formula_structural   Na6Co2C4SO16
_chemical_formula_sum   'Na12 Co4 C8 S2 O32'
_cell_volume   683.34449787
_cell_formula_units_Z   2
loop_
 _symmetry_equiv_pos_site_id
 _symmetry_equiv_pos_as_xyz
  1  'x, y, z'
loop_
 _atom_site_type_symbol
 _atom_site_label
 _atom_site_symmetry_multiplicity
 _atom_site_fract_x
 _atom_site_fract_y
 _atom_site_fract_z
 _atom_site_occupancy
  Na  Na0  1  0.28436300  0.71563700  0.28436300  1
  Na  Na1  1  0.71563700  0.28436300  0.28436300  1
  Na  Na2  1  0.71563700  0.71563700  0.28436300  1
  Na  Na3  1  0.53436300  0.96563700  0.53436300  1
  Na  Na4  1  0.28436300  0.28436300  0.71563700  1
  Na  Na5  1  0.28436300  0.71563700  0.71563700  1
  Na  Na6  1  0.96563700  0.96563700  0.53436300  1
  Na  Na7  1  0.96563700  0.53436300  0.53436300  1
  Na  Na8  1  0.71563700  0.28436300  0.71563700  1
  Na  Na9  1  0.53436300  0.96563700  0.96563700  1
  Na  Na10  1  0.53436300  0.53436300  0.96563700  1
  Na  Na11  1  0.96563700  0.53436300  0.96563700  1
  Co  Co12  1  0.12500000  0.62500000  0.12500000  1
  Co  Co13  1  0.12500000  0.12500000  0.12500000  1
  Co  Co14  1  0.62500000  0.12500000  0.12500000  1
  Co  Co15  1  0.12500000  0.12500000  0.62500000  1
  C  C16  1  0.90577800  0.90577800  0.28266500  1
  C  C17  1  0.34422200  0.96733500  0.34422200  1
  C  C18  1  0.34422200  0.34422200  0.34422200  1
  C  C19  1  0.96733500  0.34422200  0.34422200  1
  C  C20  1  0.28266500  0.90577800  0.90577800  1
  C  C21  1  0.90577800  0.28266500  0.90577800  1
  C  C22  1  0.90577800  0.90577800  0.90577800  1
  C  C23  1  0.34422200  0.34422200  0.96733500  1
  S  S24  1  0.75000000  0.75000000  0.75000000  1
  S  S25  1  0.50000000  0.50000000  0.50000000  1
  O  O26  1  0.02486900  0.92653300  0.28454800  1
  O  O27  1  0.92653300  0.76405000  0.28454800  1
  O  O28  1  0.76405000  0.02486900  0.28454800  1
  O  O29  1  0.48595000  0.32346700  0.22513100  1
  O  O30  1  0.93553500  0.68815500  0.68815500  1
  O  O31  1  0.48595000  0.96545200  0.32346700  1
  O  O32  1  0.32346700  0.96545200  0.22513100  1
  O  O33  1  0.68815500  0.93553500  0.68815500  1
  O  O34  1  0.68815500  0.68815500  0.68815500  1
  O  O35  1  0.22513100  0.48595000  0.32346700  1
  O  O36  1  0.32346700  0.22513100  0.48595000  1
  O  O37  1  0.68815500  0.68815500  0.93553500  1
  O  O38  1  0.96545200  0.48595000  0.22513100  1
  O  O39  1  0.22513100  0.96545200  0.48595000  1
  O  O40  1  0.96545200  0.22513100  0.32346700  1
  O  O41  1  0.28454800  0.92653300  0.76405000  1
  O  O42  1  0.96545200  0.32346700  0.48595000  1
  O  O43  1  0.28454800  0.02486900  0.92653300  1
  O  O44  1  0.02486900  0.28454800  0.76405000  1
  O  O45  1  0.28454800  0.76405000  0.02486900  1
  O  O46  1  0.56184500  0.56184500  0.31446500  1
  O  O47  1  0.92653300  0.02486900  0.76405000  1
  O  O48  1  0.02486900  0.76405000  0.92653300  1
  O  O49  1  0.56184500  0.56184500  0.56184500  1
  O  O50  1  0.56184500  0.31446500  0.56184500  1
  O  O51  1  0.92653300  0.28454800  0.02486900  1
  O  O52  1  0.76405000  0.28454800  0.92653300  1
  O  O53  1  0.31446500  0.56184500  0.56184500  1
  O  O54  1  0.76405000  0.92653300  0.02486900  1
  O  O55  1  0.48595000  0.22513100  0.96545200  1
  O  O56  1  0.32346700  0.48595000  0.96545200  1
  O  O57  1  0.22513100  0.32346700  0.96545200  1
