# generated using pymatgen
data_Ba9Rh8O27
_symmetry_space_group_name_H-M   'P 1'
_cell_length_a   10.12457000
_cell_length_b   10.12619523
_cell_length_c   15.22604062
_cell_angle_alpha   77.47906810
_cell_angle_beta   83.45982487
_cell_angle_gamma   60.27875076
_symmetry_Int_Tables_number   1
_chemical_formula_structural   Ba9Rh8O27
_chemical_formula_sum   'Ba18 Rh16 O54'
_cell_volume   1323.38865949
_cell_formula_units_Z   2
loop_
 _symmetry_equiv_pos_site_id
 _symmetry_equiv_pos_as_xyz
  1  'x, y, z'
loop_
 _atom_site_type_symbol
 _atom_site_label
 _atom_site_symmetry_multiplicity
 _atom_site_fract_x
 _atom_site_fract_y
 _atom_site_fract_z
 _atom_site_occupancy
  Ba  Ba0  1  0.01645800  0.74925900  0.75998000  1
  Ba  Ba1  1  0.32216900  0.98545200  0.07805000  1
  Ba  Ba2  1  0.33883200  0.68609700  0.92679900  1
  Ba  Ba3  1  0.00839100  0.34786900  0.92058100  1
  Ba  Ba4  1  0.64900700  0.95375900  0.25912900  1
  Ba  Ba5  1  0.33206300  0.58333300  0.25483200  1
  Ba  Ba6  1  0.67357200  0.80405400  0.57519000  1
  Ba  Ba7  1  0.34058000  0.46537800  0.58127100  1
  Ba  Ba8  1  0.00567100  0.12597900  0.59140800  1
  Ba  Ba9  1  0.65932900  0.53087300  0.41890800  1
  Ba  Ba10  1  0.32723100  0.20173100  0.42108400  1
  Ba  Ba11  1  0.99137800  0.87046400  0.41654700  1
  Ba  Ba12  1  0.70601100  0.37368700  0.76175800  1
  Ba  Ba13  1  0.32946200  0.06422400  0.75884900  1
  Ba  Ba14  1  0.66123400  0.30923700  0.09004100  1
  Ba  Ba15  1  0.98856600  0.65213500  0.07735900  1
  Ba  Ba16  1  0.67772100  0.01839100  0.91936800  1
  Ba  Ba17  1  0.96024200  0.26409200  0.26071300  1
  Rh  Rh18  1  0.00498000  0.99891500  0.98698400  1
  Rh  Rh19  1  0.31287000  0.91387300  0.32105800  1
  Rh  Rh20  1  0.33382600  0.83211400  0.49972700  1
  Rh  Rh21  1  0.99965200  0.50171800  0.49901900  1
  Rh  Rh22  1  0.36449700  0.74376500  0.67650900  1
  Rh  Rh23  1  0.01782900  0.42900100  0.67545000  1
  Rh  Rh24  1  0.33260200  0.33303600  0.99973100  1
  Rh  Rh25  1  0.66618000  0.66997100  0.99885400  1
  Rh  Rh26  1  0.68597100  0.70804300  0.81862900  1
  Rh  Rh27  1  0.35353800  0.37300200  0.82052800  1
  Rh  Rh28  1  0.98796200  0.95412000  0.17397600  1
  Rh  Rh29  1  0.30515400  0.29423900  0.17700000  1
  Rh  Rh30  1  0.64703300  0.63615200  0.17608500  1
  Rh  Rh31  1  0.97993100  0.57975200  0.32013600  1
  Rh  Rh32  1  0.66383200  0.17254400  0.48841800  1
  Rh  Rh33  1  0.67828700  0.09005200  0.67461100  1
  O  O34  1  0.00703000  0.85255100  0.92599500  1
  O  O35  1  0.22436300  0.85569200  0.76296700  1
  O  O36  1  0.13679700  0.94411800  0.25498800  1
  O  O37  1  0.00912700  0.62043700  0.58652200  1
  O  O38  1  0.34692600  0.93917900  0.59526700  1
  O  O39  1  0.19491800  0.78850900  0.59571900  1
  O  O40  1  0.14811600  0.82282300  0.08678100  1
  O  O41  1  0.52388700  0.84026400  0.89978200  1
  O  O42  1  0.19452000  0.50841800  0.90107600  1
  O  O43  1  0.47299500  0.87704900  0.40404400  1
  O  O44  1  0.14374100  0.53861900  0.40364700  1
  O  O45  1  0.32544900  0.72249500  0.40384600  1
  O  O46  1  0.69948400  0.88204800  0.73537000  1
  O  O47  1  0.20617500  0.38746500  0.73616700  1
  O  O48  1  0.02327300  0.24408600  0.74487400  1
  O  O49  1  0.55474000  0.69869000  0.73426900  1
  O  O50  1  0.38697400  0.53676400  0.73709300  1
  O  O51  1  0.46084700  0.80045100  0.22953500  1
  O  O52  1  0.12017200  0.46102000  0.22872600  1
  O  O53  1  0.82040000  0.98630800  0.57682200  1
  O  O54  1  0.50018100  0.64291900  0.57089400  1
  O  O55  1  0.15906000  0.31254400  0.57789700  1
  O  O56  1  0.16630900  0.31581400  0.07772700  1
  O  O57  1  0.84812200  0.97479000  0.08244600  1
  O  O58  1  0.65796800  0.80936500  0.07739200  1
  O  O59  1  0.32397500  0.46520900  0.08503000  1
  O  O60  1  0.50625100  0.64837200  0.08398300  1
  O  O61  1  0.33910000  0.20245600  0.91323400  1
  O  O62  1  0.82493200  0.69256200  0.91241600  1
  O  O63  1  0.67568500  0.53621400  0.91278600  1
  O  O64  1  0.49546700  0.35121600  0.91409200  1
  O  O65  1  0.17248900  0.01612300  0.92677800  1
  O  O66  1  0.17128800  0.01876000  0.42192900  1
  O  O67  1  0.84127200  0.68917000  0.41934200  1
  O  O68  1  0.49806100  0.36000700  0.43179900  1
  O  O69  1  0.52533000  0.20111800  0.76442700  1
  O  O70  1  0.88160600  0.54829300  0.76751700  1
  O  O71  1  0.78327700  0.63626200  0.26095600  1
  O  O72  1  0.97377300  0.77689000  0.25424400  1
  O  O73  1  0.44923700  0.27705000  0.25592800  1
  O  O74  1  0.27705200  0.12873100  0.26133900  1
  O  O75  1  0.63887900  0.46397400  0.25390200  1
  O  O76  1  0.66823900  0.27775700  0.59280800  1
  O  O77  1  0.51948800  0.12980200  0.58448300  1
  O  O78  1  0.85640600  0.46423000  0.59355800  1
  O  O79  1  0.80814000  0.49855100  0.09717000  1
  O  O80  1  0.47039500  0.15885100  0.09841200  1
  O  O81  1  0.84406100  0.18033700  0.92367800  1
  O  O82  1  0.98814800  0.39274300  0.40356900  1
  O  O83  1  0.66131500  0.03543400  0.42122900  1
  O  O84  1  0.82436300  0.20006500  0.42655400  1
  O  O85  1  0.84378800  0.06243700  0.74086300  1
  O  O86  1  0.82006600  0.10154000  0.23572900  1
  O  O87  1  0.99750000  0.12439100  0.08235500  1
