# generated using pymatgen
data_Na7AlH2C4(O3F)4
_symmetry_space_group_name_H-M   'P 1'
_cell_length_a   6.54311600
_cell_length_b   6.76234834
_cell_length_c   8.91758590
_cell_angle_alpha   80.39139147
_cell_angle_beta   82.65973746
_cell_angle_gamma   61.55583374
_symmetry_Int_Tables_number   1
_chemical_formula_structural   Na7AlH2C4(O3F)4
_chemical_formula_sum   'Na7 Al1 H2 C4 O12 F4'
_cell_volume   341.54482671
_cell_formula_units_Z   1
loop_
 _symmetry_equiv_pos_site_id
 _symmetry_equiv_pos_as_xyz
  1  'x, y, z'
loop_
 _atom_site_type_symbol
 _atom_site_label
 _atom_site_symmetry_multiplicity
 _atom_site_fract_x
 _atom_site_fract_y
 _atom_site_fract_z
 _atom_site_occupancy
  Na  Na0  1  0.00000000  0.00000000  0.00000000  1
  Na  Na1  1  0.00000000  0.50000000  0.00000000  1
  Na  Na2  1  0.50000000  0.00000000  0.00000000  1
  Na  Na3  1  0.33986400  0.38512500  0.64192900  1
  Na  Na4  1  0.66013600  0.61487500  0.35807100  1
  Na  Na5  1  0.65716300  0.11947700  0.35506900  1
  Na  Na6  1  0.34283700  0.88052300  0.64493100  1
  Al  Al7  1  0.50000000  0.50000000  0.00000000  1
  H  H8  1  0.99683900  0.22777400  0.49049500  1
  H  H9  1  0.00316100  0.77222600  0.50950500  1
  C  C10  1  0.17576000  0.11109400  0.29851900  1
  C  C11  1  0.82424000  0.88890600  0.70148100  1
  C  C12  1  0.81527100  0.38703700  0.71474200  1
  C  C13  1  0.18472900  0.61296300  0.28525800  1
  O  O14  1  0.35754900  0.99290200  0.37375700  1
  O  O15  1  0.64245100  0.00709800  0.62624300  1
  O  O16  1  0.96919700  0.22873400  0.37871800  1
  O  O17  1  0.03080300  0.77126600  0.62128200  1
  O  O18  1  0.16513900  0.13133700  0.15587300  1
  O  O19  1  0.83486100  0.86866300  0.84412700  1
  O  O20  1  0.02439900  0.25649700  0.66185800  1
  O  O21  1  0.97560100  0.74350300  0.33814200  1
  O  O22  1  0.78292600  0.39238700  0.86398100  1
  O  O23  1  0.21707400  0.60761300  0.13601900  1
  O  O24  1  0.64702300  0.50525500  0.62647900  1
  O  O25  1  0.35297700  0.49474500  0.37352100  1
  F  F26  1  0.35890200  0.39372900  0.89175000  1
  F  F27  1  0.64109800  0.60627100  0.10825000  1
  F  F28  1  0.63512700  0.21387000  0.10561800  1
  F  F29  1  0.36487300  0.78613000  0.89438200  1
