# generated using pymatgen
data_Dy(PO3)3
_symmetry_space_group_name_H-M   'P 1'
_cell_length_a   9.79623600
_cell_length_b   7.06395800
_cell_length_c   11.09328639
_cell_angle_alpha   88.15557249
_cell_angle_beta   90.00000000
_cell_angle_gamma   90.00000000
_symmetry_Int_Tables_number   1
_chemical_formula_structural   Dy(PO3)3
_chemical_formula_sum   'Dy4 P12 O36'
_cell_volume   767.25991256
_cell_formula_units_Z   4
loop_
 _symmetry_equiv_pos_site_id
 _symmetry_equiv_pos_as_xyz
  1  'x, y, z'
loop_
 _atom_site_type_symbol
 _atom_site_label
 _atom_site_symmetry_multiplicity
 _atom_site_fract_x
 _atom_site_fract_y
 _atom_site_fract_z
 _atom_site_occupancy
  Dy  Dy0  1  0.25000000  0.81114000  0.01808000  1
  Dy  Dy1  1  0.25000000  0.67231600  0.53670200  1
  Dy  Dy2  1  0.75000000  0.32768400  0.46329800  1
  Dy  Dy3  1  0.75000000  0.18886000  0.98192000  1
  P  P4  1  0.46601600  0.82665700  0.28388700  1
  P  P5  1  0.03398400  0.82665700  0.28388700  1
  P  P6  1  0.75000000  0.81568900  0.37387600  1
  P  P7  1  0.49015800  0.76645300  0.76764400  1
  P  P8  1  0.00984200  0.76645300  0.76764400  1
  P  P9  1  0.75000000  0.67816500  0.89676900  1
  P  P10  1  0.25000000  0.32183500  0.10323100  1
  P  P11  1  0.99015800  0.23354700  0.23235600  1
  P  P12  1  0.50984200  0.23354700  0.23235600  1
  P  P13  1  0.25000000  0.18431100  0.62612400  1
  P  P14  1  0.96601600  0.17334300  0.71611300  1
  P  P15  1  0.53398400  0.17334300  0.71611300  1
  O  O16  1  0.25000000  0.98936600  0.57614100  1
  O  O17  1  0.94885900  0.94922300  0.69442400  1
  O  O18  1  0.55114100  0.94922300  0.69442400  1
  O  O19  1  0.75000000  0.87407900  0.94507500  1
  O  O20  1  0.41589100  0.82775100  0.87819500  1
  O  O21  1  0.08410900  0.82775100  0.87819500  1
  O  O22  1  0.87186400  0.79609900  0.27716900  1
  O  O23  1  0.62813600  0.79609900  0.27716900  1
  O  O24  1  0.08973000  0.77974600  0.16310400  1
  O  O25  1  0.41027000  0.77974600  0.16310400  1
  O  O26  1  0.40861400  0.72831400  0.39454800  1
  O  O27  1  0.09138600  0.72831400  0.39454800  1
  O  O28  1  0.87457500  0.65090800  0.80345100  1
  O  O29  1  0.62542500  0.65090800  0.80345100  1
  O  O30  1  0.41437400  0.64916700  0.67933500  1
  O  O31  1  0.08562600  0.64916700  0.67933500  1
  O  O32  1  0.75000000  0.64837600  0.46114000  1
  O  O33  1  0.75000000  0.51106700  0.98354700  1
  O  O34  1  0.25000000  0.48893300  0.01645300  1
  O  O35  1  0.25000000  0.35162400  0.53886000  1
  O  O36  1  0.91437400  0.35083300  0.32066500  1
  O  O37  1  0.58562600  0.35083300  0.32066500  1
  O  O38  1  0.37457500  0.34909200  0.19654900  1
  O  O39  1  0.12542500  0.34909200  0.19654900  1
  O  O40  1  0.90861400  0.27168600  0.60545200  1
  O  O41  1  0.59138600  0.27168600  0.60545200  1
  O  O42  1  0.91027000  0.22025400  0.83689600  1
  O  O43  1  0.58973000  0.22025400  0.83689600  1
  O  O44  1  0.37186400  0.20390100  0.72283100  1
  O  O45  1  0.12813600  0.20390100  0.72283100  1
  O  O46  1  0.91589100  0.17224900  0.12180500  1
  O  O47  1  0.58410900  0.17224900  0.12180500  1
  O  O48  1  0.25000000  0.12592100  0.05492500  1
  O  O49  1  0.44885900  0.05077700  0.30557600  1
  O  O50  1  0.05114100  0.05077700  0.30557600  1
  O  O51  1  0.75000000  0.01063400  0.42385900  1
