# generated using pymatgen
data_Sr2FeCO3F5
_symmetry_space_group_name_H-M   'P 1'
_cell_length_a   8.94766300
_cell_length_b   5.61221300
_cell_length_c   13.93136354
_cell_angle_alpha   74.63683185
_cell_angle_beta   90.00000000
_cell_angle_gamma   90.00000000
_symmetry_Int_Tables_number   1
_chemical_formula_structural   Sr2FeCO3F5
_chemical_formula_sum   'Sr8 Fe4 C4 O12 F20'
_cell_volume   674.58115497
_cell_formula_units_Z   4
loop_
 _symmetry_equiv_pos_site_id
 _symmetry_equiv_pos_as_xyz
  1  'x, y, z'
loop_
 _atom_site_type_symbol
 _atom_site_label
 _atom_site_symmetry_multiplicity
 _atom_site_fract_x
 _atom_site_fract_y
 _atom_site_fract_z
 _atom_site_occupancy
  Sr  Sr0  1  0.89065300  0.69107000  0.09702900  1
  Sr  Sr1  1  0.35967000  0.69231700  0.08588600  1
  Sr  Sr2  1  0.85967000  0.30768300  0.41411400  1
  Sr  Sr3  1  0.39065300  0.30893000  0.40297100  1
  Sr  Sr4  1  0.60934700  0.69107000  0.59702900  1
  Sr  Sr5  1  0.14033000  0.69231700  0.58588600  1
  Sr  Sr6  1  0.64033000  0.30768300  0.91411400  1
  Sr  Sr7  1  0.10934700  0.30893000  0.90297100  1
  Fe  Fe8  1  0.87182700  0.18990000  0.67225000  1
  Fe  Fe9  1  0.37182700  0.81010000  0.82775000  1
  Fe  Fe10  1  0.62817300  0.18990000  0.17225000  1
  Fe  Fe11  1  0.12817300  0.81010000  0.32775000  1
  C  C12  1  0.37597900  0.18181200  0.63531600  1
  C  C13  1  0.87597900  0.81818800  0.86468400  1
  C  C14  1  0.12402100  0.18181200  0.13531600  1
  C  C15  1  0.62402100  0.81818800  0.36468400  1
  O  O16  1  0.38013100  0.41202200  0.58394000  1
  O  O17  1  0.37016900  0.13486300  0.73195500  1
  O  O18  1  0.87765600  0.99235600  0.90979600  1
  O  O19  1  0.11986900  0.41202200  0.08394000  1
  O  O20  1  0.37765600  0.00764400  0.59020400  1
  O  O21  1  0.87016900  0.86513700  0.76804500  1
  O  O22  1  0.12983100  0.13486300  0.23195500  1
  O  O23  1  0.62234400  0.99235600  0.40979600  1
  O  O24  1  0.88013100  0.58797800  0.91606000  1
  O  O25  1  0.12234400  0.00764400  0.09020400  1
  O  O26  1  0.62983100  0.86513700  0.26804500  1
  O  O27  1  0.61986900  0.58797800  0.41606000  1
  F  F28  1  0.96271000  0.66805400  0.27233500  1
  F  F29  1  0.28314200  0.66472500  0.26376000  1
  F  F30  1  0.12990800  0.47468000  0.43326600  1
  F  F31  1  0.62990800  0.52532000  0.06673400  1
  F  F32  1  0.51282300  0.91855900  0.91541900  1
  F  F33  1  0.71735300  0.10600200  0.58426200  1
  F  F34  1  0.78314200  0.33527500  0.23624000  1
  F  F35  1  0.46271000  0.33194600  0.22766500  1
  F  F36  1  0.21735300  0.89399800  0.91573800  1
  F  F37  1  0.01282300  0.08144100  0.58458100  1
  F  F38  1  0.98717700  0.91855900  0.41541900  1
  F  F39  1  0.78264700  0.10600200  0.08426200  1
  F  F40  1  0.53729000  0.66805400  0.77233500  1
  F  F41  1  0.21685800  0.66472500  0.76376000  1
  F  F42  1  0.28264700  0.89399800  0.41573800  1
  F  F43  1  0.48717700  0.08144100  0.08458100  1
  F  F44  1  0.37009200  0.47468000  0.93326600  1
  F  F45  1  0.87009200  0.52532000  0.56673400  1
  F  F46  1  0.71685800  0.33527500  0.73624000  1
  F  F47  1  0.03729000  0.33194600  0.72766500  1
