# generated using pymatgen
data_GdMn2O5
_symmetry_space_group_name_H-M   'P 1'
_cell_length_a   5.80304400
_cell_length_b   7.44479200
_cell_length_c   8.63177200
_cell_angle_alpha   90.00000000
_cell_angle_beta   90.00000000
_cell_angle_gamma   90.00000000
_symmetry_Int_Tables_number   1
_chemical_formula_structural   GdMn2O5
_chemical_formula_sum   'Gd4 Mn8 O20'
_cell_volume   372.91374612
_cell_formula_units_Z   4
loop_
 _symmetry_equiv_pos_site_id
 _symmetry_equiv_pos_as_xyz
  1  'x, y, z'
loop_
 _atom_site_type_symbol
 _atom_site_label
 _atom_site_symmetry_multiplicity
 _atom_site_fract_x
 _atom_site_fract_y
 _atom_site_fract_z
 _atom_site_occupancy
  Gd  Gd0  1  0.00000000  0.86023700  0.82852900  1
  Gd  Gd1  1  0.00000000  0.13976300  0.17147100  1
  Gd  Gd2  1  0.00000000  0.36023700  0.67147100  1
  Gd  Gd3  1  0.00000000  0.63976300  0.32852900  1
  Mn  Mn4  1  0.74503900  0.00000000  0.50000000  1
  Mn  Mn5  1  0.50000000  0.58949800  0.65016400  1
  Mn  Mn6  1  0.50000000  0.41050200  0.34983600  1
  Mn  Mn7  1  0.50000000  0.91050200  0.15016400  1
  Mn  Mn8  1  0.50000000  0.08949800  0.84983600  1
  Mn  Mn9  1  0.25496100  0.50000000  0.00000000  1
  Mn  Mn10  1  0.74503900  0.50000000  0.00000000  1
  Mn  Mn11  1  0.25496100  0.00000000  0.50000000  1
  O  O12  1  0.00000000  0.33841900  0.94514000  1
  O  O13  1  0.72793800  0.00000000  0.00000000  1
  O  O14  1  0.27206200  0.00000000  0.00000000  1
  O  O15  1  0.50000000  0.15200600  0.43485900  1
  O  O16  1  0.00000000  0.16158100  0.44514000  1
  O  O17  1  0.72793800  0.50000000  0.50000000  1
  O  O18  1  0.00000000  0.83841900  0.55486000  1
  O  O19  1  0.75708100  0.60282500  0.79301600  1
  O  O20  1  0.24291900  0.10282500  0.70698400  1
  O  O21  1  0.50000000  0.65200600  0.06514100  1
  O  O22  1  0.50000000  0.34799400  0.93485900  1
  O  O23  1  0.00000000  0.66158100  0.05486000  1
  O  O24  1  0.75708100  0.89717500  0.29301600  1
  O  O25  1  0.75708100  0.39717500  0.20698400  1
  O  O26  1  0.75708100  0.10282500  0.70698400  1
  O  O27  1  0.24291900  0.60282500  0.79301600  1
  O  O28  1  0.27206200  0.50000000  0.50000000  1
  O  O29  1  0.24291900  0.89717500  0.29301600  1
  O  O30  1  0.24291900  0.39717500  0.20698400  1
  O  O31  1  0.50000000  0.84799400  0.56514100  1
