# generated using pymatgen
data_V4(OF3)3
_symmetry_space_group_name_H-M   'P 1'
_cell_length_a   5.27235100
_cell_length_b   5.40840354
_cell_length_c   17.53341091
_cell_angle_alpha   89.25425397
_cell_angle_beta   98.16346759
_cell_angle_gamma   119.01475331
_symmetry_Int_Tables_number   1
_chemical_formula_structural   V4(OF3)3
_chemical_formula_sum   'V8 O6 F18'
_cell_volume   431.88469249
_cell_formula_units_Z   2
loop_
 _symmetry_equiv_pos_site_id
 _symmetry_equiv_pos_as_xyz
  1  'x, y, z'
loop_
 _atom_site_type_symbol
 _atom_site_label
 _atom_site_symmetry_multiplicity
 _atom_site_fract_x
 _atom_site_fract_y
 _atom_site_fract_z
 _atom_site_occupancy
  V  V0  1  0.75487700  0.37939500  0.12497400  1
  V  V1  1  0.73754700  0.89242000  0.62996000  1
  V  V2  1  0.52373900  0.73181500  0.24943100  1
  V  V3  1  0.49594700  0.24159500  0.75010900  1
  V  V4  1  0.21644400  0.09528600  0.37277000  1
  V  V5  1  0.25158400  0.65484400  0.87129700  1
  V  V6  1  0.99121000  0.02705400  0.00133200  1
  V  V7  1  0.96903600  0.46899600  0.50446400  1
  O  O8  1  0.79904100  0.19352300  0.55860000  1
  O  O9  1  0.85319100  0.20597400  0.04150600  1
  O  O10  1  0.85881900  0.91487800  0.33313800  1
  O  O11  1  0.65200900  0.54825700  0.20766900  1
  O  O12  1  0.66593700  0.04686400  0.70092200  1
  O  O13  1  0.29932200  0.92390000  0.81490800  1
  F  F14  1  0.33801100  0.16291900  0.08253900  1
  F  F15  1  0.79235800  0.68855000  0.06042300  1
  F  F16  1  0.71624100  0.06843100  0.18889000  1
  F  F17  1  0.35588400  0.95961200  0.29324500  1
  F  F18  1  0.32490700  0.66258800  0.58353700  1
  F  F19  1  0.32124300  0.45088500  0.79113600  1
  F  F20  1  0.16979800  0.59637100  0.16805600  1
  F  F21  1  0.16506900  0.08514400  0.66408100  1
  F  F22  1  0.17126900  0.28978600  0.45921600  1
  F  F23  1  0.29044000  0.43750000  0.31534000  1
  F  F24  1  0.71596200  0.57186500  0.68785500  1
  F  F25  1  0.82286100  0.70836500  0.54261400  1
  F  F26  1  0.82831700  0.41551400  0.83635400  1
  F  F27  1  0.16781300  0.79812000  0.96050400  1
  F  F28  1  0.65552100  0.32538300  0.41500700  1
  F  F29  1  0.21597100  0.32320500  0.93442400  1
  F  F30  1  0.20537000  0.79950900  0.44106200  1
  F  F31  1  0.67425700  0.83145200  0.91463200  1
