# generated using pymatgen
data_CsGdO2
_symmetry_space_group_name_H-M   'P 1'
_cell_length_a   3.61671742
_cell_length_b   3.61671742
_cell_length_c   13.78966200
_cell_angle_alpha   90.00000000
_cell_angle_beta   90.00000000
_cell_angle_gamma   119.99998944
_symmetry_Int_Tables_number   1
_chemical_formula_structural   CsGdO2
_chemical_formula_sum   'Cs2 Gd2 O4'
_cell_volume   156.21166298
_cell_formula_units_Z   2
loop_
 _symmetry_equiv_pos_site_id
 _symmetry_equiv_pos_as_xyz
  1  'x, y, z'
loop_
 _atom_site_type_symbol
 _atom_site_label
 _atom_site_symmetry_multiplicity
 _atom_site_fract_x
 _atom_site_fract_y
 _atom_site_fract_z
 _atom_site_occupancy
  Cs  Cs0  1  0.33333300  0.66666700  0.75000000  1
  Cs  Cs1  1  0.66666700  0.33333300  0.25000000  1
  Gd  Gd2  1  0.00000000  0.00000000  0.00000000  1
  Gd  Gd3  1  0.00000000  0.00000000  0.50000000  1
  O  O4  1  0.33333300  0.66666700  0.41667200  1
  O  O5  1  0.33333300  0.66666700  0.08332800  1
  O  O6  1  0.66666700  0.33333300  0.58332800  1
  O  O7  1  0.66666700  0.33333300  0.91667200  1
