# generated using pymatgen
data_Na2CoAsCO7
_symmetry_space_group_name_H-M   'P 1'
_cell_length_a   6.60087700
_cell_length_b   5.36724000
_cell_length_c   9.12896516
_cell_angle_alpha   87.18546460
_cell_angle_beta   90.00000000
_cell_angle_gamma   90.00000000
_symmetry_Int_Tables_number   1
_chemical_formula_structural   Na2CoAsCO7
_chemical_formula_sum   'Na4 Co2 As2 C2 O14'
_cell_volume   323.03531643
_cell_formula_units_Z   2
loop_
 _symmetry_equiv_pos_site_id
 _symmetry_equiv_pos_as_xyz
  1  'x, y, z'
loop_
 _atom_site_type_symbol
 _atom_site_label
 _atom_site_symmetry_multiplicity
 _atom_site_fract_x
 _atom_site_fract_y
 _atom_site_fract_z
 _atom_site_occupancy
  Na  Na0  1  0.49979600  0.76888500  0.77386200  1
  Na  Na1  1  0.00020400  0.76888500  0.77386200  1
  Na  Na2  1  0.50020400  0.23111500  0.22613800  1
  Na  Na3  1  0.99979600  0.23111500  0.22613800  1
  Co  Co4  1  0.25000000  0.21428800  0.65581400  1
  Co  Co5  1  0.75000000  0.78571200  0.34418600  1
  As  As6  1  0.75000000  0.29538200  0.56910800  1
  As  As7  1  0.25000000  0.70461800  0.43089200  1
  C  C8  1  0.25000000  0.27862700  0.92224400  1
  C  C9  1  0.75000000  0.72137300  0.07775600  1
  O  O10  1  0.75000000  0.71407000  0.94099800  1
  O  O11  1  0.25000000  0.06452100  0.85585800  1
  O  O12  1  0.25000000  0.47139900  0.83024200  1
  O  O13  1  0.95350200  0.20866400  0.67849300  1
  O  O14  1  0.54649800  0.20866400  0.67849300  1
  O  O15  1  0.25000000  0.84783900  0.59389000  1
  O  O16  1  0.75000000  0.62001000  0.54061500  1
  O  O17  1  0.25000000  0.37999000  0.45938500  1
  O  O18  1  0.75000000  0.15216100  0.40611000  1
  O  O19  1  0.45350200  0.79133600  0.32150700  1
  O  O20  1  0.04649800  0.79133600  0.32150700  1
  O  O21  1  0.75000000  0.52860100  0.16975800  1
  O  O22  1  0.75000000  0.93547900  0.14414200  1
  O  O23  1  0.25000000  0.28593000  0.05900200  1
