# generated using pymatgen
data_RbSb
_symmetry_space_group_name_H-M   'P 1'
_cell_length_a   7.36312000
_cell_length_b   7.50967700
_cell_length_c   13.03722900
_cell_angle_alpha   90.00000000
_cell_angle_beta   90.00000000
_cell_angle_gamma   90.00000000
_symmetry_Int_Tables_number   1
_chemical_formula_structural   RbSb
_chemical_formula_sum   'Rb8 Sb8'
_cell_volume   720.88905249
_cell_formula_units_Z   8
loop_
 _symmetry_equiv_pos_site_id
 _symmetry_equiv_pos_as_xyz
  1  'x, y, z'
loop_
 _atom_site_type_symbol
 _atom_site_label
 _atom_site_symmetry_multiplicity
 _atom_site_fract_x
 _atom_site_fract_y
 _atom_site_fract_z
 _atom_site_occupancy
  Rb  Rb0  1  0.83152300  0.35144100  0.70884700  1
  Rb  Rb1  1  0.33152300  0.14855900  0.29115300  1
  Rb  Rb2  1  0.16847700  0.85144100  0.79115300  1
  Rb  Rb3  1  0.66847700  0.64855900  0.20884700  1
  Rb  Rb4  1  0.09643300  0.60037700  0.41911000  1
  Rb  Rb5  1  0.59643300  0.89962300  0.58089000  1
  Rb  Rb6  1  0.90356700  0.10037700  0.08089000  1
  Rb  Rb7  1  0.40356700  0.39962300  0.91911000  1
  Sb  Sb8  1  0.59144600  0.44449600  0.46479500  1
  Sb  Sb9  1  0.09144600  0.05550400  0.53520500  1
  Sb  Sb10  1  0.40855400  0.94449600  0.03520500  1
  Sb  Sb11  1  0.90855400  0.55550400  0.96479500  1
  Sb  Sb12  1  0.33006400  0.32638400  0.61811100  1
  Sb  Sb13  1  0.83006400  0.17361600  0.38188900  1
  Sb  Sb14  1  0.66993600  0.82638400  0.88188900  1
  Sb  Sb15  1  0.16993600  0.67361600  0.11811100  1
