# generated using pymatgen
data_BaTl2O4
_symmetry_space_group_name_H-M   'P 1'
_cell_length_a   3.53124100
_cell_length_b   10.49268400
_cell_length_c   12.21187500
_cell_angle_alpha   90.00000000
_cell_angle_beta   90.00000000
_cell_angle_gamma   90.00000000
_symmetry_Int_Tables_number   1
_chemical_formula_structural   BaTl2O4
_chemical_formula_sum   'Ba4 Tl8 O16'
_cell_volume   452.47678531
_cell_formula_units_Z   4
loop_
 _symmetry_equiv_pos_site_id
 _symmetry_equiv_pos_as_xyz
  1  'x, y, z'
loop_
 _atom_site_type_symbol
 _atom_site_label
 _atom_site_symmetry_multiplicity
 _atom_site_fract_x
 _atom_site_fract_y
 _atom_site_fract_z
 _atom_site_occupancy
  Ba  Ba0  1  0.75000000  0.24523600  0.65199800  1
  Ba  Ba1  1  0.25000000  0.25476400  0.15199800  1
  Ba  Ba2  1  0.75000000  0.74523600  0.84800200  1
  Ba  Ba3  1  0.25000000  0.75476400  0.34800200  1
  Tl  Tl4  1  0.75000000  0.07851900  0.39258100  1
  Tl  Tl5  1  0.75000000  0.07423800  0.89171900  1
  Tl  Tl6  1  0.25000000  0.42576200  0.39171900  1
  Tl  Tl7  1  0.25000000  0.42148100  0.89258100  1
  Tl  Tl8  1  0.75000000  0.57851900  0.10741900  1
  Tl  Tl9  1  0.75000000  0.57423800  0.60828100  1
  Tl  Tl10  1  0.25000000  0.92576200  0.10828100  1
  Tl  Tl11  1  0.25000000  0.92148100  0.60741900  1
  O  O12  1  0.25000000  0.02178300  0.28155300  1
  O  O13  1  0.75000000  0.07719200  0.07443000  1
  O  O14  1  0.25000000  0.12030400  0.51772700  1
  O  O15  1  0.25000000  0.20729900  0.83287000  1
  O  O16  1  0.75000000  0.29270100  0.33287000  1
  O  O17  1  0.75000000  0.37969600  0.01772700  1
  O  O18  1  0.25000000  0.42280800  0.57443000  1
  O  O19  1  0.75000000  0.47821700  0.78155300  1
  O  O20  1  0.25000000  0.52178300  0.21844700  1
  O  O21  1  0.75000000  0.57719200  0.42557000  1
  O  O22  1  0.25000000  0.62030400  0.98227300  1
  O  O23  1  0.25000000  0.70729900  0.66713000  1
  O  O24  1  0.75000000  0.79270100  0.16713000  1
  O  O25  1  0.75000000  0.87969600  0.48227300  1
  O  O26  1  0.25000000  0.92280800  0.92557000  1
  O  O27  1  0.75000000  0.97821700  0.71844700  1
