# generated using pymatgen
data_Sr(BRh)2
_symmetry_space_group_name_H-M   'P 1'
_cell_length_a   7.15466448
_cell_length_b   6.16374610
_cell_length_c   5.62313119
_cell_angle_alpha   74.58796794
_cell_angle_beta   56.15224177
_cell_angle_gamma   49.25979029
_symmetry_Int_Tables_number   1
_chemical_formula_structural   Sr(BRh)2
_chemical_formula_sum   'Sr2 B4 Rh4'
_cell_volume   154.14960981
_cell_formula_units_Z   2
loop_
 _symmetry_equiv_pos_site_id
 _symmetry_equiv_pos_as_xyz
  1  'x, y, z'
loop_
 _atom_site_type_symbol
 _atom_site_label
 _atom_site_symmetry_multiplicity
 _atom_site_fract_x
 _atom_site_fract_y
 _atom_site_fract_z
 _atom_site_occupancy
  Sr  Sr0  1  0.00000000  0.00000000  0.00000000  1
  Sr  Sr1  1  0.25000000  0.25000000  0.25000000  1
  B  B2  1  0.32836300  0.67163700  0.32836300  1
  B  B3  1  0.57836300  0.92163700  0.57836300  1
  B  B4  1  0.67163700  0.32836300  0.67163700  1
  B  B5  1  0.92163700  0.57836300  0.92163700  1
  Rh  Rh6  1  0.63071900  0.63071900  0.36928100  1
  Rh  Rh7  1  0.88071900  0.88071900  0.61928100  1
  Rh  Rh8  1  0.61928100  0.61928100  0.88071900  1
  Rh  Rh9  1  0.36928100  0.36928100  0.63071900  1
