# generated using pymatgen
data_Li4CrFe3O8
_symmetry_space_group_name_H-M   'P 1'
_cell_length_a   5.17892000
_cell_length_b   7.87996487
_cell_length_c   7.87989831
_cell_angle_alpha   81.80119727
_cell_angle_beta   83.74174104
_cell_angle_gamma   70.98706962
_symmetry_Int_Tables_number   1
_chemical_formula_structural   Li4CrFe3O8
_chemical_formula_sum   'Li8 Cr2 Fe6 O16'
_cell_volume   300.25228940
_cell_formula_units_Z   2
loop_
 _symmetry_equiv_pos_site_id
 _symmetry_equiv_pos_as_xyz
  1  'x, y, z'
loop_
 _atom_site_type_symbol
 _atom_site_label
 _atom_site_symmetry_multiplicity
 _atom_site_fract_x
 _atom_site_fract_y
 _atom_site_fract_z
 _atom_site_occupancy
  Li  Li0  1  0.50075400  0.68685500  0.93776600  1
  Li  Li1  1  0.50234400  0.43615900  0.68755600  1
  Li  Li2  1  0.49765600  0.56384100  0.31244400  1
  Li  Li3  1  0.49952100  0.06300500  0.81168500  1
  Li  Li4  1  0.50096500  0.18677900  0.43842600  1
  Li  Li5  1  0.49924600  0.31314500  0.06223400  1
  Li  Li6  1  0.49903500  0.81322100  0.56157400  1
  Li  Li7  1  0.50047900  0.93699500  0.18831500  1
  Cr  Cr8  1  0.99998500  0.12462200  0.62474300  1
  Cr  Cr9  1  0.00001500  0.87537800  0.37525700  1
  Fe  Fe10  1  0.00016800  0.37466900  0.87461800  1
  Fe  Fe11  1  0.00000000  0.50000000  0.50000000  1
  Fe  Fe12  1  0.99983200  0.62533100  0.12538200  1
  Fe  Fe13  1  0.99919200  0.24990800  0.25046800  1
  Fe  Fe14  1  0.00080800  0.75009200  0.74953200  1
  Fe  Fe15  1  0.00000000  0.00000000  0.00000000  1
  O  O16  1  0.22924100  0.53566500  0.90672400  1
  O  O17  1  0.77101900  0.58955500  0.71767900  1
  O  O18  1  0.22756200  0.66200500  0.53087000  1
  O  O19  1  0.77266100  0.21328300  0.84142600  1
  O  O20  1  0.22734900  0.28433200  0.65656900  1
  O  O21  1  0.22898100  0.41044500  0.28232100  1
  O  O22  1  0.77243800  0.33799500  0.46913000  1
  O  O23  1  0.22731500  0.91209100  0.78095700  1
  O  O24  1  0.22519800  0.03540400  0.40843000  1
  O  O25  1  0.77075900  0.46433500  0.09327600  1
  O  O26  1  0.77480200  0.96459600  0.59157000  1
  O  O27  1  0.22897000  0.16082400  0.03232900  1
  O  O28  1  0.77268500  0.08790900  0.21904300  1
  O  O29  1  0.22733900  0.78671700  0.15857400  1
  O  O30  1  0.77265100  0.71566800  0.34343100  1
  O  O31  1  0.77103000  0.83917600  0.96767100  1
