# generated using pymatgen
data_KAl(SO4)2
_symmetry_space_group_name_H-M   'P 1'
_cell_length_a   5.01656275
_cell_length_b   5.01656275
_cell_length_c   7.96907800
_cell_angle_alpha   90.00000000
_cell_angle_beta   90.00000000
_cell_angle_gamma   120.00000992
_symmetry_Int_Tables_number   1
_chemical_formula_structural   KAl(SO4)2
_chemical_formula_sum   'K1 Al1 S2 O8'
_cell_volume   173.68054143
_cell_formula_units_Z   1
loop_
 _symmetry_equiv_pos_site_id
 _symmetry_equiv_pos_as_xyz
  1  'x, y, z'
loop_
 _atom_site_type_symbol
 _atom_site_label
 _atom_site_symmetry_multiplicity
 _atom_site_fract_x
 _atom_site_fract_y
 _atom_site_fract_z
 _atom_site_occupancy
  K  K0  1  0.00000000  0.00000000  0.00000000  1
  Al  Al1  1  0.00000000  0.00000000  0.50000000  1
  S  S2  1  0.66666700  0.33333300  0.70572900  1
  S  S3  1  0.33333300  0.66666700  0.29427100  1
  O  O4  1  0.34491300  0.17245600  0.64341500  1
  O  O5  1  0.82754400  0.17245600  0.64341500  1
  O  O6  1  0.82754400  0.65508700  0.64341500  1
  O  O7  1  0.17245600  0.82754400  0.35658500  1
  O  O8  1  0.33333300  0.66666700  0.11145000  1
  O  O9  1  0.66666700  0.33333300  0.88855000  1
  O  O10  1  0.17245600  0.34491300  0.35658500  1
  O  O11  1  0.65508700  0.82754400  0.35658500  1
