# generated using pymatgen
data_Cs4HfO4
_symmetry_space_group_name_H-M   'P 1'
_cell_length_a   7.46516500
_cell_length_b   11.89942600
_cell_length_c   11.97602193
_cell_angle_alpha   68.18934044
_cell_angle_beta   90.00000000
_cell_angle_gamma   90.00000000
_symmetry_Int_Tables_number   1
_chemical_formula_structural   Cs4HfO4
_chemical_formula_sum   'Cs16 Hf4 O16'
_cell_volume   987.69068875
_cell_formula_units_Z   4
loop_
 _symmetry_equiv_pos_site_id
 _symmetry_equiv_pos_as_xyz
  1  'x, y, z'
loop_
 _atom_site_type_symbol
 _atom_site_label
 _atom_site_symmetry_multiplicity
 _atom_site_fract_x
 _atom_site_fract_y
 _atom_site_fract_z
 _atom_site_occupancy
  Cs  Cs0  1  0.58855500  0.29857600  0.06247600  1
  Cs  Cs1  1  0.11571300  0.41593600  0.15520000  1
  Cs  Cs2  1  0.91144500  0.79857600  0.06247600  1
  Cs  Cs3  1  0.33978300  0.10784600  0.36905400  1
  Cs  Cs4  1  0.38428700  0.91593600  0.15520000  1
  Cs  Cs5  1  0.82734800  0.20780300  0.42595900  1
  Cs  Cs6  1  0.16021700  0.60784600  0.36905400  1
  Cs  Cs7  1  0.32734800  0.29219700  0.57404100  1
  Cs  Cs8  1  0.67265200  0.70780300  0.42595900  1
  Cs  Cs9  1  0.83978300  0.39215400  0.63094600  1
  Cs  Cs10  1  0.17265200  0.79219700  0.57404100  1
  Cs  Cs11  1  0.61571300  0.08406400  0.84480000  1
  Cs  Cs12  1  0.66021700  0.89215400  0.63094600  1
  Cs  Cs13  1  0.08855500  0.20142400  0.93752400  1
  Cs  Cs14  1  0.88428700  0.58406400  0.84480000  1
  Cs  Cs15  1  0.41144500  0.70142400  0.93752400  1
  Hf  Hf16  1  0.87491100  0.00860900  0.24271400  1
  Hf  Hf17  1  0.62508900  0.50860900  0.24271400  1
  Hf  Hf18  1  0.37491100  0.49139100  0.75728600  1
  Hf  Hf19  1  0.12508900  0.99139100  0.75728600  1
  O  O20  1  0.76806400  0.02269600  0.08733800  1
  O  O21  1  0.01107000  0.15849000  0.21775100  1
  O  O22  1  0.73193600  0.52269600  0.08733800  1
  O  O23  1  0.47122600  0.36260300  0.30410800  1
  O  O24  1  0.48893000  0.65849000  0.21775100  1
  O  O25  1  0.81864600  0.49012500  0.36027000  1
  O  O26  1  0.02877400  0.86260300  0.30410800  1
  O  O27  1  0.31864600  0.00987500  0.63973000  1
  O  O28  1  0.68135400  0.99012500  0.36027000  1
  O  O29  1  0.97122600  0.13739700  0.69589200  1
  O  O30  1  0.18135400  0.50987500  0.63973000  1
  O  O31  1  0.51107000  0.34151000  0.78224900  1
  O  O32  1  0.52877400  0.63739700  0.69589200  1
  O  O33  1  0.26806400  0.47730400  0.91266200  1
  O  O34  1  0.98893000  0.84151000  0.78224900  1
  O  O35  1  0.23193600  0.97730400  0.91266200  1
