# generated using pymatgen
data_La4Ga2O9
_symmetry_space_group_name_H-M   'P 1'
_cell_length_a   11.25720300
_cell_length_b   8.00276900
_cell_length_c   11.73751606
_cell_angle_alpha   70.65064561
_cell_angle_beta   90.00000000
_cell_angle_gamma   90.00000000
_symmetry_Int_Tables_number   1
_chemical_formula_structural   La4Ga2O9
_chemical_formula_sum   'La16 Ga8 O36'
_cell_volume   997.69133532
_cell_formula_units_Z   4
loop_
 _symmetry_equiv_pos_site_id
 _symmetry_equiv_pos_as_xyz
  1  'x, y, z'
loop_
 _atom_site_type_symbol
 _atom_site_label
 _atom_site_symmetry_multiplicity
 _atom_site_fract_x
 _atom_site_fract_y
 _atom_site_fract_z
 _atom_site_occupancy
  La  La0  1  0.90923600  0.97557500  0.80640500  1
  La  La1  1  0.59076400  0.97557500  0.30640500  1
  La  La2  1  0.12089900  0.83624500  0.58667300  1
  La  La3  1  0.62334200  0.66483900  0.92938700  1
  La  La4  1  0.37910100  0.83624500  0.08667300  1
  La  La5  1  0.87665800  0.66483900  0.42938700  1
  La  La6  1  0.39726100  0.52340000  0.71386300  1
  La  La7  1  0.89726100  0.47660000  0.78613700  1
  La  La8  1  0.10273900  0.52340000  0.21386300  1
  La  La9  1  0.60273900  0.47660000  0.28613700  1
  La  La10  1  0.12334200  0.33516100  0.57061300  1
  La  La11  1  0.62089900  0.16375500  0.91332700  1
  La  La12  1  0.37665800  0.33516100  0.07061300  1
  La  La13  1  0.87910100  0.16375500  0.41332700  1
  La  La14  1  0.40923600  0.02442500  0.69359500  1
  La  La15  1  0.09076400  0.02442500  0.19359500  1
  Ga  Ga16  1  0.68709900  0.77975600  0.62584200  1
  Ga  Ga17  1  0.18444800  0.65544600  0.88454200  1
  Ga  Ga18  1  0.81290100  0.77975600  0.12584200  1
  Ga  Ga19  1  0.31555200  0.65544600  0.38454200  1
  Ga  Ga20  1  0.68444800  0.34455400  0.61545800  1
  Ga  Ga21  1  0.18709900  0.22024400  0.87415800  1
  Ga  Ga22  1  0.81555200  0.34455400  0.11545800  1
  Ga  Ga23  1  0.31290100  0.22024400  0.37415800  1
  O  O24  1  0.76195100  0.92081500  0.97564900  1
  O  O25  1  0.49530100  0.92279400  0.89491000  1
  O  O26  1  0.27449000  0.78625900  0.75103400  1
  O  O27  1  0.77298600  0.76704400  0.76546900  1
  O  O28  1  0.73804900  0.92081500  0.47564900  1
  O  O29  1  0.00469900  0.92279400  0.39491000  1
  O  O30  1  0.02985500  0.70188700  0.82793000  1
  O  O31  1  0.52845900  0.78407800  0.66372500  1
  O  O32  1  0.22551000  0.78625900  0.25103400  1
  O  O33  1  0.72701400  0.76704400  0.26546900  1
  O  O34  1  0.26877200  0.63782800  0.53878600  1
  O  O35  1  0.47014500  0.70188700  0.32793000  1
  O  O36  1  0.74713900  0.56453600  0.61522900  1
  O  O37  1  0.50744400  0.43139600  0.89708300  1
  O  O38  1  0.97154100  0.78407800  0.16372500  1
  O  O39  1  0.00744400  0.56860400  0.60291700  1
  O  O40  1  0.24713900  0.43546400  0.88477100  1
  O  O41  1  0.76877200  0.36217200  0.96121400  1
  O  O42  1  0.23122800  0.63782800  0.03878600  1
  O  O43  1  0.75286100  0.56453600  0.11522900  1
  O  O44  1  0.99255600  0.43139600  0.39708300  1
  O  O45  1  0.02845900  0.21592200  0.83627500  1
  O  O46  1  0.49255600  0.56860400  0.10291700  1
  O  O47  1  0.25286100  0.43546400  0.38477100  1
  O  O48  1  0.52985500  0.29811300  0.67207000  1
  O  O49  1  0.73122800  0.36217200  0.46121400  1
  O  O50  1  0.27298600  0.23295600  0.73453100  1
  O  O51  1  0.77449000  0.21374100  0.74896600  1
  O  O52  1  0.47154100  0.21592200  0.33627500  1
  O  O53  1  0.97014500  0.29811300  0.17207000  1
  O  O54  1  0.99530100  0.07720600  0.60509000  1
  O  O55  1  0.26195100  0.07918500  0.52435100  1
  O  O56  1  0.22701400  0.23295600  0.23453100  1
  O  O57  1  0.72551000  0.21374100  0.24896600  1
  O  O58  1  0.50469900  0.07720600  0.10509000  1
  O  O59  1  0.23804900  0.07918500  0.02435100  1
