# generated using pymatgen
data_Na2Te2H4O7
_symmetry_space_group_name_H-M   'P 1'
_cell_length_a   5.74123400
_cell_length_b   6.33385878
_cell_length_c   11.74848673
_cell_angle_alpha   93.77503938
_cell_angle_beta   92.78968354
_cell_angle_gamma   103.01002486
_symmetry_Int_Tables_number   1
_chemical_formula_structural   Na2Te2H4O7
_chemical_formula_sum   'Na4 Te4 H8 O14'
_cell_volume   414.46752737
_cell_formula_units_Z   2
loop_
 _symmetry_equiv_pos_site_id
 _symmetry_equiv_pos_as_xyz
  1  'x, y, z'
loop_
 _atom_site_type_symbol
 _atom_site_label
 _atom_site_symmetry_multiplicity
 _atom_site_fract_x
 _atom_site_fract_y
 _atom_site_fract_z
 _atom_site_occupancy
  Na  Na0  1  0.39373900  0.72734800  0.95030100  1
  Na  Na1  1  0.60626100  0.27265200  0.04969900  1
  Na  Na2  1  0.89436900  0.72008800  0.43280800  1
  Na  Na3  1  0.10563100  0.27991200  0.56719200  1
  Te  Te4  1  0.95944700  0.94064900  0.13732500  1
  Te  Te5  1  0.04055300  0.05935100  0.86267500  1
  Te  Te6  1  0.54491800  0.99839700  0.63732300  1
  Te  Te7  1  0.45508200  0.00160300  0.36267700  1
  H  H8  1  0.41020200  0.59863600  0.18855100  1
  H  H9  1  0.58979800  0.40136400  0.81144900  1
  H  H10  1  0.79757500  0.59181300  0.86747000  1
  H  H11  1  0.20242500  0.40818700  0.13253000  1
  H  H12  1  0.94839800  0.65810300  0.68641800  1
  H  H13  1  0.05160200  0.34189700  0.31358200  1
  H  H14  1  0.26892200  0.53060600  0.36352400  1
  H  H15  1  0.73107800  0.46939400  0.63647600  1
  O  O16  1  0.76580900  0.99567300  0.94938100  1
  O  O17  1  0.23419100  0.00432700  0.05061900  1
  O  O18  1  0.27258700  0.94648200  0.49691700  1
  O  O19  1  0.72741300  0.05351800  0.50308300  1
  O  O20  1  0.11910400  0.89104600  0.28100400  1
  O  O21  1  0.88089600  0.10895400  0.71899600  1
  O  O22  1  0.07268600  0.77581200  0.82102600  1
  O  O23  1  0.92731400  0.22418800  0.17897400  1
  O  O24  1  0.52781800  0.73329400  0.32314600  1
  O  O25  1  0.47218200  0.26670600  0.67685400  1
  O  O26  1  0.87333100  0.57410000  0.61367700  1
  O  O27  1  0.12666900  0.42590000  0.38632300  1
  O  O28  1  0.35621100  0.50651200  0.11578200  1
  O  O29  1  0.64378900  0.49348800  0.88421800  1
