# generated using pymatgen
data_Na8CoO6
_symmetry_space_group_name_H-M   'P 1'
_cell_length_a   6.36215041
_cell_length_b   6.36215041
_cell_length_c   12.70995200
_cell_angle_alpha   90.00000000
_cell_angle_beta   90.00000000
_cell_angle_gamma   120.00000430
_symmetry_Int_Tables_number   1
_chemical_formula_structural   Na8CoO6
_chemical_formula_sum   'Na16 Co2 O12'
_cell_volume   445.53557603
_cell_formula_units_Z   2
loop_
 _symmetry_equiv_pos_site_id
 _symmetry_equiv_pos_as_xyz
  1  'x, y, z'
loop_
 _atom_site_type_symbol
 _atom_site_label
 _atom_site_symmetry_multiplicity
 _atom_site_fract_x
 _atom_site_fract_y
 _atom_site_fract_z
 _atom_site_occupancy
  Na  Na0  1  0.00000000  0.70304000  0.76993000  1
  Na  Na1  1  0.00000000  0.61455500  0.12390200  1
  Na  Na2  1  0.00000000  0.38544500  0.62390200  1
  Na  Na3  1  0.00000000  0.29696000  0.26993000  1
  Na  Na4  1  0.33333300  0.66666700  0.41246600  1
  Na  Na5  1  0.33333300  0.66666700  0.91246600  1
  Na  Na6  1  0.29696000  0.29696000  0.76993000  1
  Na  Na7  1  0.38544500  0.38544500  0.12390200  1
  Na  Na8  1  0.61455500  0.61455500  0.62390200  1
  Na  Na9  1  0.29696000  0.00000000  0.26993000  1
  Na  Na10  1  0.70304000  0.70304000  0.26993000  1
  Na  Na11  1  0.38544500  0.00000000  0.62390200  1
  Na  Na12  1  0.66666700  0.33333300  0.91246600  1
  Na  Na13  1  0.66666700  0.33333300  0.41246600  1
  Na  Na14  1  0.61455500  0.00000000  0.12390200  1
  Na  Na15  1  0.70304000  0.00000000  0.76993000  1
  Co  Co16  1  0.00000000  0.00000000  0.99696900  1
  Co  Co17  1  0.00000000  0.00000000  0.49696900  1
  O  O18  1  0.00000000  0.72854000  0.95206800  1
  O  O19  1  0.00000000  0.27146000  0.45206800  1
  O  O20  1  0.33333300  0.66666700  0.22123200  1
  O  O21  1  0.00000000  0.00000000  0.14353600  1
  O  O22  1  0.00000000  0.00000000  0.64353600  1
  O  O23  1  0.33333300  0.66666700  0.72123200  1
  O  O24  1  0.27146000  0.27146000  0.95206800  1
  O  O25  1  0.27146000  0.00000000  0.45206800  1
  O  O26  1  0.72854000  0.72854000  0.45206800  1
  O  O27  1  0.66666700  0.33333300  0.72123200  1
  O  O28  1  0.66666700  0.33333300  0.22123200  1
  O  O29  1  0.72854000  0.00000000  0.95206800  1
