# generated using pymatgen
data_Na5TlO4
_symmetry_space_group_name_H-M   'P 1'
_cell_length_a   10.87054300
_cell_length_b   10.90769500
_cell_length_c   10.93947900
_cell_angle_alpha   90.00000000
_cell_angle_beta   90.00000000
_cell_angle_gamma   90.00000000
_symmetry_Int_Tables_number   1
_chemical_formula_structural   Na5TlO4
_chemical_formula_sum   'Na40 Tl8 O32'
_cell_volume   1297.12211245
_cell_formula_units_Z   8
loop_
 _symmetry_equiv_pos_site_id
 _symmetry_equiv_pos_as_xyz
  1  'x, y, z'
loop_
 _atom_site_type_symbol
 _atom_site_label
 _atom_site_symmetry_multiplicity
 _atom_site_fract_x
 _atom_site_fract_y
 _atom_site_fract_z
 _atom_site_occupancy
  Na  Na0  1  0.10475000  0.11846600  0.34003900  1
  Na  Na1  1  0.60475000  0.88153400  0.15996100  1
  Na  Na2  1  0.39525000  0.61846600  0.65996100  1
  Na  Na3  1  0.89525000  0.38153400  0.84003900  1
  Na  Na4  1  0.89525000  0.88153400  0.65996100  1
  Na  Na5  1  0.39525000  0.11846600  0.84003900  1
  Na  Na6  1  0.60475000  0.38153400  0.34003900  1
  Na  Na7  1  0.10475000  0.61846600  0.15996100  1
  Na  Na8  1  0.12641600  0.84960700  0.38151100  1
  Na  Na9  1  0.62641600  0.15039300  0.11848900  1
  Na  Na10  1  0.37358400  0.34960700  0.61848900  1
  Na  Na11  1  0.87358400  0.65039300  0.88151100  1
  Na  Na12  1  0.87358400  0.15039300  0.61848900  1
  Na  Na13  1  0.37358400  0.84960700  0.88151100  1
  Na  Na14  1  0.62641600  0.65039300  0.38151100  1
  Na  Na15  1  0.12641600  0.34960700  0.11848900  1
  Na  Na16  1  0.66194500  0.10778700  0.38310600  1
  Na  Na17  1  0.16194500  0.89221300  0.11689400  1
  Na  Na18  1  0.83805500  0.60778700  0.61689400  1
  Na  Na19  1  0.33805500  0.39221300  0.88310600  1
  Na  Na20  1  0.33805500  0.89221300  0.61689400  1
  Na  Na21  1  0.83805500  0.10778700  0.88310600  1
  Na  Na22  1  0.16194500  0.39221300  0.38310600  1
  Na  Na23  1  0.66194500  0.60778700  0.11689400  1
  Na  Na24  1  0.89838200  0.62299700  0.34950800  1
  Na  Na25  1  0.39838200  0.37700300  0.15049200  1
  Na  Na26  1  0.60161800  0.12299700  0.65049200  1
  Na  Na27  1  0.10161800  0.87700300  0.84950800  1
  Na  Na28  1  0.10161800  0.37700300  0.65049200  1
  Na  Na29  1  0.60161800  0.62299700  0.84950800  1
  Na  Na30  1  0.39838200  0.87700300  0.34950800  1
  Na  Na31  1  0.89838200  0.12299700  0.15049200  1
  Na  Na32  1  0.85412900  0.88918500  0.39139600  1
  Na  Na33  1  0.35412900  0.11081500  0.10860400  1
  Na  Na34  1  0.64587100  0.38918500  0.60860400  1
  Na  Na35  1  0.14587100  0.61081500  0.89139600  1
  Na  Na36  1  0.14587100  0.11081500  0.60860400  1
  Na  Na37  1  0.64587100  0.88918500  0.89139600  1
  Na  Na38  1  0.35412900  0.61081500  0.39139600  1
  Na  Na39  1  0.85412900  0.38918500  0.10860400  1
  Tl  Tl40  1  0.88321300  0.34988700  0.38484800  1
  Tl  Tl41  1  0.38321300  0.65011300  0.11515200  1
  Tl  Tl42  1  0.61678700  0.84988700  0.61515200  1
  Tl  Tl43  1  0.11678700  0.15011300  0.88484800  1
  Tl  Tl44  1  0.11678700  0.65011300  0.61515200  1
  Tl  Tl45  1  0.61678700  0.34988700  0.88484800  1
  Tl  Tl46  1  0.38321300  0.15011300  0.38484800  1
  Tl  Tl47  1  0.88321300  0.84988700  0.11515200  1
  O  O48  1  0.51830500  0.24928900  0.49356400  1
  O  O49  1  0.01830500  0.75071100  0.00643600  1
  O  O50  1  0.98169500  0.74928900  0.50643600  1
  O  O51  1  0.48169500  0.25071100  0.99356400  1
  O  O52  1  0.48169500  0.75071100  0.50643600  1
  O  O53  1  0.98169500  0.24928900  0.99356400  1
  O  O54  1  0.01830500  0.25071100  0.49356400  1
  O  O55  1  0.51830500  0.74928900  0.00643600  1
  O  O56  1  0.76113000  0.25215000  0.25481700  1
  O  O57  1  0.26113000  0.74785000  0.24518300  1
  O  O58  1  0.73887000  0.75215000  0.74518300  1
  O  O59  1  0.23887000  0.24785000  0.75481700  1
  O  O60  1  0.23887000  0.74785000  0.74518300  1
  O  O61  1  0.73887000  0.25215000  0.75481700  1
  O  O62  1  0.26113000  0.24785000  0.25481700  1
  O  O63  1  0.76113000  0.75215000  0.24518300  1
  O  O64  1  0.99955800  0.46017000  0.25492800  1
  O  O65  1  0.49955800  0.53983000  0.24507200  1
  O  O66  1  0.50044200  0.96017000  0.74507200  1
  O  O67  1  0.00044200  0.03983000  0.75492800  1
  O  O68  1  0.00044200  0.53983000  0.74507200  1
  O  O69  1  0.50044200  0.46017000  0.75492800  1
  O  O70  1  0.49955800  0.03983000  0.25492800  1
  O  O71  1  0.99955800  0.96017000  0.24507200  1
  O  O72  1  0.75601400  0.49087300  0.45895400  1
  O  O73  1  0.25601400  0.50912700  0.04104600  1
  O  O74  1  0.74398600  0.99087300  0.54104600  1
  O  O75  1  0.24398600  0.00912700  0.95895400  1
  O  O76  1  0.24398600  0.50912700  0.54104600  1
  O  O77  1  0.74398600  0.49087300  0.95895400  1
  O  O78  1  0.25601400  0.00912700  0.45895400  1
  O  O79  1  0.75601400  0.99087300  0.04104600  1
