# generated using pymatgen
data_TiSnSb
_symmetry_space_group_name_H-M   'P 1'
_cell_length_a   10.95215616
_cell_length_b   10.16575969
_cell_length_c   5.63826240
_cell_angle_alpha   82.38900182
_cell_angle_beta   66.92897938
_cell_angle_gamma   30.68201880
_symmetry_Int_Tables_number   1
_chemical_formula_structural   TiSnSb
_chemical_formula_sum   'Ti4 Sn4 Sb4'
_cell_volume   265.25259367
_cell_formula_units_Z   4
loop_
 _symmetry_equiv_pos_site_id
 _symmetry_equiv_pos_as_xyz
  1  'x, y, z'
loop_
 _atom_site_type_symbol
 _atom_site_label
 _atom_site_symmetry_multiplicity
 _atom_site_fract_x
 _atom_site_fract_y
 _atom_site_fract_z
 _atom_site_occupancy
  Ti  Ti0  1  0.12357100  0.12357100  0.37642900  1
  Ti  Ti1  1  0.37642900  0.37642900  0.12357100  1
  Ti  Ti2  1  0.12642900  0.12642900  0.87357100  1
  Ti  Ti3  1  0.87357100  0.87357100  0.12642900  1
  Sn  Sn4  1  0.41723100  0.08276900  0.41723100  1
  Sn  Sn5  1  0.08276900  0.41723100  0.08276900  1
  Sn  Sn6  1  0.83276900  0.16723100  0.83276900  1
  Sn  Sn7  1  0.16723100  0.83276900  0.16723100  1
  Sb  Sb8  1  0.67232000  0.67232000  0.82768000  1
  Sb  Sb9  1  0.82768000  0.82768000  0.67232000  1
  Sb  Sb10  1  0.57768000  0.57768000  0.42232000  1
  Sb  Sb11  1  0.42232000  0.42232000  0.57768000  1
