# generated using pymatgen
data_Ho2TiO5
_symmetry_space_group_name_H-M   'P 1'
_cell_length_a   3.71577100
_cell_length_b   10.44513300
_cell_length_c   11.24137300
_cell_angle_alpha   90.00000000
_cell_angle_beta   90.00000000
_cell_angle_gamma   90.00000000
_symmetry_Int_Tables_number   1
_chemical_formula_structural   Ho2TiO5
_chemical_formula_sum   'Ho8 Ti4 O20'
_cell_volume   436.29704706
_cell_formula_units_Z   4
loop_
 _symmetry_equiv_pos_site_id
 _symmetry_equiv_pos_as_xyz
  1  'x, y, z'
loop_
 _atom_site_type_symbol
 _atom_site_label
 _atom_site_symmetry_multiplicity
 _atom_site_fract_x
 _atom_site_fract_y
 _atom_site_fract_z
 _atom_site_occupancy
  Ho  Ho0  1  0.25000000  0.11221900  0.27640300  1
  Ho  Ho1  1  0.25000000  0.13587700  0.94323000  1
  Ho  Ho2  1  0.75000000  0.36412300  0.44323000  1
  Ho  Ho3  1  0.75000000  0.38778100  0.77640300  1
  Ho  Ho4  1  0.25000000  0.61221900  0.22359700  1
  Ho  Ho5  1  0.25000000  0.63587700  0.55677000  1
  Ho  Ho6  1  0.75000000  0.86412300  0.05677000  1
  Ho  Ho7  1  0.75000000  0.88778100  0.72359700  1
  Ti  Ti8  1  0.25000000  0.17799900  0.62074500  1
  Ti  Ti9  1  0.75000000  0.32200100  0.12074500  1
  Ti  Ti10  1  0.25000000  0.67799900  0.87925500  1
  Ti  Ti11  1  0.75000000  0.82200100  0.37925500  1
  O  O12  1  0.75000000  0.00686700  0.89575900  1
  O  O13  1  0.25000000  0.01147900  0.65900500  1
  O  O14  1  0.25000000  0.22574700  0.45672600  1
  O  O15  1  0.75000000  0.24000300  0.61713900  1
  O  O16  1  0.75000000  0.23729800  0.27182800  1
  O  O17  1  0.25000000  0.26270200  0.77182800  1
  O  O18  1  0.25000000  0.25999700  0.11713900  1
  O  O19  1  0.75000000  0.27425300  0.95672600  1
  O  O20  1  0.75000000  0.48852100  0.15900500  1
  O  O21  1  0.25000000  0.49313300  0.39575900  1
  O  O22  1  0.75000000  0.50686700  0.60424100  1
  O  O23  1  0.25000000  0.51147900  0.84099500  1
  O  O24  1  0.25000000  0.72574700  0.04327400  1
  O  O25  1  0.75000000  0.74000300  0.88286100  1
  O  O26  1  0.75000000  0.73729800  0.22817200  1
  O  O27  1  0.25000000  0.76270200  0.72817200  1
  O  O28  1  0.25000000  0.75999700  0.38286100  1
  O  O29  1  0.75000000  0.77425300  0.54327400  1
  O  O30  1  0.75000000  0.98852100  0.34099500  1
  O  O31  1  0.25000000  0.99313300  0.10424100  1
