# generated using pymatgen
data_Nb5N6
_symmetry_space_group_name_H-M   'P 1'
_cell_length_a   5.26057064
_cell_length_b   5.26057064
_cell_length_c   10.47460600
_cell_angle_alpha   90.00000000
_cell_angle_beta   90.00000000
_cell_angle_gamma   120.00000808
_symmetry_Int_Tables_number   1
_chemical_formula_structural   Nb5N6
_chemical_formula_sum   'Nb10 N12'
_cell_volume   251.03484397
_cell_formula_units_Z   2
loop_
 _symmetry_equiv_pos_site_id
 _symmetry_equiv_pos_as_xyz
  1  'x, y, z'
loop_
 _atom_site_type_symbol
 _atom_site_label
 _atom_site_symmetry_multiplicity
 _atom_site_fract_x
 _atom_site_fract_y
 _atom_site_fract_z
 _atom_site_occupancy
  Nb  Nb0  1  0.33333300  0.66666700  0.50000000  1
  Nb  Nb1  1  0.66666700  0.33333300  0.00000000  1
  Nb  Nb2  1  0.66666700  0.33333300  0.50000000  1
  Nb  Nb3  1  0.33333300  0.66666700  0.00000000  1
  Nb  Nb4  1  0.67497800  0.00000000  0.75000000  1
  Nb  Nb5  1  0.67497800  0.67497800  0.25000000  1
  Nb  Nb6  1  0.00000000  0.32502200  0.25000000  1
  Nb  Nb7  1  0.00000000  0.67497800  0.75000000  1
  Nb  Nb8  1  0.32502200  0.32502200  0.75000000  1
  Nb  Nb9  1  0.32502200  0.00000000  0.25000000  1
  N  N10  1  0.33934300  0.33934300  0.37747600  1
  N  N11  1  0.66065700  0.00000000  0.37747600  1
  N  N12  1  0.00000000  0.66065700  0.37747600  1
  N  N13  1  0.00000000  0.33934300  0.87747600  1
  N  N14  1  0.66065700  0.00000000  0.12252400  1
  N  N15  1  0.66065700  0.66065700  0.87747600  1
  N  N16  1  0.33934300  0.00000000  0.87747600  1
  N  N17  1  0.66065700  0.66065700  0.62252400  1
  N  N18  1  0.00000000  0.33934300  0.62252400  1
  N  N19  1  0.00000000  0.66065700  0.12252400  1
  N  N20  1  0.33934300  0.00000000  0.62252400  1
  N  N21  1  0.33934300  0.33934300  0.12252400  1
