# generated using pymatgen
data_Cs6Ti2O7
_symmetry_space_group_name_H-M   'P 1'
_cell_length_a   10.11518600
_cell_length_b   7.32792400
_cell_length_c   12.37313329
_cell_angle_alpha   55.32866079
_cell_angle_beta   90.00000000
_cell_angle_gamma   90.00000000
_symmetry_Int_Tables_number   1
_chemical_formula_structural   Cs6Ti2O7
_chemical_formula_sum   'Cs12 Ti4 O14'
_cell_volume   754.28032831
_cell_formula_units_Z   2
loop_
 _symmetry_equiv_pos_site_id
 _symmetry_equiv_pos_as_xyz
  1  'x, y, z'
loop_
 _atom_site_type_symbol
 _atom_site_label
 _atom_site_symmetry_multiplicity
 _atom_site_fract_x
 _atom_site_fract_y
 _atom_site_fract_z
 _atom_site_occupancy
  Cs  Cs0  1  0.21038000  0.59369900  0.78039500  1
  Cs  Cs1  1  0.34978000  0.95498600  0.42461900  1
  Cs  Cs2  1  0.47479000  0.20393600  0.05045900  1
  Cs  Cs3  1  0.97479000  0.79606400  0.44954100  1
  Cs  Cs4  1  0.71038000  0.40630100  0.71960500  1
  Cs  Cs5  1  0.84978000  0.04501400  0.07538100  1
  Cs  Cs6  1  0.15022000  0.95498600  0.92461900  1
  Cs  Cs7  1  0.28962000  0.59369900  0.28039500  1
  Cs  Cs8  1  0.02521000  0.20393600  0.55045900  1
  Cs  Cs9  1  0.52521000  0.79606400  0.94954100  1
  Cs  Cs10  1  0.65022000  0.04501400  0.57538100  1
  Cs  Cs11  1  0.78962000  0.40630100  0.21960500  1
  Ti  Ti12  1  0.13502200  0.32138300  0.12755800  1
  Ti  Ti13  1  0.63502200  0.67861700  0.37244200  1
  Ti  Ti14  1  0.36497800  0.32138300  0.62755800  1
  Ti  Ti15  1  0.86497800  0.67861700  0.87244200  1
  O  O16  1  0.00000000  0.50000000  0.00000000  1
  O  O17  1  0.91055000  0.74583400  0.71110500  1
  O  O18  1  0.71493700  0.51105200  0.92637100  1
  O  O19  1  0.66188800  0.93245900  0.36495400  1
  O  O20  1  0.16188800  0.06754100  0.13504600  1
  O  O21  1  0.21493700  0.48894800  0.57362900  1
  O  O22  1  0.41055000  0.25416600  0.78889500  1
  O  O23  1  0.50000000  0.50000000  0.50000000  1
  O  O24  1  0.58945000  0.74583400  0.21110500  1
  O  O25  1  0.78506300  0.51105200  0.42637100  1
  O  O26  1  0.83811200  0.93245900  0.86495400  1
  O  O27  1  0.33811200  0.06754100  0.63504600  1
  O  O28  1  0.28506300  0.48894800  0.07362900  1
  O  O29  1  0.08945000  0.25416600  0.28889500  1
