# generated using pymatgen
data_Mn2(SO4)3
_symmetry_space_group_name_H-M   'P 1'
_cell_length_a   8.59727000
_cell_length_b   8.55821300
_cell_length_c   14.30784366
_cell_angle_alpha   55.33755716
_cell_angle_beta   90.00000000
_cell_angle_gamma   90.00000000
_symmetry_Int_Tables_number   1
_chemical_formula_structural   Mn2(SO4)3
_chemical_formula_sum   'Mn8 S12 O48'
_cell_volume   865.89003028
_cell_formula_units_Z   4
loop_
 _symmetry_equiv_pos_site_id
 _symmetry_equiv_pos_as_xyz
  1  'x, y, z'
loop_
 _atom_site_type_symbol
 _atom_site_label
 _atom_site_symmetry_multiplicity
 _atom_site_fract_x
 _atom_site_fract_y
 _atom_site_fract_z
 _atom_site_occupancy
  Mn  Mn0  1  0.96975700  0.36587800  0.88764500  1
  Mn  Mn1  1  0.46975700  0.63412200  0.61235500  1
  Mn  Mn2  1  0.03176400  0.86662600  0.38440100  1
  Mn  Mn3  1  0.53176400  0.13337400  0.11559900  1
  Mn  Mn4  1  0.46823600  0.86662600  0.88440100  1
  Mn  Mn5  1  0.96823600  0.13337400  0.61559900  1
  Mn  Mn6  1  0.53024300  0.36587800  0.38764500  1
  Mn  Mn7  1  0.03024300  0.63412200  0.11235500  1
  S  S8  1  0.75433900  0.55586400  0.49143400  1
  S  S9  1  0.62268500  0.26213200  0.85029300  1
  S  S10  1  0.88276100  0.97413200  0.14473100  1
  S  S11  1  0.12268500  0.73786800  0.64970700  1
  S  S12  1  0.38276100  0.02586800  0.35526900  1
  S  S13  1  0.25433900  0.44413600  0.00856600  1
  S  S14  1  0.74566100  0.55586400  0.99143400  1
  S  S15  1  0.61723900  0.97413200  0.64473100  1
  S  S16  1  0.87731500  0.26213200  0.35029300  1
  S  S17  1  0.11723900  0.02586800  0.85526900  1
  S  S18  1  0.37731500  0.73786800  0.14970700  1
  S  S19  1  0.24566100  0.44413600  0.50856600  1
  O  O20  1  0.13221200  0.59655900  0.44680000  1
  O  O21  1  0.11776400  0.14441700  0.89923500  1
  O  O22  1  0.32245000  0.44353100  0.60072300  1
  O  O23  1  0.41750400  0.86007200  0.18711900  1
  O  O24  1  0.64131600  0.52576100  0.58038900  1
  O  O25  1  0.79657600  0.29192200  0.83345600  1
  O  O26  1  0.58867600  0.16039700  0.97365000  1
  O  O27  1  0.99173500  0.88390900  0.24367500  1
  O  O28  1  0.72530100  0.98059500  0.18747500  1
  O  O29  1  0.82572300  0.74715700  0.44317500  1
  O  O30  1  0.53804300  0.44518400  0.78614800  1
  O  O31  1  0.03804300  0.55481600  0.71385200  1
  O  O32  1  0.93590000  0.17092400  0.05934400  1
  O  O33  1  0.43590000  0.82907600  0.44065600  1
  O  O34  1  0.32572300  0.25284300  0.05682500  1
  O  O35  1  0.22530100  0.01940500  0.31252500  1
  O  O36  1  0.08867600  0.83960300  0.52635000  1
  O  O37  1  0.49173500  0.11609100  0.25632500  1
  O  O38  1  0.29657600  0.70807800  0.66654400  1
  O  O39  1  0.14131600  0.47423900  0.91961100  1
  O  O40  1  0.82245000  0.55646900  0.89927700  1
  O  O41  1  0.61776400  0.85558300  0.60076500  1
  O  O42  1  0.91750400  0.13992800  0.31288100  1
  O  O43  1  0.63221200  0.40344100  0.05320000  1
  O  O44  1  0.36778800  0.59655900  0.94680000  1
  O  O45  1  0.08249600  0.86007200  0.68711900  1
  O  O46  1  0.38223600  0.14441700  0.39923500  1
  O  O47  1  0.17755000  0.44353100  0.10072300  1
  O  O48  1  0.85868400  0.52576100  0.08038900  1
  O  O49  1  0.70342400  0.29192200  0.33345600  1
  O  O50  1  0.50826500  0.88390900  0.74367500  1
  O  O51  1  0.91132400  0.16039700  0.47365000  1
  O  O52  1  0.77469900  0.98059500  0.68747500  1
  O  O53  1  0.67427700  0.74715700  0.94317500  1
  O  O54  1  0.56410000  0.17092400  0.55934400  1
  O  O55  1  0.06410000  0.82907600  0.94065600  1
  O  O56  1  0.96195700  0.44518400  0.28614800  1
  O  O57  1  0.46195700  0.55481600  0.21385200  1
  O  O58  1  0.17427700  0.25284300  0.55682500  1
  O  O59  1  0.27469900  0.01940500  0.81252500  1
  O  O60  1  0.00826500  0.11609100  0.75632500  1
  O  O61  1  0.41132400  0.83960300  0.02635000  1
  O  O62  1  0.20342400  0.70807800  0.16654400  1
  O  O63  1  0.35868400  0.47423900  0.41961100  1
  O  O64  1  0.58249600  0.13992800  0.81288100  1
  O  O65  1  0.67755000  0.55646900  0.39927700  1
  O  O66  1  0.88223600  0.85558300  0.10076500  1
  O  O67  1  0.86778800  0.40344100  0.55320000  1
