# generated using pymatgen
data_K2ScPCO7
_symmetry_space_group_name_H-M   'P 1'
_cell_length_a   6.91103700
_cell_length_b   5.72284400
_cell_length_c   9.78340370
_cell_angle_alpha   89.01567964
_cell_angle_beta   90.00000000
_cell_angle_gamma   90.00000000
_symmetry_Int_Tables_number   1
_chemical_formula_structural   K2ScPCO7
_chemical_formula_sum   'K4 Sc2 P2 C2 O14'
_cell_volume   386.88421278
_cell_formula_units_Z   2
loop_
 _symmetry_equiv_pos_site_id
 _symmetry_equiv_pos_as_xyz
  1  'x, y, z'
loop_
 _atom_site_type_symbol
 _atom_site_label
 _atom_site_symmetry_multiplicity
 _atom_site_fract_x
 _atom_site_fract_y
 _atom_site_fract_z
 _atom_site_occupancy
  K  K0  1  0.48326900  0.24727000  0.76619300  1
  K  K1  1  0.01673100  0.24727000  0.76619300  1
  K  K2  1  0.51673100  0.75273000  0.23380700  1
  K  K3  1  0.98326900  0.75273000  0.23380700  1
  Sc  Sc4  1  0.75000000  0.77578400  0.63907100  1
  Sc  Sc5  1  0.25000000  0.22421600  0.36092900  1
  P  P6  1  0.25000000  0.71779900  0.56685000  1
  P  P7  1  0.75000000  0.28220100  0.43315000  1
  C  C8  1  0.75000000  0.72967300  0.90310500  1
  C  C9  1  0.25000000  0.27032700  0.09689500  1
  O  O10  1  0.25000000  0.29703700  0.96982300  1
  O  O11  1  0.75000000  0.93510800  0.83950500  1
  O  O12  1  0.75000000  0.55236400  0.81700200  1
  O  O13  1  0.06422800  0.76246700  0.65118500  1
  O  O14  1  0.43577200  0.76246700  0.65118500  1
  O  O15  1  0.75000000  0.11806500  0.56268800  1
  O  O16  1  0.25000000  0.45659000  0.52042000  1
  O  O17  1  0.75000000  0.54341000  0.47958000  1
  O  O18  1  0.25000000  0.88193500  0.43731200  1
  O  O19  1  0.56422800  0.23753300  0.34881500  1
  O  O20  1  0.93577200  0.23753300  0.34881500  1
  O  O21  1  0.25000000  0.44763600  0.18299800  1
  O  O22  1  0.25000000  0.06489200  0.16049500  1
  O  O23  1  0.75000000  0.70296300  0.03017700  1
