# generated using pymatgen
data_GeF2
_symmetry_space_group_name_H-M   'P 1'
_cell_length_a   4.97134300
_cell_length_b   5.23964400
_cell_length_c   8.24597100
_cell_angle_alpha   90.00000000
_cell_angle_beta   90.00000000
_cell_angle_gamma   90.00000000
_symmetry_Int_Tables_number   1
_chemical_formula_structural   GeF2
_chemical_formula_sum   'Ge4 F8'
_cell_volume   214.79160939
_cell_formula_units_Z   4
loop_
 _symmetry_equiv_pos_site_id
 _symmetry_equiv_pos_as_xyz
  1  'x, y, z'
loop_
 _atom_site_type_symbol
 _atom_site_label
 _atom_site_symmetry_multiplicity
 _atom_site_fract_x
 _atom_site_fract_y
 _atom_site_fract_z
 _atom_site_occupancy
  Ge  Ge0  1  0.27392000  0.97467700  0.62401500  1
  Ge  Ge1  1  0.77392000  0.52532300  0.37598500  1
  Ge  Ge2  1  0.72608000  0.47467700  0.87598500  1
  Ge  Ge3  1  0.22608000  0.02532300  0.12401500  1
  F  F4  1  0.40535500  0.74619900  0.78527400  1
  F  F5  1  0.90535500  0.75380100  0.21472600  1
  F  F6  1  0.59464500  0.24619900  0.71472600  1
  F  F7  1  0.09464500  0.25380100  0.28527400  1
  F  F8  1  0.96555500  0.12701000  0.96926900  1
  F  F9  1  0.46555500  0.37299000  0.03073100  1
  F  F10  1  0.03444500  0.62701000  0.53073100  1
  F  F11  1  0.53444500  0.87299000  0.46926900  1
