# generated using pymatgen
data_KBePO4
_symmetry_space_group_name_H-M   'P 1'
_cell_length_a   4.98884900
_cell_length_b   8.45681900
_cell_length_c   8.62499800
_cell_angle_alpha   90.00000000
_cell_angle_beta   90.00000000
_cell_angle_gamma   90.00000000
_symmetry_Int_Tables_number   1
_chemical_formula_structural   KBePO4
_chemical_formula_sum   'K4 Be4 P4 O16'
_cell_volume   363.88688034
_cell_formula_units_Z   4
loop_
 _symmetry_equiv_pos_site_id
 _symmetry_equiv_pos_as_xyz
  1  'x, y, z'
loop_
 _atom_site_type_symbol
 _atom_site_label
 _atom_site_symmetry_multiplicity
 _atom_site_fract_x
 _atom_site_fract_y
 _atom_site_fract_z
 _atom_site_occupancy
  K  K0  1  0.25256900  0.49731800  0.29214500  1
  K  K1  1  0.75256900  0.50268200  0.70785500  1
  K  K2  1  0.75256900  0.00268200  0.79214500  1
  K  K3  1  0.25256900  0.99731800  0.20785500  1
  Be  Be4  1  0.74086200  0.81848700  0.41043800  1
  Be  Be5  1  0.24086200  0.18151300  0.58956200  1
  Be  Be6  1  0.24086200  0.68151300  0.91043800  1
  Be  Be7  1  0.74086200  0.31848700  0.08956200  1
  P  P8  1  0.73944900  0.69016900  0.08150800  1
  P  P9  1  0.23944900  0.30983100  0.91849200  1
  P  P10  1  0.23944900  0.80983100  0.58150800  1
  P  P11  1  0.73944900  0.19016900  0.41849200  1
  O  O12  1  0.64842000  0.76047800  0.23804100  1
  O  O13  1  0.14842000  0.23952200  0.76195900  1
  O  O14  1  0.14842000  0.73952200  0.73804100  1
  O  O15  1  0.64842000  0.26047800  0.26195900  1
  O  O16  1  0.02449600  0.25078100  0.46055600  1
  O  O17  1  0.52449600  0.74921900  0.53944400  1
  O  O18  1  0.52449600  0.24921900  0.96055600  1
  O  O19  1  0.02449600  0.75078100  0.03944400  1
  O  O20  1  0.04093400  0.75335600  0.45348000  1
  O  O21  1  0.54093400  0.24664400  0.54652000  1
  O  O22  1  0.54093400  0.74664400  0.95348000  1
  O  O23  1  0.04093400  0.25335600  0.04652000  1
  O  O24  1  0.73836900  0.00953400  0.40551100  1
  O  O25  1  0.23836900  0.99046600  0.59448900  1
  O  O26  1  0.23836900  0.49046600  0.90551100  1
  O  O27  1  0.73836900  0.50953400  0.09448900  1
