# generated using pymatgen
data_Ba3Zr2O7
_symmetry_space_group_name_H-M   'P 1'
_cell_length_a   11.44932808
_cell_length_b   11.44932808
_cell_length_c   11.44932808
_cell_angle_alpha   158.57286465
_cell_angle_beta   158.57286465
_cell_angle_gamma   30.48457008
_symmetry_Int_Tables_number   1
_chemical_formula_structural   Ba3Zr2O7
_chemical_formula_sum   'Ba3 Zr2 O7'
_cell_volume   200.17184745
_cell_formula_units_Z   1
loop_
 _symmetry_equiv_pos_site_id
 _symmetry_equiv_pos_as_xyz
  1  'x, y, z'
loop_
 _atom_site_type_symbol
 _atom_site_label
 _atom_site_symmetry_multiplicity
 _atom_site_fract_x
 _atom_site_fract_y
 _atom_site_fract_z
 _atom_site_occupancy
  Ba  Ba0  1  0.00000000  0.00000000  0.00000000  1
  Ba  Ba1  1  0.81447700  0.81447700  0.00000000  1
  Ba  Ba2  1  0.18552300  0.18552300  0.00000000  1
  Zr  Zr3  1  0.59736600  0.59736600  0.00000000  1
  Zr  Zr4  1  0.40263400  0.40263400  0.00000000  1
  O  O5  1  0.09619300  0.59619300  0.50000000  1
  O  O6  1  0.50000000  0.50000000  0.00000000  1
  O  O7  1  0.69318900  0.69318900  0.00000000  1
  O  O8  1  0.40380700  0.90380700  0.50000000  1
  O  O9  1  0.59619300  0.09619300  0.50000000  1
  O  O10  1  0.30681100  0.30681100  0.00000000  1
  O  O11  1  0.90380700  0.40380700  0.50000000  1
