# generated using pymatgen
data_CsErZnSe3
_symmetry_space_group_name_H-M   'P 1'
_cell_length_a   8.40679012
_cell_length_b   8.40679012
_cell_length_c   10.94724500
_cell_angle_alpha   90.00000000
_cell_angle_beta   90.00000000
_cell_angle_gamma   151.34773728
_symmetry_Int_Tables_number   1
_chemical_formula_structural   CsErZnSe3
_chemical_formula_sum   'Cs2 Er2 Zn2 Se6'
_cell_volume   370.97708284
_cell_formula_units_Z   2
loop_
 _symmetry_equiv_pos_site_id
 _symmetry_equiv_pos_as_xyz
  1  'x, y, z'
loop_
 _atom_site_type_symbol
 _atom_site_label
 _atom_site_symmetry_multiplicity
 _atom_site_fract_x
 _atom_site_fract_y
 _atom_site_fract_z
 _atom_site_occupancy
  Cs  Cs0  1  0.74412300  0.25587700  0.25000000  1
  Cs  Cs1  1  0.25587700  0.74412300  0.75000000  1
  Er  Er2  1  0.00000000  0.00000000  0.50000000  1
  Er  Er3  1  0.00000000  0.00000000  0.00000000  1
  Zn  Zn4  1  0.46289300  0.53710700  0.25000000  1
  Zn  Zn5  1  0.53710700  0.46289300  0.75000000  1
  Se  Se6  1  0.05563600  0.94436400  0.25000000  1
  Se  Se7  1  0.94436400  0.05563600  0.75000000  1
  Se  Se8  1  0.61473000  0.38527000  0.94211100  1
  Se  Se9  1  0.38527000  0.61473000  0.05788900  1
  Se  Se10  1  0.38527000  0.61473000  0.44211100  1
  Se  Se11  1  0.61473000  0.38527000  0.55788900  1
