# generated using pymatgen
data_Li2Mn3(SeO3)4
_symmetry_space_group_name_H-M   'P 1'
_cell_length_a   7.69999200
_cell_length_b   8.54763002
_cell_length_c   10.80446720
_cell_angle_alpha   105.84676626
_cell_angle_beta   88.11800829
_cell_angle_gamma   116.02827353
_symmetry_Int_Tables_number   1
_chemical_formula_structural   Li2Mn3(SeO3)4
_chemical_formula_sum   'Li4 Mn6 Se8 O24'
_cell_volume   611.58663622
_cell_formula_units_Z   2
loop_
 _symmetry_equiv_pos_site_id
 _symmetry_equiv_pos_as_xyz
  1  'x, y, z'
loop_
 _atom_site_type_symbol
 _atom_site_label
 _atom_site_symmetry_multiplicity
 _atom_site_fract_x
 _atom_site_fract_y
 _atom_site_fract_z
 _atom_site_occupancy
  Li  Li0  1  0.75119300  0.54379200  0.92959700  1
  Li  Li1  1  0.64838600  0.54509000  0.41573300  1
  Li  Li2  1  0.35161400  0.45491000  0.58426700  1
  Li  Li3  1  0.24880700  0.45620800  0.07040300  1
  Mn  Mn4  1  0.00000000  0.00000000  0.00000000  1
  Mn  Mn5  1  0.00000000  0.00000000  0.50000000  1
  Mn  Mn6  1  0.93885500  0.28395600  0.78324300  1
  Mn  Mn7  1  0.94543100  0.62591500  0.67332600  1
  Mn  Mn8  1  0.05456900  0.37408500  0.32667400  1
  Mn  Mn9  1  0.06114500  0.71604400  0.21675700  1
  Se  Se10  1  0.71217700  0.21223700  0.47914500  1
  Se  Se11  1  0.72694400  0.24579100  0.06715500  1
  Se  Se12  1  0.67671100  0.74118100  0.20448300  1
  Se  Se13  1  0.68043200  0.81785300  0.72987000  1
  Se  Se14  1  0.31956800  0.18214700  0.27013000  1
  Se  Se15  1  0.32328900  0.25881900  0.79551700  1
  Se  Se16  1  0.27305600  0.75420900  0.93284500  1
  Se  Se17  1  0.28782300  0.78776300  0.52085500  1
  O  O18  1  0.90239300  0.16062400  0.42748300  1
  O  O19  1  0.95821700  0.40971200  0.15179900  1
  O  O20  1  0.75132300  0.04926900  0.02512700  1
  O  O21  1  0.78575800  0.33621100  0.64063900  1
  O  O22  1  0.74057800  0.29939100  0.92315100  1
  O  O23  1  0.77830000  0.38419000  0.40714400  1
  O  O24  1  0.86838000  0.81423200  0.81327200  1
  O  O25  1  0.85702400  0.74963600  0.09629900  1
  O  O26  1  0.80810600  0.73961100  0.33635900  1
  O  O27  1  0.64291500  0.62888700  0.60404500  1
  O  O28  1  0.79915800  0.99350600  0.65945700  1
  O  O29  1  0.49022900  0.47841000  0.84660800  1
  O  O30  1  0.50977100  0.52159000  0.15339200  1
  O  O31  1  0.20084200  0.00649400  0.34054300  1
  O  O32  1  0.35708500  0.37111300  0.39595500  1
  O  O33  1  0.19189400  0.26038900  0.66364100  1
  O  O34  1  0.14297600  0.25036400  0.90370100  1
  O  O35  1  0.13162000  0.18576800  0.18672800  1
  O  O36  1  0.22170000  0.61581000  0.59285600  1
  O  O37  1  0.25942200  0.70060900  0.07684900  1
  O  O38  1  0.21424200  0.66378900  0.35936100  1
  O  O39  1  0.24867700  0.95073100  0.97487300  1
  O  O40  1  0.04178300  0.59028800  0.84820100  1
  O  O41  1  0.09760700  0.83937600  0.57251700  1
