# generated using pymatgen
data_K2W4O13
_symmetry_space_group_name_H-M   'P 1'
_cell_length_a   3.88632800
_cell_length_b   15.99132014
_cell_length_c   16.01435701
_cell_angle_alpha   119.89317885
_cell_angle_beta   90.03057925
_cell_angle_gamma   90.00753132
_symmetry_Int_Tables_number   1
_chemical_formula_structural   K2W4O13
_chemical_formula_sum   'K6 W12 O39'
_cell_volume   862.83999751
_cell_formula_units_Z   3
loop_
 _symmetry_equiv_pos_site_id
 _symmetry_equiv_pos_as_xyz
  1  'x, y, z'
loop_
 _atom_site_type_symbol
 _atom_site_label
 _atom_site_symmetry_multiplicity
 _atom_site_fract_x
 _atom_site_fract_y
 _atom_site_fract_z
 _atom_site_occupancy
  K  K0  1  0.50024900  0.99797100  0.99909200  1
  K  K1  1  0.47281200  0.19398300  0.50474600  1
  K  K2  1  0.47305200  0.31416600  0.81015900  1
  K  K3  1  0.52692200  0.68566500  0.18267200  1
  K  K4  1  0.52755700  0.81449000  0.50162800  1
  K  K5  1  0.52781200  0.49882000  0.31461300  1
  W  W6  1  0.96926400  0.72954100  0.81984100  1
  W  W7  1  0.97826300  0.36303300  0.45475900  1
  W  W8  1  0.97543100  0.54838900  0.90879000  1
  W  W9  1  0.97230300  0.09033500  0.26792000  1
  W  W10  1  0.02573000  0.82274600  0.08799400  1
  W  W11  1  0.97656000  0.08674600  0.63796800  1
  W  W12  1  0.02326600  0.91126600  0.36114400  1
  W  W13  1  0.97242800  0.17749100  0.91067700  1
  W  W14  1  0.02829500  0.90949800  0.73410200  1
  W  W15  1  0.02261600  0.45077000  0.08775400  1
  W  W16  1  0.02727300  0.63736600  0.54950500  1
  W  W17  1  0.02656100  0.26724200  0.17814800  1
  O  O18  1  0.00351000  0.81829800  0.96854600  1
  O  O19  1  0.48993700  0.73485100  0.82905600  1
  O  O20  1  0.99551300  0.65479800  0.68899200  1
  O  O21  1  0.00099800  0.50031700  0.50040300  1
  O  O22  1  0.99051700  0.62260500  0.84457600  1
  O  O23  1  0.48840200  0.36200700  0.44122000  1
  O  O24  1  0.48775200  0.55868400  0.92234000  1
  O  O25  1  0.98358100  0.36150800  0.56361100  1
  O  O26  1  0.00291000  0.15048800  0.18201000  1
  O  O27  1  0.99011100  0.22127300  0.37755000  1
  O  O28  1  0.98139300  0.43103100  0.80693900  1
  O  O29  1  0.49033900  0.09519000  0.26689000  1
  O  O30  1  0.99643100  0.96895700  0.15196500  1
  O  O31  1  0.98513300  0.19490500  0.63027400  1
  O  O32  1  0.99867200  0.03913100  0.34988700  1
  O  O33  1  0.99878100  0.31030100  0.96072100  1
  O  O34  1  0.50913800  0.82969900  0.09599600  1
  O  O35  1  0.48795300  0.07794700  0.63751100  1
  O  O36  1  0.98936300  0.15721800  0.77820300  1
  O  O37  1  0.99979700  0.99905100  0.49998400  1
  O  O38  1  0.01087500  0.84285400  0.22210700  1
  O  O39  1  0.51203200  0.92098000  0.36293600  1
  O  O40  1  0.49043400  0.17150900  0.90436100  1
  O  O41  1  0.00130900  0.69093100  0.04000300  1
  O  O42  1  0.00110700  0.96097700  0.65157600  1
  O  O43  1  0.01500600  0.80362800  0.36989900  1
  O  O44  1  0.00393600  0.03185200  0.84895300  1
  O  O45  1  0.51026500  0.90496900  0.73383100  1
  O  O46  1  0.00108800  0.50191200  0.00199200  1
  O  O47  1  0.01557900  0.56569200  0.19669700  1
  O  O48  1  0.01206900  0.77893600  0.62047400  1
  O  O49  1  0.99816200  0.84919600  0.81749700  1
  O  O50  1  0.01371100  0.63062500  0.43397100  1
  O  O51  1  0.51208200  0.44149300  0.07915400  1
  O  O52  1  0.51309900  0.63870800  0.55720300  1
  O  O53  1  0.01038900  0.37831600  0.15631700  1
  O  O54  1  0.00239700  0.34931500  0.30918800  1
  O  O55  1  0.50947000  0.26583700  0.17034500  1
  O  O56  1  0.99616200  0.18224000  0.03089200  1
