# generated using pymatgen
data_BaP3
_symmetry_space_group_name_H-M   'P 1'
_cell_length_a   7.06415141
_cell_length_b   7.06415141
_cell_length_c   4.80018189
_cell_angle_alpha   71.33324389
_cell_angle_beta   71.33324389
_cell_angle_gamma   66.52623869
_symmetry_Int_Tables_number   1
_chemical_formula_structural   BaP3
_chemical_formula_sum   'Ba2 P6'
_cell_volume   202.98266739
_cell_formula_units_Z   2
loop_
 _symmetry_equiv_pos_site_id
 _symmetry_equiv_pos_as_xyz
  1  'x, y, z'
loop_
 _atom_site_type_symbol
 _atom_site_label
 _atom_site_symmetry_multiplicity
 _atom_site_fract_x
 _atom_site_fract_y
 _atom_site_fract_z
 _atom_site_occupancy
  Ba  Ba0  1  0.82589300  0.82589300  0.31566100  1
  Ba  Ba1  1  0.17410700  0.17410700  0.68433900  1
  P  P2  1  0.59156900  0.59156900  0.02092200  1
  P  P3  1  0.40843100  0.40843100  0.97907800  1
  P  P4  1  0.18461800  0.64929400  0.70915100  1
  P  P5  1  0.35070600  0.81538200  0.29084900  1
  P  P6  1  0.81538200  0.35070600  0.29084900  1
  P  P7  1  0.64929400  0.18461800  0.70915100  1
