# generated using pymatgen
data_SmF3
_symmetry_space_group_name_H-M   'P 1'
_cell_length_a   4.46025400
_cell_length_b   6.67913800
_cell_length_c   7.10106400
_cell_angle_alpha   90.00000000
_cell_angle_beta   90.00000000
_cell_angle_gamma   90.00000000
_symmetry_Int_Tables_number   1
_chemical_formula_structural   SmF3
_chemical_formula_sum   'Sm4 F12'
_cell_volume   211.54532632
_cell_formula_units_Z   4
loop_
 _symmetry_equiv_pos_site_id
 _symmetry_equiv_pos_as_xyz
  1  'x, y, z'
loop_
 _atom_site_type_symbol
 _atom_site_label
 _atom_site_symmetry_multiplicity
 _atom_site_fract_x
 _atom_site_fract_y
 _atom_site_fract_z
 _atom_site_occupancy
  Sm  Sm0  1  0.93517300  0.63180600  0.75000000  1
  Sm  Sm1  1  0.43517300  0.86819400  0.25000000  1
  Sm  Sm2  1  0.56482700  0.13180600  0.75000000  1
  Sm  Sm3  1  0.06482700  0.36819400  0.25000000  1
  F  F4  1  0.07913500  0.98040300  0.75000000  1
  F  F5  1  0.57913500  0.51959700  0.25000000  1
  F  F6  1  0.42086500  0.48040300  0.75000000  1
  F  F7  1  0.92086500  0.01959700  0.25000000  1
  F  F8  1  0.38676500  0.16410600  0.06414900  1
  F  F9  1  0.88676500  0.33589400  0.93585100  1
  F  F10  1  0.11323500  0.66410600  0.43585100  1
  F  F11  1  0.61323500  0.83589400  0.56414900  1
  F  F12  1  0.61323500  0.83589400  0.93585100  1
  F  F13  1  0.11323500  0.66410600  0.06414900  1
  F  F14  1  0.88676500  0.33589400  0.56414900  1
  F  F15  1  0.38676500  0.16410600  0.43585100  1
