# generated using pymatgen
data_Rb2MgH12(SeO7)2
_symmetry_space_group_name_H-M   'P 1'
_cell_length_a   12.84624300
_cell_length_b   6.39718000
_cell_length_c   9.46236415
_cell_angle_alpha   74.91538086
_cell_angle_beta   90.00000000
_cell_angle_gamma   90.00000000
_symmetry_Int_Tables_number   1
_chemical_formula_structural   Rb2MgH12(SeO7)2
_chemical_formula_sum   'Rb4 Mg2 H24 Se4 O28'
_cell_volume   750.81988888
_cell_formula_units_Z   2
loop_
 _symmetry_equiv_pos_site_id
 _symmetry_equiv_pos_as_xyz
  1  'x, y, z'
loop_
 _atom_site_type_symbol
 _atom_site_label
 _atom_site_symmetry_multiplicity
 _atom_site_fract_x
 _atom_site_fract_y
 _atom_site_fract_z
 _atom_site_occupancy
  Rb  Rb0  1  0.34586100  0.65841800  0.13164200  1
  Rb  Rb1  1  0.84586100  0.34158200  0.36835800  1
  Rb  Rb2  1  0.15413900  0.65841800  0.63164200  1
  Rb  Rb3  1  0.65413900  0.34158200  0.86835800  1
  Mg  Mg4  1  0.00000000  0.00000000  0.00000000  1
  Mg  Mg5  1  0.50000000  0.00000000  0.50000000  1
  H  H6  1  0.05607200  0.34593800  0.08984600  1
  H  H7  1  0.86078600  0.66736400  0.03117300  1
  H  H8  1  0.81904200  0.00424700  0.13966500  1
  H  H9  1  0.40422300  0.06665700  0.23580800  1
  H  H10  1  0.62866700  0.08940700  0.26764400  1
  H  H11  1  0.09005900  0.68415400  0.20583400  1
  H  H12  1  0.59005900  0.31584600  0.29416600  1
  H  H13  1  0.12866700  0.91059300  0.23235600  1
  H  H14  1  0.90422300  0.93334300  0.26419200  1
  H  H15  1  0.31904200  0.99575300  0.36033500  1
  H  H16  1  0.36078600  0.33263600  0.46882700  1
  H  H17  1  0.55607200  0.65406200  0.41015400  1
  H  H18  1  0.44392800  0.34593800  0.58984600  1
  H  H19  1  0.63921400  0.66736400  0.53117300  1
  H  H20  1  0.68095800  0.00424700  0.63966500  1
  H  H21  1  0.09577700  0.06665700  0.73580800  1
  H  H22  1  0.87133300  0.08940700  0.76764400  1
  H  H23  1  0.40994100  0.68415400  0.70583400  1
  H  H24  1  0.90994100  0.31584600  0.79416600  1
  H  H25  1  0.37133300  0.91059300  0.73235600  1
  H  H26  1  0.59577700  0.93334300  0.76419200  1
  H  H27  1  0.18095800  0.99575300  0.86033500  1
  H  H28  1  0.13921400  0.33263600  0.96882700  1
  H  H29  1  0.94392800  0.65406200  0.91015400  1
  Se  Se30  1  0.64010700  0.73204800  0.09624400  1
  Se  Se31  1  0.14010700  0.26795200  0.40375600  1
  Se  Se32  1  0.85989300  0.73204800  0.59624400  1
  Se  Se33  1  0.35989300  0.26795200  0.90375600  1
  O  O34  1  0.06610400  0.29413600  0.00055800  1
  O  O35  1  0.42742700  0.21934500  0.06013200  1
  O  O36  1  0.89294100  0.02736100  0.16339900  1
  O  O37  1  0.74174800  0.57049400  0.08789100  1
  O  O38  1  0.68283800  0.96485600  0.12822900  1
  O  O39  1  0.10881500  0.83616100  0.15615800  1
  O  O40  1  0.56227900  0.59855700  0.23313000  1
  O  O41  1  0.06227900  0.40144300  0.26687000  1
  O  O42  1  0.60881500  0.16383900  0.34384200  1
  O  O43  1  0.18283800  0.03514400  0.37177100  1
  O  O44  1  0.24174800  0.42950600  0.41210900  1
  O  O45  1  0.39294100  0.97263900  0.33660100  1
  O  O46  1  0.43389600  0.29413600  0.50055800  1
  O  O47  1  0.92742700  0.78065500  0.43986800  1
  O  O48  1  0.07257300  0.21934500  0.56013200  1
  O  O49  1  0.56610400  0.70586400  0.49944200  1
  O  O50  1  0.60705900  0.02736100  0.66339900  1
  O  O51  1  0.75825200  0.57049400  0.58789100  1
  O  O52  1  0.81716200  0.96485600  0.62822900  1
  O  O53  1  0.39118500  0.83616100  0.65615800  1
  O  O54  1  0.93772100  0.59855700  0.73313000  1
  O  O55  1  0.43772100  0.40144300  0.76687000  1
  O  O56  1  0.89118500  0.16383900  0.84384200  1
  O  O57  1  0.31716200  0.03514400  0.87177100  1
  O  O58  1  0.25825200  0.42950600  0.91210900  1
  O  O59  1  0.10705900  0.97263900  0.83660100  1
  O  O60  1  0.57257300  0.78065500  0.93986800  1
  O  O61  1  0.93389600  0.70586400  0.99944200  1
