# generated using pymatgen
data_Ba3Sn2O7
_symmetry_space_group_name_H-M   'P 1'
_cell_length_a   11.27634834
_cell_length_b   11.27634834
_cell_length_c   5.94049600
_cell_angle_alpha   90.00000000
_cell_angle_beta   90.00000000
_cell_angle_gamma   149.39540046
_symmetry_Int_Tables_number   1
_chemical_formula_structural   Ba3Sn2O7
_chemical_formula_sum   'Ba6 Sn4 O14'
_cell_volume   384.56675570
_cell_formula_units_Z   2
loop_
 _symmetry_equiv_pos_site_id
 _symmetry_equiv_pos_as_xyz
  1  'x, y, z'
loop_
 _atom_site_type_symbol
 _atom_site_label
 _atom_site_symmetry_multiplicity
 _atom_site_fract_x
 _atom_site_fract_y
 _atom_site_fract_z
 _atom_site_occupancy
  Ba  Ba0  1  0.06208800  0.43192200  0.75000000  1
  Ba  Ba1  1  0.56807800  0.93791200  0.25000000  1
  Ba  Ba2  1  0.93791200  0.56807800  0.25000000  1
  Ba  Ba3  1  0.43192200  0.06208800  0.75000000  1
  Ba  Ba4  1  0.74888700  0.74888700  0.25000000  1
  Ba  Ba5  1  0.25111300  0.25111300  0.75000000  1
  Sn  Sn6  1  0.15361500  0.34615200  0.25000000  1
  Sn  Sn7  1  0.65384800  0.84638500  0.75000000  1
  Sn  Sn8  1  0.84638500  0.65384800  0.75000000  1
  Sn  Sn9  1  0.34615200  0.15361500  0.25000000  1
  O  O10  1  0.90844600  0.09155400  0.00000000  1
  O  O11  1  0.90844600  0.09155400  0.50000000  1
  O  O12  1  0.40078500  0.59921500  0.50000000  1
  O  O13  1  0.40078500  0.59921500  0.00000000  1
  O  O14  1  0.04214000  0.42576000  0.25000000  1
  O  O15  1  0.57424000  0.95786000  0.75000000  1
  O  O16  1  0.42576000  0.04214000  0.25000000  1
  O  O17  1  0.95786000  0.57424000  0.75000000  1
  O  O18  1  0.59921500  0.40078500  0.00000000  1
  O  O19  1  0.59921500  0.40078500  0.50000000  1
  O  O20  1  0.09155400  0.90844600  0.50000000  1
  O  O21  1  0.09155400  0.90844600  0.00000000  1
  O  O22  1  0.72736900  0.72736900  0.75000000  1
  O  O23  1  0.27263100  0.27263100  0.25000000  1
