# generated using pymatgen
data_CsFeH24(SeO10)2
_symmetry_space_group_name_H-M   'P 1'
_cell_length_a   12.77656925
_cell_length_b   12.77656925
_cell_length_c   12.77656925
_cell_angle_alpha   90.00000000
_cell_angle_beta   90.00000000
_cell_angle_gamma   90.00000000
_symmetry_Int_Tables_number   1
_chemical_formula_structural   CsFeH24(SeO10)2
_chemical_formula_sum   'Cs4 Fe4 H96 Se8 O80'
_cell_volume   2085.65638650
_cell_formula_units_Z   4
loop_
 _symmetry_equiv_pos_site_id
 _symmetry_equiv_pos_as_xyz
  1  'x, y, z'
loop_
 _atom_site_type_symbol
 _atom_site_label
 _atom_site_symmetry_multiplicity
 _atom_site_fract_x
 _atom_site_fract_y
 _atom_site_fract_z
 _atom_site_occupancy
  Cs  Cs0  1  0.00000000  0.00000000  0.50000000  1
  Cs  Cs1  1  0.00000000  0.50000000  0.00000000  1
  Cs  Cs2  1  0.50000000  0.00000000  0.00000000  1
  Cs  Cs3  1  0.50000000  0.50000000  0.50000000  1
  Fe  Fe4  1  0.50000000  0.50000000  0.00000000  1
  Fe  Fe5  1  0.50000000  0.00000000  0.50000000  1
  Fe  Fe6  1  0.00000000  0.50000000  0.50000000  1
  Fe  Fe7  1  0.00000000  0.00000000  0.00000000  1
  H  H8  1  0.21855108  0.62135427  0.16911557  1
  H  H9  1  0.78144892  0.12135427  0.33088443  1
  H  H10  1  0.28144892  0.37864573  0.66911557  1
  H  H11  1  0.71855108  0.87864573  0.83088443  1
  H  H12  1  0.16911557  0.21855108  0.62135427  1
  H  H13  1  0.33088443  0.78144892  0.12135427  1
  H  H14  1  0.66911557  0.28144892  0.37864573  1
  H  H15  1  0.83088443  0.71855108  0.87864573  1
  H  H16  1  0.62135427  0.16911557  0.21855108  1
  H  H17  1  0.12135427  0.33088443  0.78144892  1
  H  H18  1  0.37864573  0.66911557  0.28144892  1
  H  H19  1  0.87864573  0.83088443  0.71855108  1
  H  H20  1  0.78144892  0.37864573  0.83088443  1
  H  H21  1  0.21855108  0.87864573  0.66911557  1
  H  H22  1  0.71855108  0.62135427  0.33088443  1
  H  H23  1  0.28144892  0.12135427  0.16911557  1
  H  H24  1  0.83088443  0.78144892  0.37864573  1
  H  H25  1  0.66911557  0.21855108  0.87864573  1
  H  H26  1  0.33088443  0.71855108  0.62135427  1
  H  H27  1  0.16911557  0.28144892  0.12135427  1
  H  H28  1  0.37864573  0.83088443  0.78144892  1
  H  H29  1  0.87864573  0.66911557  0.21855108  1
  H  H30  1  0.62135427  0.33088443  0.71855108  1
  H  H31  1  0.12135427  0.16911557  0.28144892  1
  H  H32  1  0.21862925  0.50162927  0.19323059  1
  H  H33  1  0.78137075  0.00162927  0.30676941  1
  H  H34  1  0.28137075  0.49837073  0.69323059  1
  H  H35  1  0.71862925  0.99837073  0.80676941  1
  H  H36  1  0.19323059  0.21862925  0.50162927  1
  H  H37  1  0.30676941  0.78137075  0.00162927  1
  H  H38  1  0.69323059  0.28137075  0.49837073  1
  H  H39  1  0.80676941  0.71862925  0.99837073  1
  H  H40  1  0.50162927  0.19323059  0.21862925  1
  H  H41  1  0.00162927  0.30676941  0.78137075  1
  H  H42  1  0.49837073  0.69323059  0.28137075  1
  H  H43  1  0.99837073  0.80676941  0.71862925  1
  H  H44  1  0.78137075  0.49837073  0.80676941  1
  H  H45  1  0.21862925  0.99837073  0.69323059  1
  H  H46  1  0.71862925  0.50162927  0.30676941  1
  H  H47  1  0.28137075  0.00162927  0.19323059  1
  H  H48  1  0.80676941  0.78137075  0.49837073  1
  H  H49  1  0.69323059  0.21862925  0.99837073  1
  H  H50  1  0.30676941  0.71862925  0.50162927  1
  H  H51  1  0.19323059  0.28137075  0.00162927  1
  H  H52  1  0.49837073  0.80676941  0.78137075  1
  H  H53  1  0.99837073  0.69323059  0.21862925  1
  H  H54  1  0.50162927  0.30676941  0.71862925  1
  H  H55  1  0.00162927  0.19323059  0.28137075  1
  H  H56  1  0.58155168  0.69172817  0.03434858  1
  H  H57  1  0.41844832  0.19172817  0.46565142  1
  H  H58  1  0.91844832  0.30827183  0.53434858  1
  H  H59  1  0.08155168  0.80827183  0.96565142  1
  H  H60  1  0.03434858  0.58155168  0.69172817  1
  H  H61  1  0.46565142  0.41844832  0.19172817  1
  H  H62  1  0.53434858  0.91844832  0.30827183  1
  H  H63  1  0.96565142  0.08155168  0.80827183  1
  H  H64  1  0.69172817  0.03434858  0.58155168  1
  H  H65  1  0.19172817  0.46565142  0.41844832  1
  H  H66  1  0.30827183  0.53434858  0.91844832  1
  H  H67  1  0.80827183  0.96565142  0.08155168  1
  H  H68  1  0.41844832  0.30827183  0.96565142  1
  H  H69  1  0.58155168  0.80827183  0.53434858  1
  H  H70  1  0.08155168  0.69172817  0.46565142  1
  H  H71  1  0.91844832  0.19172817  0.03434858  1
  H  H72  1  0.96565142  0.41844832  0.30827183  1
  H  H73  1  0.53434858  0.58155168  0.80827183  1
  H  H74  1  0.46565142  0.08155168  0.69172817  1
  H  H75  1  0.03434858  0.91844832  0.19172817  1
  H  H76  1  0.30827183  0.96565142  0.41844832  1
  H  H77  1  0.80827183  0.53434858  0.58155168  1
  H  H78  1  0.69172817  0.46565142  0.08155168  1
  H  H79  1  0.19172817  0.03434858  0.91844832  1
  H  H80  1  0.45469234  0.70807315  0.03071751  1
  H  H81  1  0.54530766  0.20807315  0.46928249  1
  H  H82  1  0.04530766  0.29192685  0.53071751  1
  H  H83  1  0.95469234  0.79192685  0.96928249  1
  H  H84  1  0.03071751  0.45469234  0.70807315  1
  H  H85  1  0.46928249  0.54530766  0.20807315  1
  H  H86  1  0.53071751  0.04530766  0.29192685  1
  H  H87  1  0.96928249  0.95469234  0.79192685  1
  H  H88  1  0.70807315  0.03071751  0.45469234  1
  H  H89  1  0.20807315  0.46928249  0.54530766  1
  H  H90  1  0.29192685  0.53071751  0.04530766  1
  H  H91  1  0.79192685  0.96928249  0.95469234  1
  H  H92  1  0.54530766  0.29192685  0.96928249  1
  H  H93  1  0.45469234  0.79192685  0.53071751  1
  H  H94  1  0.95469234  0.70807315  0.46928249  1
  H  H95  1  0.04530766  0.20807315  0.03071751  1
  H  H96  1  0.96928249  0.54530766  0.29192685  1
  H  H97  1  0.53071751  0.45469234  0.79192685  1
  H  H98  1  0.46928249  0.95469234  0.70807315  1
  H  H99  1  0.03071751  0.04530766  0.20807315  1
  H  H100  1  0.29192685  0.96928249  0.54530766  1
  H  H101  1  0.79192685  0.53071751  0.45469234  1
  H  H102  1  0.70807315  0.46928249  0.95469234  1
  H  H103  1  0.20807315  0.03071751  0.04530766  1
  Se  Se104  1  0.18873879  0.81126121  0.31126121  1
  Se  Se105  1  0.81126121  0.31126121  0.18873879  1
  Se  Se106  1  0.31126121  0.18873879  0.81126121  1
  Se  Se107  1  0.68873879  0.68873879  0.68873879  1
  Se  Se108  1  0.81126121  0.18873879  0.68873879  1
  Se  Se109  1  0.18873879  0.68873879  0.81126121  1
  Se  Se110  1  0.68873879  0.81126121  0.18873879  1
  Se  Se111  1  0.31126121  0.31126121  0.31126121  1
  O  O112  1  0.26495200  0.73504800  0.23504800  1
  O  O113  1  0.73504800  0.23504800  0.26495200  1
  O  O114  1  0.23504800  0.26495200  0.73504800  1
  O  O115  1  0.76495200  0.76495200  0.76495200  1
  O  O116  1  0.73504800  0.26495200  0.76495200  1
  O  O117  1  0.26495200  0.76495200  0.73504800  1
  O  O118  1  0.76495200  0.73504800  0.26495200  1
  O  O119  1  0.23504800  0.23504800  0.23504800  1
  O  O120  1  0.06682282  0.81318100  0.26296116  1
  O  O121  1  0.93317718  0.31318100  0.23703884  1
  O  O122  1  0.43317718  0.18681900  0.76296116  1
  O  O123  1  0.56682282  0.68681900  0.73703884  1
  O  O124  1  0.26296116  0.06682282  0.81318100  1
  O  O125  1  0.23703884  0.93317718  0.31318100  1
  O  O126  1  0.76296116  0.43317718  0.18681900  1
  O  O127  1  0.73703884  0.56682282  0.68681900  1
  O  O128  1  0.81318100  0.26296116  0.06682282  1
  O  O129  1  0.31318100  0.23703884  0.93317718  1
  O  O130  1  0.18681900  0.76296116  0.43317718  1
  O  O131  1  0.68681900  0.73703884  0.56682282  1
  O  O132  1  0.93317718  0.18681900  0.73703884  1
  O  O133  1  0.06682282  0.68681900  0.76296116  1
  O  O134  1  0.56682282  0.81318100  0.23703884  1
  O  O135  1  0.43317718  0.31318100  0.26296116  1
  O  O136  1  0.73703884  0.93317718  0.18681900  1
  O  O137  1  0.76296116  0.06682282  0.68681900  1
  O  O138  1  0.23703884  0.56682282  0.81318100  1
  O  O139  1  0.26296116  0.43317718  0.31318100  1
  O  O140  1  0.18681900  0.73703884  0.93317718  1
  O  O141  1  0.68681900  0.76296116  0.06682282  1
  O  O142  1  0.81318100  0.23703884  0.56682282  1
  O  O143  1  0.31318100  0.26296116  0.43317718  1
  O  O144  1  0.20758067  0.55221381  0.13552579  1
  O  O145  1  0.79241933  0.05221381  0.36447421  1
  O  O146  1  0.29241933  0.44778619  0.63552579  1
  O  O147  1  0.70758067  0.94778619  0.86447421  1
  O  O148  1  0.13552579  0.20758067  0.55221381  1
  O  O149  1  0.36447421  0.79241933  0.05221381  1
  O  O150  1  0.63552579  0.29241933  0.44778619  1
  O  O151  1  0.86447421  0.70758067  0.94778619  1
  O  O152  1  0.55221381  0.13552579  0.20758067  1
  O  O153  1  0.05221381  0.36447421  0.79241933  1
  O  O154  1  0.44778619  0.63552579  0.29241933  1
  O  O155  1  0.94778619  0.86447421  0.70758067  1
  O  O156  1  0.79241933  0.44778619  0.86447421  1
  O  O157  1  0.20758067  0.94778619  0.63552579  1
  O  O158  1  0.70758067  0.55221381  0.36447421  1
  O  O159  1  0.29241933  0.05221381  0.13552579  1
  O  O160  1  0.86447421  0.79241933  0.44778619  1
  O  O161  1  0.63552579  0.20758067  0.94778619  1
  O  O162  1  0.36447421  0.70758067  0.55221381  1
  O  O163  1  0.13552579  0.29241933  0.05221381  1
  O  O164  1  0.44778619  0.86447421  0.79241933  1
  O  O165  1  0.94778619  0.63552579  0.20758067  1
  O  O166  1  0.55221381  0.36447421  0.70758067  1
  O  O167  1  0.05221381  0.13552579  0.29241933  1
  O  O168  1  0.51421458  0.65793143  0.01238987  1
  O  O169  1  0.48578542  0.15793143  0.48761013  1
  O  O170  1  0.98578542  0.34206857  0.51238987  1
  O  O171  1  0.01421458  0.84206857  0.98761013  1
  O  O172  1  0.01238987  0.51421458  0.65793143  1
  O  O173  1  0.48761013  0.48578542  0.15793143  1
  O  O174  1  0.51238987  0.98578542  0.34206857  1
  O  O175  1  0.98761013  0.01421458  0.84206857  1
  O  O176  1  0.65793143  0.01238987  0.51421458  1
  O  O177  1  0.15793143  0.48761013  0.48578542  1
  O  O178  1  0.34206857  0.51238987  0.98578542  1
  O  O179  1  0.84206857  0.98761013  0.01421458  1
  O  O180  1  0.48578542  0.34206857  0.98761013  1
  O  O181  1  0.51421458  0.84206857  0.51238987  1
  O  O182  1  0.01421458  0.65793143  0.48761013  1
  O  O183  1  0.98578542  0.15793143  0.01238987  1
  O  O184  1  0.98761013  0.48578542  0.34206857  1
  O  O185  1  0.51238987  0.51421458  0.84206857  1
  O  O186  1  0.48761013  0.01421458  0.65793143  1
  O  O187  1  0.01238987  0.98578542  0.15793143  1
  O  O188  1  0.34206857  0.98761013  0.48578542  1
  O  O189  1  0.84206857  0.51238987  0.51421458  1
  O  O190  1  0.65793143  0.48761013  0.01421458  1
  O  O191  1  0.15793143  0.01238987  0.98578542  1
