# generated using pymatgen
data_VZnHPbO5
_symmetry_space_group_name_H-M   'P 1'
_cell_length_a   6.19263800
_cell_length_b   7.68190800
_cell_length_c   9.55320800
_cell_angle_alpha   90.00000000
_cell_angle_beta   90.00000000
_cell_angle_gamma   90.00000000
_symmetry_Int_Tables_number   1
_chemical_formula_structural   VZnHPbO5
_chemical_formula_sum   'V4 Zn4 H4 Pb4 O20'
_cell_volume   454.45828866
_cell_formula_units_Z   4
loop_
 _symmetry_equiv_pos_site_id
 _symmetry_equiv_pos_as_xyz
  1  'x, y, z'
loop_
 _atom_site_type_symbol
 _atom_site_label
 _atom_site_symmetry_multiplicity
 _atom_site_fract_x
 _atom_site_fract_y
 _atom_site_fract_z
 _atom_site_occupancy
  V  V0  1  0.75000000  0.86763600  0.18759700  1
  V  V1  1  0.75000000  0.36763600  0.31240300  1
  V  V2  1  0.25000000  0.13236400  0.81240300  1
  V  V3  1  0.25000000  0.63236400  0.68759700  1
  Zn  Zn4  1  0.00000000  0.50000000  0.00000000  1
  Zn  Zn5  1  0.50000000  0.00000000  0.50000000  1
  Zn  Zn6  1  0.50000000  0.50000000  0.00000000  1
  Zn  Zn7  1  0.00000000  0.00000000  0.50000000  1
  H  H8  1  0.25000000  0.76010200  0.01671000  1
  H  H9  1  0.25000000  0.26010200  0.48329000  1
  H  H10  1  0.75000000  0.23989800  0.98329000  1
  H  H11  1  0.75000000  0.73989800  0.51671000  1
  Pb  Pb12  1  0.25000000  0.63367900  0.32335000  1
  Pb  Pb13  1  0.25000000  0.13367900  0.17665000  1
  Pb  Pb14  1  0.75000000  0.36632100  0.67665000  1
  Pb  Pb15  1  0.75000000  0.86632100  0.82335000  1
  O  O16  1  0.75000000  0.68547200  0.07391700  1
  O  O17  1  0.75000000  0.18547200  0.42608300  1
  O  O18  1  0.25000000  0.31452800  0.92608300  1
  O  O19  1  0.25000000  0.81452800  0.57391700  1
  O  O20  1  0.75000000  0.04492500  0.08076000  1
  O  O21  1  0.75000000  0.54492500  0.41924000  1
  O  O22  1  0.25000000  0.95507500  0.91924000  1
  O  O23  1  0.25000000  0.45507500  0.58076000  1
  O  O24  1  0.98977600  0.87695700  0.29016700  1
  O  O25  1  0.51022400  0.37695700  0.20983300  1
  O  O26  1  0.48977600  0.12304300  0.70983300  1
  O  O27  1  0.01022400  0.62304300  0.79016700  1
  O  O28  1  0.01022400  0.12304300  0.70983300  1
  O  O29  1  0.48977600  0.62304300  0.79016700  1
  O  O30  1  0.51022400  0.87695700  0.29016700  1
  O  O31  1  0.98977600  0.37695700  0.20983300  1
  O  O32  1  0.25000000  0.64627600  0.06677100  1
  O  O33  1  0.25000000  0.14627600  0.43322900  1
  O  O34  1  0.75000000  0.35372400  0.93322900  1
  O  O35  1  0.75000000  0.85372400  0.56677100  1
