# generated using pymatgen
data_Ca12Al11Si3Cl5O32
_symmetry_space_group_name_H-M   'P 1'
_cell_length_a   10.45966200
_cell_length_b   10.47055400
_cell_length_c   10.47357973
_cell_angle_alpha   109.26056257
_cell_angle_beta   109.51197423
_cell_angle_gamma   109.55956071
_symmetry_Int_Tables_number   1
_chemical_formula_structural   Ca12Al11Si3Cl5O32
_chemical_formula_sum   'Ca12 Al11 Si3 Cl5 O32'
_cell_volume   883.88222899
_cell_formula_units_Z   1
loop_
 _symmetry_equiv_pos_site_id
 _symmetry_equiv_pos_as_xyz
  1  'x, y, z'
loop_
 _atom_site_type_symbol
 _atom_site_label
 _atom_site_symmetry_multiplicity
 _atom_site_fract_x
 _atom_site_fract_y
 _atom_site_fract_z
 _atom_site_occupancy
  Ca  Ca0  1  0.65205800  0.25869400  0.90169900  1
  Ca  Ca1  1  0.74872700  0.14020200  0.39161700  1
  Ca  Ca2  1  0.35241900  0.09985800  0.24609600  1
  Ca  Ca3  1  0.75317900  0.60672900  0.86202800  1
  Ca  Ca4  1  0.14265200  0.39476200  0.75095400  1
  Ca  Ca5  1  0.10131500  0.24047400  0.34864400  1
  Ca  Ca6  1  0.24435700  0.36185600  0.10722700  1
  Ca  Ca7  1  0.85218100  0.75140100  0.60497900  1
  Ca  Ca8  1  0.89106700  0.64731200  0.24641600  1
  Ca  Ca9  1  0.60883600  0.86147600  0.76112700  1
  Ca  Ca10  1  0.39148900  0.74080500  0.13522200  1
  Ca  Ca11  1  0.25082100  0.89113500  0.64152400  1
  Al  Al12  1  0.87211900  0.12417400  0.74461500  1
  Al  Al13  1  0.00183100  0.03422700  0.50061500  1
  Al  Al14  1  0.38031900  0.25478400  0.62557400  1
  Al  Al15  1  0.62971400  0.37521500  0.25649600  1
  Al  Al16  1  0.53226300  0.49731400  0.00039700  1
  Al  Al17  1  0.96641900  0.96566700  0.96331000  1
  Al  Al18  1  0.25460000  0.62689600  0.37728500  1
  Al  Al19  1  0.12101000  0.74492600  0.87231600  1
  Al  Al20  1  0.03161900  0.49923200  0.00060400  1
  Al  Al21  1  0.74839700  0.87462300  0.12441900  1
  Al  Al22  1  0.49825500  0.00192700  0.03330700  1
  Si  Si23  1  0.46633000  0.46591200  0.46559000  1
  Si  Si24  1  0.00330300  0.53682500  0.50086700  1
  Si  Si25  1  0.49910400  0.99995800  0.53530500  1
  Cl  Cl26  1  0.74950900  0.37403600  0.62389100  1
  Cl  Cl27  1  0.87588500  0.24786900  0.12612500  1
  Cl  Cl28  1  0.37667400  0.62811400  0.75201200  1
  Cl  Cl29  1  0.62433500  0.74862400  0.37269300  1
  Cl  Cl30  1  0.12414200  0.87724300  0.25163200  1
  O  O31  1  0.90229000  0.02062000  0.31648000  1
  O  O32  1  0.91787800  0.12354600  0.59806900  1
  O  O33  1  0.67305900  0.07644300  0.68985300  1
  O  O34  1  0.41941000  0.09714300  0.60717200  1
  O  O35  1  0.57882900  0.18212100  0.20792800  1
  O  O36  1  0.18866500  0.20338700  0.58703600  1
  O  O37  1  0.52261900  0.39578500  0.81872700  1
  O  O38  1  0.38691200  0.30899200  0.48228300  1
  O  O39  1  0.01442800  0.31368300  0.90032500  1
  O  O40  1  0.13989300  0.13325600  0.12329400  1
  O  O41  1  0.82885600  0.51774900  0.40281900  1
  O  O42  1  0.49051400  0.39358400  0.31379400  1
  O  O43  1  0.97534900  0.79343600  0.87021600  1
  O  O44  1  0.61308300  0.41036600  0.10138700  1
  O  O45  1  0.00133500  0.38099300  0.49744800  1
  O  O46  1  0.86877500  0.50387100  0.00555400  1
  O  O47  1  0.61815000  0.62038400  0.62077100  1
  O  O48  1  0.12189100  0.59922500  0.91837300  1
  O  O49  1  0.31145200  0.48726200  0.39030400  1
  O  O50  1  0.79705900  0.88124700  0.97941500  1
  O  O51  1  0.35856800  0.48246500  0.99271400  1
  O  O52  1  0.70076800  0.68237300  0.08517300  1
  O  O53  1  0.87992100  0.97975600  0.79221700  1
  O  O54  1  0.08074200  0.69021600  0.67508900  1
  O  O55  1  0.10462300  0.61534900  0.42593400  1
  O  O56  1  0.20242400  0.58089400  0.18551300  1
  O  O57  1  0.40022600  0.82548300  0.51779900  1
  O  O58  1  0.49230100  0.00904400  0.86678500  1
  O  O59  1  0.59610900  0.91573500  0.11822800  1
  O  O60  1  0.01154900  0.87672400  0.51820200  1
  O  O61  1  0.49801200  0.99558200  0.37947000  1
  O  O62  1  0.30938100  0.90601600  0.01203800  1
