# generated using pymatgen
data_Li3H6Rh
_symmetry_space_group_name_H-M   'P 1'
_cell_length_a   4.74809600
_cell_length_b   8.45364400
_cell_length_c   8.54710800
_cell_angle_alpha   90.00000000
_cell_angle_beta   90.00000000
_cell_angle_gamma   90.00000000
_symmetry_Int_Tables_number   1
_chemical_formula_structural   Li3H6Rh
_chemical_formula_sum   'Li12 H24 Rh4'
_cell_volume   343.06991723
_cell_formula_units_Z   4
loop_
 _symmetry_equiv_pos_site_id
 _symmetry_equiv_pos_as_xyz
  1  'x, y, z'
loop_
 _atom_site_type_symbol
 _atom_site_label
 _atom_site_symmetry_multiplicity
 _atom_site_fract_x
 _atom_site_fract_y
 _atom_site_fract_z
 _atom_site_occupancy
  Li  Li0  1  0.25000000  0.54542900  0.87512900  1
  Li  Li1  1  0.25000000  0.04542900  0.62487100  1
  Li  Li2  1  0.75000000  0.45457100  0.12487100  1
  Li  Li3  1  0.75000000  0.95457100  0.37512900  1
  Li  Li4  1  0.25000000  0.89745100  0.98220800  1
  Li  Li5  1  0.25000000  0.39745100  0.51779200  1
  Li  Li6  1  0.75000000  0.10254900  0.01779200  1
  Li  Li7  1  0.75000000  0.60254900  0.48220800  1
  Li  Li8  1  0.25000000  0.71814800  0.25651900  1
  Li  Li9  1  0.25000000  0.21814800  0.24348100  1
  Li  Li10  1  0.75000000  0.28185200  0.74348100  1
  Li  Li11  1  0.75000000  0.78185200  0.75651900  1
  H  H12  1  0.50105900  0.84692400  0.53844500  1
  H  H13  1  0.99894100  0.34692400  0.96155500  1
  H  H14  1  0.00105900  0.15307600  0.46155500  1
  H  H15  1  0.49894100  0.65307600  0.03844500  1
  H  H16  1  0.49894100  0.15307600  0.46155500  1
  H  H17  1  0.00105900  0.65307600  0.03844500  1
  H  H18  1  0.99894100  0.84692400  0.53844500  1
  H  H19  1  0.50105900  0.34692400  0.96155500  1
  H  H20  1  0.49417900  0.60894000  0.68337200  1
  H  H21  1  0.00582100  0.10894000  0.81662800  1
  H  H22  1  0.99417900  0.39106000  0.31662800  1
  H  H23  1  0.50582100  0.89106000  0.18337200  1
  H  H24  1  0.50582100  0.39106000  0.31662800  1
  H  H25  1  0.99417900  0.89106000  0.18337200  1
  H  H26  1  0.00582100  0.60894000  0.68337200  1
  H  H27  1  0.49417900  0.10894000  0.81662800  1
  H  H28  1  0.25000000  0.61388000  0.44774900  1
  H  H29  1  0.25000000  0.11388000  0.05225100  1
  H  H30  1  0.75000000  0.38612000  0.55225100  1
  H  H31  1  0.75000000  0.88612000  0.94774900  1
  H  H32  1  0.25000000  0.83729900  0.76561100  1
  H  H33  1  0.25000000  0.33729900  0.73438900  1
  H  H34  1  0.75000000  0.16270100  0.23438900  1
  H  H35  1  0.75000000  0.66270100  0.26561100  1
  Rh  Rh36  1  0.25000000  0.72727900  0.60753200  1
  Rh  Rh37  1  0.25000000  0.22727900  0.89246800  1
  Rh  Rh38  1  0.75000000  0.27272100  0.39246800  1
  Rh  Rh39  1  0.75000000  0.77272100  0.10753200  1
