# generated using pymatgen
data_Th2SbN2
_symmetry_space_group_name_H-M   'P 1'
_cell_length_a   7.51100742
_cell_length_b   7.51100742
_cell_length_c   7.51100742
_cell_angle_alpha   148.64953636
_cell_angle_beta   148.64953636
_cell_angle_gamma   44.92742735
_symmetry_Int_Tables_number   1
_chemical_formula_structural   Th2SbN2
_chemical_formula_sum   'Th2 Sb1 N2'
_cell_volume   114.34148647
_cell_formula_units_Z   1
loop_
 _symmetry_equiv_pos_site_id
 _symmetry_equiv_pos_as_xyz
  1  'x, y, z'
loop_
 _atom_site_type_symbol
 _atom_site_label
 _atom_site_symmetry_multiplicity
 _atom_site_fract_x
 _atom_site_fract_y
 _atom_site_fract_z
 _atom_site_occupancy
  Th  Th0  1  0.33350600  0.33350600  0.00000000  1
  Th  Th1  1  0.66649400  0.66649400  0.00000000  1
  Sb  Sb2  1  0.00000000  0.00000000  0.00000000  1
  N  N3  1  0.25000000  0.75000000  0.50000000  1
  N  N4  1  0.75000000  0.25000000  0.50000000  1
