# generated using pymatgen
data_Li2CoGeO4
_symmetry_space_group_name_H-M   'P 1'
_cell_length_a   5.52413600
_cell_length_b   8.22307715
_cell_length_c   8.21398255
_cell_angle_alpha   76.81904180
_cell_angle_beta   89.99994296
_cell_angle_gamma   89.99998967
_symmetry_Int_Tables_number   1
_chemical_formula_structural   Li2CoGeO4
_chemical_formula_sum   'Li8 Co4 Ge4 O16'
_cell_volume   363.29338111
_cell_formula_units_Z   4
loop_
 _symmetry_equiv_pos_site_id
 _symmetry_equiv_pos_as_xyz
  1  'x, y, z'
loop_
 _atom_site_type_symbol
 _atom_site_label
 _atom_site_symmetry_multiplicity
 _atom_site_fract_x
 _atom_site_fract_y
 _atom_site_fract_z
 _atom_site_occupancy
  Li  Li0  1  0.33633100  0.37256000  0.87427800  1
  Li  Li1  1  0.33633100  0.87256100  0.37427800  1
  Li  Li2  1  0.66366700  0.87256100  0.87427900  1
  Li  Li3  1  0.66366900  0.37256000  0.37427800  1
  Li  Li4  1  0.82886500  0.74727000  0.24816400  1
  Li  Li5  1  0.82886700  0.24726900  0.74816400  1
  Li  Li6  1  0.17113500  0.74727000  0.74816400  1
  Li  Li7  1  0.17113400  0.24726900  0.24816400  1
  Co  Co8  1  0.16736400  0.50079300  0.50040500  1
  Co  Co9  1  0.83263500  0.50079100  0.00040500  1
  Co  Co10  1  0.16736700  0.00079200  0.00040500  1
  Co  Co11  1  0.83263300  0.00079100  0.50040500  1
  Ge  Ge12  1  0.66917300  0.12575200  0.12067800  1
  Ge  Ge13  1  0.66917200  0.62575000  0.62068000  1
  Ge  Ge14  1  0.33082800  0.62575000  0.12068000  1
  Ge  Ge15  1  0.33082700  0.12575300  0.62067700  1
  O  O16  1  0.67626500  0.30157500  0.94671600  1
  O  O17  1  0.67626600  0.80157400  0.44671700  1
  O  O18  1  0.32373300  0.80157500  0.94671700  1
  O  O19  1  0.32373900  0.30157600  0.44671400  1
  O  O20  1  0.17853900  0.68355600  0.29115800  1
  O  O21  1  0.17854200  0.18355400  0.79115800  1
  O  O22  1  0.82145900  0.68355500  0.79115600  1
  O  O23  1  0.82145800  0.18355400  0.29115800  1
  O  O24  1  0.17757000  0.45537400  0.06325900  1
  O  O25  1  0.17756400  0.95537300  0.56325900  1
  O  O26  1  0.82243100  0.45537000  0.56326000  1
  O  O27  1  0.82243700  0.95537200  0.06325800  1
  O  O28  1  0.63636700  0.56882700  0.17674200  1
  O  O29  1  0.63637700  0.06882400  0.67674500  1
  O  O30  1  0.36363400  0.56882700  0.67674200  1
  O  O31  1  0.36362000  0.06882400  0.17674400  1
