# generated using pymatgen
data_ZrP2(HO4)2
_symmetry_space_group_name_H-M   'P 1'
_cell_length_a   9.79414535
_cell_length_b   9.79414535
_cell_length_c   9.79414535
_cell_angle_alpha   108.07205056
_cell_angle_beta   108.07205056
_cell_angle_gamma   112.30733218
_symmetry_Int_Tables_number   1
_chemical_formula_structural   ZrP2(HO4)2
_chemical_formula_sum   'Zr4 P8 H8 O32'
_cell_volume   721.89596314
_cell_formula_units_Z   4
loop_
 _symmetry_equiv_pos_site_id
 _symmetry_equiv_pos_as_xyz
  1  'x, y, z'
loop_
 _atom_site_type_symbol
 _atom_site_label
 _atom_site_symmetry_multiplicity
 _atom_site_fract_x
 _atom_site_fract_y
 _atom_site_fract_z
 _atom_site_occupancy
  Zr  Zr0  1  0.75500300  0.25500300  0.50000000  1
  Zr  Zr1  1  0.25500300  0.75500300  0.50000000  1
  Zr  Zr2  1  0.50500300  0.50500300  0.00000000  1
  Zr  Zr3  1  0.00500300  0.00500300  0.00000000  1
  P  P4  1  0.46503600  0.80710200  0.26711800  1
  P  P5  1  0.96503600  0.69791700  0.65793300  1
  P  P6  1  0.44791700  0.21503600  0.15793300  1
  P  P7  1  0.55710200  0.71503600  0.76711800  1
  P  P8  1  0.53998400  0.19791700  0.73288200  1
  P  P9  1  0.03998400  0.30710200  0.34206700  1
  P  P10  1  0.05710200  0.28998400  0.84206700  1
  P  P11  1  0.94791700  0.78998400  0.23288200  1
  H  H12  1  0.21838000  0.68000900  0.05209100  1
  H  H13  1  0.71838000  0.66628900  0.53837100  1
  H  H14  1  0.41628900  0.96838000  0.03837100  1
  H  H15  1  0.43000900  0.46838000  0.55209100  1
  H  H16  1  0.62791800  0.16628900  0.94790900  1
  H  H17  1  0.12791800  0.18000900  0.46162900  1
  H  H18  1  0.93000900  0.37791800  0.96162900  1
  H  H19  1  0.91628900  0.87791800  0.44790900  1
  O  O20  1  0.32223500  0.79267600  0.11697400  1
  O  O21  1  0.82223500  0.70526100  0.52955800  1
  O  O22  1  0.45526100  0.07223500  0.02955800  1
  O  O23  1  0.54267600  0.57223500  0.61697400  1
  O  O24  1  0.67570200  0.20526100  0.88302600  1
  O  O25  1  0.17570200  0.29267600  0.47044200  1
  O  O26  1  0.04267600  0.42570200  0.97044200  1
  O  O27  1  0.95526100  0.92570200  0.38302600  1
  O  O28  1  0.60680500  0.99162300  0.35749200  1
  O  O29  1  0.10680500  0.74931400  0.61518200  1
  O  O30  1  0.49931400  0.35680500  0.11518200  1
  O  O31  1  0.74162300  0.85680500  0.85749200  1
  O  O32  1  0.63413200  0.24931400  0.64250800  1
  O  O33  1  0.13413200  0.49162300  0.38481800  1
  O  O34  1  0.24162300  0.38413200  0.88481800  1
  O  O35  1  0.99931400  0.88413200  0.14250800  1
  O  O36  1  0.57318000  0.27001800  0.33249600  1
  O  O37  1  0.07318000  0.74068400  0.30316200  1
  O  O38  1  0.49068400  0.32318000  0.80316200  1
  O  O39  1  0.02001800  0.82318000  0.83249600  1
  O  O40  1  0.93752200  0.24068400  0.66750400  1
  O  O41  1  0.43752200  0.77001800  0.69683800  1
  O  O42  1  0.52001800  0.68752200  0.19683800  1
  O  O43  1  0.99068400  0.18752200  0.16750400  1
  O  O44  1  0.89389900  0.51880100  0.63419700  1
  O  O45  1  0.39389900  0.75970200  0.37509800  1
  O  O46  1  0.50970200  0.64389900  0.87509800  1
  O  O47  1  0.26880100  0.14389900  0.13419700  1
  O  O48  1  0.88460400  0.25970200  0.36580300  1
  O  O49  1  0.38460400  0.01880100  0.62490200  1
  O  O50  1  0.76880100  0.63460400  0.12490200  1
  O  O51  1  0.00970200  0.13460400  0.86580300  1
