# generated using pymatgen
data_Na5H3(CO3)4
_symmetry_space_group_name_H-M   'P 1'
_cell_length_a   3.51083600
_cell_length_b   10.13437196
_cell_length_c   15.72548655
_cell_angle_alpha   107.75884393
_cell_angle_beta   95.55280988
_cell_angle_gamma   95.14361155
_symmetry_Int_Tables_number   1
_chemical_formula_structural   Na5H3(CO3)4
_chemical_formula_sum   'Na10 H6 C8 O24'
_cell_volume   526.14477347
_cell_formula_units_Z   2
loop_
 _symmetry_equiv_pos_site_id
 _symmetry_equiv_pos_as_xyz
  1  'x, y, z'
loop_
 _atom_site_type_symbol
 _atom_site_label
 _atom_site_symmetry_multiplicity
 _atom_site_fract_x
 _atom_site_fract_y
 _atom_site_fract_z
 _atom_site_occupancy
  Na  Na0  1  0.21410400  0.32667700  0.95156200  1
  Na  Na1  1  0.78589600  0.67332300  0.04843800  1
  Na  Na2  1  0.18797400  0.81818100  0.90062200  1
  Na  Na3  1  0.81202600  0.18181900  0.09937800  1
  Na  Na4  1  0.81956300  0.28167800  0.72013100  1
  Na  Na5  1  0.18043700  0.71832200  0.27986900  1
  Na  Na6  1  0.57232900  0.78637100  0.69189900  1
  Na  Na7  1  0.42767100  0.21362900  0.30810100  1
  Na  Na8  1  0.22820200  0.25215500  0.52261500  1
  Na  Na9  1  0.77179800  0.74784500  0.47738500  1
  H  H10  1  0.27417500  0.53015200  0.74925800  1
  H  H11  1  0.72582500  0.46984800  0.25074200  1
  H  H12  1  0.50000000  0.50000000  0.50000000  1
  H  H13  1  0.99787700  0.04567700  0.75867700  1
  H  H14  1  0.00212300  0.95432300  0.24132300  1
  H  H15  1  0.50000000  0.00000000  0.50000000  1
  C  C16  1  0.58341200  0.52455900  0.86194600  1
  C  C17  1  0.41658800  0.47544100  0.13805400  1
  C  C18  1  0.86132300  0.53118400  0.62309500  1
  C  C19  1  0.13867700  0.46881600  0.37690500  1
  C  C20  1  0.76156700  0.06276800  0.87080400  1
  C  C21  1  0.23843300  0.93723200  0.12919600  1
  C  C22  1  0.24102600  0.00472900  0.61860200  1
  C  C23  1  0.75897400  0.99527100  0.38139800  1
  O  O24  1  0.71393400  0.44528800  0.90338900  1
  O  O25  1  0.28606600  0.55471200  0.09661100  1
  O  O26  1  0.62532900  0.65709400  0.89090500  1
  O  O27  1  0.37467100  0.34290600  0.10909500  1
  O  O28  1  0.37945900  0.45926100  0.77876000  1
  O  O29  1  0.62054100  0.54073900  0.22124000  1
  O  O30  1  0.05769400  0.61655900  0.69664400  1
  O  O31  1  0.94230600  0.38344100  0.30335600  1
  O  O32  1  0.81970000  0.39874500  0.60527200  1
  O  O33  1  0.18030000  0.60125500  0.39472800  1
  O  O34  1  0.69087400  0.58799400  0.56578200  1
  O  O35  1  0.30912600  0.41200600  0.43421800  1
  O  O36  1  0.69491400  0.14716400  0.94436300  1
  O  O37  1  0.30508600  0.85283600  0.05563700  1
  O  O38  1  0.69710500  0.93023000  0.84628300  1
  O  O39  1  0.30289500  0.06977000  0.15371700  1
  O  O40  1  0.92583500  0.12209400  0.81330500  1
  O  O41  1  0.07416500  0.87790600  0.18669500  1
  O  O42  1  0.11109200  0.93839400  0.67047300  1
  O  O43  1  0.88890800  0.06160600  0.32952700  1
  O  O44  1  0.26176200  0.13721500  0.63750300  1
  O  O45  1  0.73823800  0.86278500  0.36249700  1
  O  O46  1  0.35542200  0.92852400  0.54232200  1
  O  O47  1  0.64457800  0.07147600  0.45767800  1
