# generated using pymatgen
data_Er3TaO7
_symmetry_space_group_name_H-M   'P 1'
_cell_length_a   6.34978300
_cell_length_b   6.43880759
_cell_length_c   7.55048565
_cell_angle_alpha   106.80178613
_cell_angle_beta   89.63797985
_cell_angle_gamma   97.72586825
_symmetry_Int_Tables_number   1
_chemical_formula_structural   Er3TaO7
_chemical_formula_sum   'Er6 Ta2 O14'
_cell_volume   292.66857534
_cell_formula_units_Z   2
loop_
 _symmetry_equiv_pos_site_id
 _symmetry_equiv_pos_as_xyz
  1  'x, y, z'
loop_
 _atom_site_type_symbol
 _atom_site_label
 _atom_site_symmetry_multiplicity
 _atom_site_fract_x
 _atom_site_fract_y
 _atom_site_fract_z
 _atom_site_occupancy
  Er  Er0  1  0.73656700  0.46089700  0.11508700  1
  Er  Er1  1  0.73249600  0.45830000  0.60858300  1
  Er  Er2  1  0.54458900  0.99316900  0.74955300  1
  Er  Er3  1  0.45541100  0.00683100  0.25044700  1
  Er  Er4  1  0.26750400  0.54170000  0.39141700  1
  Er  Er5  1  0.26343300  0.53910300  0.88491300  1
  Ta  Ta6  1  0.00000000  0.00000000  0.00000000  1
  Ta  Ta7  1  0.00000000  0.00000000  0.50000000  1
  O  O8  1  0.70723200  0.06520100  0.48022500  1
  O  O9  1  0.92297600  0.67918600  0.95994000  1
  O  O10  1  0.70657900  0.07279000  0.05172900  1
  O  O11  1  0.93169400  0.66569200  0.38560200  1
  O  O12  1  0.90384000  0.93887500  0.73406600  1
  O  O13  1  0.55818700  0.34937600  0.83339300  1
  O  O14  1  0.54252200  0.36114200  0.34279000  1
  O  O15  1  0.45747800  0.63885800  0.65721000  1
  O  O16  1  0.44181300  0.65062400  0.16660700  1
  O  O17  1  0.09616000  0.06112500  0.26593400  1
  O  O18  1  0.06830600  0.33430800  0.61439800  1
  O  O19  1  0.29342100  0.92721000  0.94827100  1
  O  O20  1  0.07702400  0.32081400  0.04006000  1
  O  O21  1  0.29276800  0.93479900  0.51977500  1
