# generated using pymatgen
data_Lu(CuO2)2
_symmetry_space_group_name_H-M   'P 1'
_cell_length_a   6.18875046
_cell_length_b   6.18875046
_cell_length_c   6.18875046
_cell_angle_alpha   126.25998610
_cell_angle_beta   126.25998610
_cell_angle_gamma   79.46125490
_symmetry_Int_Tables_number   1
_chemical_formula_structural   Lu(CuO2)2
_chemical_formula_sum   'Lu2 Cu4 O8'
_cell_volume   148.95085740
_cell_formula_units_Z   2
loop_
 _symmetry_equiv_pos_site_id
 _symmetry_equiv_pos_as_xyz
  1  'x, y, z'
loop_
 _atom_site_type_symbol
 _atom_site_label
 _atom_site_symmetry_multiplicity
 _atom_site_fract_x
 _atom_site_fract_y
 _atom_site_fract_z
 _atom_site_occupancy
  Lu  Lu0  1  0.00000000  0.00000000  0.00000000  1
  Lu  Lu1  1  0.75000000  0.25000000  0.50000000  1
  Cu  Cu2  1  0.87500000  0.62500000  0.25000000  1
  Cu  Cu3  1  0.37500000  0.62500000  0.75000000  1
  Cu  Cu4  1  0.37500000  0.12500000  0.75000000  1
  Cu  Cu5  1  0.37500000  0.62500000  0.25000000  1
  O  O6  1  0.40490300  0.25602600  0.55443000  1
  O  O7  1  0.04840500  0.39952700  0.05443000  1
  O  O8  1  0.00602600  0.95159500  0.35112300  1
  O  O9  1  0.14952700  0.59509700  0.85112300  1
  O  O10  1  0.60047300  0.65490300  0.64887700  1
  O  O11  1  0.74397400  0.29840500  0.14887700  1
  O  O12  1  0.70159500  0.85047300  0.44557000  1
  O  O13  1  0.34509700  0.99397400  0.94557000  1
