# generated using pymatgen
data_NbAs2
_symmetry_space_group_name_H-M   'P 1'
_cell_length_a   5.02539268
_cell_length_b   5.02539268
_cell_length_c   7.88498645
_cell_angle_alpha   62.51909087
_cell_angle_beta   62.51909087
_cell_angle_gamma   39.75999154
_symmetry_Int_Tables_number   1
_chemical_formula_structural   NbAs2
_chemical_formula_sum   'Nb2 As4'
_cell_volume   110.97227026
_cell_formula_units_Z   2
loop_
 _symmetry_equiv_pos_site_id
 _symmetry_equiv_pos_as_xyz
  1  'x, y, z'
loop_
 _atom_site_type_symbol
 _atom_site_label
 _atom_site_symmetry_multiplicity
 _atom_site_fract_x
 _atom_site_fract_y
 _atom_site_fract_z
 _atom_site_occupancy
  Nb  Nb0  1  0.84306300  0.84306300  0.19605600  1
  Nb  Nb1  1  0.15693700  0.15693700  0.80394400  1
  As  As2  1  0.14145200  0.14145200  0.47143000  1
  As  As3  1  0.85854800  0.85854800  0.52857000  1
  As  As4  1  0.40506100  0.40506100  0.89322300  1
  As  As5  1  0.59493900  0.59493900  0.10677700  1
