# generated using pymatgen
data_TiV2O7
_symmetry_space_group_name_H-M   'P 1'
_cell_length_a   8.73746300
_cell_length_b   8.73746300
_cell_length_c   8.73746300
_cell_angle_alpha   90.00000000
_cell_angle_beta   90.00000000
_cell_angle_gamma   90.00000000
_symmetry_Int_Tables_number   1
_chemical_formula_structural   TiV2O7
_chemical_formula_sum   'Ti4 V8 O28'
_cell_volume   667.04640672
_cell_formula_units_Z   4
loop_
 _symmetry_equiv_pos_site_id
 _symmetry_equiv_pos_as_xyz
  1  'x, y, z'
loop_
 _atom_site_type_symbol
 _atom_site_label
 _atom_site_symmetry_multiplicity
 _atom_site_fract_x
 _atom_site_fract_y
 _atom_site_fract_z
 _atom_site_occupancy
  Ti  Ti0  1  0.00000000  0.00000000  0.00000000  1
  Ti  Ti1  1  0.00000000  0.50000000  0.50000000  1
  Ti  Ti2  1  0.50000000  0.00000000  0.50000000  1
  Ti  Ti3  1  0.50000000  0.50000000  0.00000000  1
  V  V4  1  0.11791700  0.88208300  0.38208300  1
  V  V5  1  0.11791700  0.61791700  0.88208300  1
  V  V6  1  0.38208300  0.38208300  0.38208300  1
  V  V7  1  0.38208300  0.11791700  0.88208300  1
  V  V8  1  0.61791700  0.61791700  0.61791700  1
  V  V9  1  0.61791700  0.88208300  0.11791700  1
  V  V10  1  0.88208300  0.11791700  0.61791700  1
  V  V11  1  0.88208300  0.38208300  0.11791700  1
  O  O12  1  0.00000000  0.00000000  0.50000000  1
  O  O13  1  0.00000000  0.50000000  0.00000000  1
  O  O14  1  0.06320600  0.69481500  0.40864500  1
  O  O15  1  0.06320600  0.80518500  0.90864500  1
  O  O16  1  0.09135500  0.56320600  0.69481500  1
  O  O17  1  0.09135500  0.93679400  0.19481500  1
  O  O18  1  0.19481500  0.09135500  0.93679400  1
  O  O19  1  0.19481500  0.40864500  0.43679400  1
  O  O20  1  0.30518500  0.59135500  0.93679400  1
  O  O21  1  0.30518500  0.90864500  0.43679400  1
  O  O22  1  0.40864500  0.06320600  0.69481500  1
  O  O23  1  0.40864500  0.43679400  0.19481500  1
  O  O24  1  0.43679400  0.30518500  0.90864500  1
  O  O25  1  0.43679400  0.19481500  0.40864500  1
  O  O26  1  0.50000000  0.50000000  0.50000000  1
  O  O27  1  0.50000000  0.00000000  0.00000000  1
  O  O28  1  0.56320600  0.69481500  0.09135500  1
  O  O29  1  0.56320600  0.80518500  0.59135500  1
  O  O30  1  0.59135500  0.56320600  0.80518500  1
  O  O31  1  0.59135500  0.93679400  0.30518500  1
  O  O32  1  0.69481500  0.09135500  0.56320600  1
  O  O33  1  0.69481500  0.40864500  0.06320600  1
  O  O34  1  0.80518500  0.59135500  0.56320600  1
  O  O35  1  0.80518500  0.90864500  0.06320600  1
  O  O36  1  0.90864500  0.06320600  0.80518500  1
  O  O37  1  0.90864500  0.43679400  0.30518500  1
  O  O38  1  0.93679400  0.19481500  0.09135500  1
  O  O39  1  0.93679400  0.30518500  0.59135500  1
