# generated using pymatgen
data_YbVO3
_symmetry_space_group_name_H-M   'P 1'
_cell_length_a   5.27259500
_cell_length_b   5.45927500
_cell_length_c   7.55483800
_cell_angle_alpha   90.00000000
_cell_angle_beta   90.00000000
_cell_angle_gamma   90.00000000
_symmetry_Int_Tables_number   1
_chemical_formula_structural   YbVO3
_chemical_formula_sum   'Yb4 V4 O12'
_cell_volume   217.46258245
_cell_formula_units_Z   4
loop_
 _symmetry_equiv_pos_site_id
 _symmetry_equiv_pos_as_xyz
  1  'x, y, z'
loop_
 _atom_site_type_symbol
 _atom_site_label
 _atom_site_symmetry_multiplicity
 _atom_site_fract_x
 _atom_site_fract_y
 _atom_site_fract_z
 _atom_site_occupancy
  Yb  Yb0  1  0.51326100  0.55704100  0.25000000  1
  Yb  Yb1  1  0.98673900  0.05704100  0.25000000  1
  Yb  Yb2  1  0.48673900  0.44295900  0.75000000  1
  Yb  Yb3  1  0.01326100  0.94295900  0.75000000  1
  V  V4  1  0.50000000  0.00000000  0.50000000  1
  V  V5  1  0.00000000  0.50000000  0.00000000  1
  V  V6  1  0.50000000  0.00000000  0.00000000  1
  V  V7  1  0.00000000  0.50000000  0.50000000  1
  O  O8  1  0.79197600  0.79909800  0.04211400  1
  O  O9  1  0.70802400  0.29909800  0.45788600  1
  O  O10  1  0.91255800  0.51981000  0.75000000  1
  O  O11  1  0.70802400  0.29909800  0.04211400  1
  O  O12  1  0.29197600  0.70090200  0.54211400  1
  O  O13  1  0.08744200  0.48019000  0.25000000  1
  O  O14  1  0.41255800  0.98019000  0.25000000  1
  O  O15  1  0.58744200  0.01981000  0.75000000  1
  O  O16  1  0.20802400  0.20090200  0.95788600  1
  O  O17  1  0.79197600  0.79909800  0.45788600  1
  O  O18  1  0.20802400  0.20090200  0.54211400  1
  O  O19  1  0.29197600  0.70090200  0.95788600  1
