# generated using pymatgen
data_K2PdF6
_symmetry_space_group_name_H-M   'P 1'
_cell_length_a   5.91239005
_cell_length_b   5.91239005
_cell_length_c   4.85594800
_cell_angle_alpha   90.00000000
_cell_angle_beta   90.00000000
_cell_angle_gamma   120.00000061
_symmetry_Int_Tables_number   1
_chemical_formula_structural   K2PdF6
_chemical_formula_sum   'K2 Pd1 F6'
_cell_volume   147.00456186
_cell_formula_units_Z   1
loop_
 _symmetry_equiv_pos_site_id
 _symmetry_equiv_pos_as_xyz
  1  'x, y, z'
loop_
 _atom_site_type_symbol
 _atom_site_label
 _atom_site_symmetry_multiplicity
 _atom_site_fract_x
 _atom_site_fract_y
 _atom_site_fract_z
 _atom_site_occupancy
  K  K0  1  0.33333300  0.66666700  0.71911800  1
  K  K1  1  0.66666700  0.33333300  0.28088200  1
  Pd  Pd2  1  0.00000000  0.00000000  0.00000000  1
  F  F3  1  0.83990000  0.16010000  0.77978300  1
  F  F4  1  0.83990000  0.67980100  0.77978300  1
  F  F5  1  0.32019900  0.16010000  0.77978300  1
  F  F6  1  0.16010000  0.83990000  0.22021700  1
  F  F7  1  0.16010000  0.32019900  0.22021700  1
  F  F8  1  0.67980100  0.83990000  0.22021700  1
