# generated using pymatgen
data_RuF3
_symmetry_space_group_name_H-M   'P 1'
_cell_length_a   5.49844322
_cell_length_b   5.49844322
_cell_length_c   5.49844286
_cell_angle_alpha   55.07499948
_cell_angle_beta   55.07499948
_cell_angle_gamma   55.07499781
_symmetry_Int_Tables_number   1
_chemical_formula_structural   RuF3
_chemical_formula_sum   'Ru2 F6'
_cell_volume   104.07968482
_cell_formula_units_Z   2
loop_
 _symmetry_equiv_pos_site_id
 _symmetry_equiv_pos_as_xyz
  1  'x, y, z'
loop_
 _atom_site_type_symbol
 _atom_site_label
 _atom_site_symmetry_multiplicity
 _atom_site_fract_x
 _atom_site_fract_y
 _atom_site_fract_z
 _atom_site_occupancy
  Ru  Ru0  1  0.00000000  0.00000000  0.00000000  1
  Ru  Ru1  1  0.50000000  0.50000000  0.50000000  1
  F  F2  1  0.60257800  0.25000000  0.89742200  1
  F  F3  1  0.89742200  0.60257800  0.25000000  1
  F  F4  1  0.75000000  0.10257800  0.39742200  1
  F  F5  1  0.10257800  0.39742200  0.75000000  1
  F  F6  1  0.39742200  0.75000000  0.10257800  1
  F  F7  1  0.25000000  0.89742200  0.60257800  1
