# generated using pymatgen
data_MgH12(I4O3)2
_symmetry_space_group_name_H-M   'P 1'
_cell_length_a   7.73119500
_cell_length_b   9.12699362
_cell_length_c   9.68412120
_cell_angle_alpha   63.85600022
_cell_angle_beta   67.62714141
_cell_angle_gamma   77.02842917
_symmetry_Int_Tables_number   1
_chemical_formula_structural   MgH12(I4O3)2
_chemical_formula_sum   'Mg1 H12 I8 O6'
_cell_volume   565.92223013
_cell_formula_units_Z   1
loop_
 _symmetry_equiv_pos_site_id
 _symmetry_equiv_pos_as_xyz
  1  'x, y, z'
loop_
 _atom_site_type_symbol
 _atom_site_label
 _atom_site_symmetry_multiplicity
 _atom_site_fract_x
 _atom_site_fract_y
 _atom_site_fract_z
 _atom_site_occupancy
  Mg  Mg0  1  0.00000000  0.00000000  0.00000000  1
  H  H1  1  0.90272000  0.69174400  0.23052000  1
  H  H2  1  0.09728000  0.30825600  0.76948000  1
  H  H3  1  0.78912500  0.81272900  0.31577000  1
  H  H4  1  0.21087500  0.18727100  0.68423000  1
  H  H5  1  0.14269500  0.76625800  0.86881400  1
  H  H6  1  0.85730500  0.23374200  0.13118600  1
  H  H7  1  0.28861900  0.76683600  0.94746600  1
  H  H8  1  0.71138100  0.23316400  0.05253400  1
  H  H9  1  0.28377800  0.10094800  0.03975400  1
  H  H10  1  0.71622200  0.89905200  0.96024600  1
  H  H11  1  0.20353100  0.94908400  0.20336000  1
  H  H12  1  0.79646900  0.05091600  0.79664000  1
  I  I13  1  0.03393000  0.35686700  0.26040100  1
  I  I14  1  0.96607000  0.64313300  0.73959900  1
  I  I15  1  0.73929000  0.36426100  0.56867500  1
  I  I16  1  0.26071000  0.63573900  0.43132500  1
  I  I17  1  0.46501200  0.37806000  0.87131600  1
  I  I18  1  0.53498800  0.62194000  0.12868400  1
  I  I19  1  0.63695700  0.89405200  0.57018300  1
  I  I20  1  0.36304300  0.10594800  0.42981700  1
  O  O21  1  0.87024100  0.80740400  0.21125600  1
  O  O22  1  0.12975900  0.19259600  0.78874400  1
  O  O23  1  0.17551700  0.82390200  0.91935900  1
  O  O24  1  0.82448300  0.17609800  0.08064100  1
  O  O25  1  0.19172900  0.01711700  0.09595500  1
  O  O26  1  0.80827100  0.98288300  0.90404500  1
