# generated using pymatgen
data_CsMgP(H6O5)2
_symmetry_space_group_name_H-M   'P 1'
_cell_length_a   7.16684967
_cell_length_b   7.16684967
_cell_length_c   7.16684967
_cell_angle_alpha   60.00000000
_cell_angle_beta   60.00000000
_cell_angle_gamma   60.00000000
_symmetry_Int_Tables_number   1
_chemical_formula_structural   CsMgP(H6O5)2
_chemical_formula_sum   'Cs1 Mg1 P1 H12 O10'
_cell_volume   260.29743381
_cell_formula_units_Z   1
loop_
 _symmetry_equiv_pos_site_id
 _symmetry_equiv_pos_as_xyz
  1  'x, y, z'
loop_
 _atom_site_type_symbol
 _atom_site_label
 _atom_site_symmetry_multiplicity
 _atom_site_fract_x
 _atom_site_fract_y
 _atom_site_fract_z
 _atom_site_occupancy
  Cs  Cs0  1  0.75000000  0.75000000  0.75000000  1
  Mg  Mg1  1  0.00000000  0.00000000  0.00000000  1
  P  P2  1  0.25000000  0.25000000  0.25000000  1
  H  H3  1  0.85544100  0.26093000  0.26093000  1
  H  H4  1  0.85544100  0.26093000  0.62269900  1
  H  H5  1  0.85544100  0.62269900  0.26093000  1
  H  H6  1  0.62269900  0.85544100  0.26093000  1
  H  H7  1  0.26093000  0.85544100  0.26093000  1
  H  H8  1  0.26093000  0.85544100  0.62269900  1
  H  H9  1  0.62269900  0.26093000  0.26093000  1
  H  H10  1  0.26093000  0.62269900  0.26093000  1
  H  H11  1  0.26093000  0.26093000  0.62269900  1
  H  H12  1  0.62269900  0.26093000  0.85544100  1
  H  H13  1  0.26093000  0.26093000  0.85544100  1
  H  H14  1  0.26093000  0.62269900  0.85544100  1
  O  O15  1  0.79446000  0.20554000  0.20554000  1
  O  O16  1  0.98272400  0.33909200  0.33909200  1
  O  O17  1  0.79446000  0.79446000  0.20554000  1
  O  O18  1  0.20554000  0.79446000  0.20554000  1
  O  O19  1  0.79446000  0.20554000  0.79446000  1
  O  O20  1  0.33909200  0.98272400  0.33909200  1
  O  O21  1  0.20554000  0.79446000  0.79446000  1
  O  O22  1  0.33909200  0.33909200  0.33909200  1
  O  O23  1  0.20554000  0.20554000  0.79446000  1
  O  O24  1  0.33909200  0.33909200  0.98272400  1
