# generated using pymatgen
data_LaHSe3O10
_symmetry_space_group_name_H-M   'P 1'
_cell_length_a   7.42524600
_cell_length_b   10.97962600
_cell_length_c   23.91112000
_cell_angle_alpha   90.00000000
_cell_angle_beta   90.00000000
_cell_angle_gamma   90.00000000
_symmetry_Int_Tables_number   1
_chemical_formula_structural   LaHSe3O10
_chemical_formula_sum   'La8 H8 Se24 O80'
_cell_volume   1949.38810834
_cell_formula_units_Z   8
loop_
 _symmetry_equiv_pos_site_id
 _symmetry_equiv_pos_as_xyz
  1  'x, y, z'
loop_
 _atom_site_type_symbol
 _atom_site_label
 _atom_site_symmetry_multiplicity
 _atom_site_fract_x
 _atom_site_fract_y
 _atom_site_fract_z
 _atom_site_occupancy
  La  La0  1  0.06112600  0.46168500  0.09070600  1
  La  La1  1  0.06112600  0.03831500  0.59070600  1
  La  La2  1  0.43887400  0.96168500  0.09070600  1
  La  La3  1  0.43887400  0.53831500  0.59070600  1
  La  La4  1  0.56112600  0.03831500  0.90929400  1
  La  La5  1  0.56112600  0.46168500  0.40929400  1
  La  La6  1  0.93887400  0.53831500  0.90929400  1
  La  La7  1  0.93887400  0.96168500  0.40929400  1
  H  H8  1  0.18211500  0.34365300  0.29096200  1
  H  H9  1  0.18211500  0.15634700  0.79096200  1
  H  H10  1  0.31788500  0.84365300  0.29096200  1
  H  H11  1  0.31788500  0.65634700  0.79096200  1
  H  H12  1  0.68211500  0.34365300  0.20903800  1
  H  H13  1  0.68211500  0.15634700  0.70903800  1
  H  H14  1  0.81788500  0.65634700  0.70903800  1
  H  H15  1  0.81788500  0.84365300  0.20903800  1
  Se  Se16  1  0.03701400  0.79277200  0.14344300  1
  Se  Se17  1  0.03701400  0.70722800  0.64344300  1
  Se  Se18  1  0.06339300  0.61856500  0.38054200  1
  Se  Se19  1  0.06339300  0.88143500  0.88054200  1
  Se  Se20  1  0.19481700  0.17569800  0.00635000  1
  Se  Se21  1  0.19481700  0.32430200  0.50635000  1
  Se  Se22  1  0.30518300  0.67569800  0.00635000  1
  Se  Se23  1  0.30518300  0.82430200  0.50635000  1
  Se  Se24  1  0.43660700  0.11856500  0.38054200  1
  Se  Se25  1  0.43660700  0.38143500  0.88054200  1
  Se  Se26  1  0.46298600  0.29277200  0.14344300  1
  Se  Se27  1  0.46298600  0.20722800  0.64344300  1
  Se  Se28  1  0.53701400  0.79277200  0.35655700  1
  Se  Se29  1  0.53701400  0.70722800  0.85655700  1
  Se  Se30  1  0.56339300  0.61856500  0.11945800  1
  Se  Se31  1  0.56339300  0.88143500  0.61945800  1
  Se  Se32  1  0.69481700  0.17569800  0.49365000  1
  Se  Se33  1  0.69481700  0.32430200  0.99365000  1
  Se  Se34  1  0.80518300  0.67569800  0.49365000  1
  Se  Se35  1  0.80518300  0.82430200  0.99365000  1
  Se  Se36  1  0.93660700  0.11856500  0.11945800  1
  Se  Se37  1  0.93660700  0.38143500  0.61945800  1
  Se  Se38  1  0.96298600  0.20722800  0.85655700  1
  Se  Se39  1  0.96298600  0.29277200  0.35655700  1
  O  O40  1  0.11064300  0.97455800  0.28672600  1
  O  O41  1  0.11064300  0.52544200  0.78672600  1
  O  O42  1  0.09967300  0.64455500  0.14624700  1
  O  O43  1  0.09967300  0.85544500  0.64624700  1
  O  O44  1  0.06652800  0.30126700  0.28706300  1
  O  O45  1  0.06652800  0.19873300  0.78706300  1
  O  O46  1  0.10608500  0.59751400  0.00579200  1
  O  O47  1  0.10608500  0.90248600  0.50579200  1
  O  O48  1  0.10662200  0.07469500  0.06449600  1
  O  O49  1  0.10662200  0.42530500  0.56449600  1
  O  O50  1  0.11408700  0.76416900  0.39828700  1
  O  O51  1  0.11408700  0.73583100  0.89828700  1
  O  O52  1  0.22648800  0.87540500  0.15704100  1
  O  O53  1  0.22648800  0.62459500  0.65704100  1
  O  O54  1  0.23979300  0.53431700  0.40195500  1
  O  O55  1  0.23979300  0.96568300  0.90195500  1
  O  O56  1  0.30221900  0.56050500  0.26800700  1
  O  O57  1  0.30221900  0.93949500  0.76800700  1
  O  O58  1  0.24819600  0.30513200  0.03994600  1
  O  O59  1  0.24819600  0.19486800  0.53994600  1
  O  O60  1  0.25180400  0.80513200  0.03994600  1
  O  O61  1  0.25180400  0.69486800  0.53994600  1
  O  O62  1  0.19778100  0.06050500  0.26800700  1
  O  O63  1  0.19778100  0.43949500  0.76800700  1
  O  O64  1  0.26020700  0.03431700  0.40195500  1
  O  O65  1  0.26020700  0.46568300  0.90195500  1
  O  O66  1  0.27351200  0.37540500  0.15704100  1
  O  O67  1  0.27351200  0.12459500  0.65704100  1
  O  O68  1  0.38591300  0.26416900  0.39828700  1
  O  O69  1  0.38591300  0.23583100  0.89828700  1
  O  O70  1  0.39337800  0.57469500  0.06449600  1
  O  O71  1  0.39337800  0.92530500  0.56449600  1
  O  O72  1  0.39391500  0.09751400  0.00579200  1
  O  O73  1  0.39391500  0.40248600  0.50579200  1
  O  O74  1  0.43347200  0.80126700  0.28706300  1
  O  O75  1  0.43347200  0.69873300  0.78706300  1
  O  O76  1  0.40032700  0.14455500  0.14624700  1
  O  O77  1  0.40032700  0.35544500  0.64624700  1
  O  O78  1  0.38935700  0.47455800  0.28672600  1
  O  O79  1  0.38935700  0.02544200  0.78672600  1
  O  O80  1  0.61064300  0.52544200  0.71327400  1
  O  O81  1  0.61064300  0.97455800  0.21327400  1
  O  O82  1  0.59967300  0.64455500  0.35375300  1
  O  O83  1  0.59967300  0.85544500  0.85375300  1
  O  O84  1  0.56652800  0.30126700  0.21293700  1
  O  O85  1  0.56652800  0.19873300  0.71293700  1
  O  O86  1  0.60608500  0.59751400  0.49420800  1
  O  O87  1  0.60608500  0.90248600  0.99420800  1
  O  O88  1  0.60662200  0.42530500  0.93550400  1
  O  O89  1  0.60662200  0.07469500  0.43550400  1
  O  O90  1  0.61408700  0.76416900  0.10171300  1
  O  O91  1  0.61408700  0.73583100  0.60171300  1
  O  O92  1  0.72648800  0.62459500  0.84295900  1
  O  O93  1  0.72648800  0.87540500  0.34295900  1
  O  O94  1  0.73979300  0.53431700  0.09804500  1
  O  O95  1  0.73979300  0.96568300  0.59804500  1
  O  O96  1  0.80221900  0.56050500  0.23199300  1
  O  O97  1  0.80221900  0.93949500  0.73199300  1
  O  O98  1  0.74819600  0.30513200  0.46005400  1
  O  O99  1  0.74819600  0.19486800  0.96005400  1
  O  O100  1  0.75180400  0.80513200  0.46005400  1
  O  O101  1  0.75180400  0.69486800  0.96005400  1
  O  O102  1  0.69778100  0.06050500  0.23199300  1
  O  O103  1  0.69778100  0.43949500  0.73199300  1
  O  O104  1  0.76020700  0.03431700  0.09804500  1
  O  O105  1  0.76020700  0.46568300  0.59804500  1
  O  O106  1  0.77351200  0.12459500  0.84295900  1
  O  O107  1  0.77351200  0.37540500  0.34295900  1
  O  O108  1  0.88591300  0.26416900  0.10171300  1
  O  O109  1  0.88591300  0.23583100  0.60171300  1
  O  O110  1  0.89337800  0.57469500  0.43550400  1
  O  O111  1  0.89337800  0.92530500  0.93550400  1
  O  O112  1  0.89391500  0.09751400  0.49420800  1
  O  O113  1  0.89391500  0.40248600  0.99420800  1
  O  O114  1  0.93347200  0.80126700  0.21293700  1
  O  O115  1  0.93347200  0.69873300  0.71293700  1
  O  O116  1  0.90032700  0.14455500  0.35375300  1
  O  O117  1  0.90032700  0.35544500  0.85375300  1
  O  O118  1  0.88935700  0.47455800  0.21327400  1
  O  O119  1  0.88935700  0.02544200  0.71327400  1
