# generated using pymatgen
data_Sc(ClO4)3
_symmetry_space_group_name_H-M   'P 1'
_cell_length_a   9.18144402
_cell_length_b   9.18144402
_cell_length_c   9.18144359
_cell_angle_alpha   51.99120450
_cell_angle_beta   51.99120450
_cell_angle_gamma   51.99120822
_symmetry_Int_Tables_number   1
_chemical_formula_structural   Sc(ClO4)3
_chemical_formula_sum   'Sc2 Cl6 O24'
_cell_volume   444.23721723
_cell_formula_units_Z   2
loop_
 _symmetry_equiv_pos_site_id
 _symmetry_equiv_pos_as_xyz
  1  'x, y, z'
loop_
 _atom_site_type_symbol
 _atom_site_label
 _atom_site_symmetry_multiplicity
 _atom_site_fract_x
 _atom_site_fract_y
 _atom_site_fract_z
 _atom_site_occupancy
  Sc  Sc0  1  0.94270200  0.94270200  0.94270200  1
  Sc  Sc1  1  0.44270200  0.44270200  0.44270200  1
  Cl  Cl2  1  0.03554300  0.30826700  0.65564000  1
  Cl  Cl3  1  0.15564000  0.80826700  0.53554300  1
  Cl  Cl4  1  0.53554300  0.15564000  0.80826700  1
  Cl  Cl5  1  0.30826700  0.65564000  0.03554300  1
  Cl  Cl6  1  0.65564000  0.03554300  0.30826700  1
  Cl  Cl7  1  0.80826700  0.53554300  0.15564000  1
  O  O8  1  0.24050500  0.87577400  0.92243100  1
  O  O9  1  0.11376300  0.79666500  0.72434400  1
  O  O10  1  0.42305300  0.05136700  0.00304400  1
  O  O11  1  0.08387200  0.15193400  0.60858600  1
  O  O12  1  0.10858600  0.65193400  0.58387200  1
  O  O13  1  0.50304400  0.55136700  0.92305300  1
  O  O14  1  0.22434400  0.29666500  0.61376300  1
  O  O15  1  0.05136700  0.00304400  0.42305300  1
  O  O16  1  0.42243100  0.37577400  0.74050500  1
  O  O17  1  0.72434400  0.11376300  0.79666500  1
  O  O18  1  0.58387200  0.10858600  0.65193400  1
  O  O19  1  0.37577400  0.74050500  0.42243100  1
  O  O20  1  0.55136700  0.92305300  0.50304400  1
  O  O21  1  0.92243100  0.24050500  0.87577400  1
  O  O22  1  0.15193400  0.60858600  0.08387200  1
  O  O23  1  0.29666500  0.61376300  0.22434400  1
  O  O24  1  0.61376300  0.22434400  0.29666500  1
  O  O25  1  0.92305300  0.50304400  0.55136700  1
  O  O26  1  0.74050500  0.42243100  0.37577400  1
  O  O27  1  0.60858600  0.08387200  0.15193400  1
  O  O28  1  0.65193400  0.58387200  0.10858600  1
  O  O29  1  0.87577400  0.92243100  0.24050500  1
  O  O30  1  0.79666500  0.72434400  0.11376300  1
  O  O31  1  0.00304400  0.42305300  0.05136700  1
