# generated using pymatgen
data_NbO2F
_symmetry_space_group_name_H-M   'P 1'
_cell_length_a   5.42385181
_cell_length_b   5.42385181
_cell_length_c   5.66847926
_cell_angle_alpha   60.34872799
_cell_angle_beta   60.34872799
_cell_angle_gamma   61.60409246
_symmetry_Int_Tables_number   1
_chemical_formula_structural   NbO2F
_chemical_formula_sum   'Nb2 O4 F2'
_cell_volume   119.91749392
_cell_formula_units_Z   2
loop_
 _symmetry_equiv_pos_site_id
 _symmetry_equiv_pos_as_xyz
  1  'x, y, z'
loop_
 _atom_site_type_symbol
 _atom_site_label
 _atom_site_symmetry_multiplicity
 _atom_site_fract_x
 _atom_site_fract_y
 _atom_site_fract_z
 _atom_site_occupancy
  Nb  Nb0  1  0.74808200  0.18851100  0.85803200  1
  Nb  Nb1  1  0.18851100  0.74808200  0.35803200  1
  O  O2  1  0.89737200  0.53872000  0.58589200  1
  O  O3  1  0.04946900  0.96343100  0.60046900  1
  O  O4  1  0.53872000  0.89737200  0.08589200  1
  O  O5  1  0.96343100  0.04946900  0.10046900  1
  F  F6  1  0.46759400  0.38925200  0.59195900  1
  F  F7  1  0.38925200  0.46759400  0.09195900  1
