# generated using pymatgen
data_ZnInH14O7F5
_symmetry_space_group_name_H-M   'P 1'
_cell_length_a   6.67617700
_cell_length_b   9.10663027
_cell_length_c   9.13926605
_cell_angle_alpha   102.87670836
_cell_angle_beta   97.97400026
_cell_angle_gamma   96.35889152
_symmetry_Int_Tables_number   1
_chemical_formula_structural   ZnInH14O7F5
_chemical_formula_sum   'Zn2 In2 H28 O14 F10'
_cell_volume   530.62633552
_cell_formula_units_Z   2
loop_
 _symmetry_equiv_pos_site_id
 _symmetry_equiv_pos_as_xyz
  1  'x, y, z'
loop_
 _atom_site_type_symbol
 _atom_site_label
 _atom_site_symmetry_multiplicity
 _atom_site_fract_x
 _atom_site_fract_y
 _atom_site_fract_z
 _atom_site_occupancy
  Zn  Zn0  1  0.50000000  0.50000000  0.00000000  1
  Zn  Zn1  1  0.50000000  0.00000000  0.50000000  1
  In  In2  1  0.00000000  0.50000000  0.50000000  1
  In  In3  1  0.00000000  0.00000000  0.00000000  1
  H  H4  1  0.56072000  0.54456800  0.31278800  1
  H  H5  1  0.43928000  0.45543200  0.68721200  1
  H  H6  1  0.32215300  0.52716200  0.25011600  1
  H  H7  1  0.67784700  0.47283800  0.74988400  1
  H  H8  1  0.24057500  0.06216900  0.69565900  1
  H  H9  1  0.75942500  0.93783100  0.30434100  1
  H  H10  1  0.44937400  0.16889400  0.77258000  1
  H  H11  1  0.55062600  0.83110600  0.22742000  1
  H  H12  1  0.46556100  0.20342000  0.01932800  1
  H  H13  1  0.53443900  0.79658000  0.98067200  1
  H  H14  1  0.69408300  0.25032300  0.99032400  1
  H  H15  1  0.30591700  0.74967700  0.00967600  1
  H  H16  1  0.89561100  0.56348100  0.16215800  1
  H  H17  1  0.10438900  0.43651900  0.83784200  1
  H  H18  1  0.10553000  0.34895500  0.96902600  1
  H  H19  1  0.89447000  0.65104500  0.03097400  1
  H  H20  1  0.88284600  0.06762000  0.66523000  1
  H  H21  1  0.11715400  0.93238000  0.33477000  1
  H  H22  1  0.17273600  0.77071100  0.36068600  1
  H  H23  1  0.82726400  0.22928900  0.63931400  1
  H  H24  1  0.60778400  0.85789000  0.73040300  1
  H  H25  1  0.39221600  0.14211000  0.26959700  1
  H  H26  1  0.61850600  0.74139900  0.57056400  1
  H  H27  1  0.38149400  0.25860100  0.42943600  1
  H  H28  1  0.10413000  0.79076900  0.70559500  1
  H  H29  1  0.89587000  0.20923100  0.29440500  1
  H  H30  1  0.30750500  0.73914100  0.64722500  1
  H  H31  1  0.69249500  0.26085900  0.35277500  1
  O  O32  1  0.36339100  0.11685000  0.67210500  1
  O  O33  1  0.63660900  0.88315000  0.32789500  1
  O  O34  1  0.21081500  0.88313300  0.39483400  1
  O  O35  1  0.78918500  0.11686700  0.60516600  1
  O  O36  1  0.53819000  0.81787400  0.62157800  1
  O  O37  1  0.46181000  0.18212600  0.37842200  1
  O  O38  1  0.54792100  0.26272500  0.96324500  1
  O  O39  1  0.45207900  0.73727500  0.03675500  1
  O  O40  1  0.45324000  0.49958700  0.22252200  1
  O  O41  1  0.54676000  0.50041300  0.77747800  1
  O  O42  1  0.18868200  0.42505100  0.93069600  1
  O  O43  1  0.81131800  0.57494900  0.06930400  1
  O  O44  1  0.17132300  0.69999300  0.67048200  1
  O  O45  1  0.82867700  0.30000700  0.32951800  1
  F  F46  1  0.73559000  0.60161700  0.47755900  1
  F  F47  1  0.26441000  0.39838300  0.52244100  1
  F  F48  1  0.09926200  0.58343300  0.31790100  1
  F  F49  1  0.90073800  0.41656700  0.68209900  1
  F  F50  1  0.93657300  0.21971100  0.00518200  1
  F  F51  1  0.06342700  0.78028900  0.99481800  1
  F  F52  1  0.30859800  0.08968900  0.08885300  1
  F  F53  1  0.69140200  0.91031100  0.91114700  1
  F  F54  1  0.04627100  0.97001800  0.76690600  1
  F  F55  1  0.95372900  0.02998200  0.23309400  1
