# generated using pymatgen
data_V3S4
_symmetry_space_group_name_H-M   'P 1'
_cell_length_a   9.08517358
_cell_length_b   9.08517358
_cell_length_c   3.25618900
_cell_angle_alpha   90.00000000
_cell_angle_beta   90.00000000
_cell_angle_gamma   119.99999696
_symmetry_Int_Tables_number   1
_chemical_formula_structural   V3S4
_chemical_formula_sum   'V6 S8'
_cell_volume   232.75912113
_cell_formula_units_Z   2
loop_
 _symmetry_equiv_pos_site_id
 _symmetry_equiv_pos_as_xyz
  1  'x, y, z'
loop_
 _atom_site_type_symbol
 _atom_site_label
 _atom_site_symmetry_multiplicity
 _atom_site_fract_x
 _atom_site_fract_y
 _atom_site_fract_z
 _atom_site_occupancy
  V  V0  1  0.51073400  0.88071900  0.75000000  1
  V  V1  1  0.63001600  0.51073400  0.25000000  1
  V  V2  1  0.88071900  0.36998400  0.25000000  1
  V  V3  1  0.11928100  0.63001600  0.75000000  1
  V  V4  1  0.36998400  0.48926600  0.75000000  1
  V  V5  1  0.48926600  0.11928100  0.25000000  1
  S  S6  1  0.66666700  0.33333300  0.75000000  1
  S  S7  1  0.33333300  0.66666700  0.25000000  1
  S  S8  1  0.65346900  0.70485900  0.75000000  1
  S  S9  1  0.94861000  0.65346900  0.25000000  1
  S  S10  1  0.70485900  0.05139000  0.25000000  1
  S  S11  1  0.29514100  0.94861000  0.75000000  1
  S  S12  1  0.34653100  0.29514100  0.25000000  1
  S  S13  1  0.05139000  0.34653100  0.75000000  1
