# generated using pymatgen
data_NaB5(H2O5)2
_symmetry_space_group_name_H-M   'P 1'
_cell_length_a   8.18790100
_cell_length_b   8.77510800
_cell_length_c   13.09771070
_cell_angle_alpha   73.46520342
_cell_angle_beta   90.00000000
_cell_angle_gamma   90.00000000
_symmetry_Int_Tables_number   1
_chemical_formula_structural   NaB5(H2O5)2
_chemical_formula_sum   'Na4 B20 H16 O40'
_cell_volume   902.15092035
_cell_formula_units_Z   4
loop_
 _symmetry_equiv_pos_site_id
 _symmetry_equiv_pos_as_xyz
  1  'x, y, z'
loop_
 _atom_site_type_symbol
 _atom_site_label
 _atom_site_symmetry_multiplicity
 _atom_site_fract_x
 _atom_site_fract_y
 _atom_site_fract_z
 _atom_site_occupancy
  Na  Na0  1  0.26077000  0.92137800  0.73602100  1
  Na  Na1  1  0.76077000  0.07862200  0.76397900  1
  Na  Na2  1  0.73923000  0.07862200  0.26397900  1
  Na  Na3  1  0.23923000  0.92137800  0.23602100  1
  B  B4  1  0.90659200  0.72120700  0.81071900  1
  B  B5  1  0.40659200  0.27879300  0.68928100  1
  B  B6  1  0.09340800  0.27879300  0.18928100  1
  B  B7  1  0.59340800  0.72120700  0.31071900  1
  B  B8  1  0.68588200  0.54866000  0.89489100  1
  B  B9  1  0.18588200  0.45134000  0.60510900  1
  B  B10  1  0.31411800  0.45134000  0.10510900  1
  B  B11  1  0.81411800  0.54866000  0.39489100  1
  B  B12  1  0.77969100  0.76485000  0.97022800  1
  B  B13  1  0.27969100  0.23515000  0.52977200  1
  B  B14  1  0.22030900  0.23515000  0.02977200  1
  B  B15  1  0.72030900  0.76485000  0.47022800  1
  B  B16  1  0.93816900  0.77057100  0.13058600  1
  B  B17  1  0.43816900  0.22942900  0.36941400  1
  B  B18  1  0.06183100  0.22942900  0.86941400  1
  B  B19  1  0.56183100  0.77057100  0.63058600  1
  B  B20  1  0.72295200  0.96161200  0.07082400  1
  B  B21  1  0.22295200  0.03838800  0.42917600  1
  B  B22  1  0.27704800  0.03838800  0.92917600  1
  B  B23  1  0.77704800  0.96161200  0.57082400  1
  H  H24  1  0.10628000  0.61556200  0.20329600  1
  H  H25  1  0.60628000  0.38443800  0.29670400  1
  H  H26  1  0.89372000  0.38443800  0.79670400  1
  H  H27  1  0.39372000  0.61556200  0.70329600  1
  H  H28  1  0.52963300  0.10411600  0.05726300  1
  H  H29  1  0.02963300  0.89588400  0.44273700  1
  H  H30  1  0.47036700  0.89588400  0.94273700  1
  H  H31  1  0.97036700  0.10411600  0.55726300  1
  H  H32  1  0.04709700  0.68321000  0.69441600  1
  H  H33  1  0.54709700  0.31679000  0.80558400  1
  H  H34  1  0.95290300  0.31679000  0.30558400  1
  H  H35  1  0.45290300  0.68321000  0.19441600  1
  H  H36  1  0.49524900  0.40321100  0.94763700  1
  H  H37  1  0.99524900  0.59678900  0.55236300  1
  H  H38  1  0.50475100  0.59678900  0.05236300  1
  H  H39  1  0.00475100  0.40321100  0.44763700  1
  O  O40  1  0.81694900  0.58039400  0.82315700  1
  O  O41  1  0.31694900  0.41960600  0.67684300  1
  O  O42  1  0.18305100  0.41960600  0.17684300  1
  O  O43  1  0.68305100  0.58039400  0.32315700  1
  O  O44  1  0.66067200  0.63908600  0.96333500  1
  O  O45  1  0.16067200  0.36091400  0.53666500  1
  O  O46  1  0.33932800  0.36091400  0.03666500  1
  O  O47  1  0.83932800  0.63908600  0.46333500  1
  O  O48  1  0.86721800  0.82442300  0.86775800  1
  O  O49  1  0.36721800  0.17557700  0.63224200  1
  O  O50  1  0.13278200  0.17557700  0.13224200  1
  O  O51  1  0.63278200  0.82442300  0.36775800  1
  O  O52  1  0.68569300  0.90044900  0.98803000  1
  O  O53  1  0.18569300  0.09955100  0.51197000  1
  O  O54  1  0.31430700  0.09955100  0.01197000  1
  O  O55  1  0.81430700  0.90044900  0.48803000  1
  O  O56  1  0.89767500  0.69874700  0.05538800  1
  O  O57  1  0.39767500  0.30125300  0.44461200  1
  O  O58  1  0.10232500  0.30125300  0.94461200  1
  O  O59  1  0.60232500  0.69874700  0.55538800  1
  O  O60  1  0.85226800  0.90373100  0.14027300  1
  O  O61  1  0.35226800  0.09626900  0.35972700  1
  O  O62  1  0.14773200  0.09626900  0.85972700  1
  O  O63  1  0.64773200  0.90373100  0.64027300  1
  O  O64  1  0.06412400  0.72074300  0.20274500  1
  O  O65  1  0.56412400  0.27925700  0.29725500  1
  O  O66  1  0.93587600  0.27925700  0.79725500  1
  O  O67  1  0.43587600  0.72074300  0.70274500  1
  O  O68  1  0.63628200  0.08151500  0.09351600  1
  O  O69  1  0.13628200  0.91848500  0.40648400  1
  O  O70  1  0.36371800  0.91848500  0.90648400  1
  O  O71  1  0.86371800  0.08151500  0.59351600  1
  O  O72  1  0.03123300  0.75845300  0.73804100  1
  O  O73  1  0.53123300  0.24154700  0.76195900  1
  O  O74  1  0.96876700  0.24154700  0.26195900  1
  O  O75  1  0.46876700  0.75845300  0.23804100  1
  O  O76  1  0.58546600  0.42381900  0.89369600  1
  O  O77  1  0.08546600  0.57618100  0.60630400  1
  O  O78  1  0.41453400  0.57618100  0.10630400  1
  O  O79  1  0.91453400  0.42381900  0.39369600  1
