# generated using pymatgen
data_NaNi3P4H8NO16
_symmetry_space_group_name_H-M   'P 1'
_cell_length_a   10.41039014
_cell_length_b   10.41039014
_cell_length_c   9.19743386
_cell_angle_alpha   72.90487073
_cell_angle_beta   72.90487073
_cell_angle_gamma   45.56249250
_symmetry_Int_Tables_number   1
_chemical_formula_structural   NaNi3P4H8NO16
_chemical_formula_sum   'Na2 Ni6 P8 H16 N2 O32'
_cell_volume   674.57418020
_cell_formula_units_Z   2
loop_
 _symmetry_equiv_pos_site_id
 _symmetry_equiv_pos_as_xyz
  1  'x, y, z'
loop_
 _atom_site_type_symbol
 _atom_site_label
 _atom_site_symmetry_multiplicity
 _atom_site_fract_x
 _atom_site_fract_y
 _atom_site_fract_z
 _atom_site_occupancy
  Na  Na0  1  0.53913100  0.46086900  0.25000000  1
  Na  Na1  1  0.46086900  0.53913100  0.75000000  1
  Ni  Ni2  1  0.20351600  0.42645700  0.43203900  1
  Ni  Ni3  1  0.42645700  0.20351600  0.93203900  1
  Ni  Ni4  1  0.00000000  0.50000000  0.00000000  1
  Ni  Ni5  1  0.57354300  0.79648400  0.06796100  1
  Ni  Ni6  1  0.50000000  0.00000000  0.50000000  1
  Ni  Ni7  1  0.79648400  0.57354300  0.56796100  1
  P  P8  1  0.21432600  0.58500800  0.08630700  1
  P  P9  1  0.84777200  0.75290700  0.24202600  1
  P  P10  1  0.58500800  0.21432600  0.58630700  1
  P  P11  1  0.75290700  0.84777200  0.74202600  1
  P  P12  1  0.24709300  0.15222800  0.25797400  1
  P  P13  1  0.41499200  0.78567400  0.41369300  1
  P  P14  1  0.15222800  0.24709300  0.75797400  1
  P  P15  1  0.78567400  0.41499200  0.91369300  1
  H  H16  1  0.88632400  0.10646100  0.34338500  1
  H  H17  1  0.99396500  0.91324300  0.27542800  1
  H  H18  1  0.10646100  0.88632400  0.84338500  1
  H  H19  1  0.64690400  0.22542100  0.00679500  1
  H  H20  1  0.91324300  0.99396500  0.77542800  1
  H  H21  1  0.63916900  0.08247100  0.12226900  1
  H  H22  1  0.22542100  0.64690400  0.50679500  1
  H  H23  1  0.08247100  0.63916900  0.62226900  1
  H  H24  1  0.91752900  0.36083100  0.37773100  1
  H  H25  1  0.77457900  0.35309600  0.49320500  1
  H  H26  1  0.36083100  0.91752900  0.87773100  1
  H  H27  1  0.08675700  0.00603500  0.22457200  1
  H  H28  1  0.35309600  0.77457900  0.99320500  1
  H  H29  1  0.89353900  0.11367600  0.15661500  1
  H  H30  1  0.00603500  0.08675700  0.72457200  1
  H  H31  1  0.11367600  0.89353900  0.65661500  1
  N  N32  1  0.96750800  0.03249200  0.25000000  1
  N  N33  1  0.03249200  0.96750800  0.75000000  1
  O  O34  1  0.67398900  0.27748600  0.46657800  1
  O  O35  1  0.27748600  0.67398900  0.96657800  1
  O  O36  1  0.30964300  0.49003700  0.22963500  1
  O  O37  1  0.00162600  0.75934600  0.13965700  1
  O  O38  1  0.63187600  0.13993200  0.01311300  1
  O  O39  1  0.69541800  0.93947300  0.29474900  1
  O  O40  1  0.49003700  0.30964300  0.72963500  1
  O  O41  1  0.21570000  0.46442900  0.01969800  1
  O  O42  1  0.94253300  0.59723900  0.37169100  1
  O  O43  1  0.75934600  0.00162600  0.63965700  1
  O  O44  1  0.13993200  0.63187600  0.51311300  1
  O  O45  1  0.29021800  0.19977500  0.36824600  1
  O  O46  1  0.93947300  0.69541800  0.79474900  1
  O  O47  1  0.80022500  0.70978200  0.13175400  1
  O  O48  1  0.46442900  0.21570000  0.51969800  1
  O  O49  1  0.59723900  0.94253300  0.87169100  1
  O  O50  1  0.40276100  0.05746700  0.12830900  1
  O  O51  1  0.53557100  0.78430000  0.48030200  1
  O  O52  1  0.19977500  0.29021800  0.86824600  1
  O  O53  1  0.06052700  0.30458200  0.20525100  1
  O  O54  1  0.70978200  0.80022500  0.63175400  1
  O  O55  1  0.86006800  0.36812400  0.48688700  1
  O  O56  1  0.24065400  0.99837400  0.36034300  1
  O  O57  1  0.05746700  0.40276100  0.62830900  1
  O  O58  1  0.78430000  0.53557100  0.98030200  1
  O  O59  1  0.50996300  0.69035700  0.27036500  1
  O  O60  1  0.30458200  0.06052700  0.70525100  1
  O  O61  1  0.36812400  0.86006800  0.98688700  1
  O  O62  1  0.99837400  0.24065400  0.86034300  1
  O  O63  1  0.69035700  0.50996300  0.77036500  1
  O  O64  1  0.72251400  0.32601100  0.03342200  1
  O  O65  1  0.32601100  0.72251400  0.53342200  1
