# generated using pymatgen
data_Na2MnO3
_symmetry_space_group_name_H-M   'P 1'
_cell_length_a   5.29070399
_cell_length_b   5.29070399
_cell_length_c   5.69912674
_cell_angle_alpha   80.80972355
_cell_angle_beta   80.80972355
_cell_angle_gamma   120.02703350
_symmetry_Int_Tables_number   1
_chemical_formula_structural   Na2MnO3
_chemical_formula_sum   'Na4 Mn2 O6'
_cell_volume   130.87518767
_cell_formula_units_Z   2
loop_
 _symmetry_equiv_pos_site_id
 _symmetry_equiv_pos_as_xyz
  1  'x, y, z'
loop_
 _atom_site_type_symbol
 _atom_site_label
 _atom_site_symmetry_multiplicity
 _atom_site_fract_x
 _atom_site_fract_y
 _atom_site_fract_z
 _atom_site_occupancy
  Na  Na0  1  0.00000000  0.00000000  0.00000000  1
  Na  Na1  1  0.33853500  0.66146500  0.00000000  1
  Na  Na2  1  0.66146500  0.33853500  0.00000000  1
  Na  Na3  1  0.50000000  0.50000000  0.50000000  1
  Mn  Mn4  1  0.16406500  0.83593500  0.50000000  1
  Mn  Mn5  1  0.83593500  0.16406500  0.50000000  1
  O  O6  1  0.56504300  0.94673000  0.30018000  1
  O  O7  1  0.43495700  0.05327000  0.69982000  1
  O  O8  1  0.80807900  0.80807900  0.70094900  1
  O  O9  1  0.94673000  0.56504300  0.30018000  1
  O  O10  1  0.05327000  0.43495700  0.69982000  1
  O  O11  1  0.19192100  0.19192100  0.29905100  1
