# generated using pymatgen
data_Mn3(PO4)2
_symmetry_space_group_name_H-M   'P 1'
_cell_length_a   5.25589453
_cell_length_b   8.77435201
_cell_length_c   7.90179069
_cell_angle_alpha   90.00320820
_cell_angle_beta   87.13142944
_cell_angle_gamma   89.99722243
_symmetry_Int_Tables_number   1
_chemical_formula_structural   Mn3(PO4)2
_chemical_formula_sum   'Mn6 P4 O16'
_cell_volume   363.95080617
_cell_formula_units_Z   2
loop_
 _symmetry_equiv_pos_site_id
 _symmetry_equiv_pos_as_xyz
  1  'x, y, z'
loop_
 _atom_site_type_symbol
 _atom_site_label
 _atom_site_symmetry_multiplicity
 _atom_site_fract_x
 _atom_site_fract_y
 _atom_site_fract_z
 _atom_site_occupancy
  Mn  Mn0  1  0.49964900  0.50028900  0.50039400  1
  Mn  Mn1  1  0.40987700  0.14326900  0.61655000  1
  Mn  Mn2  1  0.59021600  0.85670000  0.38333200  1
  Mn  Mn3  1  0.99973500  0.00007100  0.00014400  1
  Mn  Mn4  1  0.09026400  0.64327100  0.88342100  1
  Mn  Mn5  1  0.90978200  0.35669100  0.11656900  1
  P  P6  1  0.03315000  0.69274200  0.29760700  1
  P  P7  1  0.46684800  0.19275200  0.20241200  1
  P  P8  1  0.53319900  0.80727100  0.79757400  1
  P  P9  1  0.96687000  0.30721000  0.70234800  1
  O  O10  1  0.03907300  0.58013000  0.14471500  1
  O  O11  1  0.46101700  0.08016800  0.35521700  1
  O  O12  1  0.53906400  0.91977000  0.64471300  1
  O  O13  1  0.96101300  0.41983800  0.85523800  1
  O  O14  1  0.04749800  0.14491000  0.76158600  1
  O  O15  1  0.45259300  0.64489600  0.73840200  1
  O  O16  1  0.54746100  0.35507500  0.26160400  1
  O  O17  1  0.95255700  0.85504500  0.23835300  1
  O  O18  1  0.20025200  0.19343300  0.12735900  1
  O  O19  1  0.29976600  0.69347100  0.37257400  1
  O  O20  1  0.70026600  0.30653500  0.62738700  1
  O  O21  1  0.79980500  0.80652200  0.87258400  1
  O  O22  1  0.17566600  0.35541300  0.56706100  1
  O  O23  1  0.32437900  0.85544500  0.93291300  1
  O  O24  1  0.67562100  0.14452900  0.06704100  1
  O  O25  1  0.82438100  0.64455500  0.43290400  1
