# generated using pymatgen
data_Cs2ZnH12(SO7)2
_symmetry_space_group_name_H-M   'P 1'
_cell_length_a   12.91086300
_cell_length_b   6.43542400
_cell_length_c   9.37166856
_cell_angle_alpha   73.34273250
_cell_angle_beta   90.00000000
_cell_angle_gamma   90.00000000
_symmetry_Int_Tables_number   1
_chemical_formula_structural   Cs2ZnH12(SO7)2
_chemical_formula_sum   'Cs4 Zn2 H24 S4 O28'
_cell_volume   745.98730503
_cell_formula_units_Z   2
loop_
 _symmetry_equiv_pos_site_id
 _symmetry_equiv_pos_as_xyz
  1  'x, y, z'
loop_
 _atom_site_type_symbol
 _atom_site_label
 _atom_site_symmetry_multiplicity
 _atom_site_fract_x
 _atom_site_fract_y
 _atom_site_fract_z
 _atom_site_occupancy
  Cs  Cs0  1  0.35618500  0.64398400  0.12749100  1
  Cs  Cs1  1  0.85618500  0.35601600  0.37250900  1
  Cs  Cs2  1  0.14381500  0.64398400  0.62749100  1
  Cs  Cs3  1  0.64381500  0.35601600  0.87250900  1
  Zn  Zn4  1  0.00000000  0.00000000  0.00000000  1
  Zn  Zn5  1  0.50000000  0.00000000  0.50000000  1
  H  H6  1  0.05920600  0.33712300  0.09414900  1
  H  H7  1  0.86025900  0.68671800  0.02620200  1
  H  H8  1  0.40318800  0.06629600  0.22417500  1
  H  H9  1  0.63046200  0.08230500  0.26408100  1
  H  H10  1  0.10165400  0.68493000  0.20917400  1
  H  H11  1  0.31706700  0.00904900  0.35006400  1
  H  H12  1  0.81706700  0.99095100  0.14993600  1
  H  H13  1  0.60165400  0.31507000  0.29082600  1
  H  H14  1  0.13046200  0.91769500  0.23591900  1
  H  H15  1  0.90318800  0.93370400  0.27582500  1
  H  H16  1  0.36025900  0.31328200  0.47379800  1
  H  H17  1  0.55920600  0.66287700  0.40585100  1
  H  H18  1  0.44079400  0.33712300  0.59414900  1
  H  H19  1  0.63974100  0.68671800  0.52620200  1
  H  H20  1  0.09681200  0.06629600  0.72417500  1
  H  H21  1  0.86953800  0.08230500  0.76408100  1
  H  H22  1  0.39834600  0.68493000  0.70917400  1
  H  H23  1  0.18293300  0.00904900  0.85006400  1
  H  H24  1  0.68293300  0.99095100  0.64993600  1
  H  H25  1  0.89834600  0.31507000  0.79082600  1
  H  H26  1  0.36953800  0.91769500  0.73591900  1
  H  H27  1  0.59681200  0.93370400  0.77582500  1
  H  H28  1  0.13974100  0.31328200  0.97379800  1
  H  H29  1  0.94079400  0.66287700  0.90585100  1
  S  S30  1  0.64729900  0.74128700  0.10452200  1
  S  S31  1  0.14729900  0.25871300  0.39547800  1
  S  S32  1  0.85270100  0.74128700  0.60452200  1
  S  S33  1  0.35270100  0.25871300  0.89547800  1
  O  O34  1  0.06437700  0.29864500  0.99934000  1
  O  O35  1  0.41816700  0.19889000  0.03168100  1
  O  O36  1  0.89057900  0.01922900  0.17069600  1
  O  O37  1  0.73930700  0.61340200  0.08215100  1
  O  O38  1  0.68296900  0.94185300  0.14188900  1
  O  O39  1  0.11347200  0.84188700  0.16015800  1
  O  O40  1  0.08492800  0.39775900  0.26821900  1
  O  O41  1  0.58492800  0.60224100  0.23178100  1
  O  O42  1  0.61347200  0.15811300  0.33984200  1
  O  O43  1  0.18296900  0.05814700  0.35811100  1
  O  O44  1  0.23930700  0.38659800  0.41784900  1
  O  O45  1  0.39057900  0.98077100  0.32930400  1
  O  O46  1  0.43562300  0.29864500  0.49934000  1
  O  O47  1  0.08183300  0.19889000  0.53168100  1
  O  O48  1  0.91816700  0.80111000  0.46831900  1
  O  O49  1  0.56437700  0.70135500  0.50066000  1
  O  O50  1  0.60942100  0.01922900  0.67069600  1
  O  O51  1  0.76069300  0.61340200  0.58215100  1
  O  O52  1  0.81703100  0.94185300  0.64188900  1
  O  O53  1  0.38652800  0.84188700  0.66015800  1
  O  O54  1  0.41507200  0.39775900  0.76821900  1
  O  O55  1  0.91507200  0.60224100  0.73178100  1
  O  O56  1  0.88652800  0.15811300  0.83984200  1
  O  O57  1  0.31703100  0.05814700  0.85811100  1
  O  O58  1  0.26069300  0.38659800  0.91784900  1
  O  O59  1  0.10942100  0.98077100  0.82930400  1
  O  O60  1  0.58183300  0.80111000  0.96831900  1
  O  O61  1  0.93562300  0.70135500  0.00066000  1
