# generated using pymatgen
data_K2Mn3V2(HO5)2
_symmetry_space_group_name_H-M   'P 1'
_cell_length_a   6.26008100
_cell_length_b   8.27953228
_cell_length_c   10.93865189
_cell_angle_alpha   75.93472288
_cell_angle_beta   90.00122579
_cell_angle_gamma   112.21577997
_symmetry_Int_Tables_number   1
_chemical_formula_structural   K2Mn3V2(HO5)2
_chemical_formula_sum   'K4 Mn6 V4 H4 O20'
_cell_volume   506.46216175
_cell_formula_units_Z   2
loop_
 _symmetry_equiv_pos_site_id
 _symmetry_equiv_pos_as_xyz
  1  'x, y, z'
loop_
 _atom_site_type_symbol
 _atom_site_label
 _atom_site_symmetry_multiplicity
 _atom_site_fract_x
 _atom_site_fract_y
 _atom_site_fract_z
 _atom_site_occupancy
  K  K0  1  0.23729600  0.47453600  0.35125600  1
  K  K1  1  0.23734900  0.47462300  0.85131100  1
  K  K2  1  0.76271300  0.52546900  0.14874000  1
  K  K3  1  0.76267000  0.52537900  0.64869000  1
  Mn  Mn4  1  0.26168100  0.00000400  0.74998600  1
  Mn  Mn5  1  0.73639800  0.00000200  0.25000100  1
  Mn  Mn6  1  0.73835800  0.99998100  0.75001100  1
  Mn  Mn7  1  0.99933900  0.00007600  0.99971500  1
  Mn  Mn8  1  0.99921800  0.99985600  0.50031000  1
  Mn  Mn9  1  0.26562600  0.00001900  0.24999400  1
  V  V10  1  0.37904600  0.75857600  0.04530900  1
  V  V11  1  0.62046300  0.24143300  0.45468700  1
  V  V12  1  0.37902600  0.75818300  0.54553800  1
  V  V13  1  0.62084000  0.24183200  0.95446000  1
  H  H14  1  0.86120900  0.72236300  0.37925800  1
  H  H15  1  0.86072700  0.72142000  0.87928100  1
  H  H16  1  0.13884600  0.27763500  0.12073900  1
  H  H17  1  0.13930300  0.27857200  0.62071800  1
  O  O18  1  0.92794600  0.85565100  0.35902400  1
  O  O19  1  0.92740200  0.85474900  0.85919800  1
  O  O20  1  0.07229500  0.14434800  0.14097300  1
  O  O21  1  0.07264300  0.14524500  0.64079900  1
  O  O22  1  0.41599800  0.83116800  0.37740800  1
  O  O23  1  0.41602200  0.83200200  0.87710600  1
  O  O24  1  0.58481700  0.16884000  0.12259200  1
  O  O25  1  0.58400200  0.16800100  0.62289200  1
  O  O26  1  0.73662800  0.47360300  0.41057800  1
  O  O27  1  0.73698100  0.47406100  0.91042300  1
  O  O28  1  0.26307200  0.52640900  0.08941800  1
  O  O29  1  0.26296800  0.52595900  0.58957400  1
  O  O30  1  0.64694000  0.82959600  0.11069200  1
  O  O31  1  0.64716500  0.82934100  0.61075100  1
  O  O32  1  0.18247400  0.83026000  0.11065800  1
  O  O33  1  0.18229000  0.82932600  0.61091000  1
  O  O34  1  0.35219000  0.16973200  0.38934600  1
  O  O35  1  0.35294200  0.17067000  0.88910000  1
  O  O36  1  0.81731900  0.17041200  0.38930300  1
  O  O37  1  0.81779500  0.17066700  0.88924900  1
