# generated using pymatgen
data_Y2(SeO4)3
_symmetry_space_group_name_H-M   'P 1'
_cell_length_a   9.71360500
_cell_length_b   9.80012400
_cell_length_c   13.50099400
_cell_angle_alpha   90.00000000
_cell_angle_beta   90.00000000
_cell_angle_gamma   90.00000000
_symmetry_Int_Tables_number   1
_chemical_formula_structural   Y2(SeO4)3
_chemical_formula_sum   'Y8 Se12 O48'
_cell_volume   1285.22082544
_cell_formula_units_Z   4
loop_
 _symmetry_equiv_pos_site_id
 _symmetry_equiv_pos_as_xyz
  1  'x, y, z'
loop_
 _atom_site_type_symbol
 _atom_site_label
 _atom_site_symmetry_multiplicity
 _atom_site_fract_x
 _atom_site_fract_y
 _atom_site_fract_z
 _atom_site_occupancy
  Y  Y0  1  0.24983200  0.96229900  0.11765400  1
  Y  Y1  1  0.75016800  0.46229900  0.11765400  1
  Y  Y2  1  0.25016800  0.46229900  0.38234600  1
  Y  Y3  1  0.74983200  0.96229900  0.38234600  1
  Y  Y4  1  0.25016800  0.03770100  0.61765400  1
  Y  Y5  1  0.74983200  0.53770100  0.61765400  1
  Y  Y6  1  0.24983200  0.53770100  0.88234600  1
  Y  Y7  1  0.75016800  0.03770100  0.88234600  1
  Se  Se8  1  0.03513800  0.25000000  0.00000000  1
  Se  Se9  1  0.96486200  0.75000000  0.00000000  1
  Se  Se10  1  0.39394800  0.61157500  0.14683300  1
  Se  Se11  1  0.60605200  0.11157500  0.14683300  1
  Se  Se12  1  0.10605200  0.11157500  0.35316700  1
  Se  Se13  1  0.89394800  0.61157500  0.35316700  1
  Se  Se14  1  0.46486200  0.75000000  0.50000000  1
  Se  Se15  1  0.53513800  0.25000000  0.50000000  1
  Se  Se16  1  0.10605200  0.38842500  0.64683300  1
  Se  Se17  1  0.89394800  0.88842500  0.64683300  1
  Se  Se18  1  0.39394800  0.88842500  0.85316700  1
  Se  Se19  1  0.60605200  0.38842500  0.85316700  1
  O  O20  1  0.66677900  0.07472300  0.03479700  1
  O  O21  1  0.33322100  0.57472300  0.03479700  1
  O  O22  1  0.86529600  0.64547700  0.06466400  1
  O  O23  1  0.13470400  0.14547700  0.06466400  1
  O  O24  1  0.06165100  0.83598200  0.08021000  1
  O  O25  1  0.93834900  0.33598200  0.08021000  1
  O  O26  1  0.43586500  0.09468200  0.14866800  1
  O  O27  1  0.56413500  0.59468200  0.14866800  1
  O  O28  1  0.35629800  0.77213100  0.17647900  1
  O  O29  1  0.64370200  0.27213100  0.17647900  1
  O  O30  1  0.32272400  0.50367200  0.22681300  1
  O  O31  1  0.67727600  0.00367200  0.22681300  1
  O  O32  1  0.17727600  0.00367200  0.27318700  1
  O  O33  1  0.82272400  0.50367200  0.27318700  1
  O  O34  1  0.85629800  0.77213100  0.32352100  1
  O  O35  1  0.14370200  0.27213100  0.32352100  1
  O  O36  1  0.06413500  0.59468200  0.35133200  1
  O  O37  1  0.93586500  0.09468200  0.35133200  1
  O  O38  1  0.43834900  0.33598200  0.41979000  1
  O  O39  1  0.56165100  0.83598200  0.41979000  1
  O  O40  1  0.36529600  0.64547700  0.43533600  1
  O  O41  1  0.63470400  0.14547700  0.43533600  1
  O  O42  1  0.16677900  0.07472300  0.46520300  1
  O  O43  1  0.83322100  0.57472300  0.46520300  1
  O  O44  1  0.16677900  0.42527700  0.53479700  1
  O  O45  1  0.83322100  0.92527700  0.53479700  1
  O  O46  1  0.63470400  0.35452300  0.56466400  1
  O  O47  1  0.36529600  0.85452300  0.56466400  1
  O  O48  1  0.43834900  0.16401800  0.58021000  1
  O  O49  1  0.56165100  0.66401800  0.58021000  1
  O  O50  1  0.06413500  0.90531800  0.64866800  1
  O  O51  1  0.93586500  0.40531800  0.64866800  1
  O  O52  1  0.14370200  0.22786900  0.67647900  1
  O  O53  1  0.85629800  0.72786900  0.67647900  1
  O  O54  1  0.17727600  0.49632800  0.72681300  1
  O  O55  1  0.82272400  0.99632800  0.72681300  1
  O  O56  1  0.32272400  0.99632800  0.77318700  1
  O  O57  1  0.67727600  0.49632800  0.77318700  1
  O  O58  1  0.35629800  0.72786900  0.82352100  1
  O  O59  1  0.64370200  0.22786900  0.82352100  1
  O  O60  1  0.43586500  0.40531800  0.85133200  1
  O  O61  1  0.56413500  0.90531800  0.85133200  1
  O  O62  1  0.06165100  0.66401800  0.91979000  1
  O  O63  1  0.93834900  0.16401800  0.91979000  1
  O  O64  1  0.13470400  0.35452300  0.93533600  1
  O  O65  1  0.86529600  0.85452300  0.93533600  1
  O  O66  1  0.33322100  0.92527700  0.96520300  1
  O  O67  1  0.66677900  0.42527700  0.96520300  1
