# generated using pymatgen
data_Li2Ti3CoO8
_symmetry_space_group_name_H-M   'P 1'
_cell_length_a   8.44457600
_cell_length_b   8.44457600
_cell_length_c   8.44457600
_cell_angle_alpha   90.00000000
_cell_angle_beta   90.00000000
_cell_angle_gamma   90.00000000
_symmetry_Int_Tables_number   1
_chemical_formula_structural   Li2Ti3CoO8
_chemical_formula_sum   'Li8 Ti12 Co4 O32'
_cell_volume   602.19000915
_cell_formula_units_Z   4
loop_
 _symmetry_equiv_pos_site_id
 _symmetry_equiv_pos_as_xyz
  1  'x, y, z'
loop_
 _atom_site_type_symbol
 _atom_site_label
 _atom_site_symmetry_multiplicity
 _atom_site_fract_x
 _atom_site_fract_y
 _atom_site_fract_z
 _atom_site_occupancy
  Li  Li0  1  0.49767800  0.49767800  0.49767800  1
  Li  Li1  1  0.50232200  0.99767800  0.00232200  1
  Li  Li2  1  0.62434500  0.37565500  0.87565500  1
  Li  Li3  1  0.87565500  0.62434500  0.37565500  1
  Li  Li4  1  0.00232200  0.50232200  0.99767800  1
  Li  Li5  1  0.99767800  0.00232200  0.50232200  1
  Li  Li6  1  0.12434500  0.12434500  0.12434500  1
  Li  Li7  1  0.37565500  0.87565500  0.62434500  1
  Ti  Ti8  1  0.63499500  0.62006400  0.12760800  1
  Ti  Ti9  1  0.62006400  0.12760800  0.63499500  1
  Ti  Ti10  1  0.62760800  0.86500500  0.37993600  1
  Ti  Ti11  1  0.87993600  0.87239200  0.13499500  1
  Ti  Ti12  1  0.87239200  0.13499500  0.87993600  1
  Ti  Ti13  1  0.86500500  0.37993600  0.62760800  1
  Ti  Ti14  1  0.12760800  0.63499500  0.62006400  1
  Ti  Ti15  1  0.13499500  0.87993600  0.87239200  1
  Ti  Ti16  1  0.12006400  0.37239200  0.36500500  1
  Ti  Ti17  1  0.37993600  0.62760800  0.86500500  1
  Ti  Ti18  1  0.37239200  0.36500500  0.12006400  1
  Ti  Ti19  1  0.36500500  0.12006400  0.37239200  1
  Co  Co20  1  0.75248600  0.75248600  0.75248600  1
  Co  Co21  1  0.74751400  0.24751400  0.25248600  1
  Co  Co22  1  0.25248600  0.74751400  0.24751400  1
  Co  Co23  1  0.24751400  0.25248600  0.74751400  1
  O  O24  1  0.62797700  0.88957700  0.60752600  1
  O  O25  1  0.63926800  0.86073200  0.13926800  1
  O  O26  1  0.64389000  0.35875100  0.62323600  1
  O  O27  1  0.61042300  0.39247400  0.12797700  1
  O  O28  1  0.60752600  0.62797700  0.88957700  1
  O  O29  1  0.62323600  0.64389000  0.35875100  1
  O  O30  1  0.64124900  0.12323600  0.85611000  1
  O  O31  1  0.61189300  0.11189300  0.38810700  1
  O  O32  1  0.88957700  0.60752600  0.62797700  1
  O  O33  1  0.85611000  0.64124900  0.12323600  1
  O  O34  1  0.88810700  0.88810700  0.88810700  1
  O  O35  1  0.85875100  0.87676400  0.35611000  1
  O  O36  1  0.86073200  0.13926800  0.63926800  1
  O  O37  1  0.87202300  0.11042300  0.10752600  1
  O  O38  1  0.87676400  0.35611000  0.85875100  1
  O  O39  1  0.89247400  0.37202300  0.38957700  1
  O  O40  1  0.13926800  0.63926800  0.86073200  1
  O  O41  1  0.12323600  0.85611000  0.64124900  1
  O  O42  1  0.10752600  0.87202300  0.11042300  1
  O  O43  1  0.11042300  0.10752600  0.87202300  1
  O  O44  1  0.11189300  0.38810700  0.61189300  1
  O  O45  1  0.14124900  0.37676400  0.14389000  1
  O  O46  1  0.12797700  0.61042300  0.39247400  1
  O  O47  1  0.14389000  0.14124900  0.37676400  1
  O  O48  1  0.35875100  0.62323600  0.64389000  1
  O  O49  1  0.38810700  0.61189300  0.11189300  1
  O  O50  1  0.35611000  0.85875100  0.87676400  1
  O  O51  1  0.39247400  0.12797700  0.61042300  1
  O  O52  1  0.37676400  0.14389000  0.14124900  1
  O  O53  1  0.37202300  0.38957700  0.89247400  1
  O  O54  1  0.38957700  0.89247400  0.37202300  1
  O  O55  1  0.36073200  0.36073200  0.36073200  1
