# generated using pymatgen
data_Tb2SbO2
_symmetry_space_group_name_H-M   'P 1'
_cell_length_a   7.24300705
_cell_length_b   7.24300705
_cell_length_c   7.24300705
_cell_angle_alpha   148.95327869
_cell_angle_beta   148.95327869
_cell_angle_gamma   44.48008208
_symmetry_Int_Tables_number   1
_chemical_formula_structural   Tb2SbO2
_chemical_formula_sum   'Tb2 Sb1 O2'
_cell_volume   100.76661068
_cell_formula_units_Z   1
loop_
 _symmetry_equiv_pos_site_id
 _symmetry_equiv_pos_as_xyz
  1  'x, y, z'
loop_
 _atom_site_type_symbol
 _atom_site_label
 _atom_site_symmetry_multiplicity
 _atom_site_fract_x
 _atom_site_fract_y
 _atom_site_fract_z
 _atom_site_occupancy
  Tb  Tb0  1  0.33443900  0.33443900  0.00000000  1
  Tb  Tb1  1  0.66556100  0.66556100  0.00000000  1
  Sb  Sb2  1  0.00000000  0.00000000  0.00000000  1
  O  O3  1  0.75000000  0.25000000  0.50000000  1
  O  O4  1  0.25000000  0.75000000  0.50000000  1
