# generated using pymatgen
data_NbTlO3
_symmetry_space_group_name_H-M   'P 1'
_cell_length_a   7.65395400
_cell_length_b   7.65826859
_cell_length_c   13.25764756
_cell_angle_alpha   73.29988259
_cell_angle_beta   73.25802679
_cell_angle_gamma   60.03606364
_symmetry_Int_Tables_number   1
_chemical_formula_structural   NbTlO3
_chemical_formula_sum   'Nb8 Tl8 O24'
_cell_volume   634.98835929
_cell_formula_units_Z   8
loop_
 _symmetry_equiv_pos_site_id
 _symmetry_equiv_pos_as_xyz
  1  'x, y, z'
loop_
 _atom_site_type_symbol
 _atom_site_label
 _atom_site_symmetry_multiplicity
 _atom_site_fract_x
 _atom_site_fract_y
 _atom_site_fract_z
 _atom_site_occupancy
  Nb  Nb0  1  0.00254600  0.50462900  0.99754000  1
  Nb  Nb1  1  0.00483800  0.99936300  0.00290700  1
  Nb  Nb2  1  0.50540500  0.49639900  0.99901100  1
  Nb  Nb3  1  0.24873400  0.75962000  0.74981800  1
  Nb  Nb4  1  0.50174300  0.00299700  0.49695100  1
  Nb  Nb5  1  0.49918100  0.50055700  0.50309300  1
  Nb  Nb6  1  0.00059400  0.99908300  0.49937400  1
  Nb  Nb7  1  0.74788200  0.25698600  0.24947200  1
  Tl  Tl8  1  0.72419000  0.23213100  0.75628000  1
  Tl  Tl9  1  0.72988200  0.77498400  0.75809400  1
  Tl  Tl10  1  0.21215200  0.27349700  0.74451800  1
  Tl  Tl11  1  0.98566800  0.49979800  0.51908000  1
  Tl  Tl12  1  0.23382900  0.28046000  0.25516100  1
  Tl  Tl13  1  0.77698700  0.73575900  0.25517100  1
  Tl  Tl14  1  0.49796600  0.99590400  0.01566300  1
  Tl  Tl15  1  0.26406900  0.77018200  0.24894600  1
  O  O16  1  0.71524700  0.22236100  0.97055000  1
  O  O17  1  0.09437900  0.59464000  0.84419200  1
  O  O18  1  0.03792700  0.90553900  0.65457400  1
  O  O19  1  0.09127800  0.22048000  0.96691900  1
  O  O20  1  0.40513400  0.53381600  0.65524000  1
  O  O21  1  0.71708500  0.59284700  0.97187300  1
  O  O22  1  0.21817800  0.71595700  0.46986600  1
  O  O23  1  0.46866500  0.59756800  0.84386300  1
  O  O24  1  0.09027100  0.96714600  0.84418400  1
  O  O25  1  0.77925900  0.90735900  0.53235800  1
  O  O26  1  0.41275200  0.27834100  0.52780500  1
  O  O27  1  0.40281400  0.90877200  0.65610000  1
  O  O28  1  0.59464200  0.09094500  0.34328100  1
  O  O29  1  0.59253200  0.71773200  0.46982400  1
  O  O30  1  0.90394300  0.03382800  0.15455800  1
  O  O31  1  0.53170700  0.40959000  0.15629600  1
  O  O32  1  0.21994200  0.08834300  0.47029800  1
  O  O33  1  0.77910000  0.27756700  0.53271700  1
  O  O34  1  0.27762100  0.41292000  0.03141800  1
  O  O35  1  0.96659300  0.09349600  0.34520200  1
  O  O36  1  0.59856600  0.46317200  0.34506800  1
  O  O37  1  0.90639600  0.78150900  0.02953900  1
  O  O38  1  0.90661400  0.40111100  0.15413700  1
  O  O39  1  0.27642800  0.78321400  0.02940700  1
