# generated using pymatgen
data_CrP6(WO8)3
_symmetry_space_group_name_H-M   'P 1'
_cell_length_a   8.90255418
_cell_length_b   8.90255418
_cell_length_c   8.90255369
_cell_angle_alpha   58.91162971
_cell_angle_beta   58.91162971
_cell_angle_gamma   58.91163342
_symmetry_Int_Tables_number   1
_chemical_formula_structural   CrP6(WO8)3
_chemical_formula_sum   'Cr1 P6 W3 O24'
_cell_volume   486.52503124
_cell_formula_units_Z   1
loop_
 _symmetry_equiv_pos_site_id
 _symmetry_equiv_pos_as_xyz
  1  'x, y, z'
loop_
 _atom_site_type_symbol
 _atom_site_label
 _atom_site_symmetry_multiplicity
 _atom_site_fract_x
 _atom_site_fract_y
 _atom_site_fract_z
 _atom_site_occupancy
  Cr  Cr0  1  0.14272700  0.14272700  0.14272700  1
  P  P1  1  0.53050300  0.96577400  0.24899900  1
  P  P2  1  0.24899900  0.53050300  0.96577400  1
  P  P3  1  0.96577400  0.24899900  0.53050300  1
  P  P4  1  0.03708200  0.75671400  0.45755400  1
  P  P5  1  0.75671400  0.45755400  0.03708200  1
  P  P6  1  0.45755400  0.03708200  0.75671400  1
  W  W7  1  0.85769100  0.85769100  0.85769100  1
  W  W8  1  0.64283900  0.64283900  0.64283900  1
  W  W9  1  0.35810900  0.35810900  0.35810900  1
  O  O10  1  0.49483400  0.86817500  0.71635100  1
  O  O11  1  0.86817500  0.71635100  0.49483400  1
  O  O12  1  0.71335400  0.93776900  0.07974200  1
  O  O13  1  0.71635100  0.49483400  0.86817500  1
  O  O14  1  0.56580000  0.78764700  0.41951900  1
  O  O15  1  0.36438100  0.98992900  0.22405800  1
  O  O16  1  0.07974200  0.71335400  0.93776900  1
  O  O17  1  0.41951900  0.56580000  0.78764700  1
  O  O18  1  0.78764700  0.41951900  0.56580000  1
  O  O19  1  0.00808100  0.77886700  0.63420200  1
  O  O20  1  0.05914000  0.92260700  0.28465300  1
  O  O21  1  0.77886700  0.63420200  0.00808100  1
  O  O22  1  0.22405800  0.36438100  0.98992900  1
  O  O23  1  0.93776900  0.07974200  0.71335400  1
  O  O24  1  0.98992900  0.22405800  0.36438100  1
  O  O25  1  0.21166900  0.57845600  0.43988100  1
  O  O26  1  0.57845600  0.43988100  0.21166900  1
  O  O27  1  0.92260700  0.28465300  0.05914000  1
  O  O28  1  0.63420200  0.00808100  0.77886700  1
  O  O29  1  0.43988100  0.21166900  0.57845600  1
  O  O30  1  0.27983300  0.50945100  0.13360600  1
  O  O31  1  0.28465300  0.05914000  0.92260700  1
  O  O32  1  0.13360600  0.27983300  0.50945100  1
  O  O33  1  0.50945100  0.13360600  0.27983300  1
