# generated using pymatgen
data_BaNb2Fe2(PO4)6
_symmetry_space_group_name_H-M   'P 1'
_cell_length_a   8.64747200
_cell_length_b   9.28317500
_cell_length_c   12.68978447
_cell_angle_alpha   84.82044656
_cell_angle_beta   90.00000000
_cell_angle_gamma   90.00000000
_symmetry_Int_Tables_number   1
_chemical_formula_structural   BaNb2Fe2(PO4)6
_chemical_formula_sum   'Ba2 Nb4 Fe4 P12 O48'
_cell_volume   1014.52546715
_cell_formula_units_Z   2
loop_
 _symmetry_equiv_pos_site_id
 _symmetry_equiv_pos_as_xyz
  1  'x, y, z'
loop_
 _atom_site_type_symbol
 _atom_site_label
 _atom_site_symmetry_multiplicity
 _atom_site_fract_x
 _atom_site_fract_y
 _atom_site_fract_z
 _atom_site_occupancy
  Ba  Ba0  1  0.00000000  0.00000000  0.50000000  1
  Ba  Ba1  1  0.50000000  0.50000000  0.50000000  1
  Nb  Nb2  1  0.49901700  0.21045800  0.85291600  1
  Nb  Nb3  1  0.99901700  0.28954200  0.14708400  1
  Nb  Nb4  1  0.50098300  0.78954200  0.14708400  1
  Nb  Nb5  1  0.00098300  0.71045800  0.85291600  1
  Fe  Fe6  1  0.50189900  0.80527500  0.65021000  1
  Fe  Fe7  1  0.00189900  0.69472500  0.34979000  1
  Fe  Fe8  1  0.49810100  0.19472500  0.34979000  1
  Fe  Fe9  1  0.99810100  0.30527500  0.65021000  1
  P  P10  1  0.35542900  0.85829900  0.39367300  1
  P  P11  1  0.28282100  0.50269900  0.74668000  1
  P  P12  1  0.14457100  0.35829900  0.39367300  1
  P  P13  1  0.86135800  0.35944300  0.88947700  1
  P  P14  1  0.36135800  0.14055700  0.11052300  1
  P  P15  1  0.78282100  0.99730100  0.25332000  1
  P  P16  1  0.21717900  0.00269900  0.74668000  1
  P  P17  1  0.63864200  0.85944300  0.88947700  1
  P  P18  1  0.13864200  0.64055700  0.11052300  1
  P  P19  1  0.85542900  0.64170100  0.60632700  1
  P  P20  1  0.71717900  0.49730100  0.25332000  1
  P  P21  1  0.64457100  0.14170100  0.60632700  1
  O  O22  1  0.31224000  0.91855100  0.67103100  1
  O  O23  1  0.18218600  0.82161400  0.38977500  1
  O  O24  1  0.43243500  0.78689400  0.49453900  1
  O  O25  1  0.43972100  0.79153700  0.29875900  1
  O  O26  1  0.39074600  0.60614300  0.68192400  1
  O  O27  1  0.13172900  0.52371700  0.38444500  1
  O  O28  1  0.18776000  0.41855100  0.67103100  1
  O  O29  1  0.38192100  0.38941000  0.81779600  1
  O  O30  1  0.12493100  0.47388300  0.11764300  1
  O  O31  1  0.81799400  0.41734400  0.17597800  1
  O  O32  1  0.31781400  0.32161400  0.38977500  1
  O  O33  1  0.06756500  0.28689400  0.49453900  1
  O  O34  1  0.06027900  0.29153700  0.29875900  1
  O  O35  1  0.68640900  0.32025500  0.88801200  1
  O  O36  1  0.92690800  0.29963400  0.99885000  1
  O  O37  1  0.94684100  0.29040500  0.80296100  1
  O  O38  1  0.44684100  0.20959500  0.19703900  1
  O  O39  1  0.42690800  0.20036600  0.00115000  1
  O  O40  1  0.18640900  0.17974500  0.11198800  1
  O  O41  1  0.88192100  0.11059000  0.18220400  1
  O  O42  1  0.36827100  0.02371700  0.38444500  1
  O  O43  1  0.10925400  0.10614300  0.68192400  1
  O  O44  1  0.31799400  0.08265600  0.82402200  1
  O  O45  1  0.62493100  0.02611700  0.88235700  1
  O  O46  1  0.37506900  0.97388300  0.11764300  1
  O  O47  1  0.68200600  0.91734400  0.17597800  1
  O  O48  1  0.89074600  0.89385700  0.31807600  1
  O  O49  1  0.63172900  0.97628300  0.61555500  1
  O  O50  1  0.11807900  0.88941000  0.81779600  1
  O  O51  1  0.81359100  0.82025500  0.88801200  1
  O  O52  1  0.57309200  0.79963400  0.99885000  1
  O  O53  1  0.55315900  0.79040500  0.80296100  1
  O  O54  1  0.05315900  0.70959500  0.19703900  1
  O  O55  1  0.07309200  0.70036600  0.00115000  1
  O  O56  1  0.31359100  0.67974500  0.11198800  1
  O  O57  1  0.93972100  0.70846300  0.70124100  1
  O  O58  1  0.93243500  0.71310600  0.50546100  1
  O  O59  1  0.68218600  0.67838600  0.61022500  1
  O  O60  1  0.18200600  0.58265600  0.82402200  1
  O  O61  1  0.87506900  0.52611700  0.88235700  1
  O  O62  1  0.61807900  0.61059000  0.18220400  1
  O  O63  1  0.81224000  0.58144900  0.32896900  1
  O  O64  1  0.86827100  0.47628300  0.61555500  1
  O  O65  1  0.60925400  0.39385700  0.31807600  1
  O  O66  1  0.56027900  0.20846300  0.70124100  1
  O  O67  1  0.56756500  0.21310600  0.50546100  1
  O  O68  1  0.81781400  0.17838600  0.61022500  1
  O  O69  1  0.68776000  0.08144900  0.32896900  1
