# generated using pymatgen
data_KCuO
_symmetry_space_group_name_H-M   'P 1'
_cell_length_a   7.18001881
_cell_length_b   7.18001881
_cell_length_c   7.18001881
_cell_angle_alpha   98.59896441
_cell_angle_beta   98.59896441
_cell_angle_gamma   134.50448191
_symmetry_Int_Tables_number   1
_chemical_formula_structural   KCuO
_chemical_formula_sum   'K4 Cu4 O4'
_cell_volume   243.45467078
_cell_formula_units_Z   4
loop_
 _symmetry_equiv_pos_site_id
 _symmetry_equiv_pos_as_xyz
  1  'x, y, z'
loop_
 _atom_site_type_symbol
 _atom_site_label
 _atom_site_symmetry_multiplicity
 _atom_site_fract_x
 _atom_site_fract_y
 _atom_site_fract_z
 _atom_site_occupancy
  K  K0  1  0.50000000  0.19028100  0.69028100  1
  K  K1  1  0.50000000  0.80971900  0.30971900  1
  K  K2  1  0.19028100  0.50000000  0.69028100  1
  K  K3  1  0.80971900  0.50000000  0.30971900  1
  Cu  Cu4  1  0.13904600  0.13904600  0.27809200  1
  Cu  Cu5  1  0.86095400  0.13904600  0.00000000  1
  Cu  Cu6  1  0.86095400  0.86095400  0.72190800  1
  Cu  Cu7  1  0.13904600  0.86095400  0.00000000  1
  O  O8  1  0.72163600  0.00000000  0.72163600  1
  O  O9  1  0.00000000  0.72163600  0.72163600  1
  O  O10  1  0.00000000  0.27836400  0.27836400  1
  O  O11  1  0.27836400  0.00000000  0.27836400  1
