# generated using pymatgen
data_Fe2P4Pb3O16
_symmetry_space_group_name_H-M   'P 1'
_cell_length_a   9.19385200
_cell_length_b   9.13491000
_cell_length_c   9.46796011
_cell_angle_alpha   63.02899008
_cell_angle_beta   90.00000000
_cell_angle_gamma   90.00000000
_symmetry_Int_Tables_number   1
_chemical_formula_structural   Fe2P4Pb3O16
_chemical_formula_sum   'Fe4 P8 Pb6 O32'
_cell_volume   708.68130840
_cell_formula_units_Z   2
loop_
 _symmetry_equiv_pos_site_id
 _symmetry_equiv_pos_as_xyz
  1  'x, y, z'
loop_
 _atom_site_type_symbol
 _atom_site_label
 _atom_site_symmetry_multiplicity
 _atom_site_fract_x
 _atom_site_fract_y
 _atom_site_fract_z
 _atom_site_occupancy
  Fe  Fe0  1  0.36652900  0.75404700  0.24216800  1
  Fe  Fe1  1  0.86652900  0.24595300  0.25783200  1
  Fe  Fe2  1  0.63347100  0.24595300  0.75783200  1
  Fe  Fe3  1  0.13347100  0.75404700  0.74216800  1
  P  P4  1  0.08887100  0.57408300  0.13918700  1
  P  P5  1  0.63861600  0.02034300  0.15559600  1
  P  P6  1  0.36138400  0.97965700  0.84440400  1
  P  P7  1  0.41112900  0.57408300  0.63918700  1
  P  P8  1  0.91112900  0.42591700  0.86081300  1
  P  P9  1  0.58887100  0.42591700  0.36081300  1
  P  P10  1  0.86138400  0.02034300  0.65559600  1
  P  P11  1  0.13861600  0.97965700  0.34440400  1
  Pb  Pb12  1  0.20661800  0.30218900  0.46776800  1
  Pb  Pb13  1  0.70661800  0.69781100  0.03223200  1
  Pb  Pb14  1  0.79338200  0.69781100  0.53223200  1
  Pb  Pb15  1  0.00000000  0.00000000  0.00000000  1
  Pb  Pb16  1  0.29338200  0.30218900  0.96776800  1
  Pb  Pb17  1  0.50000000  0.00000000  0.50000000  1
  O  O18  1  0.90819300  0.16150600  0.49396500  1
  O  O19  1  0.79415000  0.08922500  0.76543900  1
  O  O20  1  0.95189600  0.61152900  0.76002600  1
  O  O21  1  0.70585000  0.08922500  0.26543900  1
  O  O22  1  0.49595100  0.07842500  0.74766000  1
  O  O23  1  0.54810400  0.61152900  0.26002600  1
  O  O24  1  0.59180700  0.16150600  0.99396500  1
  O  O25  1  0.00404900  0.07842500  0.24766000  1
  O  O26  1  0.71363200  0.40552300  0.25926400  1
  O  O27  1  0.45189600  0.38847100  0.73997400  1
  O  O28  1  0.24832800  0.09543400  0.36946800  1
  O  O29  1  0.40819300  0.83849400  0.00603500  1
  O  O30  1  0.84997000  0.39297400  0.02359800  1
  O  O31  1  0.09180700  0.83849400  0.50603500  1
  O  O32  1  0.50404900  0.92157500  0.25234000  1
  O  O33  1  0.34997000  0.60702600  0.47640200  1
  O  O34  1  0.65003000  0.39297400  0.52359800  1
  O  O35  1  0.75167200  0.90456600  0.63053200  1
  O  O36  1  0.95708100  0.68497100  0.12608100  1
  O  O37  1  0.28636800  0.59447700  0.74073600  1
  O  O38  1  0.25167200  0.09543400  0.86946800  1
  O  O39  1  0.78636800  0.40552300  0.75926400  1
  O  O40  1  0.29415000  0.91077500  0.73456100  1
  O  O41  1  0.74832800  0.90456600  0.13053200  1
  O  O42  1  0.21363200  0.59447700  0.24073600  1
  O  O43  1  0.15003000  0.60702600  0.97640200  1
  O  O44  1  0.45708100  0.31502900  0.37391900  1
  O  O45  1  0.04291900  0.31502900  0.87391900  1
  O  O46  1  0.04810400  0.38847100  0.23997400  1
  O  O47  1  0.20585000  0.91077500  0.23456100  1
  O  O48  1  0.54291900  0.68497100  0.62608100  1
  O  O49  1  0.99595100  0.92157500  0.75234000  1
