# generated using pymatgen
data_K4Na2H18Pd(IO10)2
_symmetry_space_group_name_H-M   'P 1'
_cell_length_a   6.84111800
_cell_length_b   7.31155503
_cell_length_c   10.97592638
_cell_angle_alpha   93.86337747
_cell_angle_beta   104.54878302
_cell_angle_gamma   94.27610213
_symmetry_Int_Tables_number   1
_chemical_formula_structural   K4Na2H18Pd(IO10)2
_chemical_formula_sum   'K4 Na2 H18 Pd1 I2 O20'
_cell_volume   527.81067308
_cell_formula_units_Z   1
loop_
 _symmetry_equiv_pos_site_id
 _symmetry_equiv_pos_as_xyz
  1  'x, y, z'
loop_
 _atom_site_type_symbol
 _atom_site_label
 _atom_site_symmetry_multiplicity
 _atom_site_fract_x
 _atom_site_fract_y
 _atom_site_fract_z
 _atom_site_occupancy
  K  K0  1  0.09957700  0.33113800  0.61597800  1
  K  K1  1  0.08541800  0.31835700  0.13919900  1
  K  K2  1  0.91458200  0.68164300  0.86080100  1
  K  K3  1  0.90042300  0.66886200  0.38402200  1
  Na  Na4  1  0.29367200  0.83141200  0.23283600  1
  Na  Na5  1  0.70632800  0.16858800  0.76716400  1
  H  H6  1  0.14480800  0.13909500  0.86315700  1
  H  H7  1  0.17691700  0.35722200  0.87903200  1
  H  H8  1  0.09179500  0.11142400  0.37960200  1
  H  H9  1  0.30740400  0.01224500  0.56784100  1
  H  H10  1  0.36132600  0.64586800  0.46473300  1
  H  H11  1  0.32940500  0.13031900  0.39107600  1
  H  H12  1  0.54615700  0.46587400  0.87673800  1
  H  H13  1  0.38856500  0.49059100  0.36651500  1
  H  H14  1  0.65166600  0.38457600  0.00403900  1
  H  H15  1  0.34833400  0.61542400  0.99596100  1
  H  H16  1  0.61143500  0.50940900  0.63348500  1
  H  H17  1  0.45384300  0.53412600  0.12326200  1
  H  H18  1  0.67059500  0.86968100  0.60892400  1
  H  H19  1  0.63867400  0.35413200  0.53526700  1
  H  H20  1  0.69259600  0.98775500  0.43215900  1
  H  H21  1  0.90820500  0.88857600  0.62039800  1
  H  H22  1  0.82308300  0.64277800  0.12096800  1
  H  H23  1  0.85519200  0.86090500  0.13684300  1
  Pd  Pd24  1  0.50000000  0.00000000  0.00000000  1
  I  I25  1  0.34366800  0.79403600  0.74054400  1
  I  I26  1  0.65633200  0.20596400  0.25945600  1
  O  O27  1  0.07209000  0.25291500  0.86591400  1
  O  O28  1  0.08351100  0.73209900  0.63757900  1
  O  O29  1  0.23601900  0.92802700  0.86765800  1
  O  O30  1  0.33753400  0.57572400  0.82269000  1
  O  O31  1  0.21529900  0.04131400  0.39915700  1
  O  O32  1  0.35519300  0.03815500  0.66183000  1
  O  O33  1  0.31008600  0.59888300  0.37361200  1
  O  O34  1  0.48189700  0.70028000  0.62579100  1
  O  O35  1  0.60270100  0.89443700  0.85532200  1
  O  O36  1  0.33211000  0.59762700  0.08196200  1
  O  O37  1  0.66789000  0.40237300  0.91803800  1
  O  O38  1  0.39729900  0.10556300  0.14467800  1
  O  O39  1  0.51810300  0.29972000  0.37420900  1
  O  O40  1  0.68991400  0.40111700  0.62638800  1
  O  O41  1  0.64480700  0.96184500  0.33817000  1
  O  O42  1  0.78470100  0.95868600  0.60084300  1
  O  O43  1  0.66246600  0.42427600  0.17731000  1
  O  O44  1  0.76398100  0.07197300  0.13234200  1
  O  O45  1  0.91648900  0.26790100  0.36242100  1
  O  O46  1  0.92791000  0.74708500  0.13408600  1
