# generated using pymatgen
data_Mn7P6(HO6)4
_symmetry_space_group_name_H-M   'P 1'
_cell_length_a   6.64333600
_cell_length_b   8.14696536
_cell_length_c   9.96718895
_cell_angle_alpha   104.44937178
_cell_angle_beta   108.97092159
_cell_angle_gamma   101.33285270
_symmetry_Int_Tables_number   1
_chemical_formula_structural   Mn7P6(HO6)4
_chemical_formula_sum   'Mn7 P6 H4 O24'
_cell_volume   470.76762968
_cell_formula_units_Z   1
loop_
 _symmetry_equiv_pos_site_id
 _symmetry_equiv_pos_as_xyz
  1  'x, y, z'
loop_
 _atom_site_type_symbol
 _atom_site_label
 _atom_site_symmetry_multiplicity
 _atom_site_fract_x
 _atom_site_fract_y
 _atom_site_fract_z
 _atom_site_occupancy
  Mn  Mn0  1  0.00000000  0.00000000  0.00000000  1
  Mn  Mn1  1  0.03977700  0.71778500  0.51176700  1
  Mn  Mn2  1  0.96022300  0.28221500  0.48823300  1
  Mn  Mn3  1  0.28728800  0.81477100  0.28518500  1
  Mn  Mn4  1  0.71271200  0.18522900  0.71481500  1
  Mn  Mn5  1  0.38060100  0.45495800  0.10548000  1
  Mn  Mn6  1  0.61939900  0.54504200  0.89452000  1
  P  P7  1  0.22727100  0.14454100  0.78192500  1
  P  P8  1  0.77272900  0.85545900  0.21807500  1
  P  P9  1  0.59165300  0.77118700  0.61468200  1
  P  P10  1  0.40834700  0.22881300  0.38531800  1
  P  P11  1  0.08317500  0.58251500  0.82182400  1
  P  P12  1  0.91682500  0.41748500  0.17817600  1
  H  H13  1  0.58237900  0.50335900  0.40226900  1
  H  H14  1  0.41762100  0.49664100  0.59773100  1
  H  H15  1  0.17995900  0.87602400  0.80765800  1
  H  H16  1  0.82004100  0.12397600  0.19234200  1
  O  O17  1  0.29805600  0.54310700  0.90885700  1
  O  O18  1  0.70194400  0.45689300  0.09114300  1
  O  O19  1  0.12383300  0.53569800  0.16828600  1
  O  O20  1  0.87616700  0.46430200  0.83171400  1
  O  O21  1  0.02103700  0.16964800  0.67057300  1
  O  O22  1  0.97896300  0.83035200  0.32942700  1
  O  O23  1  0.55382300  0.75424900  0.22156200  1
  O  O24  1  0.44617700  0.24575100  0.77843800  1
  O  O25  1  0.10248600  0.78208300  0.89257000  1
  O  O26  1  0.89751400  0.21791700  0.10743000  1
  O  O27  1  0.48774100  0.38258800  0.32134800  1
  O  O28  1  0.51225900  0.61741200  0.67865200  1
  O  O29  1  0.71963500  0.70351500  0.52124900  1
  O  O30  1  0.28036500  0.29648500  0.47875100  1
  O  O31  1  0.27454200  0.06172800  0.24373500  1
  O  O32  1  0.72545800  0.93827200  0.75626500  1
  O  O33  1  0.61866500  0.19977400  0.48962300  1
  O  O34  1  0.38133500  0.80022600  0.51037700  1
  O  O35  1  0.05256200  0.54417200  0.65462800  1
  O  O36  1  0.94743800  0.45582800  0.34537200  1
  O  O37  1  0.22123200  0.18663700  0.94170000  1
  O  O38  1  0.77876800  0.81336300  0.05830000  1
  O  O39  1  0.78836100  0.06110200  0.26837300  1
  O  O40  1  0.21163900  0.93889800  0.73162700  1
