# generated using pymatgen
data_Hf5Ge4
_symmetry_space_group_name_H-M   'P 1'
_cell_length_a   7.06518800
_cell_length_b   7.14488500
_cell_length_c   13.47967100
_cell_angle_alpha   90.00000000
_cell_angle_beta   90.00000000
_cell_angle_gamma   90.00000000
_symmetry_Int_Tables_number   1
_chemical_formula_structural   Hf5Ge4
_chemical_formula_sum   'Hf20 Ge16'
_cell_volume   680.45319578
_cell_formula_units_Z   4
loop_
 _symmetry_equiv_pos_site_id
 _symmetry_equiv_pos_as_xyz
  1  'x, y, z'
loop_
 _atom_site_type_symbol
 _atom_site_label
 _atom_site_symmetry_multiplicity
 _atom_site_fract_x
 _atom_site_fract_y
 _atom_site_fract_z
 _atom_site_occupancy
  Hf  Hf0  1  0.01602800  0.32383000  0.90514500  1
  Hf  Hf1  1  0.51602800  0.17617000  0.59485500  1
  Hf  Hf2  1  0.48397200  0.82383000  0.09485500  1
  Hf  Hf3  1  0.98397200  0.67617000  0.40514500  1
  Hf  Hf4  1  0.01602800  0.32383000  0.59485500  1
  Hf  Hf5  1  0.51602800  0.17617000  0.90514500  1
  Hf  Hf6  1  0.48397200  0.82383000  0.40514500  1
  Hf  Hf7  1  0.98397200  0.67617000  0.09485500  1
  Hf  Hf8  1  0.85718100  0.83436100  0.87625300  1
  Hf  Hf9  1  0.35718100  0.66563900  0.62374700  1
  Hf  Hf10  1  0.64281900  0.33436100  0.12374700  1
  Hf  Hf11  1  0.14281900  0.16563900  0.37625300  1
  Hf  Hf12  1  0.14281900  0.16563900  0.12374700  1
  Hf  Hf13  1  0.64281900  0.33436100  0.37625300  1
  Hf  Hf14  1  0.35718100  0.66563900  0.87625300  1
  Hf  Hf15  1  0.85718100  0.83436100  0.62374700  1
  Hf  Hf16  1  0.18325800  0.00233400  0.75000000  1
  Hf  Hf17  1  0.68325800  0.49766600  0.75000000  1
  Hf  Hf18  1  0.31674200  0.50233400  0.25000000  1
  Hf  Hf19  1  0.81674200  0.99766600  0.25000000  1
  Ge  Ge20  1  0.69936100  0.53509000  0.95903900  1
  Ge  Ge21  1  0.19936100  0.96491000  0.54096100  1
  Ge  Ge22  1  0.80063900  0.03509000  0.04096100  1
  Ge  Ge23  1  0.30063900  0.46491000  0.45903900  1
  Ge  Ge24  1  0.30063900  0.46491000  0.04096100  1
  Ge  Ge25  1  0.80063900  0.03509000  0.45903900  1
  Ge  Ge26  1  0.19936100  0.96491000  0.95903900  1
  Ge  Ge27  1  0.69936100  0.53509000  0.54096100  1
  Ge  Ge28  1  0.32340200  0.35294400  0.75000000  1
  Ge  Ge29  1  0.82340200  0.14705600  0.75000000  1
  Ge  Ge30  1  0.17659800  0.85294400  0.25000000  1
  Ge  Ge31  1  0.67659800  0.64705600  0.25000000  1
  Ge  Ge32  1  0.05508300  0.61182500  0.75000000  1
  Ge  Ge33  1  0.55508300  0.88817500  0.75000000  1
  Ge  Ge34  1  0.44491700  0.11182500  0.25000000  1
  Ge  Ge35  1  0.94491700  0.38817500  0.25000000  1
