# generated using pymatgen
data_NaCa2V3Zn2O12
_symmetry_space_group_name_H-M   'P 1'
_cell_length_a   10.90971185
_cell_length_b   10.90971185
_cell_length_c   10.90971185
_cell_angle_alpha   109.47980178
_cell_angle_beta   109.47980178
_cell_angle_gamma   109.45405970
_symmetry_Int_Tables_number   1
_chemical_formula_structural   NaCa2V3Zn2O12
_chemical_formula_sum   'Na4 Ca8 V12 Zn8 O48'
_cell_volume   999.58083226
_cell_formula_units_Z   4
loop_
 _symmetry_equiv_pos_site_id
 _symmetry_equiv_pos_as_xyz
  1  'x, y, z'
loop_
 _atom_site_type_symbol
 _atom_site_label
 _atom_site_symmetry_multiplicity
 _atom_site_fract_x
 _atom_site_fract_y
 _atom_site_fract_z
 _atom_site_occupancy
  Na  Na0  1  0.00000000  0.50000000  0.50000000  1
  Na  Na1  1  0.25000000  0.25000000  0.00000000  1
  Na  Na2  1  0.50000000  0.00000000  0.50000000  1
  Na  Na3  1  0.75000000  0.75000000  0.00000000  1
  Ca  Ca4  1  0.00176700  0.37500000  0.12676700  1
  Ca  Ca5  1  0.12500000  0.99823300  0.37323300  1
  Ca  Ca6  1  0.50176700  0.37500000  0.62676700  1
  Ca  Ca7  1  0.12500000  0.49823300  0.87323300  1
  Ca  Ca8  1  0.24823300  0.87500000  0.87323300  1
  Ca  Ca9  1  0.62500000  0.75176700  0.62676700  1
  Ca  Ca10  1  0.74823300  0.87500000  0.37323300  1
  Ca  Ca11  1  0.62500000  0.25176700  0.12676700  1
  V  V12  1  0.00000000  0.00000000  0.00000000  1
  V  V13  1  0.99955300  0.87500000  0.62455300  1
  V  V14  1  0.12500000  0.24955300  0.62455300  1
  V  V15  1  0.25044700  0.37500000  0.37544700  1
  V  V16  1  0.12500000  0.74955300  0.12455300  1
  V  V17  1  0.25000000  0.75000000  0.50000000  1
  V  V18  1  0.50000000  0.50000000  0.00000000  1
  V  V19  1  0.49955300  0.87500000  0.12455300  1
  V  V20  1  0.62500000  0.00044700  0.87544700  1
  V  V21  1  0.62500000  0.50044700  0.37544700  1
  V  V22  1  0.75044700  0.37500000  0.87544700  1
  V  V23  1  0.75000000  0.25000000  0.50000000  1
  Zn  Zn24  1  0.87500000  0.12500000  0.25000000  1
  Zn  Zn25  1  0.87500000  0.62500000  0.25000000  1
  Zn  Zn26  1  0.87500000  0.12500000  0.75000000  1
  Zn  Zn27  1  0.87500000  0.62500000  0.75000000  1
  Zn  Zn28  1  0.37500000  0.62500000  0.75000000  1
  Zn  Zn29  1  0.37500000  0.12500000  0.75000000  1
  Zn  Zn30  1  0.37500000  0.62500000  0.25000000  1
  Zn  Zn31  1  0.37500000  0.12500000  0.25000000  1
  O  O32  1  0.98092700  0.74295200  0.16201400  1
  O  O33  1  0.89272000  0.33412700  0.87081000  1
  O  O34  1  0.98867800  0.13943500  0.95890200  1
  O  O35  1  0.97022500  0.01132200  0.15075700  1
  O  O36  1  0.96331700  0.83412700  0.44140700  1
  O  O37  1  0.97809000  0.10728000  0.44140700  1
  O  O38  1  0.06891300  0.33093800  0.33798600  1
  O  O39  1  0.28668300  0.22809000  0.37081000  1
  O  O40  1  0.25704800  0.41906200  0.23797500  1
  O  O41  1  0.16587300  0.60728000  0.12919000  1
  O  O42  1  0.18108700  0.01907300  0.76202500  1
  O  O43  1  0.88943500  0.43053300  0.65075700  1
  O  O44  1  0.06946700  0.61056500  0.34924300  1
  O  O45  1  0.08093800  0.24295200  0.76202500  1
  O  O46  1  0.27191000  0.21331700  0.62919000  1
  O  O47  1  0.16906200  0.43108700  0.66201400  1
  O  O48  1  0.18053300  0.02977500  0.04109800  1
  O  O49  1  0.99295200  0.73092700  0.66201400  1
  O  O50  1  0.26907300  0.93108700  0.26202500  1
  O  O51  1  0.39272000  0.52191000  0.55859300  1
  O  O52  1  0.38943500  0.73867800  0.45890200  1
  O  O53  1  0.26132200  0.72022500  0.65075700  1
  O  O54  1  0.47022500  0.31946700  0.95890200  1
  O  O55  1  0.08412700  0.71331700  0.94140700  1
  O  O56  1  0.66587300  0.53668300  0.55859300  1
  O  O57  1  0.27977500  0.93053300  0.54109800  1
  O  O58  1  0.48867800  0.52977500  0.84924300  1
  O  O59  1  0.36056500  0.51132200  0.04109800  1
  O  O60  1  0.35728000  0.72809000  0.94140700  1
  O  O61  1  0.48092700  0.31891300  0.23797500  1
  O  O62  1  0.75704800  0.51907300  0.83798600  1
  O  O63  1  0.56946700  0.22022500  0.45890200  1
  O  O64  1  0.58093800  0.81891300  0.83798600  1
  O  O65  1  0.47809000  0.03668300  0.87081000  1
  O  O66  1  0.66906200  0.00704800  0.73797500  1
  O  O67  1  0.68053300  0.63943500  0.15075700  1
  O  O68  1  0.86056500  0.81946700  0.84924300  1
  O  O69  1  0.56891300  0.23092700  0.73797500  1
  O  O70  1  0.58412700  0.64272000  0.37081000  1
  O  O71  1  0.49295200  0.83093800  0.26202500  1
  O  O72  1  0.46331700  0.02191000  0.12919000  1
  O  O73  1  0.68108700  0.91906200  0.16201400  1
  O  O74  1  0.77191000  0.14272000  0.05859300  1
  O  O75  1  0.78668300  0.41587300  0.05859300  1
  O  O76  1  0.77977500  0.23867800  0.34924300  1
  O  O77  1  0.76132200  0.11056500  0.54109800  1
  O  O78  1  0.85728000  0.91587300  0.62919000  1
  O  O79  1  0.76907300  0.50704800  0.33798600  1
