# generated using pymatgen
data_Nb9AsO25
_symmetry_space_group_name_H-M   'P 1'
_cell_length_a   15.96847200
_cell_length_b   15.96847200
_cell_length_c   3.89214700
_cell_angle_alpha   90.00000000
_cell_angle_beta   90.00000000
_cell_angle_gamma   90.00000000
_symmetry_Int_Tables_number   1
_chemical_formula_structural   Nb9AsO25
_chemical_formula_sum   'Nb18 As2 O50'
_cell_volume   992.46672931
_cell_formula_units_Z   2
loop_
 _symmetry_equiv_pos_site_id
 _symmetry_equiv_pos_as_xyz
  1  'x, y, z'
loop_
 _atom_site_type_symbol
 _atom_site_label
 _atom_site_symmetry_multiplicity
 _atom_site_fract_x
 _atom_site_fract_y
 _atom_site_fract_z
 _atom_site_occupancy
  Nb  Nb0  1  0.78124200  0.60702900  0.75065400  1
  Nb  Nb1  1  0.32697600  0.61576900  0.74319400  1
  Nb  Nb2  1  0.61576900  0.67302400  0.25680600  1
  Nb  Nb3  1  0.10702900  0.71875800  0.75065400  1
  Nb  Nb4  1  0.39297100  0.78124200  0.24934600  1
  Nb  Nb5  1  0.88423100  0.82697600  0.74319400  1
  Nb  Nb6  1  0.17302400  0.88423100  0.25680600  1
  Nb  Nb7  1  0.71875800  0.89297100  0.24934600  1
  Nb  Nb8  1  0.50000000  0.00000000  0.28842100  1
  Nb  Nb9  1  0.28124200  0.10702900  0.24934600  1
  Nb  Nb10  1  0.82697600  0.11576900  0.25680600  1
  Nb  Nb11  1  0.11576900  0.17302400  0.74319400  1
  Nb  Nb12  1  0.60702900  0.21875800  0.24934600  1
  Nb  Nb13  1  0.89297100  0.28124200  0.75065400  1
  Nb  Nb14  1  0.38423100  0.32697600  0.25680600  1
  Nb  Nb15  1  0.67302400  0.38423100  0.74319400  1
  Nb  Nb16  1  0.21875800  0.39297100  0.75065400  1
  Nb  Nb17  1  0.00000000  0.50000000  0.71157900  1
  As  As18  1  0.00000000  0.00000000  0.00000000  1
  As  As19  1  0.50000000  0.50000000  0.00000000  1
  O  O20  1  0.28139200  0.51162500  0.75029000  1
  O  O21  1  0.57489700  0.55087700  0.23782000  1
  O  O22  1  0.88335100  0.55061800  0.74724500  1
  O  O23  1  0.44912300  0.57489700  0.76218000  1
  O  O24  1  0.74881800  0.61220000  0.25007800  1
  O  O25  1  0.05061800  0.61664900  0.74724500  1
  O  O26  1  0.34258600  0.64673400  0.25295800  1
  O  O27  1  0.64673400  0.65741400  0.74704200  1
  O  O28  1  0.21742500  0.67517400  0.75362200  1
  O  O29  1  0.82482600  0.71742500  0.75362200  1
  O  O30  1  0.51162500  0.71860800  0.24971000  1
  O  O31  1  0.38780000  0.74881800  0.74992200  1
  O  O32  1  0.11220000  0.75118200  0.25007800  1
  O  O33  1  0.98837500  0.78139200  0.75029000  1
  O  O34  1  0.67517400  0.78257500  0.24637800  1
  O  O35  1  0.28257500  0.82482600  0.24637800  1
  O  O36  1  0.85326600  0.84258600  0.25295800  1
  O  O37  1  0.15741400  0.85326600  0.74704200  1
  O  O38  1  0.44938200  0.88335100  0.25275500  1
  O  O39  1  0.75118200  0.88780000  0.74992200  1
  O  O40  1  0.05087700  0.92510300  0.23782000  1
  O  O41  1  0.61664900  0.94938200  0.25275500  1
  O  O42  1  0.92510300  0.94912300  0.76218000  1
  O  O43  1  0.21860800  0.98837500  0.24971000  1
  O  O44  1  0.50000000  0.00000000  0.75843800  1
  O  O45  1  0.78139200  0.01162500  0.24971000  1
  O  O46  1  0.07489700  0.05087700  0.76218000  1
  O  O47  1  0.38335100  0.05061800  0.25275500  1
  O  O48  1  0.94912300  0.07489700  0.23782000  1
  O  O49  1  0.24881800  0.11220000  0.74992200  1
  O  O50  1  0.55061800  0.11664900  0.25275500  1
  O  O51  1  0.84258600  0.14673400  0.74704200  1
  O  O52  1  0.14673400  0.15741400  0.25295800  1
  O  O53  1  0.71742500  0.17517400  0.24637800  1
  O  O54  1  0.32482600  0.21742500  0.24637800  1
  O  O55  1  0.01162500  0.21860800  0.75029000  1
  O  O56  1  0.88780000  0.24881800  0.25007800  1
  O  O57  1  0.61220000  0.25118200  0.74992200  1
  O  O58  1  0.48837500  0.28139200  0.24971000  1
  O  O59  1  0.17517400  0.28257500  0.75362200  1
  O  O60  1  0.78257500  0.32482600  0.75362200  1
  O  O61  1  0.35326600  0.34258600  0.74704200  1
  O  O62  1  0.65741400  0.35326600  0.25295800  1
  O  O63  1  0.94938200  0.38335100  0.74724500  1
  O  O64  1  0.25118200  0.38780000  0.25007800  1
  O  O65  1  0.55087700  0.42510300  0.76218000  1
  O  O66  1  0.11664900  0.44938200  0.74724500  1
  O  O67  1  0.42510300  0.44912300  0.23782000  1
  O  O68  1  0.71860800  0.48837500  0.75029000  1
  O  O69  1  0.00000000  0.50000000  0.24156200  1
