# generated using pymatgen
data_RbFeO2
_symmetry_space_group_name_H-M   'P 1'
_cell_length_a   5.93197100
_cell_length_b   8.12047200
_cell_length_c   5.96192200
_cell_angle_alpha   89.99996667
_cell_angle_beta   90.00009635
_cell_angle_gamma   89.99980463
_symmetry_Int_Tables_number   1
_chemical_formula_structural   RbFeO2
_chemical_formula_sum   'Rb4 Fe4 O8'
_cell_volume   287.18819380
_cell_formula_units_Z   4
loop_
 _symmetry_equiv_pos_site_id
 _symmetry_equiv_pos_as_xyz
  1  'x, y, z'
loop_
 _atom_site_type_symbol
 _atom_site_label
 _atom_site_symmetry_multiplicity
 _atom_site_fract_x
 _atom_site_fract_y
 _atom_site_fract_z
 _atom_site_occupancy
  Rb  Rb0  1  0.01417600  0.62231600  0.06350900  1
  Rb  Rb1  1  0.51417900  0.12231500  0.43649000  1
  Rb  Rb2  1  0.01417600  0.87768500  0.56348600  1
  Rb  Rb3  1  0.51417700  0.37768500  0.93651400  1
  Fe  Fe4  1  0.00078700  0.37367900  0.54693600  1
  Fe  Fe5  1  0.50078600  0.87367900  0.95306200  1
  Fe  Fe6  1  0.00078900  0.12632200  0.04692600  1
  Fe  Fe7  1  0.50078900  0.62632000  0.45307700  1
  O  O8  1  0.70294700  0.04879700  0.00706600  1
  O  O9  1  0.20294800  0.54879700  0.49293400  1
  O  O10  1  0.70290900  0.45122100  0.50706700  1
  O  O11  1  0.20291000  0.95122100  0.99293300  1
  O  O12  1  0.54222500  0.69426200  0.15162600  1
  O  O13  1  0.04222500  0.19426100  0.34837400  1
  O  O14  1  0.54222900  0.80572000  0.65158800  1
  O  O15  1  0.04223000  0.30572100  0.84841200  1
