# generated using pymatgen
data_Mn6PbO12
_symmetry_space_group_name_H-M   'P 1'
_cell_length_a   8.25476596
_cell_length_b   8.25476596
_cell_length_c   9.74888510
_cell_angle_alpha   54.67390705
_cell_angle_beta   54.67390705
_cell_angle_gamma   66.18197368
_symmetry_Int_Tables_number   1
_chemical_formula_structural   Mn6PbO12
_chemical_formula_sum   'Mn12 Pb2 O24'
_cell_volume   439.77643653
_cell_formula_units_Z   2
loop_
 _symmetry_equiv_pos_site_id
 _symmetry_equiv_pos_as_xyz
  1  'x, y, z'
loop_
 _atom_site_type_symbol
 _atom_site_label
 _atom_site_symmetry_multiplicity
 _atom_site_fract_x
 _atom_site_fract_y
 _atom_site_fract_z
 _atom_site_occupancy
  Mn  Mn0  1  0.67003400  0.00239400  0.81523500  1
  Mn  Mn1  1  0.18677500  0.51867600  0.47980900  1
  Mn  Mn2  1  0.85463100  0.85463100  0.47320900  1
  Mn  Mn3  1  0.81322500  0.48132400  0.52019100  1
  Mn  Mn4  1  0.32996600  0.99760600  0.18476500  1
  Mn  Mn5  1  0.99760600  0.32996600  0.18476500  1
  Mn  Mn6  1  0.33319800  0.33319800  0.81844900  1
  Mn  Mn7  1  0.00239400  0.67003400  0.81523500  1
  Mn  Mn8  1  0.51867600  0.18677500  0.47980900  1
  Mn  Mn9  1  0.48132400  0.81322500  0.52019100  1
  Mn  Mn10  1  0.14536900  0.14536900  0.52679100  1
  Mn  Mn11  1  0.66680200  0.66680200  0.18155100  1
  Pb  Pb12  1  0.27092300  0.72907700  0.00000000  1
  Pb  Pb13  1  0.72907700  0.27092300  0.00000000  1
  O  O14  1  0.70525300  0.70525300  0.94390300  1
  O  O15  1  0.01580500  0.67378300  0.34734900  1
  O  O16  1  0.67378300  0.01580500  0.34734900  1
  O  O17  1  0.67959500  0.01309900  0.60977800  1
  O  O18  1  0.01309900  0.67959500  0.60977800  1
  O  O19  1  0.04408000  0.04408000  0.27806800  1
  O  O20  1  0.71076800  0.37718500  0.27576900  1
  O  O21  1  0.37718500  0.71076800  0.27576900  1
  O  O22  1  0.98690100  0.32040500  0.39022200  1
  O  O23  1  0.98419500  0.32621700  0.65265100  1
  O  O24  1  0.03092400  0.37238400  0.94502800  1
  O  O25  1  0.37238400  0.03092400  0.94502800  1
  O  O26  1  0.29474700  0.29474700  0.05609700  1
  O  O27  1  0.96907600  0.62761600  0.05497200  1
  O  O28  1  0.33985300  0.33985300  0.35762800  1
  O  O29  1  0.34806100  0.34806100  0.60956200  1
  O  O30  1  0.28923200  0.62281500  0.72423100  1
  O  O31  1  0.62281500  0.28923200  0.72423100  1
  O  O32  1  0.95592000  0.95592000  0.72193200  1
  O  O33  1  0.65193900  0.65193900  0.39043800  1
  O  O34  1  0.32040500  0.98690100  0.39022200  1
  O  O35  1  0.66014700  0.66014700  0.64237200  1
  O  O36  1  0.32621700  0.98419500  0.65265100  1
  O  O37  1  0.62761600  0.96907600  0.05497200  1
