# generated using pymatgen
data_LiAgO
_symmetry_space_group_name_H-M   'P 1'
_cell_length_a   6.88085690
_cell_length_b   6.88085690
_cell_length_c   6.88085690
_cell_angle_alpha   94.48786143
_cell_angle_beta   94.48786143
_cell_angle_gamma   147.51202802
_symmetry_Int_Tables_number   1
_chemical_formula_structural   LiAgO
_chemical_formula_sum   'Li4 Ag4 O4'
_cell_volume   167.99951546
_cell_formula_units_Z   4
loop_
 _symmetry_equiv_pos_site_id
 _symmetry_equiv_pos_as_xyz
  1  'x, y, z'
loop_
 _atom_site_type_symbol
 _atom_site_label
 _atom_site_symmetry_multiplicity
 _atom_site_fract_x
 _atom_site_fract_y
 _atom_site_fract_z
 _atom_site_occupancy
  Li  Li0  1  0.13718100  0.50000000  0.63718100  1
  Li  Li1  1  0.50000000  0.13718100  0.63718100  1
  Li  Li2  1  0.50000000  0.86281900  0.36281900  1
  Li  Li3  1  0.86281900  0.50000000  0.36281900  1
  Ag  Ag4  1  0.83870300  0.16129700  0.00000000  1
  Ag  Ag5  1  0.83870300  0.83870300  0.67740600  1
  Ag  Ag6  1  0.16129700  0.83870300  0.00000000  1
  Ag  Ag7  1  0.16129700  0.16129700  0.32259400  1
  O  O8  1  0.67849800  0.00000000  0.67849800  1
  O  O9  1  0.00000000  0.67849800  0.67849800  1
  O  O10  1  0.00000000  0.32150200  0.32150200  1
  O  O11  1  0.32150200  0.00000000  0.32150200  1
