# generated using pymatgen
data_Th2SeN2
_symmetry_space_group_name_H-M   'P 1'
_cell_length_a   4.04556743
_cell_length_b   4.04556743
_cell_length_c   7.19971400
_cell_angle_alpha   90.00000000
_cell_angle_beta   90.00000000
_cell_angle_gamma   119.99999064
_symmetry_Int_Tables_number   1
_chemical_formula_structural   Th2SeN2
_chemical_formula_sum   'Th2 Se1 N2'
_cell_volume   102.04807237
_cell_formula_units_Z   1
loop_
 _symmetry_equiv_pos_site_id
 _symmetry_equiv_pos_as_xyz
  1  'x, y, z'
loop_
 _atom_site_type_symbol
 _atom_site_label
 _atom_site_symmetry_multiplicity
 _atom_site_fract_x
 _atom_site_fract_y
 _atom_site_fract_z
 _atom_site_occupancy
  Th  Th0  1  0.66666700  0.33333300  0.70346200  1
  Th  Th1  1  0.33333300  0.66666700  0.29653800  1
  Se  Se2  1  0.00000000  0.00000000  0.00000000  1
  N  N3  1  0.33333300  0.66666700  0.62615700  1
  N  N4  1  0.66666700  0.33333300  0.37384300  1
