# generated using pymatgen
data_Sr2VCO3F5
_symmetry_space_group_name_H-M   'P 1'
_cell_length_a   8.96146700
_cell_length_b   5.61930500
_cell_length_c   13.93346509
_cell_angle_alpha   74.99201397
_cell_angle_beta   90.00000000
_cell_angle_gamma   90.00000000
_symmetry_Int_Tables_number   1
_chemical_formula_structural   Sr2VCO3F5
_chemical_formula_sum   'Sr8 V4 C4 O12 F20'
_cell_volume   677.71703547
_cell_formula_units_Z   4
loop_
 _symmetry_equiv_pos_site_id
 _symmetry_equiv_pos_as_xyz
  1  'x, y, z'
loop_
 _atom_site_type_symbol
 _atom_site_label
 _atom_site_symmetry_multiplicity
 _atom_site_fract_x
 _atom_site_fract_y
 _atom_site_fract_z
 _atom_site_occupancy
  Sr  Sr0  1  0.89295600  0.69319400  0.09496700  1
  Sr  Sr1  1  0.35686900  0.69207700  0.08661500  1
  Sr  Sr2  1  0.85686900  0.30792300  0.41338500  1
  Sr  Sr3  1  0.39295600  0.30680600  0.40503300  1
  Sr  Sr4  1  0.60704400  0.69319400  0.59496700  1
  Sr  Sr5  1  0.14313100  0.69207700  0.58661500  1
  Sr  Sr6  1  0.64313100  0.30792300  0.91338500  1
  Sr  Sr7  1  0.10704400  0.30680600  0.90503300  1
  V  V8  1  0.87188600  0.19750700  0.67014100  1
  V  V9  1  0.37188600  0.80249300  0.82985900  1
  V  V10  1  0.62811400  0.19750700  0.17014100  1
  V  V11  1  0.12811400  0.80249300  0.32985900  1
  C  C12  1  0.37584200  0.18219800  0.63631300  1
  C  C13  1  0.87584200  0.81780200  0.86368700  1
  C  C14  1  0.12415800  0.18219800  0.13631300  1
  C  C15  1  0.62415800  0.81780200  0.36368700  1
  O  O16  1  0.37984100  0.41214500  0.58333800  1
  O  O17  1  0.37057100  0.13854600  0.73160500  1
  O  O18  1  0.87726500  0.99214300  0.90976600  1
  O  O19  1  0.12015900  0.41214500  0.08333800  1
  O  O20  1  0.37726500  0.00785700  0.59023400  1
  O  O21  1  0.87057100  0.86145400  0.76839500  1
  O  O22  1  0.12942900  0.13854600  0.23160500  1
  O  O23  1  0.62273500  0.99214300  0.40976600  1
  O  O24  1  0.87984100  0.58785500  0.91666200  1
  O  O25  1  0.12273500  0.00785700  0.09023400  1
  O  O26  1  0.62942900  0.86145400  0.26839500  1
  O  O27  1  0.62015900  0.58785500  0.41666200  1
  F  F28  1  0.96206800  0.67011800  0.27144000  1
  F  F29  1  0.28316000  0.66540200  0.26348000  1
  F  F30  1  0.12881900  0.46956300  0.43491000  1
  F  F31  1  0.62882000  0.53043700  0.06509000  1
  F  F32  1  0.51258600  0.92179600  0.91419500  1
  F  F33  1  0.71761900  0.10329300  0.58567100  1
  F  F34  1  0.78316000  0.33459800  0.23652000  1
  F  F35  1  0.46206800  0.32988200  0.22856000  1
  F  F36  1  0.21761900  0.89670700  0.91432900  1
  F  F37  1  0.01258600  0.07820400  0.58580500  1
  F  F38  1  0.98741400  0.92179600  0.41419500  1
  F  F39  1  0.78238100  0.10329300  0.08567100  1
  F  F40  1  0.53793200  0.67011800  0.77144000  1
  F  F41  1  0.21684000  0.66540200  0.76348000  1
  F  F42  1  0.28238100  0.89670700  0.41432900  1
  F  F43  1  0.48741400  0.07820400  0.08580500  1
  F  F44  1  0.37118100  0.46956300  0.93491000  1
  F  F45  1  0.87118100  0.53043700  0.56509000  1
  F  F46  1  0.71684000  0.33459800  0.73652000  1
  F  F47  1  0.03793200  0.32988200  0.72856000  1
