# generated using pymatgen
data_Li2Ti6Zn3O16
_symmetry_space_group_name_H-M   'P 1'
_cell_length_a   8.46416500
_cell_length_b   8.46236100
_cell_length_c   8.47282357
_cell_angle_alpha   89.67707815
_cell_angle_beta   90.00000000
_cell_angle_gamma   90.00000000
_symmetry_Int_Tables_number   1
_chemical_formula_structural   Li2Ti6Zn3O16
_chemical_formula_sum   'Li4 Ti12 Zn6 O32'
_cell_volume   606.87176817
_cell_formula_units_Z   2
loop_
 _symmetry_equiv_pos_site_id
 _symmetry_equiv_pos_as_xyz
  1  'x, y, z'
loop_
 _atom_site_type_symbol
 _atom_site_label
 _atom_site_symmetry_multiplicity
 _atom_site_fract_x
 _atom_site_fract_y
 _atom_site_fract_z
 _atom_site_occupancy
  Li  Li0  1  0.62446000  0.12521400  0.87399400  1
  Li  Li1  1  0.12446000  0.87478600  0.12600600  1
  Li  Li2  1  0.50236600  0.99547000  0.25180700  1
  Li  Li3  1  0.00236600  0.00453000  0.74819300  1
  Ti  Ti4  1  0.86770800  0.37470300  0.86506400  1
  Ti  Ti5  1  0.11457800  0.63707000  0.86813000  1
  Ti  Ti6  1  0.37242200  0.88298100  0.88502000  1
  Ti  Ti7  1  0.87242200  0.11701900  0.11498000  1
  Ti  Ti8  1  0.61457800  0.36293000  0.13187000  1
  Ti  Ti9  1  0.36770800  0.62529700  0.13493600  1
  Ti  Ti10  1  0.13763600  0.12716900  0.36922200  1
  Ti  Ti11  1  0.87990300  0.86710000  0.38427700  1
  Ti  Ti12  1  0.62547400  0.61831100  0.38554800  1
  Ti  Ti13  1  0.12547400  0.38168900  0.61445200  1
  Ti  Ti14  1  0.37990300  0.13290000  0.61572300  1
  Ti  Ti15  1  0.63763600  0.87283100  0.63077800  1
  Zn  Zn16  1  0.49582300  0.50107800  0.75565000  1
  Zn  Zn17  1  0.24747300  0.25109800  0.99542100  1
  Zn  Zn18  1  0.74747300  0.74890200  0.00457900  1
  Zn  Zn19  1  0.99582300  0.49892200  0.24435000  1
  Zn  Zn20  1  0.75460600  0.24364200  0.49780900  1
  Zn  Zn21  1  0.25460600  0.75635800  0.50219100  1
  O  O22  1  0.61063600  0.87078000  0.85700000  1
  O  O23  1  0.37246200  0.10580200  0.86069500  1
  O  O24  1  0.10975300  0.38874300  0.86136700  1
  O  O25  1  0.14085600  0.85563700  0.87316300  1
  O  O26  1  0.89494100  0.60824800  0.88970800  1
  O  O27  1  0.36128700  0.63877200  0.88784800  1
  O  O28  1  0.64399700  0.37845700  0.89006400  1
  O  O29  1  0.87639300  0.14306400  0.89620900  1
  O  O30  1  0.37639300  0.85693600  0.10379100  1
  O  O31  1  0.14399700  0.62154300  0.10993600  1
  O  O32  1  0.86128700  0.36122800  0.11215200  1
  O  O33  1  0.39494100  0.39175200  0.11029200  1
  O  O34  1  0.64085600  0.14436300  0.12683700  1
  O  O35  1  0.60975300  0.61125700  0.13863300  1
  O  O36  1  0.87246200  0.89419800  0.13930500  1
  O  O37  1  0.11063600  0.12922000  0.14300000  1
  O  O38  1  0.39252100  0.63910800  0.35480400  1
  O  O39  1  0.63994200  0.39446300  0.35911700  1
  O  O40  1  0.88794300  0.10955000  0.36016200  1
  O  O41  1  0.85795700  0.64607000  0.36004900  1
  O  O42  1  0.10682700  0.88982000  0.37762700  1
  O  O43  1  0.64157700  0.85906800  0.39240400  1
  O  O44  1  0.11030000  0.35955900  0.39349600  1
  O  O45  1  0.35489600  0.11144200  0.39160700  1
  O  O46  1  0.85489600  0.88855800  0.60839300  1
  O  O47  1  0.61030000  0.64044100  0.60650400  1
  O  O48  1  0.14157700  0.14093200  0.60759600  1
  O  O49  1  0.60682700  0.11018000  0.62237300  1
  O  O50  1  0.35795700  0.35393000  0.63995100  1
  O  O51  1  0.38794300  0.89045000  0.63983800  1
  O  O52  1  0.13994200  0.60553700  0.64088300  1
  O  O53  1  0.89252100  0.36089200  0.64519600  1
