# generated using pymatgen
data_Sn(SO4)2
_symmetry_space_group_name_H-M   'P 1'
_cell_length_a   9.13502600
_cell_length_b   9.33391000
_cell_length_c   13.80475100
_cell_angle_alpha   90.00000000
_cell_angle_beta   90.00000000
_cell_angle_gamma   90.00000000
_symmetry_Int_Tables_number   1
_chemical_formula_structural   Sn(SO4)2
_chemical_formula_sum   'Sn8 S16 O64'
_cell_volume   1177.06914178
_cell_formula_units_Z   8
loop_
 _symmetry_equiv_pos_site_id
 _symmetry_equiv_pos_as_xyz
  1  'x, y, z'
loop_
 _atom_site_type_symbol
 _atom_site_label
 _atom_site_symmetry_multiplicity
 _atom_site_fract_x
 _atom_site_fract_y
 _atom_site_fract_z
 _atom_site_occupancy
  Sn  Sn0  1  0.89718000  0.85981800  0.12569100  1
  Sn  Sn1  1  0.60282000  0.85981800  0.62569100  1
  Sn  Sn2  1  0.39718000  0.64018200  0.12569100  1
  Sn  Sn3  1  0.10282000  0.64018200  0.62569100  1
  Sn  Sn4  1  0.89718000  0.35981800  0.37430900  1
  Sn  Sn5  1  0.60282000  0.35981800  0.87430900  1
  Sn  Sn6  1  0.39718000  0.14018200  0.37430900  1
  Sn  Sn7  1  0.10282000  0.14018200  0.87430900  1
  S  S8  1  0.93336900  0.92616600  0.72309300  1
  S  S9  1  0.56663100  0.92616600  0.22309300  1
  S  S10  1  0.06663100  0.57383400  0.22309300  1
  S  S11  1  0.43336900  0.57383400  0.72309300  1
  S  S12  1  0.56663100  0.42616600  0.27690700  1
  S  S13  1  0.93336900  0.42616600  0.77690700  1
  S  S14  1  0.43336900  0.07383400  0.77690700  1
  S  S15  1  0.06663100  0.07383400  0.27690700  1
  S  S16  1  0.31125900  0.83841900  0.48718900  1
  S  S17  1  0.18874100  0.83841900  0.98718900  1
  S  S18  1  0.81125900  0.66158100  0.48718900  1
  S  S19  1  0.68874100  0.66158100  0.98718900  1
  S  S20  1  0.31125900  0.33841900  0.01281100  1
  S  S21  1  0.18874100  0.33841900  0.51281100  1
  S  S22  1  0.81125900  0.16158100  0.01281100  1
  S  S23  1  0.68874100  0.16158100  0.51281100  1
  O  O24  1  0.30252600  0.99937400  0.47587200  1
  O  O25  1  0.19747400  0.99937400  0.97587200  1
  O  O26  1  0.00554900  0.98433400  0.35025000  1
  O  O27  1  0.49445100  0.98433400  0.85025000  1
  O  O28  1  0.53289900  0.97651100  0.32600500  1
  O  O29  1  0.96710100  0.97651100  0.82600500  1
  O  O30  1  0.76699400  0.91869100  0.72381800  1
  O  O31  1  0.73300600  0.91869100  0.22381800  1
  O  O32  1  0.27066700  0.81167300  0.08179800  1
  O  O33  1  0.22933300  0.81167300  0.58179800  1
  O  O34  1  0.03090200  0.80014400  0.01039900  1
  O  O35  1  0.46909800  0.80014400  0.51039900  1
  O  O36  1  0.98738100  0.77211600  0.72164700  1
  O  O37  1  0.51261900  0.77211600  0.22164700  1
  O  O38  1  0.25894600  0.75998300  0.40579500  1
  O  O39  1  0.24105400  0.75998300  0.90579500  1
  O  O40  1  0.75894600  0.74001700  0.40579500  1
  O  O41  1  0.74105400  0.74001700  0.90579500  1
  O  O42  1  0.01261900  0.72788400  0.22164700  1
  O  O43  1  0.48738100  0.72788400  0.72164700  1
  O  O44  1  0.96909800  0.69985600  0.51039900  1
  O  O45  1  0.53090200  0.69985600  0.01039900  1
  O  O46  1  0.77066700  0.68832700  0.08179800  1
  O  O47  1  0.72933300  0.68832700  0.58179800  1
  O  O48  1  0.23300600  0.58130900  0.22381800  1
  O  O49  1  0.26699400  0.58130900  0.72381800  1
  O  O50  1  0.46710100  0.52348900  0.82600500  1
  O  O51  1  0.03289900  0.52348900  0.32600500  1
  O  O52  1  0.50554900  0.51566600  0.35025000  1
  O  O53  1  0.99445100  0.51566600  0.85025000  1
  O  O54  1  0.80252600  0.50062600  0.47587200  1
  O  O55  1  0.69747400  0.50062600  0.97587200  1
  O  O56  1  0.30252600  0.49937400  0.02412800  1
  O  O57  1  0.19747400  0.49937400  0.52412800  1
  O  O58  1  0.49445100  0.48433400  0.64975000  1
  O  O59  1  0.00554900  0.48433400  0.14975000  1
  O  O60  1  0.53289900  0.47651100  0.17399500  1
  O  O61  1  0.96710100  0.47651100  0.67399500  1
  O  O62  1  0.73300600  0.41869100  0.27618200  1
  O  O63  1  0.76699400  0.41869100  0.77618200  1
  O  O64  1  0.27066700  0.31167300  0.41820200  1
  O  O65  1  0.22933300  0.31167300  0.91820200  1
  O  O66  1  0.46909800  0.30014400  0.98960100  1
  O  O67  1  0.03090200  0.30014400  0.48960100  1
  O  O68  1  0.51261900  0.27211600  0.27835300  1
  O  O69  1  0.98738100  0.27211600  0.77835300  1
  O  O70  1  0.25894600  0.25998300  0.09420500  1
  O  O71  1  0.24105400  0.25998300  0.59420500  1
  O  O72  1  0.75894600  0.24001700  0.09420500  1
  O  O73  1  0.74105400  0.24001700  0.59420500  1
  O  O74  1  0.48738100  0.22788400  0.77835300  1
  O  O75  1  0.01261900  0.22788400  0.27835300  1
  O  O76  1  0.53090200  0.19985600  0.48960100  1
  O  O77  1  0.96909800  0.19985600  0.98960100  1
  O  O78  1  0.77066700  0.18832700  0.41820200  1
  O  O79  1  0.72933300  0.18832700  0.91820200  1
  O  O80  1  0.26699400  0.08130900  0.77618200  1
  O  O81  1  0.23300600  0.08130900  0.27618200  1
  O  O82  1  0.46710100  0.02348900  0.67399500  1
  O  O83  1  0.03289900  0.02348900  0.17399500  1
  O  O84  1  0.99445100  0.01566600  0.64975000  1
  O  O85  1  0.50554900  0.01566600  0.14975000  1
  O  O86  1  0.80252600  0.00062600  0.02412800  1
  O  O87  1  0.69747400  0.00062600  0.52412800  1
