# generated using pymatgen
data_SrNb2O4
_symmetry_space_group_name_H-M   'P 1'
_cell_length_a   5.15161600
_cell_length_b   5.95432700
_cell_length_c   12.61506300
_cell_angle_alpha   90.00000000
_cell_angle_beta   90.00000000
_cell_angle_gamma   90.00000000
_symmetry_Int_Tables_number   1
_chemical_formula_structural   SrNb2O4
_chemical_formula_sum   'Sr4 Nb8 O16'
_cell_volume   386.95956724
_cell_formula_units_Z   4
loop_
 _symmetry_equiv_pos_site_id
 _symmetry_equiv_pos_as_xyz
  1  'x, y, z'
loop_
 _atom_site_type_symbol
 _atom_site_label
 _atom_site_symmetry_multiplicity
 _atom_site_fract_x
 _atom_site_fract_y
 _atom_site_fract_z
 _atom_site_occupancy
  Sr  Sr0  1  0.30368600  0.25000000  0.00378000  1
  Sr  Sr1  1  0.30368600  0.75000000  0.49622000  1
  Sr  Sr2  1  0.69631400  0.25000000  0.50378000  1
  Sr  Sr3  1  0.69631400  0.75000000  0.99622000  1
  Nb  Nb4  1  0.15597400  0.00000000  0.25000000  1
  Nb  Nb5  1  0.15597400  0.50000000  0.25000000  1
  Nb  Nb6  1  0.34123300  0.25000000  0.74707800  1
  Nb  Nb7  1  0.34123300  0.75000000  0.75292200  1
  Nb  Nb8  1  0.65876700  0.25000000  0.24707800  1
  Nb  Nb9  1  0.65876700  0.75000000  0.25292200  1
  Nb  Nb10  1  0.84402600  0.00000000  0.75000000  1
  Nb  Nb11  1  0.84402600  0.50000000  0.75000000  1
  O  O12  1  0.01063500  0.25000000  0.64513400  1
  O  O13  1  0.01063500  0.75000000  0.85486600  1
  O  O14  1  0.01062400  0.25000000  0.85161600  1
  O  O15  1  0.01062400  0.75000000  0.64838400  1
  O  O16  1  0.49226000  0.50460300  0.14362700  1
  O  O17  1  0.49226000  0.99539700  0.14362700  1
  O  O18  1  0.49226000  0.00460300  0.35637300  1
  O  O19  1  0.49226000  0.49539700  0.35637300  1
  O  O20  1  0.50774000  0.50460300  0.64362700  1
  O  O21  1  0.50774000  0.00460300  0.85637300  1
  O  O22  1  0.50774000  0.49539700  0.85637300  1
  O  O23  1  0.50774000  0.99539700  0.64362700  1
  O  O24  1  0.98937600  0.75000000  0.14838400  1
  O  O25  1  0.98937600  0.25000000  0.35161600  1
  O  O26  1  0.98936500  0.25000000  0.14513400  1
  O  O27  1  0.98936500  0.75000000  0.35486600  1
