# generated using pymatgen
data_Ba3GeO5
_symmetry_space_group_name_H-M   'P 1'
_cell_length_a   7.48652100
_cell_length_b   7.48652100
_cell_length_c   11.81207000
_cell_angle_alpha   90.00000000
_cell_angle_beta   90.00000000
_cell_angle_gamma   90.00000000
_symmetry_Int_Tables_number   1
_chemical_formula_structural   Ba3GeO5
_chemical_formula_sum   'Ba12 Ge4 O20'
_cell_volume   662.04286018
_cell_formula_units_Z   4
loop_
 _symmetry_equiv_pos_site_id
 _symmetry_equiv_pos_as_xyz
  1  'x, y, z'
loop_
 _atom_site_type_symbol
 _atom_site_label
 _atom_site_symmetry_multiplicity
 _atom_site_fract_x
 _atom_site_fract_y
 _atom_site_fract_z
 _atom_site_occupancy
  Ba  Ba0  1  0.00000000  0.50000000  0.99706300  1
  Ba  Ba1  1  0.00000000  0.50000000  0.49706300  1
  Ba  Ba2  1  0.18674800  0.81325200  0.75000000  1
  Ba  Ba3  1  0.18674800  0.18674800  0.25000000  1
  Ba  Ba4  1  0.31325200  0.31325200  0.75000000  1
  Ba  Ba5  1  0.31325200  0.68674800  0.25000000  1
  Ba  Ba6  1  0.50000000  0.00000000  0.00293700  1
  Ba  Ba7  1  0.50000000  0.00000000  0.50293700  1
  Ba  Ba8  1  0.68674800  0.31325200  0.25000000  1
  Ba  Ba9  1  0.68674800  0.68674800  0.75000000  1
  Ba  Ba10  1  0.81325200  0.81325200  0.25000000  1
  Ba  Ba11  1  0.81325200  0.18674800  0.75000000  1
  Ge  Ge12  1  0.00000000  0.00000000  0.00000000  1
  Ge  Ge13  1  0.00000000  0.00000000  0.50000000  1
  Ge  Ge14  1  0.50000000  0.50000000  0.00000000  1
  Ge  Ge15  1  0.50000000  0.50000000  0.50000000  1
  O  O16  1  0.00000000  0.50000000  0.21970600  1
  O  O17  1  0.00000000  0.50000000  0.71970600  1
  O  O18  1  0.10352800  0.84300400  0.40708600  1
  O  O19  1  0.10352800  0.15699600  0.90708600  1
  O  O20  1  0.15699600  0.10352800  0.59291400  1
  O  O21  1  0.15699600  0.89647200  0.09291400  1
  O  O22  1  0.34300400  0.60352800  0.90708600  1
  O  O23  1  0.34300400  0.39647200  0.40708600  1
  O  O24  1  0.39647200  0.34300400  0.09291400  1
  O  O25  1  0.39647200  0.65699600  0.59291400  1
  O  O26  1  0.50000000  0.00000000  0.28029400  1
  O  O27  1  0.50000000  0.00000000  0.78029400  1
  O  O28  1  0.60352800  0.34300400  0.59291400  1
  O  O29  1  0.60352800  0.65699600  0.09291400  1
  O  O30  1  0.65699600  0.60352800  0.40708600  1
  O  O31  1  0.65699600  0.39647200  0.90708600  1
  O  O32  1  0.84300400  0.89647200  0.59291400  1
  O  O33  1  0.84300400  0.10352800  0.09291400  1
  O  O34  1  0.89647200  0.15699600  0.40708600  1
  O  O35  1  0.89647200  0.84300400  0.90708600  1
