# generated using pymatgen
data_ScH3(ClO5)2
_symmetry_space_group_name_H-M   'P 1'
_cell_length_a   7.48732500
_cell_length_b   9.60603400
_cell_length_c   14.72622555
_cell_angle_alpha   52.80411727
_cell_angle_beta   90.00000000
_cell_angle_gamma   90.00000000
_symmetry_Int_Tables_number   1
_chemical_formula_structural   ScH3(ClO5)2
_chemical_formula_sum   'Sc4 H12 Cl8 O40'
_cell_volume   843.69996592
_cell_formula_units_Z   4
loop_
 _symmetry_equiv_pos_site_id
 _symmetry_equiv_pos_as_xyz
  1  'x, y, z'
loop_
 _atom_site_type_symbol
 _atom_site_label
 _atom_site_symmetry_multiplicity
 _atom_site_fract_x
 _atom_site_fract_y
 _atom_site_fract_z
 _atom_site_occupancy
  Sc  Sc0  1  0.46693900  0.20808900  0.90993400  1
  Sc  Sc1  1  0.96693900  0.79191100  0.59006600  1
  Sc  Sc2  1  0.03306100  0.20808900  0.40993400  1
  Sc  Sc3  1  0.53306100  0.79191100  0.09006600  1
  H  H4  1  0.25400300  0.96971100  0.09711800  1
  H  H5  1  0.10436000  0.73756000  0.43500400  1
  H  H6  1  0.26722900  0.70232100  0.51692200  1
  H  H7  1  0.76722900  0.29767900  0.98307800  1
  H  H8  1  0.60436000  0.26244000  0.06499600  1
  H  H9  1  0.75400300  0.03028900  0.40288200  1
  H  H10  1  0.24599700  0.96971100  0.59711800  1
  H  H11  1  0.39564000  0.73756000  0.93500400  1
  H  H12  1  0.23277100  0.70232100  0.01692200  1
  H  H13  1  0.73277100  0.29767900  0.48307800  1
  H  H14  1  0.89564000  0.26244000  0.56499600  1
  H  H15  1  0.74599700  0.03028900  0.90288200  1
  Cl  Cl16  1  0.85423500  0.85553700  0.23111500  1
  Cl  Cl17  1  0.62860400  0.50408400  0.63848700  1
  Cl  Cl18  1  0.12860400  0.49591600  0.86151300  1
  Cl  Cl19  1  0.35423500  0.14446300  0.26888500  1
  Cl  Cl20  1  0.64576500  0.85553700  0.73111500  1
  Cl  Cl21  1  0.87139600  0.50408400  0.13848700  1
  Cl  Cl22  1  0.37139600  0.49591600  0.36151300  1
  Cl  Cl23  1  0.14576500  0.14446300  0.76888500  1
  O  O24  1  0.29586600  0.22879000  0.79065500  1
  O  O25  1  0.38158000  0.61670800  0.38741100  1
  O  O26  1  0.94243100  0.71320200  0.33379600  1
  O  O27  1  0.36492100  0.98833500  0.05611400  1
  O  O28  1  0.97164700  0.94175300  0.13335500  1
  O  O29  1  0.63357400  0.40831100  0.76458700  1
  O  O30  1  0.80023800  0.59990500  0.59483100  1
  O  O31  1  0.48474600  0.62843100  0.59199500  1
  O  O32  1  0.13933200  0.72844000  0.50282800  1
  O  O33  1  0.77266200  0.97610000  0.24600300  1
  O  O34  1  0.98474600  0.37156900  0.90800500  1
  O  O35  1  0.30023800  0.40009500  0.90516900  1
  O  O36  1  0.27266200  0.02390000  0.25399700  1
  O  O37  1  0.13357400  0.59168900  0.73541300  1
  O  O38  1  0.63933200  0.27156000  0.99717200  1
  O  O39  1  0.47164700  0.05824700  0.36664500  1
  O  O40  1  0.86492100  0.01166500  0.44388600  1
  O  O41  1  0.79586600  0.77121000  0.70934500  1
  O  O42  1  0.11842000  0.61670800  0.88741100  1
  O  O43  1  0.44243100  0.28679800  0.16620400  1
  O  O44  1  0.55756900  0.71320200  0.83379600  1
  O  O45  1  0.88158000  0.38329200  0.11258900  1
  O  O46  1  0.20413400  0.22879000  0.29065500  1
  O  O47  1  0.13507900  0.98833500  0.55611400  1
  O  O48  1  0.52835300  0.94175300  0.63335500  1
  O  O49  1  0.36066800  0.72844000  0.00282800  1
  O  O50  1  0.86642600  0.40831100  0.26458700  1
  O  O51  1  0.72733800  0.97610000  0.74600300  1
  O  O52  1  0.69976200  0.59990500  0.09483100  1
  O  O53  1  0.01525400  0.62843100  0.09199500  1
  O  O54  1  0.22733800  0.02390000  0.75399700  1
  O  O55  1  0.86066800  0.27156000  0.49717200  1
  O  O56  1  0.51525400  0.37156900  0.40800500  1
  O  O57  1  0.19976200  0.40009500  0.40516900  1
  O  O58  1  0.36642600  0.59168900  0.23541300  1
  O  O59  1  0.02835300  0.05824700  0.86664500  1
  O  O60  1  0.63507900  0.01166500  0.94388600  1
  O  O61  1  0.05756900  0.28679800  0.66620400  1
  O  O62  1  0.61842000  0.38329200  0.61258900  1
  O  O63  1  0.70413400  0.77121000  0.20934500  1
