# generated using pymatgen
data_Er3Sb5O12
_symmetry_space_group_name_H-M   'P 1'
_cell_length_a   9.39762444
_cell_length_b   9.39762444
_cell_length_c   9.39762444
_cell_angle_alpha   109.47122063
_cell_angle_beta   109.47122063
_cell_angle_gamma   109.47122063
_symmetry_Int_Tables_number   1
_chemical_formula_structural   Er3Sb5O12
_chemical_formula_sum   'Er6 Sb10 O24'
_cell_volume   638.89923011
_cell_formula_units_Z   2
loop_
 _symmetry_equiv_pos_site_id
 _symmetry_equiv_pos_as_xyz
  1  'x, y, z'
loop_
 _atom_site_type_symbol
 _atom_site_label
 _atom_site_symmetry_multiplicity
 _atom_site_fract_x
 _atom_site_fract_y
 _atom_site_fract_z
 _atom_site_occupancy
  Er  Er0  1  0.75000000  0.25000000  0.50000000  1
  Er  Er1  1  0.75000000  0.50000000  0.25000000  1
  Er  Er2  1  0.50000000  0.25000000  0.75000000  1
  Er  Er3  1  0.50000000  0.75000000  0.25000000  1
  Er  Er4  1  0.25000000  0.75000000  0.50000000  1
  Er  Er5  1  0.25000000  0.50000000  0.75000000  1
  Sb  Sb6  1  0.51680900  0.00000000  0.00000000  1
  Sb  Sb7  1  0.28383900  0.00000000  0.28383900  1
  Sb  Sb8  1  0.28383900  0.28383900  0.00000000  1
  Sb  Sb9  1  0.71616100  0.00000000  0.71616100  1
  Sb  Sb10  1  0.71616100  0.71616100  0.00000000  1
  Sb  Sb11  1  0.00000000  0.51680900  0.00000000  1
  Sb  Sb12  1  0.00000000  0.00000000  0.51680900  1
  Sb  Sb13  1  0.48319100  0.48319100  0.48319100  1
  Sb  Sb14  1  0.00000000  0.28383900  0.28383900  1
  Sb  Sb15  1  0.00000000  0.71616100  0.71616100  1
  O  O16  1  0.48118900  0.00000000  0.20238500  1
  O  O17  1  0.48118900  0.20238500  0.00000000  1
  O  O18  1  0.70251000  0.50050900  0.00000000  1
  O  O19  1  0.70251000  0.00000000  0.50050900  1
  O  O20  1  0.79799800  0.29749000  0.29749000  1
  O  O21  1  0.49949200  0.49949200  0.20200200  1
  O  O22  1  0.49949200  0.20200200  0.49949200  1
  O  O23  1  0.50050900  0.70251000  0.00000000  1
  O  O24  1  0.50050900  0.00000000  0.70251000  1
  O  O25  1  0.72119600  0.51881100  0.51881100  1
  O  O26  1  0.79761500  0.27880400  0.79761500  1
  O  O27  1  0.79761500  0.79761500  0.27880400  1
  O  O28  1  0.20238500  0.48118900  0.00000000  1
  O  O29  1  0.20238500  0.00000000  0.48118900  1
  O  O30  1  0.51881100  0.72119600  0.51881100  1
  O  O31  1  0.51881100  0.51881100  0.72119600  1
  O  O32  1  0.00000000  0.48118900  0.20238500  1
  O  O33  1  0.00000000  0.20238500  0.48118900  1
  O  O34  1  0.29749000  0.79799800  0.29749000  1
  O  O35  1  0.29749000  0.29749000  0.79799800  1
  O  O36  1  0.20200200  0.49949200  0.49949200  1
  O  O37  1  0.00000000  0.70251000  0.50050900  1
  O  O38  1  0.00000000  0.50050900  0.70251000  1
  O  O39  1  0.27880400  0.79761500  0.79761500  1
