# generated using pymatgen
data_Ca2P6O17
_symmetry_space_group_name_H-M   'P 1'
_cell_length_a   18.40467400
_cell_length_b   5.86184700
_cell_length_c   7.79773567
_cell_angle_alpha   67.94180574
_cell_angle_beta   90.00000000
_cell_angle_gamma   90.00000000
_symmetry_Int_Tables_number   1
_chemical_formula_structural   Ca2P6O17
_chemical_formula_sum   'Ca4 P12 O34'
_cell_volume   779.68377959
_cell_formula_units_Z   2
loop_
 _symmetry_equiv_pos_site_id
 _symmetry_equiv_pos_as_xyz
  1  'x, y, z'
loop_
 _atom_site_type_symbol
 _atom_site_label
 _atom_site_symmetry_multiplicity
 _atom_site_fract_x
 _atom_site_fract_y
 _atom_site_fract_z
 _atom_site_occupancy
  Ca  Ca0  1  0.57332100  0.90674800  0.60555500  1
  Ca  Ca1  1  0.92550400  0.91097700  0.10599000  1
  Ca  Ca2  1  0.07332100  0.09325200  0.39444500  1
  Ca  Ca3  1  0.42550400  0.08902300  0.89401000  1
  P  P4  1  0.32035600  0.68464800  0.72707500  1
  P  P5  1  0.33227400  0.72681300  0.33340500  1
  P  P6  1  0.17880400  0.68469500  0.22678400  1
  P  P7  1  0.97160700  0.51744100  0.55637700  1
  P  P8  1  0.47160700  0.48255900  0.44362300  1
  P  P9  1  0.16705500  0.72802400  0.83126300  1
  P  P10  1  0.83227400  0.27318700  0.66659500  1
  P  P11  1  0.52757900  0.50613200  0.05394100  1
  P  P12  1  0.02757900  0.49386800  0.94605900  1
  P  P13  1  0.82035600  0.31535200  0.27292500  1
  P  P14  1  0.66705500  0.27197600  0.16873700  1
  P  P15  1  0.67880400  0.31530500  0.77321600  1
  O  O16  1  0.13812100  0.93868400  0.67338900  1
  O  O17  1  0.31183500  0.80385200  0.50072200  1
  O  O18  1  0.15959000  0.89184300  0.28400700  1
  O  O19  1  0.36222000  0.93544500  0.17572700  1
  O  O20  1  0.98674800  0.76597800  0.40794700  1
  O  O21  1  0.49728200  0.71288600  0.46241700  1
  O  O22  1  0.63612200  0.54680500  0.71641400  1
  O  O23  1  0.18726200  0.80120500  0.00046700  1
  O  O24  1  0.88334000  0.50725600  0.58693100  1
  O  O25  1  0.33944600  0.89190200  0.78414600  1
  O  O26  1  0.76303200  0.39975200  0.71238200  1
  O  O27  1  0.26303200  0.60024800  0.28761800  1
  O  O28  1  0.51110100  0.76182100  0.91784200  1
  O  O29  1  0.38334000  0.49274400  0.41306900  1
  O  O30  1  0.00853600  0.71422800  0.98783600  1
  O  O31  1  0.86376300  0.54525000  0.21651300  1
  O  O32  1  0.13612200  0.45319500  0.28358600  1
  O  O33  1  0.49593600  0.46885500  0.25216900  1
  O  O34  1  0.99728200  0.28711400  0.53758300  1
  O  O35  1  0.61496600  0.50432300  0.09508400  1
  O  O36  1  0.48674800  0.23402200  0.59205300  1
  O  O37  1  0.73632500  0.40108800  0.21211600  1
  O  O38  1  0.23632500  0.59891200  0.78788400  1
  O  O39  1  0.65959000  0.10815700  0.71599300  1
  O  O40  1  0.11496600  0.49567700  0.90491600  1
  O  O41  1  0.81183500  0.19614800  0.49927800  1
  O  O42  1  0.99593600  0.53114500  0.74783100  1
  O  O43  1  0.36376300  0.45475000  0.78348700  1
  O  O44  1  0.50853600  0.28577200  0.01216400  1
  O  O45  1  0.01110100  0.23817900  0.08215800  1
  O  O46  1  0.63812100  0.06131600  0.32661100  1
  O  O47  1  0.83944600  0.10809800  0.21585400  1
  O  O48  1  0.68726200  0.19879500  0.99953300  1
  O  O49  1  0.86222000  0.06455500  0.82427300  1
