# generated using pymatgen
data_Sr16V12O39
_symmetry_space_group_name_H-M   'P 1'
_cell_length_a   7.85984800
_cell_length_b   8.78278495
_cell_length_c   14.42090690
_cell_angle_alpha   79.46602032
_cell_angle_beta   82.13324729
_cell_angle_gamma   63.48039999
_symmetry_Int_Tables_number   1
_chemical_formula_structural   Sr16V12O39
_chemical_formula_sum   'Sr16 V12 O39'
_cell_volume   874.01003084
_cell_formula_units_Z   1
loop_
 _symmetry_equiv_pos_site_id
 _symmetry_equiv_pos_as_xyz
  1  'x, y, z'
loop_
 _atom_site_type_symbol
 _atom_site_label
 _atom_site_symmetry_multiplicity
 _atom_site_fract_x
 _atom_site_fract_y
 _atom_site_fract_z
 _atom_site_occupancy
  Sr  Sr0  1  0.92468000  0.84743700  0.59832300  1
  Sr  Sr1  1  0.88889100  0.77808700  0.86358300  1
  Sr  Sr2  1  0.40142800  0.77809800  0.86299100  1
  Sr  Sr3  1  0.42876500  0.84854700  0.59457700  1
  Sr  Sr4  1  0.85307000  0.70959200  0.13406300  1
  Sr  Sr5  1  0.82061800  0.64616800  0.40438000  1
  Sr  Sr6  1  0.33025200  0.64721000  0.40455400  1
  Sr  Sr7  1  0.37027800  0.71004700  0.13376400  1
  Sr  Sr8  1  0.67330600  0.35250100  0.59544100  1
  Sr  Sr9  1  0.63304200  0.29003000  0.86326100  1
  Sr  Sr10  1  0.14464700  0.29049500  0.86339000  1
  Sr  Sr11  1  0.17513000  0.35536800  0.59538700  1
  Sr  Sr12  1  0.59589800  0.22342000  0.13392600  1
  Sr  Sr13  1  0.56767100  0.15123400  0.40549600  1
  Sr  Sr14  1  0.11367100  0.22304500  0.13391000  1
  Sr  Sr15  1  0.07881100  0.15038400  0.40537700  1
  V  V16  1  0.96352600  0.92678200  0.29263900  1
  V  V17  1  0.46517100  0.93084600  0.27687000  1
  V  V18  1  0.78655700  0.56644800  0.71802700  1
  V  V19  1  0.28395800  0.57391500  0.71793100  1
  V  V20  1  0.71560500  0.42848500  0.27916300  1
  V  V21  1  0.25001400  0.49969000  0.00066800  1
  V  V22  1  0.74968700  0.50017900  0.00056400  1
  V  V23  1  0.21425000  0.43138100  0.27938500  1
  V  V24  1  0.53424200  0.07011900  0.72043400  1
  V  V25  1  0.03563000  0.07077200  0.71759400  1
  V  V26  1  0.00165900  0.00311900  0.98735700  1
  V  V27  1  0.49993600  0.00007000  0.00006300  1
  O  O28  1  0.94684400  0.89448300  0.42355900  1
  O  O29  1  0.66277300  0.81115900  0.72586500  1
  O  O30  1  0.48337600  0.96664700  0.13346300  1
  O  O31  1  0.19816600  0.93318200  0.26694500  1
  O  O32  1  0.73517900  0.93310100  0.26719500  1
  O  O33  1  0.16520800  0.80913000  0.72149900  1
  O  O34  1  0.44766100  0.89513100  0.41887500  1
  O  O35  1  0.77027000  0.52302700  0.86841900  1
  O  O36  1  0.62718200  0.74785300  0.99803000  1
  O  O37  1  0.80107100  0.60762600  0.57833700  1
  O  O38  1  0.53448700  0.56892600  0.72425100  1
  O  O39  1  0.26137700  0.54344600  0.86880800  1
  O  O40  1  0.03457300  0.56877700  0.72433400  1
  O  O41  1  0.09114300  0.68273400  0.27222800  1
  O  O42  1  0.11525500  0.76259100  0.01426200  1
  O  O43  1  0.59121900  0.67858700  0.27575700  1
  O  O44  1  0.30543400  0.60130000  0.57835500  1
  O  O45  1  0.90493500  0.32989500  0.72177000  1
  O  O46  1  0.96692900  0.42975500  0.27658000  1
  O  O47  1  0.49989800  0.49948000  0.00214200  1
  O  O48  1  0.99923100  0.49927700  0.00326600  1
  O  O49  1  0.69803300  0.39394600  0.41798200  1
  O  O50  1  0.73299400  0.46663100  0.13693900  1
  O  O51  1  0.23288200  0.46524900  0.13661000  1
  O  O52  1  0.46447000  0.43178500  0.27645500  1
  O  O53  1  0.40560800  0.32599400  0.72616300  1
  O  O54  1  0.19777300  0.39651800  0.41818600  1
  O  O55  1  0.88131600  0.23071300  0.01376800  1
  O  O56  1  0.77531000  0.06912000  0.72347700  1
  O  O57  1  0.84175200  0.18198100  0.27191700  1
  O  O58  1  0.05288700  0.10645400  0.57882900  1
  O  O59  1  0.51679700  0.03350700  0.86610900  1
  O  O60  1  0.01793700  0.03478100  0.85909800  1
  O  O61  1  0.37341900  0.25328100  0.99796400  1
  O  O62  1  0.55136400  0.10564000  0.58076100  1
  O  O63  1  0.33985500  0.18245300  0.27581300  1
  O  O64  1  0.29371600  0.06938400  0.72366500  1
  O  O65  1  0.75364600  0.99883300  0.00543800  1
  O  O66  1  0.24489800  0.99867400  0.00566400  1
