# generated using pymatgen
data_Pd4Se
_symmetry_space_group_name_H-M   'P 1'
_cell_length_a   5.31480700
_cell_length_b   5.31480700
_cell_length_c   5.76239700
_cell_angle_alpha   90.00000000
_cell_angle_beta   90.00000000
_cell_angle_gamma   90.00000000
_symmetry_Int_Tables_number   1
_chemical_formula_structural   Pd4Se
_chemical_formula_sum   'Pd8 Se2'
_cell_volume   162.77142753
_cell_formula_units_Z   2
loop_
 _symmetry_equiv_pos_site_id
 _symmetry_equiv_pos_as_xyz
  1  'x, y, z'
loop_
 _atom_site_type_symbol
 _atom_site_label
 _atom_site_symmetry_multiplicity
 _atom_site_fract_x
 _atom_site_fract_y
 _atom_site_fract_z
 _atom_site_occupancy
  Pd  Pd0  1  0.76759100  0.37229400  0.84551900  1
  Pd  Pd1  1  0.87229400  0.26759100  0.34551900  1
  Pd  Pd2  1  0.12770600  0.73240900  0.34551900  1
  Pd  Pd3  1  0.62770600  0.76759100  0.15448100  1
  Pd  Pd4  1  0.26759100  0.12770600  0.65448100  1
  Pd  Pd5  1  0.73240900  0.87229400  0.65448100  1
  Pd  Pd6  1  0.23240900  0.62770600  0.84551900  1
  Pd  Pd7  1  0.37229400  0.23240900  0.15448100  1
  Se  Se8  1  0.50000000  0.50000000  0.50000000  1
  Se  Se9  1  0.00000000  0.00000000  0.00000000  1
