# generated using pymatgen
data_Sm2TeO6
_symmetry_space_group_name_H-M   'P 1'
_cell_length_a   5.41962000
_cell_length_b   9.31175600
_cell_length_c   10.19957300
_cell_angle_alpha   90.00000000
_cell_angle_beta   90.00000000
_cell_angle_gamma   90.00000000
_symmetry_Int_Tables_number   1
_chemical_formula_structural   Sm2TeO6
_chemical_formula_sum   'Sm8 Te4 O24'
_cell_volume   514.73347728
_cell_formula_units_Z   4
loop_
 _symmetry_equiv_pos_site_id
 _symmetry_equiv_pos_as_xyz
  1  'x, y, z'
loop_
 _atom_site_type_symbol
 _atom_site_label
 _atom_site_symmetry_multiplicity
 _atom_site_fract_x
 _atom_site_fract_y
 _atom_site_fract_z
 _atom_site_occupancy
  Sm  Sm0  1  0.02463300  0.39632300  0.04172700  1
  Sm  Sm1  1  0.03362000  0.28270700  0.63755700  1
  Sm  Sm2  1  0.46638000  0.71729300  0.13755700  1
  Sm  Sm3  1  0.47536700  0.60367700  0.54172700  1
  Sm  Sm4  1  0.52463300  0.10367700  0.95827300  1
  Sm  Sm5  1  0.53362000  0.21729300  0.36244300  1
  Sm  Sm6  1  0.96638000  0.78270700  0.86244300  1
  Sm  Sm7  1  0.97536700  0.89632300  0.45827300  1
  Te  Te8  1  0.04087200  0.00501900  0.14345900  1
  Te  Te9  1  0.45912800  0.99498100  0.64345900  1
  Te  Te10  1  0.54087200  0.49498100  0.85654100  1
  Te  Te11  1  0.95912800  0.50501900  0.35654100  1
  O  O12  1  0.07565000  0.65171500  0.47725300  1
  O  O13  1  0.16878300  0.55270700  0.21058800  1
  O  O14  1  0.18281400  0.86233600  0.25810400  1
  O  O15  1  0.18889400  0.85953000  0.67580300  1
  O  O16  1  0.22437900  0.38703600  0.43551200  1
  O  O17  1  0.24846200  0.91402400  0.00673600  1
  O  O18  1  0.25153800  0.08597600  0.50673600  1
  O  O19  1  0.27562100  0.61296400  0.93551200  1
  O  O20  1  0.31110600  0.14047000  0.17580300  1
  O  O21  1  0.31718600  0.13766400  0.75810400  1
  O  O22  1  0.33121700  0.44729300  0.71058800  1
  O  O23  1  0.42435000  0.34828500  0.97725300  1
  O  O24  1  0.57565000  0.84828500  0.52274700  1
  O  O25  1  0.66878300  0.94729300  0.78941200  1
  O  O26  1  0.68281400  0.63766400  0.74189600  1
  O  O27  1  0.68889400  0.64047000  0.32419700  1
  O  O28  1  0.72437900  0.11296400  0.56448800  1
  O  O29  1  0.74846200  0.58597600  0.99326400  1
  O  O30  1  0.75153800  0.41402400  0.49326400  1
  O  O31  1  0.77562100  0.88703600  0.06448800  1
  O  O32  1  0.81110600  0.35953000  0.82419700  1
  O  O33  1  0.81718600  0.36233600  0.24189600  1
  O  O34  1  0.83121700  0.05270700  0.28941200  1
  O  O35  1  0.92435000  0.15171500  0.02274700  1
