# generated using pymatgen
data_Sr(CdGe)2
_symmetry_space_group_name_H-M   'P 1'
_cell_length_a   6.75066260
_cell_length_b   6.75066260
_cell_length_c   6.75066260
_cell_angle_alpha   140.35551402
_cell_angle_beta   140.35551402
_cell_angle_gamma   57.31389717
_symmetry_Int_Tables_number   1
_chemical_formula_structural   Sr(CdGe)2
_chemical_formula_sum   'Sr1 Cd2 Ge2'
_cell_volume   124.16904206
_cell_formula_units_Z   1
loop_
 _symmetry_equiv_pos_site_id
 _symmetry_equiv_pos_as_xyz
  1  'x, y, z'
loop_
 _atom_site_type_symbol
 _atom_site_label
 _atom_site_symmetry_multiplicity
 _atom_site_fract_x
 _atom_site_fract_y
 _atom_site_fract_z
 _atom_site_occupancy
  Sr  Sr0  1  0.00000000  0.00000000  0.00000000  1
  Cd  Cd1  1  0.25000000  0.75000000  0.50000000  1
  Cd  Cd2  1  0.75000000  0.25000000  0.50000000  1
  Ge  Ge3  1  0.60811300  0.60811300  0.00000000  1
  Ge  Ge4  1  0.39188700  0.39188700  0.00000000  1
