# generated using pymatgen
data_BPd2
_symmetry_space_group_name_H-M   'P 1'
_cell_length_a   3.15963000
_cell_length_b   4.77228800
_cell_length_c   5.17238600
_cell_angle_alpha   90.00000000
_cell_angle_beta   90.00000000
_cell_angle_gamma   90.00000000
_symmetry_Int_Tables_number   1
_chemical_formula_structural   BPd2
_chemical_formula_sum   'B2 Pd4'
_cell_volume   77.99267230
_cell_formula_units_Z   2
loop_
 _symmetry_equiv_pos_site_id
 _symmetry_equiv_pos_as_xyz
  1  'x, y, z'
loop_
 _atom_site_type_symbol
 _atom_site_label
 _atom_site_symmetry_multiplicity
 _atom_site_fract_x
 _atom_site_fract_y
 _atom_site_fract_z
 _atom_site_occupancy
  B  B0  1  0.50000000  0.50000000  0.50000000  1
  B  B1  1  0.00000000  0.00000000  0.00000000  1
  Pd  Pd2  1  0.50000000  0.75401700  0.15582400  1
  Pd  Pd3  1  0.50000000  0.24598300  0.84417600  1
  Pd  Pd4  1  0.00000000  0.74598300  0.65582400  1
  Pd  Pd5  1  0.00000000  0.25401700  0.34417600  1
