# generated using pymatgen
data_InBP2H5NO9
_symmetry_space_group_name_H-M   'P 1'
_cell_length_a   5.37612700
_cell_length_b   8.51160569
_cell_length_c   8.58393205
_cell_angle_alpha   87.27459943
_cell_angle_beta   80.60451915
_cell_angle_gamma   86.73445646
_symmetry_Int_Tables_number   1
_chemical_formula_structural   InBP2H5NO9
_chemical_formula_sum   'In2 B2 P4 H10 N2 O18'
_cell_volume   386.60578311
_cell_formula_units_Z   2
loop_
 _symmetry_equiv_pos_site_id
 _symmetry_equiv_pos_as_xyz
  1  'x, y, z'
loop_
 _atom_site_type_symbol
 _atom_site_label
 _atom_site_symmetry_multiplicity
 _atom_site_fract_x
 _atom_site_fract_y
 _atom_site_fract_z
 _atom_site_occupancy
  In  In0  1  0.27695300  0.68246500  0.79288700  1
  In  In1  1  0.72304700  0.31753500  0.20711300  1
  B  B2  1  0.10710600  0.77468500  0.43635100  1
  B  B3  1  0.89289400  0.22531500  0.56364900  1
  P  P4  1  0.19552700  0.08404000  0.31039400  1
  P  P5  1  0.21987000  0.57105300  0.18920300  1
  P  P6  1  0.78013000  0.42894700  0.81079700  1
  P  P7  1  0.80447300  0.91596000  0.68960600  1
  H  H8  1  0.16393600  0.22026000  0.82325100  1
  H  H9  1  0.14559000  0.11741800  0.99794000  1
  H  H10  1  0.35650300  0.05927200  0.83923400  1
  H  H11  1  0.41994900  0.64020300  0.46819600  1
  H  H12  1  0.39940200  0.22306500  0.93336300  1
  H  H13  1  0.60059800  0.77693500  0.06663700  1
  H  H14  1  0.58005100  0.35979700  0.53180400  1
  H  H15  1  0.64349700  0.94072800  0.16076600  1
  H  H16  1  0.85441000  0.88258200  0.00206000  1
  H  H17  1  0.83606400  0.77974000  0.17674900  1
  N  N18  1  0.26654700  0.15498500  0.89821200  1
  N  N19  1  0.73345300  0.84501500  0.10178800  1
  O  O20  1  0.07653100  0.43155800  0.15346700  1
  O  O21  1  0.03947900  0.66840600  0.31988900  1
  O  O22  1  0.13076800  0.17399000  0.46787100  1
  O  O23  1  0.02260000  0.89653000  0.78644100  1
  O  O24  1  0.28280700  0.68652800  0.04413900  1
  O  O25  1  0.24851500  0.90601800  0.35114900  1
  O  O26  1  0.27581500  0.68986600  0.53574000  1
  O  O27  1  0.44494200  0.13823200  0.21720900  1
  O  O28  1  0.46622500  0.52105700  0.25525400  1
  O  O29  1  0.53377500  0.47894300  0.74474600  1
  O  O30  1  0.55505800  0.86176800  0.78279100  1
  O  O31  1  0.72418500  0.31013400  0.46426000  1
  O  O32  1  0.75148500  0.09398200  0.64885100  1
  O  O33  1  0.71719300  0.31347200  0.95586100  1
  O  O34  1  0.97740000  0.10347000  0.21355900  1
  O  O35  1  0.86923200  0.82601000  0.53212900  1
  O  O36  1  0.96052100  0.33159400  0.68011100  1
  O  O37  1  0.92346900  0.56844200  0.84653300  1
