# generated using pymatgen
data_Na2SbAu
_symmetry_space_group_name_H-M   'P 1'
_cell_length_a   6.03921377
_cell_length_b   6.03921377
_cell_length_c   5.92943100
_cell_angle_alpha   90.00000000
_cell_angle_beta   90.00000000
_cell_angle_gamma   102.07587283
_symmetry_Int_Tables_number   1
_chemical_formula_structural   Na2SbAu
_chemical_formula_sum   'Na4 Sb2 Au2'
_cell_volume   211.47331752
_cell_formula_units_Z   2
loop_
 _symmetry_equiv_pos_site_id
 _symmetry_equiv_pos_as_xyz
  1  'x, y, z'
loop_
 _atom_site_type_symbol
 _atom_site_label
 _atom_site_symmetry_multiplicity
 _atom_site_fract_x
 _atom_site_fract_y
 _atom_site_fract_z
 _atom_site_occupancy
  Na  Na0  1  0.01551700  0.65640900  0.25000000  1
  Na  Na1  1  0.98448300  0.34359100  0.75000000  1
  Na  Na2  1  0.65640900  0.01551700  0.25000000  1
  Na  Na3  1  0.34359100  0.98448300  0.75000000  1
  Sb  Sb4  1  0.79812600  0.79812600  0.75000000  1
  Sb  Sb5  1  0.20187400  0.20187400  0.25000000  1
  Au  Au6  1  0.50000000  0.50000000  0.50000000  1
  Au  Au7  1  0.50000000  0.50000000  0.00000000  1
