# generated using pymatgen
data_Fe6H12Pb(SO7)4
_symmetry_space_group_name_H-M   'P 1'
_cell_length_a   12.33334244
_cell_length_b   12.33334244
_cell_length_c   12.33334236
_cell_angle_alpha   34.82015460
_cell_angle_beta   34.82015460
_cell_angle_gamma   34.82015081
_symmetry_Int_Tables_number   1
_chemical_formula_structural   Fe6H12Pb(SO7)4
_chemical_formula_sum   'Fe6 H12 Pb1 S4 O28'
_cell_volume   545.98217640
_cell_formula_units_Z   1
loop_
 _symmetry_equiv_pos_site_id
 _symmetry_equiv_pos_as_xyz
  1  'x, y, z'
loop_
 _atom_site_type_symbol
 _atom_site_label
 _atom_site_symmetry_multiplicity
 _atom_site_fract_x
 _atom_site_fract_y
 _atom_site_fract_z
 _atom_site_occupancy
  Fe  Fe0  1  0.24668200  0.75247800  0.75247800  1
  Fe  Fe1  1  0.75247800  0.75247800  0.24668200  1
  Fe  Fe2  1  0.75247800  0.24668200  0.75247800  1
  Fe  Fe3  1  0.24752200  0.75331800  0.24752200  1
  Fe  Fe4  1  0.24752200  0.24752200  0.75331800  1
  Fe  Fe5  1  0.75331800  0.24752200  0.24752200  1
  H  H6  1  0.35779600  0.35779600  0.95527400  1
  H  H7  1  0.95527400  0.35779600  0.35779600  1
  H  H8  1  0.35779600  0.95527400  0.35779600  1
  H  H9  1  0.13698700  0.57741100  0.13698700  1
  H  H10  1  0.13698700  0.13698700  0.57741100  1
  H  H11  1  0.57741100  0.13698700  0.13698700  1
  H  H12  1  0.42258900  0.86301300  0.86301300  1
  H  H13  1  0.86301300  0.86301300  0.42258900  1
  H  H14  1  0.86301300  0.42258900  0.86301300  1
  H  H15  1  0.64220400  0.04472600  0.64220400  1
  H  H16  1  0.04472600  0.64220400  0.64220400  1
  H  H17  1  0.64220400  0.64220400  0.04472600  1
  Pb  Pb18  1  0.50000000  0.50000000  0.50000000  1
  S  S19  1  0.34747200  0.34747200  0.34747200  1
  S  S20  1  0.84471600  0.84471600  0.84471600  1
  S  S21  1  0.15528400  0.15528400  0.15528400  1
  S  S22  1  0.65252800  0.65252800  0.65252800  1
  O  O23  1  0.30511000  0.30511000  0.30511000  1
  O  O24  1  0.92003700  0.25075500  0.25075500  1
  O  O25  1  0.25075500  0.25075500  0.92003700  1
  O  O26  1  0.25075500  0.92003700  0.25075500  1
  O  O27  1  0.43989000  0.43989000  0.81347200  1
  O  O28  1  0.81347200  0.43989000  0.43989000  1
  O  O29  1  0.43989000  0.81347200  0.43989000  1
  O  O30  1  0.80223300  0.80223300  0.80223300  1
  O  O31  1  0.06290200  0.66462400  0.06290200  1
  O  O32  1  0.66462400  0.06290200  0.06290200  1
  O  O33  1  0.06290200  0.06290200  0.66462400  1
  O  O34  1  0.41733200  0.74862000  0.74862000  1
  O  O35  1  0.74862000  0.74862000  0.41733200  1
  O  O36  1  0.25138000  0.58266800  0.25138000  1
  O  O37  1  0.74862000  0.41733200  0.74862000  1
  O  O38  1  0.25138000  0.25138000  0.58266800  1
  O  O39  1  0.58266800  0.25138000  0.25138000  1
  O  O40  1  0.93709800  0.93709800  0.33537600  1
  O  O41  1  0.33537600  0.93709800  0.93709800  1
  O  O42  1  0.93709800  0.33537600  0.93709800  1
  O  O43  1  0.19776700  0.19776700  0.19776700  1
  O  O44  1  0.56011000  0.18652800  0.56011000  1
  O  O45  1  0.18652800  0.56011000  0.56011000  1
  O  O46  1  0.56011000  0.56011000  0.18652800  1
  O  O47  1  0.74924500  0.07996300  0.74924500  1
  O  O48  1  0.74924500  0.74924500  0.07996300  1
  O  O49  1  0.07996300  0.74924500  0.74924500  1
  O  O50  1  0.69489000  0.69489000  0.69489000  1
