# generated using pymatgen
data_LuGaO3
_symmetry_space_group_name_H-M   'P 1'
_cell_length_a   6.00016944
_cell_length_b   6.00016944
_cell_length_c   11.67075900
_cell_angle_alpha   90.00000000
_cell_angle_beta   90.00000000
_cell_angle_gamma   119.99999382
_symmetry_Int_Tables_number   1
_chemical_formula_structural   LuGaO3
_chemical_formula_sum   'Lu6 Ga6 O18'
_cell_volume   363.87882953
_cell_formula_units_Z   6
loop_
 _symmetry_equiv_pos_site_id
 _symmetry_equiv_pos_as_xyz
  1  'x, y, z'
loop_
 _atom_site_type_symbol
 _atom_site_label
 _atom_site_symmetry_multiplicity
 _atom_site_fract_x
 _atom_site_fract_y
 _atom_site_fract_z
 _atom_site_occupancy
  Lu  Lu0  1  0.33333300  0.66666700  0.23196300  1
  Lu  Lu1  1  0.00000000  0.00000000  0.27245300  1
  Lu  Lu2  1  0.00000000  0.00000000  0.77245300  1
  Lu  Lu3  1  0.33333300  0.66666700  0.73196300  1
  Lu  Lu4  1  0.66666700  0.33333300  0.73196300  1
  Lu  Lu5  1  0.66666700  0.33333300  0.23196300  1
  Ga  Ga6  1  0.00000000  0.66594000  0.49868900  1
  Ga  Ga7  1  0.00000000  0.33406000  0.99868900  1
  Ga  Ga8  1  0.33406000  0.33406000  0.49868900  1
  Ga  Ga9  1  0.66594000  0.66594000  0.99868900  1
  Ga  Ga10  1  0.33406000  0.00000000  0.99868900  1
  Ga  Ga11  1  0.66594000  0.00000000  0.49868900  1
  O  O12  1  0.00000000  0.69383300  0.66368900  1
  O  O13  1  0.00000000  0.63950700  0.33523600  1
  O  O14  1  0.00000000  0.36049300  0.83523600  1
  O  O15  1  0.00000000  0.30616700  0.16368900  1
  O  O16  1  0.33333300  0.66666700  0.02022500  1
  O  O17  1  0.00000000  0.00000000  0.47360500  1
  O  O18  1  0.00000000  0.00000000  0.97360500  1
  O  O19  1  0.33333300  0.66666700  0.52022500  1
  O  O20  1  0.30616700  0.30616700  0.66368900  1
  O  O21  1  0.36049300  0.36049300  0.33523600  1
  O  O22  1  0.30616700  0.00000000  0.16368900  1
  O  O23  1  0.63950700  0.63950700  0.83523600  1
  O  O24  1  0.69383300  0.69383300  0.16368900  1
  O  O25  1  0.36049300  0.00000000  0.83523600  1
  O  O26  1  0.66666700  0.33333300  0.52022500  1
  O  O27  1  0.66666700  0.33333300  0.02022500  1
  O  O28  1  0.63950700  0.00000000  0.33523600  1
  O  O29  1  0.69383300  0.00000000  0.66368900  1
