# generated using pymatgen
data_LiTiVO4
_symmetry_space_group_name_H-M   'P 1'
_cell_length_a   5.99546900
_cell_length_b   6.03039294
_cell_length_c   10.31462542
_cell_angle_alpha   89.15761934
_cell_angle_beta   106.89721795
_cell_angle_gamma   119.80996050
_symmetry_Int_Tables_number   1
_chemical_formula_structural   LiTiVO4
_chemical_formula_sum   'Li4 Ti4 V4 O16'
_cell_volume   305.80325038
_cell_formula_units_Z   4
loop_
 _symmetry_equiv_pos_site_id
 _symmetry_equiv_pos_as_xyz
  1  'x, y, z'
loop_
 _atom_site_type_symbol
 _atom_site_label
 _atom_site_symmetry_multiplicity
 _atom_site_fract_x
 _atom_site_fract_y
 _atom_site_fract_z
 _atom_site_occupancy
  Li  Li0  1  0.37166300  0.68255700  0.56077400  1
  Li  Li1  1  0.37154400  0.18224900  0.06083200  1
  Li  Li2  1  0.62836500  0.81747900  0.93922500  1
  Li  Li3  1  0.62849400  0.31778600  0.43916200  1
  Ti  Ti4  1  0.00003000  0.75003500  0.75000100  1
  Ti  Ti5  1  0.99996800  0.24997400  0.24998400  1
  Ti  Ti6  1  0.00056900  0.00104500  0.50007000  1
  Ti  Ti7  1  0.99946900  0.49901100  0.99992900  1
  V  V8  1  0.99992100  0.24998200  0.75001700  1
  V  V9  1  0.50011500  0.24998200  0.75000100  1
  V  V10  1  0.99998000  0.74994500  0.24997800  1
  V  V11  1  0.49978900  0.74981900  0.25005200  1
  O  O12  1  0.78545100  0.88370100  0.62807700  1
  O  O13  1  0.78501400  0.38292700  0.12779200  1
  O  O14  1  0.22633600  0.88369500  0.62809500  1
  O  O15  1  0.22565300  0.38289400  0.12778900  1
  O  O16  1  0.77370100  0.61633900  0.87189600  1
  O  O17  1  0.77434100  0.11709100  0.37220900  1
  O  O18  1  0.21457300  0.61633400  0.87191500  1
  O  O19  1  0.21500200  0.11710000  0.37219500  1
  O  O20  1  0.23125900  0.10721700  0.85530400  1
  O  O21  1  0.23116700  0.60734500  0.35505700  1
  O  O22  1  0.23095700  0.33563300  0.62624600  1
  O  O23  1  0.23080200  0.83519900  0.12638900  1
  O  O24  1  0.76878000  0.39282300  0.64468500  1
  O  O25  1  0.76877600  0.89265300  0.14495800  1
  O  O26  1  0.76906900  0.16438000  0.87375600  1
  O  O27  1  0.76921400  0.66480500  0.37361100  1
