# generated using pymatgen
data_LiAlSe2
_symmetry_space_group_name_H-M   'P 1'
_cell_length_a   6.61595700
_cell_length_b   6.91611200
_cell_length_c   8.36035700
_cell_angle_alpha   90.00000000
_cell_angle_beta   90.00000000
_cell_angle_gamma   90.00000000
_symmetry_Int_Tables_number   1
_chemical_formula_structural   LiAlSe2
_chemical_formula_sum   'Li4 Al4 Se8'
_cell_volume   382.54234379
_cell_formula_units_Z   4
loop_
 _symmetry_equiv_pos_site_id
 _symmetry_equiv_pos_as_xyz
  1  'x, y, z'
loop_
 _atom_site_type_symbol
 _atom_site_label
 _atom_site_symmetry_multiplicity
 _atom_site_fract_x
 _atom_site_fract_y
 _atom_site_fract_z
 _atom_site_occupancy
  Li  Li0  1  0.00320700  0.58785500  0.87838100  1
  Li  Li1  1  0.50320700  0.41214500  0.12161900  1
  Li  Li2  1  0.50320700  0.91214500  0.37838100  1
  Li  Li3  1  0.00320700  0.08785500  0.62161900  1
  Al  Al4  1  0.99979400  0.57309300  0.37399300  1
  Al  Al5  1  0.49979400  0.42690700  0.62600700  1
  Al  Al6  1  0.49979400  0.92690700  0.87399300  1
  Al  Al7  1  0.99979400  0.07309300  0.12600700  1
  Se  Se8  1  0.11305500  0.90588700  0.36349200  1
  Se  Se9  1  0.61305500  0.09411300  0.63650800  1
  Se  Se10  1  0.61305500  0.59411300  0.86349200  1
  Se  Se11  1  0.11305500  0.40588700  0.13650800  1
  Se  Se12  1  0.63374400  0.56340800  0.38340200  1
  Se  Se13  1  0.13374400  0.43659200  0.61659800  1
  Se  Se14  1  0.13374400  0.93659200  0.88340200  1
  Se  Se15  1  0.63374400  0.06340800  0.11659800  1
