# generated using pymatgen
data_BaAgAs
_symmetry_space_group_name_H-M   'P 1'
_cell_length_a   4.67276731
_cell_length_b   4.67276731
_cell_length_c   9.12037100
_cell_angle_alpha   90.00000000
_cell_angle_beta   90.00000000
_cell_angle_gamma   119.99999026
_symmetry_Int_Tables_number   1
_chemical_formula_structural   BaAgAs
_chemical_formula_sum   'Ba2 Ag2 As2'
_cell_volume   172.46123418
_cell_formula_units_Z   2
loop_
 _symmetry_equiv_pos_site_id
 _symmetry_equiv_pos_as_xyz
  1  'x, y, z'
loop_
 _atom_site_type_symbol
 _atom_site_label
 _atom_site_symmetry_multiplicity
 _atom_site_fract_x
 _atom_site_fract_y
 _atom_site_fract_z
 _atom_site_occupancy
  Ba  Ba0  1  0.00000000  0.00000000  0.50000000  1
  Ba  Ba1  1  0.00000000  0.00000000  0.00000000  1
  Ag  Ag2  1  0.33333300  0.66666700  0.75000000  1
  Ag  Ag3  1  0.66666700  0.33333300  0.25000000  1
  As  As4  1  0.66666700  0.33333300  0.75000000  1
  As  As5  1  0.33333300  0.66666700  0.25000000  1
