# generated using pymatgen
data_Y3Pt
_symmetry_space_group_name_H-M   'P 1'
_cell_length_a   6.53440800
_cell_length_b   7.08285800
_cell_length_c   9.65012500
_cell_angle_alpha   90.00000000
_cell_angle_beta   90.00000000
_cell_angle_gamma   90.00000000
_symmetry_Int_Tables_number   1
_chemical_formula_structural   Y3Pt
_chemical_formula_sum   'Y12 Pt4'
_cell_volume   446.62982567
_cell_formula_units_Z   4
loop_
 _symmetry_equiv_pos_site_id
 _symmetry_equiv_pos_as_xyz
  1  'x, y, z'
loop_
 _atom_site_type_symbol
 _atom_site_label
 _atom_site_symmetry_multiplicity
 _atom_site_fract_x
 _atom_site_fract_y
 _atom_site_fract_z
 _atom_site_occupancy
  Y  Y0  1  0.13182800  0.02668700  0.25000000  1
  Y  Y1  1  0.63182800  0.47331300  0.75000000  1
  Y  Y2  1  0.36817200  0.52668700  0.25000000  1
  Y  Y3  1  0.86817200  0.97331300  0.75000000  1
  Y  Y4  1  0.68027600  0.17969900  0.06177100  1
  Y  Y5  1  0.18027600  0.32030100  0.93822900  1
  Y  Y6  1  0.81972400  0.67969900  0.43822900  1
  Y  Y7  1  0.31972400  0.82030100  0.56177100  1
  Y  Y8  1  0.31972400  0.82030100  0.93822900  1
  Y  Y9  1  0.81972400  0.67969900  0.06177100  1
  Y  Y10  1  0.18027600  0.32030100  0.56177100  1
  Y  Y11  1  0.68027600  0.17969900  0.43822900  1
  Pt  Pt12  1  0.95113300  0.38877300  0.25000000  1
  Pt  Pt13  1  0.45113300  0.11122700  0.75000000  1
  Pt  Pt14  1  0.54886700  0.88877300  0.25000000  1
  Pt  Pt15  1  0.04886700  0.61122700  0.75000000  1
