# generated using pymatgen
data_Cs2WO4
_symmetry_space_group_name_H-M   'P 1'
_cell_length_a   7.62815396
_cell_length_b   7.62815396
_cell_length_c   8.44223969
_cell_angle_alpha   66.74721070
_cell_angle_beta   66.74721070
_cell_angle_gamma   52.11154707
_symmetry_Int_Tables_number   1
_chemical_formula_structural   Cs2WO4
_chemical_formula_sum   'Cs4 W2 O8'
_cell_volume   348.25160417
_cell_formula_units_Z   2
loop_
 _symmetry_equiv_pos_site_id
 _symmetry_equiv_pos_as_xyz
  1  'x, y, z'
loop_
 _atom_site_type_symbol
 _atom_site_label
 _atom_site_symmetry_multiplicity
 _atom_site_fract_x
 _atom_site_fract_y
 _atom_site_fract_z
 _atom_site_occupancy
  Cs  Cs0  1  0.48711400  0.48711400  0.23999700  1
  Cs  Cs1  1  0.84376100  0.84376100  0.74249600  1
  Cs  Cs2  1  0.15623900  0.15623900  0.25750400  1
  Cs  Cs3  1  0.51288600  0.51288600  0.76000300  1
  W  W4  1  0.82521500  0.82521500  0.22157000  1
  W  W5  1  0.17478500  0.17478500  0.77843000  1
  O  O6  1  0.90491600  0.90491600  0.34653800  1
  O  O7  1  0.32028100  0.32028100  0.63286700  1
  O  O8  1  0.92089200  0.36673200  0.91543000  1
  O  O9  1  0.36673200  0.92089200  0.91543000  1
  O  O10  1  0.07910800  0.63326800  0.08457000  1
  O  O11  1  0.63326800  0.07910800  0.08457000  1
  O  O12  1  0.67971900  0.67971900  0.36713300  1
  O  O13  1  0.09508400  0.09508400  0.65346200  1
