# generated using pymatgen
data_HfSiS
_symmetry_space_group_name_H-M   'P 1'
_cell_length_a   3.53210400
_cell_length_b   3.53210400
_cell_length_c   8.04325300
_cell_angle_alpha   90.00000000
_cell_angle_beta   90.00000000
_cell_angle_gamma   90.00000000
_symmetry_Int_Tables_number   1
_chemical_formula_structural   HfSiS
_chemical_formula_sum   'Hf2 Si2 S2'
_cell_volume   100.34568332
_cell_formula_units_Z   2
loop_
 _symmetry_equiv_pos_site_id
 _symmetry_equiv_pos_as_xyz
  1  'x, y, z'
loop_
 _atom_site_type_symbol
 _atom_site_label
 _atom_site_symmetry_multiplicity
 _atom_site_fract_x
 _atom_site_fract_y
 _atom_site_fract_z
 _atom_site_occupancy
  Hf  Hf0  1  0.00000000  0.50000000  0.73179900  1
  Hf  Hf1  1  0.50000000  0.00000000  0.26820100  1
  Si  Si2  1  0.00000000  0.00000000  0.00000000  1
  Si  Si3  1  0.50000000  0.50000000  0.00000000  1
  S  S4  1  0.50000000  0.00000000  0.62080200  1
  S  S5  1  0.00000000  0.50000000  0.37919800  1
