# generated using pymatgen
data_CdH3NO5
_symmetry_space_group_name_H-M   'P 1'
_cell_length_a   7.14149300
_cell_length_b   9.03622800
_cell_length_c   13.72254900
_cell_angle_alpha   90.00000000
_cell_angle_beta   90.00000000
_cell_angle_gamma   90.00000000
_symmetry_Int_Tables_number   1
_chemical_formula_structural   CdH3NO5
_chemical_formula_sum   'Cd8 H24 N8 O40'
_cell_volume   885.54571407
_cell_formula_units_Z   8
loop_
 _symmetry_equiv_pos_site_id
 _symmetry_equiv_pos_as_xyz
  1  'x, y, z'
loop_
 _atom_site_type_symbol
 _atom_site_label
 _atom_site_symmetry_multiplicity
 _atom_site_fract_x
 _atom_site_fract_y
 _atom_site_fract_z
 _atom_site_occupancy
  Cd  Cd0  1  0.64532200  0.49579800  0.74147100  1
  Cd  Cd1  1  0.35467800  0.00420200  0.24147100  1
  Cd  Cd2  1  0.85467800  0.99579800  0.25852900  1
  Cd  Cd3  1  0.14532200  0.50420200  0.75852900  1
  Cd  Cd4  1  0.35467800  0.50420200  0.25852900  1
  Cd  Cd5  1  0.64532200  0.99579800  0.75852900  1
  Cd  Cd6  1  0.14532200  0.00420200  0.74147100  1
  Cd  Cd7  1  0.85467800  0.49579800  0.24147100  1
  H  H8  1  0.38276400  0.60221400  0.59235600  1
  H  H9  1  0.61723600  0.89778600  0.09235600  1
  H  H10  1  0.11723600  0.10221400  0.40764400  1
  H  H11  1  0.88276400  0.39778600  0.90764400  1
  H  H12  1  0.61723600  0.39778600  0.40764400  1
  H  H13  1  0.38276400  0.10221400  0.90764400  1
  H  H14  1  0.88276400  0.89778600  0.59235600  1
  H  H15  1  0.11723600  0.60221400  0.09235600  1
  H  H16  1  0.39313700  0.72837100  0.67672100  1
  H  H17  1  0.60686300  0.77162900  0.17672100  1
  H  H18  1  0.10686300  0.22837100  0.32327900  1
  H  H19  1  0.89313700  0.27162900  0.82327900  1
  H  H20  1  0.60686300  0.27162900  0.32327900  1
  H  H21  1  0.39313700  0.22837100  0.82327900  1
  H  H22  1  0.89313700  0.77162900  0.67672100  1
  H  H23  1  0.10686300  0.72837100  0.17672100  1
  H  H24  1  0.40692200  0.40718000  0.89335400  1
  H  H25  1  0.59307800  0.09282000  0.39335400  1
  H  H26  1  0.09307800  0.90718000  0.10664600  1
  H  H27  1  0.90692200  0.59282000  0.60664600  1
  H  H28  1  0.59307800  0.59282000  0.10664600  1
  H  H29  1  0.40692200  0.90718000  0.60664600  1
  H  H30  1  0.90692200  0.09282000  0.89335400  1
  H  H31  1  0.09307800  0.40718000  0.39335400  1
  N  N32  1  0.63351600  0.74771200  0.91801900  1
  N  N33  1  0.36648400  0.75228800  0.41801900  1
  N  N34  1  0.86648400  0.24771200  0.08198100  1
  N  N35  1  0.13351600  0.25228800  0.58198100  1
  N  N36  1  0.36648400  0.25228800  0.08198100  1
  N  N37  1  0.63351600  0.24771200  0.58198100  1
  N  N38  1  0.13351600  0.75228800  0.91801900  1
  N  N39  1  0.86648400  0.74771200  0.41801900  1
  O  O40  1  0.61937200  0.87444500  0.95664600  1
  O  O41  1  0.38062800  0.62555500  0.45664600  1
  O  O42  1  0.88062800  0.37444500  0.04335400  1
  O  O43  1  0.11937200  0.12555500  0.54335400  1
  O  O44  1  0.38062800  0.12555500  0.04335400  1
  O  O45  1  0.61937200  0.37444500  0.54335400  1
  O  O46  1  0.11937200  0.62555500  0.95664600  1
  O  O47  1  0.88062800  0.87444500  0.45664600  1
  O  O48  1  0.62689000  0.62958100  0.96544800  1
  O  O49  1  0.37311000  0.87041900  0.46544800  1
  O  O50  1  0.87311000  0.12958100  0.03455200  1
  O  O51  1  0.12689000  0.37041900  0.53455200  1
  O  O52  1  0.37311000  0.37041900  0.03455200  1
  O  O53  1  0.62689000  0.12958100  0.53455200  1
  O  O54  1  0.12689000  0.87041900  0.96544800  1
  O  O55  1  0.87311000  0.62958100  0.46544800  1
  O  O56  1  0.65644400  0.74201500  0.82416400  1
  O  O57  1  0.34355600  0.75798500  0.32416400  1
  O  O58  1  0.84355600  0.24201500  0.17583600  1
  O  O59  1  0.15644400  0.25798500  0.67583600  1
  O  O60  1  0.34355600  0.25798500  0.17583600  1
  O  O61  1  0.65644400  0.24201500  0.67583600  1
  O  O62  1  0.15644400  0.75798500  0.82416400  1
  O  O63  1  0.84355600  0.74201500  0.32416400  1
  O  O64  1  0.38908200  0.61227900  0.66446900  1
  O  O65  1  0.61091800  0.88772100  0.16446900  1
  O  O66  1  0.11091800  0.11227900  0.33553100  1
  O  O67  1  0.88908200  0.38772100  0.83553100  1
  O  O68  1  0.61091800  0.38772100  0.33553100  1
  O  O69  1  0.38908200  0.11227900  0.83553100  1
  O  O70  1  0.88908200  0.88772100  0.66446900  1
  O  O71  1  0.11091800  0.61227900  0.16446900  1
  O  O72  1  0.39996400  0.39119400  0.82216900  1
  O  O73  1  0.60003600  0.10880600  0.32216900  1
  O  O74  1  0.10003600  0.89119400  0.17783100  1
  O  O75  1  0.89996400  0.60880600  0.67783100  1
  O  O76  1  0.60003600  0.60880600  0.17783100  1
  O  O77  1  0.39996400  0.89119400  0.67783100  1
  O  O78  1  0.89996400  0.10880600  0.82216900  1
  O  O79  1  0.10003600  0.39119400  0.32216900  1
