# generated using pymatgen
data_YNiH3SO7
_symmetry_space_group_name_H-M   'P 1'
_cell_length_a   6.97263500
_cell_length_b   7.36852000
_cell_length_c   10.37113500
_cell_angle_alpha   90.00000000
_cell_angle_beta   90.00000000
_cell_angle_gamma   90.00000000
_symmetry_Int_Tables_number   1
_chemical_formula_structural   YNiH3SO7
_chemical_formula_sum   'Y4 Ni4 H12 S4 O28'
_cell_volume   532.84817870
_cell_formula_units_Z   4
loop_
 _symmetry_equiv_pos_site_id
 _symmetry_equiv_pos_as_xyz
  1  'x, y, z'
loop_
 _atom_site_type_symbol
 _atom_site_label
 _atom_site_symmetry_multiplicity
 _atom_site_fract_x
 _atom_site_fract_y
 _atom_site_fract_z
 _atom_site_occupancy
  Y  Y0  1  0.23472700  0.25000000  0.80091500  1
  Y  Y1  1  0.73472700  0.25000000  0.69908500  1
  Y  Y2  1  0.76527300  0.75000000  0.19908500  1
  Y  Y3  1  0.26527300  0.75000000  0.30091500  1
  Ni  Ni4  1  0.00000000  0.00000000  0.00000000  1
  Ni  Ni5  1  0.50000000  0.50000000  0.50000000  1
  Ni  Ni6  1  0.00000000  0.50000000  0.00000000  1
  Ni  Ni7  1  0.50000000  0.00000000  0.50000000  1
  H  H8  1  0.23031500  0.25000000  0.07180200  1
  H  H9  1  0.73031500  0.25000000  0.42819800  1
  H  H10  1  0.76968500  0.75000000  0.92819800  1
  H  H11  1  0.26968500  0.75000000  0.57180200  1
  H  H12  1  0.97125300  0.95241900  0.76063200  1
  H  H13  1  0.47125300  0.54758100  0.73936800  1
  H  H14  1  0.02874700  0.45241900  0.23936800  1
  H  H15  1  0.52874700  0.04758100  0.26063200  1
  H  H16  1  0.02874700  0.04758100  0.23936800  1
  H  H17  1  0.52874700  0.45241900  0.26063200  1
  H  H18  1  0.97125300  0.54758100  0.76063200  1
  H  H19  1  0.47125300  0.95241900  0.73936800  1
  S  S20  1  0.62136500  0.25000000  0.05283000  1
  S  S21  1  0.12136500  0.25000000  0.44717000  1
  S  S22  1  0.37863500  0.75000000  0.94717000  1
  S  S23  1  0.87863500  0.75000000  0.55283000  1
  O  O24  1  0.55212800  0.25000000  0.91567300  1
  O  O25  1  0.05212800  0.25000000  0.58432700  1
  O  O26  1  0.44787200  0.75000000  0.08432700  1
  O  O27  1  0.94787200  0.75000000  0.41567300  1
  O  O28  1  0.45954600  0.25000000  0.14480200  1
  O  O29  1  0.95954600  0.25000000  0.35519800  1
  O  O30  1  0.54045400  0.75000000  0.85519800  1
  O  O31  1  0.04045400  0.75000000  0.64480200  1
  O  O32  1  0.26210000  0.91592400  0.92460600  1
  O  O33  1  0.76210000  0.58407600  0.57539400  1
  O  O34  1  0.73790000  0.41592400  0.07539400  1
  O  O35  1  0.23790000  0.08407600  0.42460600  1
  O  O36  1  0.73790000  0.08407600  0.07539400  1
  O  O37  1  0.23790000  0.41592400  0.42460600  1
  O  O38  1  0.26210000  0.58407600  0.92460600  1
  O  O39  1  0.76210000  0.91592400  0.57539400  1
  O  O40  1  0.12493100  0.25000000  0.00870600  1
  O  O41  1  0.62493100  0.25000000  0.49129400  1
  O  O42  1  0.87506900  0.75000000  0.99129400  1
  O  O43  1  0.37506900  0.75000000  0.50870600  1
  O  O44  1  0.95061500  0.06644400  0.80755800  1
  O  O45  1  0.45061500  0.43355600  0.69244200  1
  O  O46  1  0.04938500  0.56644400  0.19244200  1
  O  O47  1  0.54938500  0.93355600  0.30755800  1
  O  O48  1  0.04938500  0.93355600  0.19244200  1
  O  O49  1  0.54938500  0.56644400  0.30755800  1
  O  O50  1  0.95061500  0.43355600  0.80755800  1
  O  O51  1  0.45061500  0.06644400  0.69244200  1
