# generated using pymatgen
data_RbErO2
_symmetry_space_group_name_H-M   'P 1'
_cell_length_a   6.84885036
_cell_length_b   6.84885036
_cell_length_c   6.84885068
_cell_angle_alpha   29.38471134
_cell_angle_beta   29.38471134
_cell_angle_gamma   29.38470580
_symmetry_Int_Tables_number   1
_chemical_formula_structural   RbErO2
_chemical_formula_sum   'Rb1 Er1 O2'
_cell_volume   68.44926159
_cell_formula_units_Z   1
loop_
 _symmetry_equiv_pos_site_id
 _symmetry_equiv_pos_as_xyz
  1  'x, y, z'
loop_
 _atom_site_type_symbol
 _atom_site_label
 _atom_site_symmetry_multiplicity
 _atom_site_fract_x
 _atom_site_fract_y
 _atom_site_fract_z
 _atom_site_occupancy
  Rb  Rb0  1  0.00000000  0.00000000  0.00000000  1
  Er  Er1  1  0.50000000  0.50000000  0.50000000  1
  O  O2  1  0.77542300  0.77542300  0.77542300  1
  O  O3  1  0.22457700  0.22457700  0.22457700  1
