# generated using pymatgen
data_Sb2S19F12
_symmetry_space_group_name_H-M   'P 1'
_cell_length_a   13.66747700
_cell_length_b   14.83957500
_cell_length_c   15.91311694
_cell_angle_alpha   74.64195265
_cell_angle_beta   90.00000000
_cell_angle_gamma   90.00000000
_symmetry_Int_Tables_number   1
_chemical_formula_structural   Sb2S19F12
_chemical_formula_sum   'Sb8 S76 F48'
_cell_volume   3112.23618031
_cell_formula_units_Z   4
loop_
 _symmetry_equiv_pos_site_id
 _symmetry_equiv_pos_as_xyz
  1  'x, y, z'
loop_
 _atom_site_type_symbol
 _atom_site_label
 _atom_site_symmetry_multiplicity
 _atom_site_fract_x
 _atom_site_fract_y
 _atom_site_fract_z
 _atom_site_occupancy
  Sb  Sb0  1  0.28134600  0.02725100  0.59505900  1
  Sb  Sb1  1  0.78134600  0.97274900  0.90494100  1
  Sb  Sb2  1  0.71865400  0.97274900  0.40494100  1
  Sb  Sb3  1  0.21865400  0.02725100  0.09505900  1
  Sb  Sb4  1  0.25163900  0.47700900  0.52604100  1
  Sb  Sb5  1  0.75163900  0.52299100  0.97395900  1
  Sb  Sb6  1  0.74836100  0.52299100  0.47395900  1
  Sb  Sb7  1  0.24836100  0.47700900  0.02604100  1
  S  S8  1  0.08984100  0.59306500  0.77894500  1
  S  S9  1  0.58984100  0.40693500  0.72105500  1
  S  S10  1  0.91015900  0.40693500  0.22105500  1
  S  S11  1  0.41015900  0.59306500  0.27894500  1
  S  S12  1  0.98399400  0.57579300  0.70150300  1
  S  S13  1  0.48399400  0.42420700  0.79849700  1
  S  S14  1  0.01600600  0.42420700  0.29849700  1
  S  S15  1  0.51600600  0.57579300  0.20150300  1
  S  S16  1  0.00494600  0.67839900  0.58092700  1
  S  S17  1  0.50494600  0.32160100  0.91907300  1
  S  S18  1  0.99505400  0.32160100  0.41907300  1
  S  S19  1  0.49505400  0.67839900  0.08092700  1
  S  S20  1  0.89168400  0.76633600  0.58245000  1
  S  S21  1  0.39168400  0.23366400  0.91755000  1
  S  S22  1  0.10831600  0.23366400  0.41755000  1
  S  S23  1  0.60831600  0.76633600  0.08245000  1
  S  S24  1  0.93040300  0.84279200  0.67072300  1
  S  S25  1  0.43040300  0.15720800  0.82927700  1
  S  S26  1  0.06959700  0.15720800  0.32927700  1
  S  S27  1  0.56959700  0.84279200  0.17072300  1
  S  S28  1  0.89957100  0.75534400  0.78938900  1
  S  S29  1  0.39957100  0.24465600  0.71061100  1
  S  S30  1  0.10042900  0.24465600  0.21061100  1
  S  S31  1  0.60042900  0.75534400  0.28938900  1
  S  S32  1  0.03513100  0.70306200  0.84675400  1
  S  S33  1  0.53513100  0.29693800  0.65324600  1
  S  S34  1  0.96486900  0.29693800  0.15324600  1
  S  S35  1  0.46486900  0.70306200  0.34675400  1
  S  S36  1  0.13738800  0.80930100  0.79597400  1
  S  S37  1  0.63738800  0.19069900  0.70402600  1
  S  S38  1  0.86261200  0.19069900  0.20402600  1
  S  S39  1  0.36261200  0.80930100  0.29597400  1
  S  S40  1  0.16181700  0.86458300  0.89908800  1
  S  S41  1  0.66181700  0.13541700  0.60091200  1
  S  S42  1  0.83818300  0.13541700  0.10091200  1
  S  S43  1  0.33818300  0.86458300  0.39908800  1
  S  S44  1  0.28829900  0.80086200  0.95915900  1
  S  S45  1  0.78829900  0.19913800  0.54084100  1
  S  S46  1  0.71170100  0.19913800  0.04084100  1
  S  S47  1  0.21170100  0.80086200  0.45915900  1
  S  S48  1  0.89864300  0.10276800  0.57857100  1
  S  S49  1  0.39864300  0.89723200  0.92142900  1
  S  S50  1  0.10135700  0.89723200  0.42142900  1
  S  S51  1  0.60135700  0.10276800  0.07857100  1
  S  S52  1  0.45460400  0.88944700  0.80309500  1
  S  S53  1  0.95460400  0.11055300  0.69690500  1
  S  S54  1  0.54539600  0.11055300  0.19690500  1
  S  S55  1  0.04539600  0.88944700  0.30309500  1
  S  S56  1  0.55796600  0.78386200  0.84035700  1
  S  S57  1  0.05796600  0.21613800  0.65964300  1
  S  S58  1  0.44203400  0.21613800  0.15964300  1
  S  S59  1  0.94203400  0.78386200  0.34035700  1
  S  S60  1  0.65009200  0.83003300  0.71470100  1
  S  S61  1  0.15009200  0.16996700  0.78529900  1
  S  S62  1  0.34990800  0.16996700  0.28529900  1
  S  S63  1  0.84990800  0.83003300  0.21470100  1
  S  S64  1  0.63763500  0.72982400  0.65567500  1
  S  S65  1  0.13763500  0.27017600  0.84432500  1
  S  S66  1  0.36236500  0.27017600  0.34432500  1
  S  S67  1  0.86236500  0.72982400  0.15567500  1
  S  S68  1  0.51010700  0.76309500  0.57751000  1
  S  S69  1  0.01010700  0.23690500  0.92249000  1
  S  S70  1  0.48989300  0.23690500  0.42249000  1
  S  S71  1  0.98989300  0.76309500  0.07751000  1
  S  S72  1  0.41814900  0.65910900  0.63891700  1
  S  S73  1  0.91814900  0.34089100  0.86108300  1
  S  S74  1  0.58185100  0.34089100  0.36108300  1
  S  S75  1  0.08185100  0.65910900  0.13891700  1
  S  S76  1  0.37223000  0.69143700  0.75403500  1
  S  S77  1  0.87223000  0.30856300  0.74596500  1
  S  S78  1  0.62777000  0.30856300  0.24596500  1
  S  S79  1  0.12777000  0.69143700  0.25403500  1
  S  S80  1  0.98525200  0.34356700  0.66197800  1
  S  S81  1  0.48525200  0.65643300  0.83802200  1
  S  S82  1  0.01474800  0.65643300  0.33802200  1
  S  S83  1  0.51474800  0.34356700  0.16197800  1
  F  F84  1  0.26331700  0.15970700  0.57542900  1
  F  F85  1  0.76331700  0.84029300  0.92457100  1
  F  F86  1  0.73668300  0.84029300  0.42457100  1
  F  F87  1  0.23668300  0.15970700  0.07542900  1
  F  F88  1  0.14145700  0.01118900  0.59050500  1
  F  F89  1  0.64145700  0.98881100  0.90949500  1
  F  F90  1  0.85854300  0.98881100  0.40949500  1
  F  F91  1  0.35854300  0.01118900  0.09050500  1
  F  F92  1  0.27175400  0.01179400  0.71916500  1
  F  F93  1  0.77175400  0.98820600  0.78083500  1
  F  F94  1  0.72824600  0.98820600  0.28083500  1
  F  F95  1  0.22824600  0.01179400  0.21916500  1
  F  F96  1  0.28852300  0.04283100  0.47091000  1
  F  F97  1  0.78852300  0.95716900  0.02909000  1
  F  F98  1  0.71147700  0.95716900  0.52909000  1
  F  F99  1  0.21147700  0.04283100  0.97091000  1
  F  F100  1  0.42042200  0.04413400  0.60089100  1
  F  F101  1  0.92042200  0.95586600  0.89910900  1
  F  F102  1  0.57957800  0.95586600  0.39910900  1
  F  F103  1  0.07957800  0.04413400  0.10089100  1
  F  F104  1  0.29896400  0.89450100  0.61593400  1
  F  F105  1  0.79896400  0.10549900  0.88406600  1
  F  F106  1  0.70103600  0.10549900  0.38406600  1
  F  F107  1  0.20103600  0.89450100  0.11593400  1
  F  F108  1  0.20247200  0.35787900  0.59397400  1
  F  F109  1  0.70247200  0.64212100  0.90602600  1
  F  F110  1  0.79752800  0.64212100  0.40602600  1
  F  F111  1  0.29752800  0.35787900  0.09397400  1
  F  F112  1  0.30524100  0.59488500  0.45913300  1
  F  F113  1  0.80524100  0.40511500  0.04086700  1
  F  F114  1  0.69475900  0.40511500  0.54086700  1
  F  F115  1  0.19475900  0.59488500  0.95913300  1
  F  F116  1  0.38110200  0.43785900  0.56844300  1
  F  F117  1  0.88110200  0.56214100  0.93155700  1
  F  F118  1  0.61889800  0.56214100  0.43155700  1
  F  F119  1  0.11889800  0.43785900  0.06844300  1
  F  F120  1  0.23069200  0.52933700  0.62317500  1
  F  F121  1  0.73069200  0.47066300  0.87682500  1
  F  F122  1  0.76930800  0.47066300  0.37682500  1
  F  F123  1  0.26930800  0.52933700  0.12317500  1
  F  F124  1  0.27104700  0.42724800  0.42764400  1
  F  F125  1  0.77104700  0.57275200  0.07235600  1
  F  F126  1  0.72895300  0.57275200  0.57235600  1
  F  F127  1  0.22895300  0.42724800  0.92764400  1
  F  F128  1  0.12153500  0.51458100  0.48548500  1
  F  F129  1  0.62153500  0.48541900  0.01451500  1
  F  F130  1  0.87846500  0.48541900  0.51451500  1
  F  F131  1  0.37846500  0.51458100  0.98548500  1
