# generated using pymatgen
data_Ta9PO25
_symmetry_space_group_name_H-M   'P 1'
_cell_length_a   11.29572313
_cell_length_b   11.29572313
_cell_length_c   11.29572313
_cell_angle_alpha   91.68986390
_cell_angle_beta   91.68986390
_cell_angle_gamma   160.22376242
_symmetry_Int_Tables_number   1
_chemical_formula_structural   Ta9PO25
_chemical_formula_sum   'Ta9 P1 O25'
_cell_volume   480.40271621
_cell_formula_units_Z   1
loop_
 _symmetry_equiv_pos_site_id
 _symmetry_equiv_pos_as_xyz
  1  'x, y, z'
loop_
 _atom_site_type_symbol
 _atom_site_label
 _atom_site_symmetry_multiplicity
 _atom_site_fract_x
 _atom_site_fract_y
 _atom_site_fract_z
 _atom_site_occupancy
  Ta  Ta0  1  0.00000000  0.00000000  0.00000000  1
  Ta  Ta1  1  0.10636500  0.77971500  0.88496100  1
  Ta  Ta2  1  0.88783800  0.67601600  0.55575000  1
  Ta  Ta3  1  0.66791200  0.11216200  0.78817800  1
  Ta  Ta4  1  0.22028500  0.10524500  0.32665000  1
  Ta  Ta5  1  0.77859500  0.89363500  0.67335000  1
  Ta  Ta6  1  0.32398400  0.87973400  0.21182200  1
  Ta  Ta7  1  0.12026600  0.33208800  0.44425000  1
  Ta  Ta8  1  0.89475500  0.22140500  0.11503900  1
  P  P9  1  0.75000000  0.25000000  0.50000000  1
  O  O10  1  0.50000000  0.50000000  0.00000000  1
  O  O11  1  0.04940400  0.88124700  0.93493000  1
  O  O12  1  0.82308500  0.77860500  0.60679000  1
  O  O13  1  0.61453900  0.24808600  0.85967400  1
  O  O14  1  0.99437800  0.72346500  0.70980900  1
  O  O15  1  0.78370500  0.17691500  0.95552100  1
  O  O16  1  0.35114900  0.15290100  0.51070000  1
  O  O17  1  0.15955200  0.64885100  0.80175200  1
  O  O18  1  0.75191400  0.61158800  0.36645300  1
  O  O19  1  0.58472300  0.09647000  0.61656900  1
  O  O20  1  0.90353000  0.52009900  0.48825300  1
  O  O21  1  0.11875300  0.05368200  0.16815700  1
  O  O22  1  0.71543200  0.00562200  0.72908800  1
  O  O23  1  0.27653500  0.98634400  0.27091200  1
  O  O24  1  0.88552500  0.95059600  0.83184300  1
  O  O25  1  0.03184600  0.41527700  0.51174700  1
  O  O26  1  0.47990100  0.96815400  0.38343100  1
  O  O27  1  0.24513400  0.38546100  0.63354700  1
  O  O28  1  0.84709900  0.35779900  0.19824800  1
  O  O29  1  0.64220100  0.84044800  0.48930000  1
  O  O30  1  0.22139500  0.82818500  0.04447900  1
  O  O31  1  0.01365600  0.28456800  0.29019100  1
  O  O32  1  0.38841200  0.75486600  0.14032600  1
  O  O33  1  0.17181500  0.21629500  0.39321000  1
  O  O34  1  0.94631800  0.11447500  0.06507000  1
