# generated using pymatgen
data_YBr3
_symmetry_space_group_name_H-M   'P 1'
_cell_length_a   7.25579870
_cell_length_b   7.25579870
_cell_length_c   7.29921559
_cell_angle_alpha   80.11525288
_cell_angle_beta   80.11525288
_cell_angle_gamma   119.76103971
_symmetry_Int_Tables_number   1
_chemical_formula_structural   YBr3
_chemical_formula_sum   'Y2 Br6'
_cell_volume   313.46609500
_cell_formula_units_Z   2
loop_
 _symmetry_equiv_pos_site_id
 _symmetry_equiv_pos_as_xyz
  1  'x, y, z'
loop_
 _atom_site_type_symbol
 _atom_site_label
 _atom_site_symmetry_multiplicity
 _atom_site_fract_x
 _atom_site_fract_y
 _atom_site_fract_z
 _atom_site_occupancy
  Y  Y0  1  0.83321800  0.16678200  0.00000000  1
  Y  Y1  1  0.16678200  0.83321800  0.00000000  1
  Br  Br2  1  0.94139000  0.57998400  0.76764100  1
  Br  Br3  1  0.57998400  0.94139000  0.76764100  1
  Br  Br4  1  0.78928100  0.78928100  0.23924500  1
  Br  Br5  1  0.21071900  0.21071900  0.76075500  1
  Br  Br6  1  0.42001600  0.05861000  0.23235900  1
  Br  Br7  1  0.05861000  0.42001600  0.23235900  1
