# generated using pymatgen
data_Ti3P6WO24
_symmetry_space_group_name_H-M   'P 1'
_cell_length_a   8.85457136
_cell_length_b   8.85457136
_cell_length_c   8.85457098
_cell_angle_alpha   58.49690495
_cell_angle_beta   58.49690495
_cell_angle_gamma   58.49690517
_symmetry_Int_Tables_number   1
_chemical_formula_structural   Ti3P6WO24
_chemical_formula_sum   'Ti3 P6 W1 O24'
_cell_volume   474.01439472
_cell_formula_units_Z   1
loop_
 _symmetry_equiv_pos_site_id
 _symmetry_equiv_pos_as_xyz
  1  'x, y, z'
loop_
 _atom_site_type_symbol
 _atom_site_label
 _atom_site_symmetry_multiplicity
 _atom_site_fract_x
 _atom_site_fract_y
 _atom_site_fract_z
 _atom_site_occupancy
  Ti  Ti0  1  0.14069200  0.14069200  0.14069200  1
  Ti  Ti1  1  0.36013800  0.36013800  0.36013800  1
  Ti  Ti2  1  0.64094500  0.64094500  0.64094500  1
  P  P3  1  0.03480000  0.46164000  0.74888400  1
  P  P4  1  0.46164000  0.74888400  0.03480000  1
  P  P5  1  0.74888400  0.03480000  0.46164000  1
  P  P6  1  0.25559000  0.96735800  0.52855500  1
  P  P7  1  0.52855500  0.25559000  0.96735800  1
  P  P8  1  0.96735800  0.52855500  0.25559000  1
  W  W9  1  0.85871800  0.85871800  0.85871800  1
  O  O10  1  0.13847800  0.50775100  0.27600400  1
  O  O11  1  0.27600400  0.13847800  0.50775100  1
  O  O12  1  0.06207300  0.28812500  0.92382100  1
  O  O13  1  0.50775100  0.27600400  0.13847800  1
  O  O14  1  0.21374800  0.44178600  0.57616600  1
  O  O15  1  0.00002300  0.63859200  0.78194100  1
  O  O16  1  0.28812500  0.92382100  0.06207300  1
  O  O17  1  0.44178600  0.57616600  0.21374800  1
  O  O18  1  0.57616600  0.21374800  0.44178600  1
  O  O19  1  0.21755500  0.99599500  0.36464900  1
  O  O20  1  0.07578100  0.93545800  0.71317400  1
  O  O21  1  0.36464900  0.21755500  0.99599500  1
  O  O22  1  0.63859200  0.78194100  0.00002300  1
  O  O23  1  0.92382100  0.06207300  0.28812500  1
  O  O24  1  0.78194100  0.00002300  0.63859200  1
  O  O25  1  0.42088900  0.78525500  0.56566500  1
  O  O26  1  0.56566500  0.42088900  0.78525500  1
  O  O27  1  0.71317400  0.07578100  0.93545800  1
  O  O28  1  0.99599500  0.36464900  0.21755500  1
  O  O29  1  0.78525500  0.56566500  0.42088900  1
  O  O30  1  0.49724700  0.72007800  0.86242500  1
  O  O31  1  0.93545800  0.71317400  0.07578100  1
  O  O32  1  0.72007800  0.86242500  0.49724700  1
  O  O33  1  0.86242500  0.49724700  0.72007800  1
