# generated using pymatgen
data_Sr28In11
_symmetry_space_group_name_H-M   'P 1'
_cell_length_a   5.85696614
_cell_length_b   8.30861275
_cell_length_c   33.99467727
_cell_angle_alpha   97.01935272
_cell_angle_beta   94.94189389
_cell_angle_gamma   90.00000040
_symmetry_Int_Tables_number   1
_chemical_formula_structural   Sr28In11
_chemical_formula_sum   'Sr28 In11'
_cell_volume   1635.69658262
_cell_formula_units_Z   1
loop_
 _symmetry_equiv_pos_site_id
 _symmetry_equiv_pos_as_xyz
  1  'x, y, z'
loop_
 _atom_site_type_symbol
 _atom_site_label
 _atom_site_symmetry_multiplicity
 _atom_site_fract_x
 _atom_site_fract_y
 _atom_site_fract_z
 _atom_site_occupancy
  Sr  Sr0  1  0.82368099  0.65416267  0.64736197  1
  Sr  Sr1  1  0.23756738  0.98455223  0.47513476  1
  Sr  Sr2  1  0.22444303  0.43883745  0.44888607  1
  Sr  Sr3  1  0.86316915  0.07169335  0.72633831  1
  Sr  Sr4  1  0.13683085  0.34535504  0.27366169  1
  Sr  Sr5  1  0.59597725  0.25527511  0.19195450  1
  Sr  Sr6  1  0.35343006  0.38428431  0.70686011  1
  Sr  Sr7  1  0.29371795  0.36133659  0.58743590  1
  Sr  Sr8  1  0.76243262  0.50941747  0.52486524  1
  Sr  Sr9  1  0.95634613  0.57812522  0.91269227  1
  Sr  Sr10  1  0.77555697  0.98995138  0.55111393  1
  Sr  Sr11  1  0.58310323  0.71719115  0.16620646  1
  Sr  Sr12  1  0.70628205  0.77390069  0.41256410  1
  Sr  Sr13  1  0.68201463  0.32968450  0.36402926  1
  Sr  Sr14  1  0.94028816  0.01423387  0.88057631  1
  Sr  Sr15  1  0.31798537  0.96565524  0.63597074  1
  Sr  Sr16  1  0.11706246  0.88857163  0.23412492  1
  Sr  Sr17  1  0.05971184  0.13365756  0.11942369  1
  Sr  Sr18  1  0.50000000  0.68596195  0.00000000  1
  Sr  Sr19  1  1.00000000  0.00256504  0.00000000  1
  Sr  Sr20  1  0.04365387  0.66543295  0.08730773  1
  Sr  Sr21  1  0.46987825  0.25858642  0.93975650  1
  Sr  Sr22  1  0.53012175  0.31882992  0.06024350  1
  Sr  Sr23  1  0.17631901  0.00680069  0.35263803  1
  Sr  Sr24  1  0.64656994  0.67742420  0.29313989  1
  Sr  Sr25  1  0.88293754  0.65444672  0.76587508  1
  Sr  Sr26  1  0.40402275  0.06332061  0.80804550  1
  Sr  Sr27  1  0.41689677  0.55098469  0.83379354  1
  In  In28  1  0.09083321  0.49892627  0.18166643  1
  In  In29  1  1.00000000  0.41043919  0.00000000  1
  In  In30  1  0.27318502  0.72438881  0.54637005  1
  In  In31  1  0.36089615  0.79607648  0.72179230  1
  In  In32  1  0.63910385  0.07428418  0.27820770  1
  In  In33  1  0.90916679  0.31725984  0.81833357  1
  In  In34  1  0.72681498  0.17801876  0.45362995  1
  In  In35  1  0.18010779  0.60386002  0.36021557  1
  In  In36  1  0.54323351  0.93521519  0.08646702  1
  In  In37  1  0.45676649  0.84874817  0.91353298  1
  In  In38  1  0.81989221  0.24364445  0.63978443  1
