# generated using pymatgen
data_Lu3Sb5O12
_symmetry_space_group_name_H-M   'P 1'
_cell_length_a   9.32604224
_cell_length_b   9.32604224
_cell_length_c   9.32604224
_cell_angle_alpha   109.47122063
_cell_angle_beta   109.47122063
_cell_angle_gamma   109.47122063
_symmetry_Int_Tables_number   1
_chemical_formula_structural   Lu3Sb5O12
_chemical_formula_sum   'Lu6 Sb10 O24'
_cell_volume   624.41056724
_cell_formula_units_Z   2
loop_
 _symmetry_equiv_pos_site_id
 _symmetry_equiv_pos_as_xyz
  1  'x, y, z'
loop_
 _atom_site_type_symbol
 _atom_site_label
 _atom_site_symmetry_multiplicity
 _atom_site_fract_x
 _atom_site_fract_y
 _atom_site_fract_z
 _atom_site_occupancy
  Lu  Lu0  1  0.75000000  0.25000000  0.50000000  1
  Lu  Lu1  1  0.75000000  0.50000000  0.25000000  1
  Lu  Lu2  1  0.50000000  0.25000000  0.75000000  1
  Lu  Lu3  1  0.50000000  0.75000000  0.25000000  1
  Lu  Lu4  1  0.25000000  0.75000000  0.50000000  1
  Lu  Lu5  1  0.25000000  0.50000000  0.75000000  1
  Sb  Sb6  1  0.51976600  0.00000000  0.00000000  1
  Sb  Sb7  1  0.28511800  0.00000000  0.28511800  1
  Sb  Sb8  1  0.28511800  0.28511800  0.00000000  1
  Sb  Sb9  1  0.71488200  0.00000000  0.71488200  1
  Sb  Sb10  1  0.71488200  0.71488200  0.00000000  1
  Sb  Sb11  1  0.00000000  0.51976600  0.00000000  1
  Sb  Sb12  1  0.00000000  0.00000000  0.51976600  1
  Sb  Sb13  1  0.48023400  0.48023400  0.48023400  1
  Sb  Sb14  1  0.00000000  0.28511800  0.28511800  1
  Sb  Sb15  1  0.00000000  0.71488200  0.71488200  1
  O  O16  1  0.48393300  0.00000000  0.20422100  1
  O  O17  1  0.48393300  0.20422100  0.00000000  1
  O  O18  1  0.70146200  0.49735900  0.00000000  1
  O  O19  1  0.70146200  0.00000000  0.49735900  1
  O  O20  1  0.79589700  0.29853800  0.29853800  1
  O  O21  1  0.50264100  0.50264100  0.20410300  1
  O  O22  1  0.50264100  0.20410300  0.50264100  1
  O  O23  1  0.49735900  0.70146200  0.00000000  1
  O  O24  1  0.49735900  0.00000000  0.70146200  1
  O  O25  1  0.72028800  0.51606700  0.51606700  1
  O  O26  1  0.79577900  0.27971200  0.79577900  1
  O  O27  1  0.79577900  0.79577900  0.27971200  1
  O  O28  1  0.20422100  0.48393300  0.00000000  1
  O  O29  1  0.20422100  0.00000000  0.48393300  1
  O  O30  1  0.51606700  0.72028800  0.51606700  1
  O  O31  1  0.51606700  0.51606700  0.72028800  1
  O  O32  1  0.00000000  0.48393300  0.20422100  1
  O  O33  1  0.00000000  0.20422100  0.48393300  1
  O  O34  1  0.29853800  0.79589700  0.29853800  1
  O  O35  1  0.29853800  0.29853800  0.79589700  1
  O  O36  1  0.20410300  0.50264100  0.50264100  1
  O  O37  1  0.00000000  0.70146200  0.49735900  1
  O  O38  1  0.00000000  0.49735900  0.70146200  1
  O  O39  1  0.27971200  0.79577900  0.79577900  1
