# generated using pymatgen
data_La3Si2BO10
_symmetry_space_group_name_H-M   'P 1'
_cell_length_a   7.30641700
_cell_length_b   10.01401100
_cell_length_c   23.53053800
_cell_angle_alpha   90.00000000
_cell_angle_beta   90.00000000
_cell_angle_gamma   90.00000000
_symmetry_Int_Tables_number   1
_chemical_formula_structural   La3Si2BO10
_chemical_formula_sum   'La24 Si16 B8 O80'
_cell_volume   1721.64805471
_cell_formula_units_Z   8
loop_
 _symmetry_equiv_pos_site_id
 _symmetry_equiv_pos_as_xyz
  1  'x, y, z'
loop_
 _atom_site_type_symbol
 _atom_site_label
 _atom_site_symmetry_multiplicity
 _atom_site_fract_x
 _atom_site_fract_y
 _atom_site_fract_z
 _atom_site_occupancy
  La  La0  1  0.63980500  0.99071700  0.42812300  1
  La  La1  1  0.86019500  0.99071700  0.92812300  1
  La  La2  1  0.17365900  0.86597500  0.33717800  1
  La  La3  1  0.32634100  0.86597500  0.83717800  1
  La  La4  1  0.59326200  0.76690100  0.68271100  1
  La  La5  1  0.90673800  0.76690100  0.18271100  1
  La  La6  1  0.09326200  0.73309900  0.68271100  1
  La  La7  1  0.40673800  0.73309900  0.18271100  1
  La  La8  1  0.67365900  0.63402500  0.33717800  1
  La  La9  1  0.82634100  0.63402500  0.83717800  1
  La  La10  1  0.36019500  0.50928300  0.92812300  1
  La  La11  1  0.13980500  0.50928300  0.42812300  1
  La  La12  1  0.63980500  0.49071700  0.07187700  1
  La  La13  1  0.86019500  0.49071700  0.57187700  1
  La  La14  1  0.17365900  0.36597500  0.16282200  1
  La  La15  1  0.32634100  0.36597500  0.66282200  1
  La  La16  1  0.59326200  0.26690100  0.81728900  1
  La  La17  1  0.90673800  0.26690100  0.31728900  1
  La  La18  1  0.09326200  0.23309900  0.81728900  1
  La  La19  1  0.40673800  0.23309900  0.31728900  1
  La  La20  1  0.67365900  0.13402500  0.16282200  1
  La  La21  1  0.82634100  0.13402500  0.66282200  1
  La  La22  1  0.36019500  0.00928300  0.57187700  1
  La  La23  1  0.13980500  0.00928300  0.07187700  1
  Si  Si24  1  0.68342300  0.93871600  0.27933000  1
  Si  Si25  1  0.81657700  0.93871600  0.77933000  1
  Si  Si26  1  0.64484100  0.87510900  0.07849700  1
  Si  Si27  1  0.85515900  0.87510900  0.57849700  1
  Si  Si28  1  0.14484100  0.62489100  0.07849700  1
  Si  Si29  1  0.35515900  0.62489100  0.57849700  1
  Si  Si30  1  0.18342300  0.56128400  0.27933000  1
  Si  Si31  1  0.31657700  0.56128400  0.77933000  1
  Si  Si32  1  0.68342300  0.43871600  0.22067000  1
  Si  Si33  1  0.81657700  0.43871600  0.72067000  1
  Si  Si34  1  0.85515900  0.37510900  0.92150300  1
  Si  Si35  1  0.64484100  0.37510900  0.42150300  1
  Si  Si36  1  0.14484100  0.12489100  0.42150300  1
  Si  Si37  1  0.35515900  0.12489100  0.92150300  1
  Si  Si38  1  0.18342300  0.06128400  0.22067000  1
  Si  Si39  1  0.31657700  0.06128400  0.72067000  1
  B  B40  1  0.15477200  0.75593400  0.97234400  1
  B  B41  1  0.34522800  0.75593400  0.47234400  1
  B  B42  1  0.84522800  0.74406600  0.47234400  1
  B  B43  1  0.65477200  0.74406600  0.97234400  1
  B  B44  1  0.34522800  0.25593400  0.02765600  1
  B  B45  1  0.15477200  0.25593400  0.52765600  1
  B  B46  1  0.84522800  0.24406600  0.02765600  1
  B  B47  1  0.65477200  0.24406600  0.52765600  1
  O  O48  1  0.46631400  0.95978200  0.09926500  1
  O  O49  1  0.03368600  0.95978200  0.59926500  1
  O  O50  1  0.82475700  0.95050200  0.10541800  1
  O  O51  1  0.67524300  0.95050200  0.60541800  1
  O  O52  1  0.63135800  0.90221800  0.21250700  1
  O  O53  1  0.86864200  0.90221800  0.71250700  1
  O  O54  1  0.20264300  0.89703100  0.22125700  1
  O  O55  1  0.29735700  0.89703100  0.72125700  1
  O  O56  1  0.53434000  0.89207700  0.32725200  1
  O  O57  1  0.96566000  0.89207700  0.82725200  1
  O  O58  1  0.42241200  0.87063500  0.49129500  1
  O  O59  1  0.07758800  0.87063500  0.99129500  1
  O  O60  1  0.66352400  0.85938200  0.00824400  1
  O  O61  1  0.83647600  0.85938200  0.50824400  1
  O  O62  1  0.86837800  0.84791500  0.29007700  1
  O  O63  1  0.63162200  0.84791500  0.79007700  1
  O  O64  1  0.14737100  0.77318400  0.10965400  1
  O  O65  1  0.35262900  0.77318400  0.60965400  1
  O  O66  1  0.77129100  0.76165700  0.41922600  1
  O  O67  1  0.72870900  0.76165700  0.91922600  1
  O  O68  1  0.27129100  0.73834300  0.41922600  1
  O  O69  1  0.22870900  0.73834300  0.91922600  1
  O  O70  1  0.64737100  0.72681600  0.10965400  1
  O  O71  1  0.85262900  0.72681600  0.60965400  1
  O  O72  1  0.36837800  0.65208500  0.29007700  1
  O  O73  1  0.13162200  0.65208500  0.79007700  1
  O  O74  1  0.16352400  0.64061800  0.00824400  1
  O  O75  1  0.33647600  0.64061800  0.50824400  1
  O  O76  1  0.92241200  0.62936500  0.49129500  1
  O  O77  1  0.57758800  0.62936500  0.99129500  1
  O  O78  1  0.03434000  0.60792300  0.32725200  1
  O  O79  1  0.46566000  0.60792300  0.82725200  1
  O  O80  1  0.70264300  0.60296900  0.22125700  1
  O  O81  1  0.79735700  0.60296900  0.72125700  1
  O  O82  1  0.13135800  0.59778200  0.21250700  1
  O  O83  1  0.36864200  0.59778200  0.71250700  1
  O  O84  1  0.32475700  0.54949800  0.10541800  1
  O  O85  1  0.17524300  0.54949800  0.60541800  1
  O  O86  1  0.96631400  0.54021800  0.09926500  1
  O  O87  1  0.53368600  0.54021800  0.59926500  1
  O  O88  1  0.46631400  0.45978200  0.40073500  1
  O  O89  1  0.03368600  0.45978200  0.90073500  1
  O  O90  1  0.82475700  0.45050200  0.39458200  1
  O  O91  1  0.67524300  0.45050200  0.89458200  1
  O  O92  1  0.63135800  0.40221800  0.28749300  1
  O  O93  1  0.86864200  0.40221800  0.78749300  1
  O  O94  1  0.20264300  0.39703100  0.27874300  1
  O  O95  1  0.29735700  0.39703100  0.77874300  1
  O  O96  1  0.53434000  0.39207700  0.17274800  1
  O  O97  1  0.96566000  0.39207700  0.67274800  1
  O  O98  1  0.42241200  0.37063500  0.00870500  1
  O  O99  1  0.07758800  0.37063500  0.50870500  1
  O  O100  1  0.66352400  0.35938200  0.49175600  1
  O  O101  1  0.83647600  0.35938200  0.99175600  1
  O  O102  1  0.86837800  0.34791500  0.20992300  1
  O  O103  1  0.63162200  0.34791500  0.70992300  1
  O  O104  1  0.35262900  0.27318400  0.89034600  1
  O  O105  1  0.14737100  0.27318400  0.39034600  1
  O  O106  1  0.77129100  0.26165700  0.08077400  1
  O  O107  1  0.72870900  0.26165700  0.58077400  1
  O  O108  1  0.27129100  0.23834300  0.08077400  1
  O  O109  1  0.22870900  0.23834300  0.58077400  1
  O  O110  1  0.85262900  0.22681600  0.89034600  1
  O  O111  1  0.64737100  0.22681600  0.39034600  1
  O  O112  1  0.36837800  0.15208500  0.20992300  1
  O  O113  1  0.13162200  0.15208500  0.70992300  1
  O  O114  1  0.16352400  0.14061800  0.49175600  1
  O  O115  1  0.33647600  0.14061800  0.99175600  1
  O  O116  1  0.92241200  0.12936500  0.00870500  1
  O  O117  1  0.57758800  0.12936500  0.50870500  1
  O  O118  1  0.03434000  0.10792300  0.17274800  1
  O  O119  1  0.46566000  0.10792300  0.67274800  1
  O  O120  1  0.70264300  0.10296900  0.27874300  1
  O  O121  1  0.79735700  0.10296900  0.77874300  1
  O  O122  1  0.13135800  0.09778200  0.28749300  1
  O  O123  1  0.36864200  0.09778200  0.78749300  1
  O  O124  1  0.32475700  0.04949800  0.39458200  1
  O  O125  1  0.17524300  0.04949800  0.89458200  1
  O  O126  1  0.96631400  0.04021800  0.40073500  1
  O  O127  1  0.53368600  0.04021800  0.90073500  1
