# generated using pymatgen
data_Tm2FeC4
_symmetry_space_group_name_H-M   'P 1'
_cell_length_a   6.49927350
_cell_length_b   6.49927350
_cell_length_c   6.49927350
_cell_angle_alpha   135.02521455
_cell_angle_beta   110.06669221
_cell_angle_gamma   87.10351867
_symmetry_Int_Tables_number   1
_chemical_formula_structural   Tm2FeC4
_chemical_formula_sum   'Tm4 Fe2 C8'
_cell_volume   174.45482195
_cell_formula_units_Z   2
loop_
 _symmetry_equiv_pos_site_id
 _symmetry_equiv_pos_as_xyz
  1  'x, y, z'
loop_
 _atom_site_type_symbol
 _atom_site_label
 _atom_site_symmetry_multiplicity
 _atom_site_fract_x
 _atom_site_fract_y
 _atom_site_fract_z
 _atom_site_occupancy
  Tm  Tm0  1  0.79963800  0.14470600  0.65493200  1
  Tm  Tm1  1  0.20036200  0.85529400  0.34506800  1
  Tm  Tm2  1  0.51022700  0.35529400  0.15493200  1
  Tm  Tm3  1  0.48977300  0.64470600  0.84506800  1
  Fe  Fe4  1  0.00000000  0.75000000  0.75000000  1
  Fe  Fe5  1  0.00000000  0.25000000  0.25000000  1
  C  C6  1  0.08863600  0.42179600  0.66684000  1
  C  C7  1  0.91136400  0.57820400  0.33316000  1
  C  C8  1  0.24504300  0.07820400  0.16684000  1
  C  C9  1  0.75495700  0.92179600  0.83316000  1
  C  C10  1  0.20980800  0.37010000  0.83970800  1
  C  C11  1  0.79019200  0.62990000  0.16029200  1
  C  C12  1  0.53039200  0.87010000  0.66029200  1
  C  C13  1  0.46960800  0.12990000  0.33970800  1
