# generated using pymatgen
data_ZnCrO4
_symmetry_space_group_name_H-M   'P 1'
_cell_length_a   5.06760030
_cell_length_b   5.06760030
_cell_length_c   6.39011900
_cell_angle_alpha   90.00000000
_cell_angle_beta   90.00000000
_cell_angle_gamma   113.04327441
_symmetry_Int_Tables_number   1
_chemical_formula_structural   ZnCrO4
_chemical_formula_sum   'Zn2 Cr2 O8'
_cell_volume   151.00813884
_cell_formula_units_Z   2
loop_
 _symmetry_equiv_pos_site_id
 _symmetry_equiv_pos_as_xyz
  1  'x, y, z'
loop_
 _atom_site_type_symbol
 _atom_site_label
 _atom_site_symmetry_multiplicity
 _atom_site_fract_x
 _atom_site_fract_y
 _atom_site_fract_z
 _atom_site_occupancy
  Zn  Zn0  1  0.00000000  0.00000000  0.00000000  1
  Zn  Zn1  1  0.00000000  0.00000000  0.50000000  1
  Cr  Cr2  1  0.64185100  0.35814900  0.25000000  1
  Cr  Cr3  1  0.35814900  0.64185100  0.75000000  1
  O  O4  1  0.21991400  0.27502100  0.75000000  1
  O  O5  1  0.27502100  0.21991400  0.25000000  1
  O  O6  1  0.24558100  0.75441900  0.54168200  1
  O  O7  1  0.75441900  0.24558100  0.04168200  1
  O  O8  1  0.24558100  0.75441900  0.95831800  1
  O  O9  1  0.75441900  0.24558100  0.45831800  1
  O  O10  1  0.78008600  0.72497900  0.25000000  1
  O  O11  1  0.72497900  0.78008600  0.75000000  1
