# generated using pymatgen
data_K2Se3
_symmetry_space_group_name_H-M   'P 1'
_cell_length_a   6.60585999
_cell_length_b   6.60585999
_cell_length_c   7.75218400
_cell_angle_alpha   90.00000000
_cell_angle_beta   90.00000000
_cell_angle_gamma   108.86639658
_symmetry_Int_Tables_number   1
_chemical_formula_structural   K2Se3
_chemical_formula_sum   'K4 Se6'
_cell_volume   320.11074113
_cell_formula_units_Z   2
loop_
 _symmetry_equiv_pos_site_id
 _symmetry_equiv_pos_as_xyz
  1  'x, y, z'
loop_
 _atom_site_type_symbol
 _atom_site_label
 _atom_site_symmetry_multiplicity
 _atom_site_fract_x
 _atom_site_fract_y
 _atom_site_fract_z
 _atom_site_occupancy
  K  K0  1  0.09847400  0.90152600  0.37106800  1
  K  K1  1  0.90152600  0.09847400  0.87106800  1
  K  K2  1  0.58813800  0.41186200  0.64975200  1
  K  K3  1  0.41186200  0.58813800  0.14975200  1
  Se  Se4  1  0.79276200  0.20723800  0.31784100  1
  Se  Se5  1  0.20723800  0.79276200  0.81784100  1
  Se  Se6  1  0.08846600  0.40771000  0.49956900  1
  Se  Se7  1  0.91153400  0.59229000  0.99956900  1
  Se  Se8  1  0.59229000  0.91153400  0.49956900  1
  Se  Se9  1  0.40771000  0.08846600  0.99956900  1
