# generated using pymatgen
data_Sr16Mn8O29
_symmetry_space_group_name_H-M   'P 1'
_cell_length_a   6.90344400
_cell_length_b   10.38992111
_cell_length_c   10.98018759
_cell_angle_alpha   90.08624613
_cell_angle_beta   90.03783649
_cell_angle_gamma   104.09046073
_symmetry_Int_Tables_number   1
_chemical_formula_structural   Sr16Mn8O29
_chemical_formula_sum   'Sr16 Mn8 O29'
_cell_volume   763.87037093
_cell_formula_units_Z   1
loop_
 _symmetry_equiv_pos_site_id
 _symmetry_equiv_pos_as_xyz
  1  'x, y, z'
loop_
 _atom_site_type_symbol
 _atom_site_label
 _atom_site_symmetry_multiplicity
 _atom_site_fract_x
 _atom_site_fract_y
 _atom_site_fract_z
 _atom_site_occupancy
  Sr  Sr0  1  0.21226200  0.93131100  0.99932600  1
  Sr  Sr1  1  0.22990400  0.92076200  0.49970400  1
  Sr  Sr2  1  0.02095800  0.31728700  0.25310200  1
  Sr  Sr3  1  0.04008600  0.33240600  0.75698100  1
  Sr  Sr4  1  0.28523000  0.58058300  0.99252800  1
  Sr  Sr5  1  0.28764700  0.57009800  0.49916300  1
  Sr  Sr6  1  0.51865100  0.81375400  0.24225100  1
  Sr  Sr7  1  0.53891600  0.82477800  0.74861700  1
  Sr  Sr8  1  0.46282800  0.16883900  0.25480000  1
  Sr  Sr9  1  0.48116200  0.18495900  0.75746200  1
  Sr  Sr10  1  0.71124000  0.42957300  0.50137100  1
  Sr  Sr11  1  0.72911900  0.43139500  0.99702100  1
  Sr  Sr12  1  0.96103300  0.66636300  0.24145600  1
  Sr  Sr13  1  0.96535600  0.68153900  0.74808800  1
  Sr  Sr14  1  0.76792000  0.07593700  0.50437300  1
  Sr  Sr15  1  0.78824500  0.07102900  0.00181300  1
  Mn  Mn16  1  0.00271600  0.99989100  0.74886100  1
  Mn  Mn17  1  0.24506300  0.24925800  0.49980000  1
  Mn  Mn18  1  0.25405700  0.25141700  0.99947000  1
  Mn  Mn19  1  0.49843800  0.49936000  0.24844200  1
  Mn  Mn20  1  0.50225900  0.50209600  0.75163200  1
  Mn  Mn21  1  0.74767300  0.74943700  0.99860300  1
  Mn  Mn22  1  0.75463200  0.75046500  0.49949000  1
  Mn  Mn23  1  0.99741900  0.99914500  0.25197900  1
  O  O24  1  0.21943500  0.91182400  0.25704800  1
  O  O25  1  0.00547700  0.32057100  0.51069000  1
  O  O26  1  0.24648200  0.93117400  0.73957300  1
  O  O27  1  0.03035400  0.33842000  0.00962700  1
  O  O28  1  0.25377900  0.56609600  0.23849600  1
  O  O29  1  0.26343600  0.58100300  0.74772700  1
  O  O30  1  0.10032700  0.10229200  0.39767600  1
  O  O31  1  0.13425400  0.13050700  0.85929100  1
  O  O32  1  0.13650400  0.13724700  0.12963100  1
  O  O33  1  0.51003300  0.83181500  0.99824400  1
  O  O34  1  0.53192200  0.83699600  0.48948100  1
  O  O35  1  0.36715900  0.36596700  0.63366800  1
  O  O36  1  0.36651800  0.36924400  0.36180100  1
  O  O37  1  0.38990500  0.38699800  0.88940000  1
  O  O38  1  0.61010600  0.61026000  0.11306400  1
  O  O39  1  0.62143500  0.61933700  0.62437300  1
  O  O40  1  0.62903300  0.63507600  0.86688700  1
  O  O41  1  0.63989300  0.63918400  0.36960700  1
  O  O42  1  0.46777600  0.16484300  0.51024600  1
  O  O43  1  0.49810500  0.18016300  0.01145000  1
  O  O44  1  0.87573600  0.87620300  0.88071800  1
  O  O45  1  0.86232500  0.86582000  0.13511500  1
  O  O46  1  0.89421400  0.89174300  0.60786800  1
  O  O47  1  0.72246100  0.40996900  0.24308700  1
  O  O48  1  0.73964200  0.42477500  0.75215300  1
  O  O49  1  0.98351600  0.67288500  0.99732400  1
  O  O50  1  0.75444200  0.06563800  0.26105800  1
  O  O51  1  0.99741000  0.67907500  0.48919000  1
  O  O52  1  0.77790200  0.08770000  0.74277300  1
