# generated using pymatgen
data_K2Mg(H2N)4
_symmetry_space_group_name_H-M   'P 1'
_cell_length_a   7.22868300
_cell_length_b   7.49339600
_cell_length_c   13.63036604
_cell_angle_alpha   75.57949394
_cell_angle_beta   90.00000000
_cell_angle_gamma   90.00000000
_symmetry_Int_Tables_number   1
_chemical_formula_structural   K2Mg(H2N)4
_chemical_formula_sum   'K8 Mg4 H32 N16'
_cell_volume   715.05979396
_cell_formula_units_Z   4
loop_
 _symmetry_equiv_pos_site_id
 _symmetry_equiv_pos_as_xyz
  1  'x, y, z'
loop_
 _atom_site_type_symbol
 _atom_site_label
 _atom_site_symmetry_multiplicity
 _atom_site_fract_x
 _atom_site_fract_y
 _atom_site_fract_z
 _atom_site_occupancy
  K  K0  1  0.64669300  0.91381500  0.89783100  1
  K  K1  1  0.85330700  0.91381500  0.39783100  1
  K  K2  1  0.12586700  0.57297700  0.60879500  1
  K  K3  1  0.62586700  0.42702300  0.89120500  1
  K  K4  1  0.37413300  0.57297700  0.10879500  1
  K  K5  1  0.87413300  0.42702300  0.39120500  1
  K  K6  1  0.14669300  0.08618500  0.60216900  1
  K  K7  1  0.35330700  0.08618500  0.10216900  1
  Mg  Mg8  1  0.21289800  0.70607900  0.84819200  1
  Mg  Mg9  1  0.28710200  0.70607900  0.34819200  1
  Mg  Mg10  1  0.71289800  0.29392100  0.65180800  1
  Mg  Mg11  1  0.78710200  0.29392100  0.15180800  1
  H  H12  1  0.24460100  0.01471900  0.90519200  1
  H  H13  1  0.12764400  0.87154100  0.98880900  1
  H  H14  1  0.89435100  0.86650200  0.75219000  1
  H  H15  1  0.48824000  0.87892900  0.71031200  1
  H  H16  1  0.25539900  0.01471900  0.40519200  1
  H  H17  1  0.37235600  0.87154100  0.48880900  1
  H  H18  1  0.87733500  0.65467200  0.74951700  1
  H  H19  1  0.47844000  0.66675700  0.70913000  1
  H  H20  1  0.60564900  0.86650200  0.25219000  1
  H  H21  1  0.01176000  0.87892900  0.21031200  1
  H  H22  1  0.72221200  0.66226600  0.59643200  1
  H  H23  1  0.12741800  0.41662300  0.99080200  1
  H  H24  1  0.62741800  0.58337700  0.50919800  1
  H  H25  1  0.22221200  0.33773400  0.90356800  1
  H  H26  1  0.62266500  0.65467200  0.24951700  1
  H  H27  1  0.02156000  0.66675700  0.20913000  1
  H  H28  1  0.97844000  0.33324300  0.79087000  1
  H  H29  1  0.37733500  0.34532800  0.75048300  1
  H  H30  1  0.77778800  0.66226600  0.09643200  1
  H  H31  1  0.37258200  0.41662300  0.49080200  1
  H  H32  1  0.87258200  0.58337700  0.00919800  1
  H  H33  1  0.27778800  0.33773400  0.40356800  1
  H  H34  1  0.98824000  0.12107100  0.78968800  1
  H  H35  1  0.39435100  0.13349800  0.74781000  1
  H  H36  1  0.52156000  0.33324300  0.29087000  1
  H  H37  1  0.12266500  0.34532800  0.25048300  1
  H  H38  1  0.62764400  0.12845900  0.51119100  1
  H  H39  1  0.74460100  0.98528100  0.59480800  1
  H  H40  1  0.51176000  0.12107100  0.28968800  1
  H  H41  1  0.10564900  0.13349800  0.24781000  1
  H  H42  1  0.87235600  0.12845900  0.01119100  1
  H  H43  1  0.75539900  0.98528100  0.09480800  1
  N  N44  1  0.24807800  0.88008800  0.94767400  1
  N  N45  1  0.96817000  0.74616100  0.76743000  1
  N  N46  1  0.44436400  0.75359000  0.75377600  1
  N  N47  1  0.25192200  0.88008800  0.44767400  1
  N  N48  1  0.23955100  0.43768700  0.94264700  1
  N  N49  1  0.53183000  0.74616100  0.26743000  1
  N  N50  1  0.05563600  0.75359000  0.25377600  1
  N  N51  1  0.73955100  0.56231300  0.55735300  1
  N  N52  1  0.26044900  0.43768700  0.44264700  1
  N  N53  1  0.94436400  0.24641000  0.74622400  1
  N  N54  1  0.46817000  0.25383900  0.73257000  1
  N  N55  1  0.76044900  0.56231300  0.05735300  1
  N  N56  1  0.74807800  0.11991200  0.55232600  1
  N  N57  1  0.55563600  0.24641000  0.24622400  1
  N  N58  1  0.03183000  0.25383900  0.23257000  1
  N  N59  1  0.75192200  0.11991200  0.05232600  1
