# generated using pymatgen
data_Li24Mn11CrO36
_symmetry_space_group_name_H-M   'P 1'
_cell_length_a   5.00806900
_cell_length_b   10.55935727
_cell_length_c   13.01255275
_cell_angle_alpha   112.74387545
_cell_angle_beta   97.17888700
_cell_angle_gamma   94.77849606
_symmetry_Int_Tables_number   1
_chemical_formula_structural   Li24Mn11CrO36
_chemical_formula_sum   'Li24 Mn11 Cr1 O36'
_cell_volume   623.09940789
_cell_formula_units_Z   1
loop_
 _symmetry_equiv_pos_site_id
 _symmetry_equiv_pos_as_xyz
  1  'x, y, z'
loop_
 _atom_site_type_symbol
 _atom_site_label
 _atom_site_symmetry_multiplicity
 _atom_site_fract_x
 _atom_site_fract_y
 _atom_site_fract_z
 _atom_site_occupancy
  Li  Li0  1  0.78152800  0.05829800  0.05851200  1
  Li  Li1  1  0.66695800  0.33347500  0.08352400  1
  Li  Li2  1  0.88336800  0.27464700  0.27432000  1
  Li  Li3  1  0.33364600  0.16694000  0.16670600  1
  Li  Li4  1  0.55789400  0.60762100  0.10789300  1
  Li  Li5  1  0.00006200  0.00011000  0.25005000  1
  Li  Li6  1  0.99968400  0.50001800  0.00022800  1
  Li  Li7  1  0.77745200  0.05874000  0.55812900  1
  Li  Li8  1  0.44941600  0.39070200  0.39180600  1
  Li  Li9  1  0.66671400  0.33341900  0.58345400  1
  Li  Li10  1  0.66759200  0.83372800  0.33331000  1
  Li  Li11  1  0.10861600  0.72549500  0.22437000  1
  Li  Li12  1  0.88923700  0.27470700  0.77525800  1
  Li  Li13  1  0.33336300  0.16673900  0.66671700  1
  Li  Li14  1  0.33384100  0.66767200  0.41765400  1
  Li  Li15  1  0.55274200  0.60869100  0.60823500  1
  Li  Li16  1  0.99913600  0.49984500  0.50028200  1
  Li  Li17  1  0.22238000  0.94141900  0.44187100  1
  Li  Li18  1  0.44359400  0.39188400  0.89162900  1
  Li  Li19  1  0.66668500  0.83335700  0.83339000  1
  Li  Li20  1  0.11419800  0.72457400  0.72519500  1
  Li  Li21  1  0.33336100  0.66672700  0.91674600  1
  Li  Li22  1  0.99999800  0.99998100  0.74997100  1
  Li  Li23  1  0.21918000  0.94206600  0.94155200  1
  Mn  Mn24  1  0.88899100  0.77795300  0.02795300  1
  Mn  Mn25  1  0.55560400  0.11125600  0.36127400  1
  Mn  Mn26  1  0.77809800  0.55551100  0.30528600  1
  Mn  Mn27  1  0.44430000  0.88855200  0.13856300  1
  Mn  Mn28  1  0.11100200  0.22191300  0.47192500  1
  Mn  Mn29  1  0.88902500  0.77810400  0.52811700  1
  Mn  Mn30  1  0.55566900  0.11144200  0.86139400  1
  Mn  Mn31  1  0.77758300  0.55523800  0.80521300  1
  Mn  Mn32  1  0.22231000  0.44463100  0.69460400  1
  Mn  Mn33  1  0.44438000  0.88872900  0.63873400  1
  Mn  Mn34  1  0.11084600  0.22173700  0.97199100  1
  Cr  Cr35  1  0.22434000  0.44684100  0.19685900  1
  O  O36  1  0.42815900  0.13953900  0.00163700  1
  O  O37  1  0.64296800  0.07583400  0.21196700  1
  O  O38  1  0.89880400  0.52901900  0.16514900  1
  O  O39  1  0.30672800  0.40912700  0.04533100  1
  O  O40  1  0.88030800  0.04420000  0.40626600  1
  O  O41  1  0.02494100  0.25697300  0.12102100  1
  O  O42  1  0.55404200  0.37750600  0.24120000  1
  O  O43  1  0.78645900  0.28908000  0.42712000  1
  O  O44  1  0.76130700  0.80640500  0.16845800  1
  O  O45  1  0.23860800  0.19371000  0.33155600  1
  O  O46  1  0.21377600  0.71083100  0.07297200  1
  O  O47  1  0.45232900  0.62130200  0.25931800  1
  O  O48  1  0.42817900  0.13959800  0.50173500  1
  O  O49  1  0.97765600  0.74289400  0.37892600  1
  O  O50  1  0.11956000  0.95561400  0.09364400  1
  O  O51  1  0.68928700  0.59095200  0.45487400  1
  O  O52  1  0.09447600  0.47166400  0.33362800  1
  O  O53  1  0.64290200  0.07582400  0.71181700  1
  O  O54  1  0.35698700  0.92392900  0.28800900  1
  O  O55  1  0.90522100  0.52693300  0.66481100  1
  O  O56  1  0.30960100  0.40928200  0.54517900  1
  O  O57  1  0.88024800  0.04402300  0.90610200  1
  O  O58  1  0.02363500  0.25730300  0.62130400  1
  O  O59  1  0.57181000  0.86014500  0.49795400  1
  O  O60  1  0.54697100  0.37759200  0.73959000  1
  O  O61  1  0.78602600  0.28896600  0.92695300  1
  O  O62  1  0.76138200  0.80642700  0.66842500  1
  O  O63  1  0.23851500  0.19352500  0.83141100  1
  O  O64  1  0.21357000  0.71056200  0.57270500  1
  O  O65  1  0.45279400  0.62241800  0.76026700  1
  O  O66  1  0.97637500  0.74260500  0.87861300  1
  O  O67  1  0.11971500  0.95569000  0.59375400  1
  O  O68  1  0.69020800  0.59065300  0.95451800  1
  O  O69  1  0.09475500  0.47299600  0.83500700  1
  O  O70  1  0.35694000  0.92384400  0.78784800  1
  O  O71  1  0.57196300  0.86027200  0.99821400  1
