# generated using pymatgen
data_PH5NO3F
_symmetry_space_group_name_H-M   'P 1'
_cell_length_a   15.74473400
_cell_length_b   7.54700300
_cell_length_c   8.90887302
_cell_angle_alpha   54.49751069
_cell_angle_beta   90.00000000
_cell_angle_gamma   90.00000000
_symmetry_Int_Tables_number   1
_chemical_formula_structural   PH5NO3F
_chemical_formula_sum   'P8 H40 N8 O24 F8'
_cell_volume   861.79742654
_cell_formula_units_Z   8
loop_
 _symmetry_equiv_pos_site_id
 _symmetry_equiv_pos_as_xyz
  1  'x, y, z'
loop_
 _atom_site_type_symbol
 _atom_site_label
 _atom_site_symmetry_multiplicity
 _atom_site_fract_x
 _atom_site_fract_y
 _atom_site_fract_z
 _atom_site_occupancy
  P  P0  1  0.03326400  0.46280700  0.77693400  1
  P  P1  1  0.53326400  0.53719300  0.72306600  1
  P  P2  1  0.20419100  0.89558800  0.22719200  1
  P  P3  1  0.70419100  0.10441200  0.27280800  1
  P  P4  1  0.29580900  0.89558800  0.72719200  1
  P  P5  1  0.79580900  0.10441200  0.77280800  1
  P  P6  1  0.46673600  0.46280700  0.27693400  1
  P  P7  1  0.96673600  0.53719300  0.22306600  1
  H  H8  1  0.89711100  0.18767000  0.89436000  1
  H  H9  1  0.36511100  0.34760900  0.75103900  1
  H  H10  1  0.27739000  0.26824800  0.88501700  1
  H  H11  1  0.72374600  0.73524200  0.30427000  1
  H  H12  1  0.27786600  0.50576700  0.66996100  1
  H  H13  1  0.11919000  0.63952400  0.53553300  1
  H  H14  1  0.61919000  0.36047600  0.96446700  1
  H  H15  1  0.47302200  0.88922500  0.23229900  1
  H  H16  1  0.77786600  0.49423300  0.83003900  1
  H  H17  1  0.96863300  0.92243600  0.21875100  1
  H  H18  1  0.96457600  0.84647400  0.43960500  1
  H  H19  1  0.77739000  0.73175200  0.61498300  1
  H  H20  1  0.38068900  0.02687500  0.20060900  1
  H  H21  1  0.86511100  0.65239100  0.74896100  1
  H  H22  1  0.88068900  0.97312500  0.29939100  1
  H  H23  1  0.46457600  0.15352600  0.06039500  1
  H  H24  1  0.39711100  0.81233000  0.60564000  1
  H  H25  1  0.46863300  0.07756400  0.28124900  1
  H  H26  1  0.77625400  0.73524200  0.80427000  1
  H  H27  1  0.97302200  0.11077500  0.26770100  1
  H  H28  1  0.02697800  0.88922500  0.73229900  1
  H  H29  1  0.22374600  0.26475800  0.19573000  1
  H  H30  1  0.53136700  0.92243600  0.71875100  1
  H  H31  1  0.60288900  0.18767000  0.39436000  1
  H  H32  1  0.53542400  0.84647400  0.93960500  1
  H  H33  1  0.11931100  0.02687500  0.70060900  1
  H  H34  1  0.13488900  0.34760900  0.25103900  1
  H  H35  1  0.61931100  0.97312500  0.79939100  1
  H  H36  1  0.22261000  0.26824800  0.38501700  1
  H  H37  1  0.03542400  0.15352600  0.56039500  1
  H  H38  1  0.03136700  0.07756400  0.78124900  1
  H  H39  1  0.22213400  0.50576700  0.16996100  1
  H  H40  1  0.52697800  0.11077500  0.76770100  1
  H  H41  1  0.38081000  0.63952400  0.03553300  1
  H  H42  1  0.88081000  0.36047600  0.46446700  1
  H  H43  1  0.72213400  0.49423300  0.33003900  1
  H  H44  1  0.27625400  0.26475800  0.69573000  1
  H  H45  1  0.72261000  0.73175200  0.11498300  1
  H  H46  1  0.63488900  0.65239100  0.24896100  1
  H  H47  1  0.10288900  0.81233000  0.10564000  1
  N  N48  1  0.29894200  0.34799200  0.74943900  1
  N  N49  1  0.79894200  0.65200800  0.75056100  1
  N  N50  1  0.44663000  0.03465900  0.19632500  1
  N  N51  1  0.94663000  0.96534100  0.30367500  1
  N  N52  1  0.05337000  0.03465900  0.69632500  1
  N  N53  1  0.55337000  0.96534100  0.80367500  1
  N  N54  1  0.20105800  0.34799200  0.24943900  1
  N  N55  1  0.70105800  0.65200800  0.25056100  1
  O  O56  1  0.83466700  0.13352900  0.92014400  1
  O  O57  1  0.98895500  0.24668100  0.86754000  1
  O  O58  1  0.48099400  0.33122100  0.80926400  1
  O  O59  1  0.10353600  0.48159900  0.64280100  1
  O  O60  1  0.60353600  0.51840100  0.85719900  1
  O  O61  1  0.14104100  0.86781600  0.36631200  1
  O  O62  1  0.98099400  0.66877900  0.69073600  1
  O  O63  1  0.76186500  0.90690700  0.36644400  1
  O  O64  1  0.48895500  0.75331900  0.63246000  1
  O  O65  1  0.26186500  0.09309300  0.13355600  1
  O  O66  1  0.64104100  0.13218400  0.13368800  1
  O  O67  1  0.33466700  0.86647100  0.57985600  1
  O  O68  1  0.66533300  0.13352900  0.42014400  1
  O  O69  1  0.35895900  0.86781600  0.86631200  1
  O  O70  1  0.73813500  0.90690700  0.86644400  1
  O  O71  1  0.51104500  0.24668100  0.36754000  1
  O  O72  1  0.23813500  0.09309300  0.63355600  1
  O  O73  1  0.01900600  0.33122100  0.30926400  1
  O  O74  1  0.85895900  0.13218400  0.63368800  1
  O  O75  1  0.39646400  0.48159900  0.14280100  1
  O  O76  1  0.89646400  0.51840100  0.35719900  1
  O  O77  1  0.51900600  0.66877900  0.19073600  1
  O  O78  1  0.01104500  0.75331900  0.13246000  1
  O  O79  1  0.16533300  0.86647100  0.07985600  1
  F  F80  1  0.26658100  0.68826700  0.33747000  1
  F  F81  1  0.58831600  0.55612400  0.56356800  1
  F  F82  1  0.08831600  0.44387600  0.93643200  1
  F  F83  1  0.23341900  0.68826700  0.83747000  1
  F  F84  1  0.76658100  0.31173300  0.16253000  1
  F  F85  1  0.91168400  0.55612400  0.06356800  1
  F  F86  1  0.41168400  0.44387600  0.43643200  1
  F  F87  1  0.73341900  0.31173300  0.66253000  1
