# generated using pymatgen
data_BaTm2F8
_symmetry_space_group_name_H-M   'P 1'
_cell_length_a   6.30157991
_cell_length_b   6.30157991
_cell_length_c   4.27151866
_cell_angle_alpha   85.05788967
_cell_angle_beta   85.05788967
_cell_angle_gamma   112.93238544
_symmetry_Int_Tables_number   1
_chemical_formula_structural   BaTm2F8
_chemical_formula_sum   'Ba1 Tm2 F8'
_cell_volume   154.30441597
_cell_formula_units_Z   1
loop_
 _symmetry_equiv_pos_site_id
 _symmetry_equiv_pos_as_xyz
  1  'x, y, z'
loop_
 _atom_site_type_symbol
 _atom_site_label
 _atom_site_symmetry_multiplicity
 _atom_site_fract_x
 _atom_site_fract_y
 _atom_site_fract_z
 _atom_site_occupancy
  Ba  Ba0  1  0.00000000  0.00000000  0.00000000  1
  Tm  Tm1  1  0.32447600  0.67552400  0.50000000  1
  Tm  Tm2  1  0.67552400  0.32447600  0.50000000  1
  F  F3  1  0.73655000  0.26345000  0.00000000  1
  F  F4  1  0.26345000  0.73655000  0.00000000  1
  F  F5  1  0.60495600  0.60495600  0.23001200  1
  F  F6  1  0.04535400  0.32929700  0.43959400  1
  F  F7  1  0.67070300  0.95464600  0.56040600  1
  F  F8  1  0.95464600  0.67070300  0.56040600  1
  F  F9  1  0.32929700  0.04535400  0.43959400  1
  F  F10  1  0.39504400  0.39504400  0.76998800  1
