# generated using pymatgen
data_ZnH12C2(N3Cl2)2
_symmetry_space_group_name_H-M   'P 1'
_cell_length_a   7.22777900
_cell_length_b   7.40080401
_cell_length_c   12.80656544
_cell_angle_alpha   82.15466620
_cell_angle_beta   86.19956078
_cell_angle_gamma   76.87647795
_symmetry_Int_Tables_number   1
_chemical_formula_structural   ZnH12C2(N3Cl2)2
_chemical_formula_sum   'Zn2 H24 C4 N12 Cl8'
_cell_volume   660.46278669
_cell_formula_units_Z   2
loop_
 _symmetry_equiv_pos_site_id
 _symmetry_equiv_pos_as_xyz
  1  'x, y, z'
loop_
 _atom_site_type_symbol
 _atom_site_label
 _atom_site_symmetry_multiplicity
 _atom_site_fract_x
 _atom_site_fract_y
 _atom_site_fract_z
 _atom_site_occupancy
  Zn  Zn0  1  0.95747700  0.17493600  0.22441800  1
  Zn  Zn1  1  0.04252300  0.82506400  0.77558200  1
  H  H2  1  0.24426000  0.04065000  0.52009100  1
  H  H3  1  0.75574000  0.95935000  0.47990900  1
  H  H4  1  0.23583200  0.16854200  0.39292600  1
  H  H5  1  0.76416800  0.83145800  0.60707400  1
  H  H6  1  0.24586500  0.48549100  0.37299000  1
  H  H7  1  0.75413500  0.51450900  0.62701000  1
  H  H8  1  0.26234200  0.59322900  0.48588700  1
  H  H9  1  0.73765800  0.40677100  0.51411300  1
  H  H10  1  0.28718100  0.42704700  0.64698300  1
  H  H11  1  0.71281900  0.57295300  0.35301700  1
  H  H12  1  0.27344800  0.18930400  0.66573700  1
  H  H13  1  0.72655200  0.81069600  0.33426300  1
  H  H14  1  0.37344800  0.65219300  0.17102400  1
  H  H15  1  0.62655200  0.34780700  0.82897600  1
  H  H16  1  0.56898400  0.49391300  0.12137900  1
  H  H17  1  0.43101600  0.50608700  0.87862100  1
  H  H18  1  0.84173100  0.59991000  0.05942500  1
  H  H19  1  0.15826900  0.40009000  0.94057500  1
  H  H20  1  0.84994300  0.83459400  0.06296200  1
  H  H21  1  0.15005700  0.16540600  0.93703800  1
  H  H22  1  0.59252200  0.03948500  0.12852200  1
  H  H23  1  0.40747800  0.96051500  0.87147800  1
  H  H24  1  0.38644800  0.95860000  0.17610700  1
  H  H25  1  0.61355200  0.04140000  0.82389300  1
  C  C26  1  0.25685600  0.31641100  0.51372200  1
  C  C27  1  0.74314400  0.68358900  0.48627800  1
  C  C28  1  0.60256000  0.76230300  0.11948400  1
  C  C29  1  0.39744000  0.23769700  0.88051600  1
  N  N30  1  0.24364300  0.16326800  0.47249600  1
  N  N31  1  0.75635700  0.83673200  0.52750400  1
  N  N32  1  0.25470900  0.47783600  0.45251600  1
  N  N33  1  0.74529100  0.52216400  0.54748400  1
  N  N34  1  0.27518400  0.30906000  0.61744100  1
  N  N35  1  0.72481600  0.69094000  0.38255900  1
  N  N36  1  0.50827700  0.62517200  0.13930200  1
  N  N37  1  0.49172300  0.37482800  0.86069800  1
  N  N38  1  0.77852800  0.72984000  0.07741600  1
  N  N39  1  0.22147200  0.27016000  0.92258400  1
  N  N40  1  0.52115300  0.93394600  0.14377300  1
  N  N41  1  0.47884700  0.06605400  0.85622700  1
  Cl  Cl42  1  0.72202100  0.23850400  0.35437800  1
  Cl  Cl43  1  0.27797900  0.76149600  0.64562200  1
  Cl  Cl44  1  0.11136600  0.87081600  0.26944500  1
  Cl  Cl45  1  0.88863400  0.12918400  0.73055500  1
  Cl  Cl46  1  0.81377500  0.22452900  0.06490900  1
  Cl  Cl47  1  0.18622500  0.77547100  0.93509100  1
  Cl  Cl48  1  0.17753300  0.35526500  0.21208000  1
  Cl  Cl49  1  0.82246700  0.64473500  0.78792000  1
