# generated using pymatgen
data_Cs3B6H12Se4Br
_symmetry_space_group_name_H-M   'P 1'
_cell_length_a   11.01499123
_cell_length_b   11.01499123
_cell_length_c   9.04026100
_cell_angle_alpha   90.00000000
_cell_angle_beta   90.00000000
_cell_angle_gamma   119.99999535
_symmetry_Int_Tables_number   1
_chemical_formula_structural   Cs3B6H12Se4Br
_chemical_formula_sum   'Cs6 B12 H24 Se8 Br2'
_cell_volume   949.90447188
_cell_formula_units_Z   2
loop_
 _symmetry_equiv_pos_site_id
 _symmetry_equiv_pos_as_xyz
  1  'x, y, z'
loop_
 _atom_site_type_symbol
 _atom_site_label
 _atom_site_symmetry_multiplicity
 _atom_site_fract_x
 _atom_site_fract_y
 _atom_site_fract_z
 _atom_site_occupancy
  Cs  Cs0  1  0.69331400  0.84665700  0.75027900  1
  Cs  Cs1  1  0.15334300  0.84665700  0.75027900  1
  Cs  Cs2  1  0.15334300  0.30668600  0.75027900  1
  Cs  Cs3  1  0.30668600  0.15334300  0.25027900  1
  Cs  Cs4  1  0.84665700  0.15334300  0.25027900  1
  Cs  Cs5  1  0.84665700  0.69331400  0.25027900  1
  B  B6  1  0.76678800  0.23321200  0.88852500  1
  B  B7  1  0.76678800  0.53357500  0.88852500  1
  B  B8  1  0.46642500  0.23321200  0.88852500  1
  B  B9  1  0.23321200  0.76678800  0.38852500  1
  B  B10  1  0.23321200  0.46642500  0.38852500  1
  B  B11  1  0.53357500  0.76678800  0.38852500  1
  B  B12  1  0.56766000  0.43234000  0.58333700  1
  B  B13  1  0.56766000  0.13532000  0.58333700  1
  B  B14  1  0.86468000  0.43234000  0.58333700  1
  B  B15  1  0.43234000  0.56766000  0.08333700  1
  B  B16  1  0.43234000  0.86468000  0.08333700  1
  B  B17  1  0.13532000  0.56766000  0.08333700  1
  H  H18  1  0.70289900  0.11244900  0.92951700  1
  H  H19  1  0.88755100  0.59045000  0.92951700  1
  H  H20  1  0.40955000  0.29710100  0.92951700  1
  H  H21  1  0.88755100  0.29710100  0.92951700  1
  H  H22  1  0.40955000  0.11244900  0.92951700  1
  H  H23  1  0.70289900  0.59045000  0.92951700  1
  H  H24  1  0.29710100  0.88755100  0.42951700  1
  H  H25  1  0.11244900  0.40955000  0.42951700  1
  H  H26  1  0.59045000  0.70289900  0.42951700  1
  H  H27  1  0.11244900  0.70289900  0.42951700  1
  H  H28  1  0.59045000  0.88755100  0.42951700  1
  H  H29  1  0.29710100  0.40955000  0.42951700  1
  H  H30  1  0.50654300  0.49345700  0.62053900  1
  H  H31  1  0.50654300  0.01308500  0.62053900  1
  H  H32  1  0.98691500  0.49345700  0.62053900  1
  H  H33  1  0.49345700  0.50654300  0.12053900  1
  H  H34  1  0.49345700  0.98691500  0.12053900  1
  H  H35  1  0.01308500  0.50654300  0.12053900  1
  H  H36  1  0.57757500  0.42242500  0.45105000  1
  H  H37  1  0.57757500  0.15515100  0.45105000  1
  H  H38  1  0.84484900  0.42242500  0.45105000  1
  H  H39  1  0.42242500  0.57757500  0.95105000  1
  H  H40  1  0.42242500  0.84484900  0.95105000  1
  H  H41  1  0.15515100  0.57757500  0.95105000  1
  Se  Se42  1  0.77180800  0.22819200  0.66025900  1
  Se  Se43  1  0.77180800  0.54361700  0.66025900  1
  Se  Se44  1  0.45638300  0.22819200  0.66025900  1
  Se  Se45  1  0.22819200  0.77180800  0.16025900  1
  Se  Se46  1  0.22819200  0.45638300  0.16025900  1
  Se  Se47  1  0.54361700  0.77180800  0.16025900  1
  Se  Se48  1  0.66666700  0.33333300  0.97792000  1
  Se  Se49  1  0.33333300  0.66666700  0.47792000  1
  Br  Br50  1  0.00000000  0.00000000  0.49585900  1
  Br  Br51  1  0.00000000  0.00000000  0.99585900  1
