# generated using pymatgen
data_Nb3P6WO24
_symmetry_space_group_name_H-M   'P 1'
_cell_length_a   9.07141994
_cell_length_b   9.07141994
_cell_length_c   9.07141925
_cell_angle_alpha   58.51358548
_cell_angle_beta   58.51358548
_cell_angle_gamma   58.51358863
_symmetry_Int_Tables_number   1
_chemical_formula_structural   Nb3P6WO24
_chemical_formula_sum   'Nb3 P6 W1 O24'
_cell_volume   509.90319824
_cell_formula_units_Z   1
loop_
 _symmetry_equiv_pos_site_id
 _symmetry_equiv_pos_as_xyz
  1  'x, y, z'
loop_
 _atom_site_type_symbol
 _atom_site_label
 _atom_site_symmetry_multiplicity
 _atom_site_fract_x
 _atom_site_fract_y
 _atom_site_fract_z
 _atom_site_occupancy
  Nb  Nb0  1  0.85966600  0.85966600  0.85966600  1
  Nb  Nb1  1  0.64164400  0.64164400  0.64164400  1
  Nb  Nb2  1  0.35986900  0.35986900  0.35986900  1
  P  P3  1  0.53411100  0.96604300  0.25059100  1
  P  P4  1  0.25059100  0.53411100  0.96604300  1
  P  P5  1  0.96604300  0.25059100  0.53411100  1
  P  P6  1  0.03197800  0.74952700  0.46785600  1
  P  P7  1  0.74952700  0.46785600  0.03197800  1
  P  P8  1  0.46785600  0.03197800  0.74952700  1
  W  W9  1  0.14163300  0.14163300  0.14163300  1
  O  O10  1  0.50783800  0.86605200  0.70978000  1
  O  O11  1  0.86605200  0.70978000  0.50783800  1
  O  O12  1  0.71220200  0.93676800  0.07997200  1
  O  O13  1  0.70978000  0.50783800  0.86605200  1
  O  O14  1  0.57273300  0.79147900  0.41932900  1
  O  O15  1  0.37334500  0.98027600  0.22889400  1
  O  O16  1  0.07997200  0.71220200  0.93676800  1
  O  O17  1  0.41932900  0.57273300  0.79147900  1
  O  O18  1  0.79147900  0.41932900  0.57273300  1
  O  O19  1  0.00170500  0.77584600  0.63917600  1
  O  O20  1  0.05507900  0.91067800  0.29342100  1
  O  O21  1  0.77584600  0.63917600  0.00170500  1
  O  O22  1  0.22889400  0.37334500  0.98027600  1
  O  O23  1  0.93676800  0.07997200  0.71220200  1
  O  O24  1  0.98027600  0.22889400  0.37334500  1
  O  O25  1  0.20593500  0.57318700  0.44480400  1
  O  O26  1  0.57318700  0.44480400  0.20593500  1
  O  O27  1  0.91067800  0.29342100  0.05507900  1
  O  O28  1  0.63917600  0.00170500  0.77584600  1
  O  O29  1  0.44480400  0.20593500  0.57318700  1
  O  O30  1  0.28030000  0.50346600  0.13481500  1
  O  O31  1  0.29342100  0.05507900  0.91067800  1
  O  O32  1  0.13481500  0.28030000  0.50346600  1
  O  O33  1  0.50346600  0.13481500  0.28030000  1
