# generated using pymatgen
data_MgZr3Tl10(MoO4)12
_symmetry_space_group_name_H-M   'P 1'
_cell_length_a   14.40761572
_cell_length_b   14.40761572
_cell_length_c   14.40761596
_cell_angle_alpha   44.30919685
_cell_angle_beta   44.30919685
_cell_angle_gamma   44.30919884
_symmetry_Int_Tables_number   1
_chemical_formula_structural   MgZr3Tl10(MoO4)12
_chemical_formula_sum   'Mg1 Zr3 Tl10 Mo12 O48'
_cell_volume   1326.30203765
_cell_formula_units_Z   1
loop_
 _symmetry_equiv_pos_site_id
 _symmetry_equiv_pos_as_xyz
  1  'x, y, z'
loop_
 _atom_site_type_symbol
 _atom_site_label
 _atom_site_symmetry_multiplicity
 _atom_site_fract_x
 _atom_site_fract_y
 _atom_site_fract_z
 _atom_site_occupancy
  Mg  Mg0  1  0.50000000  0.50000000  0.50000000  1
  Zr  Zr1  1  0.00000000  0.00000000  0.00000000  1
  Zr  Zr2  1  0.24758700  0.24758700  0.24758700  1
  Zr  Zr3  1  0.75241300  0.75241300  0.75241300  1
  Tl  Tl4  1  0.10543500  0.10543500  0.10543500  1
  Tl  Tl5  1  0.39689800  0.39689800  0.39689800  1
  Tl  Tl6  1  0.50000000  0.11838600  0.88161400  1
  Tl  Tl7  1  0.88161400  0.50000000  0.11838600  1
  Tl  Tl8  1  0.11838600  0.88161400  0.50000000  1
  Tl  Tl9  1  0.60310200  0.60310200  0.60310200  1
  Tl  Tl10  1  0.00000000  0.38839100  0.61160900  1
  Tl  Tl11  1  0.38839100  0.61160900  0.00000000  1
  Tl  Tl12  1  0.61160900  0.00000000  0.38839100  1
  Tl  Tl13  1  0.89456500  0.89456500  0.89456500  1
  Mo  Mo14  1  0.36779100  0.01117600  0.76998100  1
  Mo  Mo15  1  0.76998100  0.36779100  0.01117600  1
  Mo  Mo16  1  0.72227300  0.13681600  0.48904100  1
  Mo  Mo17  1  0.01117600  0.76998100  0.36779100  1
  Mo  Mo18  1  0.13681600  0.48904100  0.72227300  1
  Mo  Mo19  1  0.48904100  0.72227300  0.13681600  1
  Mo  Mo20  1  0.86318400  0.27772700  0.51095900  1
  Mo  Mo21  1  0.27772700  0.51095900  0.86318400  1
  Mo  Mo22  1  0.63220900  0.23001900  0.98882400  1
  Mo  Mo23  1  0.51095900  0.86318400  0.27772700  1
  Mo  Mo24  1  0.98882400  0.63220900  0.23001900  1
  Mo  Mo25  1  0.23001900  0.98882400  0.63220900  1
  O  O26  1  0.35501300  0.04629600  0.25013200  1
  O  O27  1  0.04629600  0.25013200  0.35501300  1
  O  O28  1  0.25013200  0.35501300  0.04629600  1
  O  O29  1  0.25094500  0.14515100  0.45107600  1
  O  O30  1  0.07046100  0.05110300  0.78413400  1
  O  O31  1  0.78413400  0.07046100  0.05110300  1
  O  O32  1  0.45107600  0.25094500  0.14515100  1
  O  O33  1  0.14515100  0.45107600  0.25094500  1
  O  O34  1  0.34513700  0.13287300  0.60574500  1
  O  O35  1  0.05110300  0.78413400  0.07046100  1
  O  O36  1  0.60574500  0.34513700  0.13287300  1
  O  O37  1  0.67706200  0.13764600  0.40238800  1
  O  O38  1  0.36235000  0.10165700  0.81343300  1
  O  O39  1  0.13287300  0.60574500  0.34513700  1
  O  O40  1  0.13764600  0.40238800  0.67706200  1
  O  O41  1  0.81343300  0.36235000  0.10165700  1
  O  O42  1  0.88778900  0.15963700  0.36370900  1
  O  O43  1  0.40238800  0.67706200  0.13764600  1
  O  O44  1  0.57250800  0.28249400  0.54884300  1
  O  O45  1  0.15963700  0.36370900  0.88778900  1
  O  O46  1  0.10165700  0.81343300  0.36235000  1
  O  O47  1  0.28249400  0.54884300  0.57250800  1
  O  O48  1  0.84036300  0.11221100  0.63629100  1
  O  O49  1  0.54884300  0.57250800  0.28249400  1
  O  O50  1  0.71750600  0.42749200  0.45115700  1
  O  O51  1  0.36370900  0.88778900  0.15963700  1
  O  O52  1  0.42749200  0.45115700  0.71750600  1
  O  O53  1  0.63765000  0.18656700  0.89834300  1
  O  O54  1  0.11221100  0.63629100  0.84036300  1
  O  O55  1  0.45115700  0.71750600  0.42749200  1
  O  O56  1  0.86235400  0.32293800  0.59761200  1
  O  O57  1  0.63629100  0.84036300  0.11221100  1
  O  O58  1  0.89834300  0.63765000  0.18656700  1
  O  O59  1  0.32293800  0.59761200  0.86235400  1
  O  O60  1  0.65486300  0.39425500  0.86712700  1
  O  O61  1  0.18656700  0.89834300  0.63765000  1
  O  O62  1  0.59761200  0.86235400  0.32293800  1
  O  O63  1  0.86712700  0.65486300  0.39425500  1
  O  O64  1  0.92953900  0.21586600  0.94889700  1
  O  O65  1  0.39425500  0.86712700  0.65486300  1
  O  O66  1  0.74905500  0.54892400  0.85484900  1
  O  O67  1  0.85484900  0.74905500  0.54892400  1
  O  O68  1  0.94889700  0.92953900  0.21586600  1
  O  O69  1  0.21586600  0.94889700  0.92953900  1
  O  O70  1  0.54892400  0.85484900  0.74905500  1
  O  O71  1  0.95370400  0.64498700  0.74986800  1
  O  O72  1  0.64498700  0.74986800  0.95370400  1
  O  O73  1  0.74986800  0.95370400  0.64498700  1
