# generated using pymatgen
data_Na3AuO3
_symmetry_space_group_name_H-M   'P 1'
_cell_length_a   9.57381800
_cell_length_b   9.57381800
_cell_length_c   4.56254200
_cell_angle_alpha   90.00000000
_cell_angle_beta   90.00000000
_cell_angle_gamma   90.00000000
_symmetry_Int_Tables_number   1
_chemical_formula_structural   Na3AuO3
_chemical_formula_sum   'Na12 Au4 O12'
_cell_volume   418.19343402
_cell_formula_units_Z   4
loop_
 _symmetry_equiv_pos_site_id
 _symmetry_equiv_pos_as_xyz
  1  'x, y, z'
loop_
 _atom_site_type_symbol
 _atom_site_label
 _atom_site_symmetry_multiplicity
 _atom_site_fract_x
 _atom_site_fract_y
 _atom_site_fract_z
 _atom_site_occupancy
  Na  Na0  1  0.12628800  0.61971200  0.00000000  1
  Na  Na1  1  0.88028800  0.62628800  0.50000000  1
  Na  Na2  1  0.35302900  0.64697100  0.50000000  1
  Na  Na3  1  0.85302900  0.85302900  0.00000000  1
  Na  Na4  1  0.38028800  0.87371200  0.00000000  1
  Na  Na5  1  0.62628800  0.88028800  0.50000000  1
  Na  Na6  1  0.37371200  0.11971200  0.50000000  1
  Na  Na7  1  0.61971200  0.12628800  0.00000000  1
  Na  Na8  1  0.14697100  0.14697100  0.00000000  1
  Na  Na9  1  0.64697100  0.35302900  0.50000000  1
  Na  Na10  1  0.11971200  0.37371200  0.50000000  1
  Na  Na11  1  0.87371200  0.38028800  0.00000000  1
  Au  Au12  1  0.61637400  0.61637400  0.00000000  1
  Au  Au13  1  0.11637400  0.88362600  0.50000000  1
  Au  Au14  1  0.88362600  0.11637400  0.50000000  1
  Au  Au15  1  0.38362600  0.38362600  0.00000000  1
  O  O16  1  0.39811200  0.60188800  0.00000000  1
  O  O17  1  0.82800900  0.61479400  0.00000000  1
  O  O18  1  0.11479400  0.67199100  0.50000000  1
  O  O19  1  0.61479400  0.82800900  0.00000000  1
  O  O20  1  0.32800900  0.88520600  0.50000000  1
  O  O21  1  0.89811200  0.89811200  0.50000000  1
  O  O22  1  0.10188800  0.10188800  0.50000000  1
  O  O23  1  0.67199100  0.11479400  0.50000000  1
  O  O24  1  0.38520600  0.17199100  0.00000000  1
  O  O25  1  0.88520600  0.32800900  0.50000000  1
  O  O26  1  0.17199100  0.38520600  0.00000000  1
  O  O27  1  0.60188800  0.39811200  0.00000000  1
