# generated using pymatgen
data_TiSi
_symmetry_space_group_name_H-M   'P 1'
_cell_length_a   3.64173500
_cell_length_b   5.01079900
_cell_length_c   6.54455600
_cell_angle_alpha   90.00000000
_cell_angle_beta   90.00000000
_cell_angle_gamma   90.00000000
_symmetry_Int_Tables_number   1
_chemical_formula_structural   TiSi
_chemical_formula_sum   'Ti4 Si4'
_cell_volume   119.42507161
_cell_formula_units_Z   4
loop_
 _symmetry_equiv_pos_site_id
 _symmetry_equiv_pos_as_xyz
  1  'x, y, z'
loop_
 _atom_site_type_symbol
 _atom_site_label
 _atom_site_symmetry_multiplicity
 _atom_site_fract_x
 _atom_site_fract_y
 _atom_site_fract_z
 _atom_site_occupancy
  Ti  Ti0  1  0.25000000  0.37193900  0.67553900  1
  Ti  Ti1  1  0.75000000  0.62806100  0.32446100  1
  Ti  Ti2  1  0.75000000  0.87193900  0.82446100  1
  Ti  Ti3  1  0.25000000  0.12806100  0.17553900  1
  Si  Si4  1  0.25000000  0.85425300  0.54481200  1
  Si  Si5  1  0.75000000  0.14574700  0.45518800  1
  Si  Si6  1  0.75000000  0.35425300  0.95518800  1
  Si  Si7  1  0.25000000  0.64574700  0.04481200  1
