# generated using pymatgen
data_LiB5H2O9
_symmetry_space_group_name_H-M   'P 1'
_cell_length_a   9.18943800
_cell_length_b   5.60631800
_cell_length_c   13.74806748
_cell_angle_alpha   88.53001417
_cell_angle_beta   90.00000000
_cell_angle_gamma   90.00000000
_symmetry_Int_Tables_number   1
_chemical_formula_structural   LiB5H2O9
_chemical_formula_sum   'Li4 B20 H8 O36'
_cell_volume   708.05237784
_cell_formula_units_Z   4
loop_
 _symmetry_equiv_pos_site_id
 _symmetry_equiv_pos_as_xyz
  1  'x, y, z'
loop_
 _atom_site_type_symbol
 _atom_site_label
 _atom_site_symmetry_multiplicity
 _atom_site_fract_x
 _atom_site_fract_y
 _atom_site_fract_z
 _atom_site_occupancy
  Li  Li0  1  0.09528300  0.47604400  0.19697900  1
  Li  Li1  1  0.59528300  0.52395600  0.30302100  1
  Li  Li2  1  0.90471700  0.52395600  0.80302100  1
  Li  Li3  1  0.40471700  0.47604400  0.69697900  1
  B  B4  1  0.82706100  0.81264100  0.18545200  1
  B  B5  1  0.32706100  0.18735900  0.31454800  1
  B  B6  1  0.17293900  0.18735900  0.81454800  1
  B  B7  1  0.67293900  0.81264100  0.68545200  1
  B  B8  1  0.96618700  0.76638500  0.34224100  1
  B  B9  1  0.46618700  0.23361500  0.15775900  1
  B  B10  1  0.03381300  0.23361500  0.65775900  1
  B  B11  1  0.53381300  0.76638500  0.84224100  1
  B  B12  1  0.80326900  0.09500900  0.31835300  1
  B  B13  1  0.30326900  0.90499100  0.18164700  1
  B  B14  1  0.19673100  0.90499100  0.68164700  1
  B  B15  1  0.69673100  0.09500900  0.81835300  1
  B  B16  1  0.85939400  0.71809000  0.01013400  1
  B  B17  1  0.35939400  0.28191000  0.48986600  1
  B  B18  1  0.14060600  0.28191000  0.98986600  1
  B  B19  1  0.64060600  0.71809000  0.51013400  1
  B  B20  1  0.66918200  0.51401400  0.10132900  1
  B  B21  1  0.16918200  0.48598600  0.39867100  1
  B  B22  1  0.33081800  0.48598600  0.89867100  1
  B  B23  1  0.83081800  0.51401400  0.60132900  1
  H  H24  1  0.76526800  0.33943600  0.42051400  1
  H  H25  1  0.26526800  0.66056400  0.07948600  1
  H  H26  1  0.23473200  0.66056400  0.57948600  1
  H  H27  1  0.73473200  0.33943600  0.92051400  1
  H  H28  1  0.00027800  0.87938300  0.92017100  1
  H  H29  1  0.50027800  0.12061700  0.57982900  1
  H  H30  1  0.99972200  0.12061700  0.07982900  1
  H  H31  1  0.49972200  0.87938300  0.42017100  1
  O  O32  1  0.05984600  0.64979600  0.40510200  1
  O  O33  1  0.55984600  0.35020400  0.09489800  1
  O  O34  1  0.94015400  0.35020400  0.59489800  1
  O  O35  1  0.44015400  0.64979600  0.90510200  1
  O  O36  1  0.89369100  0.96036800  0.37932400  1
  O  O37  1  0.39369100  0.03963200  0.12067600  1
  O  O38  1  0.10630900  0.03963200  0.62067600  1
  O  O39  1  0.60630900  0.96036800  0.87932400  1
  O  O40  1  0.73754200  0.29473100  0.35404100  1
  O  O41  1  0.23754200  0.70526900  0.14595900  1
  O  O42  1  0.26245800  0.70526900  0.64595900  1
  O  O43  1  0.76245800  0.29473100  0.85404100  1
  O  O44  1  0.94123700  0.69462700  0.24876500  1
  O  O45  1  0.44123700  0.30537300  0.25123500  1
  O  O46  1  0.05876300  0.30537300  0.75123500  1
  O  O47  1  0.55876300  0.69462700  0.74876500  1
  O  O48  1  0.77873400  0.03702300  0.22426700  1
  O  O49  1  0.27873400  0.96297700  0.27573300  1
  O  O50  1  0.22126600  0.96297700  0.77573300  1
  O  O51  1  0.72126600  0.03702300  0.72426700  1
  O  O52  1  0.89049300  0.85851800  0.08700900  1
  O  O53  1  0.39049300  0.14148200  0.41299100  1
  O  O54  1  0.10950700  0.14148200  0.91299100  1
  O  O55  1  0.60950700  0.85851800  0.58700900  1
  O  O56  1  0.69861200  0.64639400  0.18086300  1
  O  O57  1  0.19861200  0.35360600  0.31913700  1
  O  O58  1  0.30138800  0.35360600  0.81913700  1
  O  O59  1  0.80138800  0.64639400  0.68086300  1
  O  O60  1  0.93150100  0.74183700  0.92190000  1
  O  O61  1  0.43150100  0.25816300  0.57810000  1
  O  O62  1  0.06849900  0.25816300  0.07810000  1
  O  O63  1  0.56849900  0.74183700  0.42190000  1
  O  O64  1  0.75453700  0.54003500  0.01743500  1
  O  O65  1  0.25453700  0.45996500  0.48256500  1
  O  O66  1  0.24546300  0.45996500  0.98256500  1
  O  O67  1  0.74546300  0.54003500  0.51743500  1
