# generated using pymatgen
data_Tm2Ti2O7
_symmetry_space_group_name_H-M   'P 1'
_cell_length_a   5.28293300
_cell_length_b   7.47604900
_cell_length_c   13.14741993
_cell_angle_alpha   81.69323790
_cell_angle_beta   90.00000000
_cell_angle_gamma   90.00000000
_symmetry_Int_Tables_number   1
_chemical_formula_structural   Tm2Ti2O7
_chemical_formula_sum   'Tm8 Ti8 O28'
_cell_volume   513.81575112
_cell_formula_units_Z   4
loop_
 _symmetry_equiv_pos_site_id
 _symmetry_equiv_pos_as_xyz
  1  'x, y, z'
loop_
 _atom_site_type_symbol
 _atom_site_label
 _atom_site_symmetry_multiplicity
 _atom_site_fract_x
 _atom_site_fract_y
 _atom_site_fract_z
 _atom_site_occupancy
  Tm  Tm0  1  0.77580300  0.76511500  0.92641600  1
  Tm  Tm1  1  0.35854200  0.85883600  0.56092600  1
  Tm  Tm2  1  0.24612600  0.71357100  0.13612100  1
  Tm  Tm3  1  0.77853600  0.64446100  0.38575300  1
  Tm  Tm4  1  0.27853600  0.35553900  0.61424700  1
  Tm  Tm5  1  0.74612600  0.28642900  0.86387900  1
  Tm  Tm6  1  0.85854200  0.14116400  0.43907400  1
  Tm  Tm7  1  0.27580300  0.23488500  0.07358400  1
  Ti  Ti8  1  0.28239000  0.93036200  0.32098300  1
  Ti  Ti9  1  0.76967900  0.96995700  0.12184600  1
  Ti  Ti10  1  0.79351400  0.59043700  0.67122600  1
  Ti  Ti11  1  0.26845100  0.53071300  0.87405500  1
  Ti  Ti12  1  0.76845100  0.46928700  0.12594500  1
  Ti  Ti13  1  0.29351400  0.40956300  0.32877400  1
  Ti  Ti14  1  0.26967900  0.03004300  0.87815400  1
  Ti  Ti15  1  0.78239000  0.06963800  0.67901700  1
  O  O16  1  0.42938400  0.99349400  0.17781000  1
  O  O17  1  0.56471300  0.92822900  0.40873200  1
  O  O18  1  0.66384200  0.82796300  0.68275500  1
  O  O19  1  0.36077900  0.77930000  0.88099500  1
  O  O20  1  0.06485600  0.85721800  0.43201300  1
  O  O21  1  0.04536300  0.93481900  0.02565700  1
  O  O22  1  0.95189100  0.86728800  0.23378900  1
  O  O23  1  0.10082700  0.63670000  0.61791000  1
  O  O24  1  0.92795700  0.57946900  0.82350500  1
  O  O25  1  0.38683300  0.67353800  0.30461500  1
  O  O26  1  0.64476600  0.72826600  0.08838400  1
  O  O27  1  0.58796700  0.58649300  0.55092000  1
  O  O28  1  0.54238600  0.44899800  0.97285000  1
  O  O29  1  0.45373900  0.48201000  0.76338400  1
  O  O30  1  0.95373900  0.51799000  0.23661600  1
  O  O31  1  0.04238600  0.55100200  0.02715000  1
  O  O32  1  0.08796700  0.41350700  0.44908000  1
  O  O33  1  0.14476600  0.27173400  0.91161600  1
  O  O34  1  0.88683300  0.32646200  0.69538500  1
  O  O35  1  0.42795700  0.42053100  0.17649500  1
  O  O36  1  0.60082700  0.36330000  0.38209000  1
  O  O37  1  0.45189100  0.13271200  0.76621100  1
  O  O38  1  0.54536300  0.06518100  0.97434300  1
  O  O39  1  0.56485600  0.14278200  0.56798700  1
  O  O40  1  0.86077900  0.22070000  0.11900500  1
  O  O41  1  0.16384200  0.17203700  0.31724500  1
  O  O42  1  0.06471300  0.07177100  0.59126800  1
  O  O43  1  0.92938400  0.00650600  0.82219000  1
