# generated using pymatgen
data_RbVBP2HO9
_symmetry_space_group_name_H-M   'P 1'
_cell_length_a   8.47207600
_cell_length_b   9.53867500
_cell_length_c   9.82492120
_cell_angle_alpha   77.58533888
_cell_angle_beta   90.00000000
_cell_angle_gamma   90.00000000
_symmetry_Int_Tables_number   1
_chemical_formula_structural   RbVBP2HO9
_chemical_formula_sum   'Rb4 V4 B4 P8 H4 O36'
_cell_volume   775.40997441
_cell_formula_units_Z   4
loop_
 _symmetry_equiv_pos_site_id
 _symmetry_equiv_pos_as_xyz
  1  'x, y, z'
loop_
 _atom_site_type_symbol
 _atom_site_label
 _atom_site_symmetry_multiplicity
 _atom_site_fract_x
 _atom_site_fract_y
 _atom_site_fract_z
 _atom_site_occupancy
  Rb  Rb0  1  0.39881600  0.81127900  0.56175200  1
  Rb  Rb1  1  0.10118400  0.81127900  0.06175200  1
  Rb  Rb2  1  0.89881600  0.18872100  0.93824800  1
  Rb  Rb3  1  0.60118400  0.18872100  0.43824800  1
  V  V4  1  0.65223600  0.79164300  0.93540500  1
  V  V5  1  0.84776400  0.79164300  0.43540500  1
  V  V6  1  0.15223600  0.20835700  0.56459500  1
  V  V7  1  0.34776400  0.20835700  0.06459500  1
  B  B8  1  0.05749900  0.66587000  0.69557800  1
  B  B9  1  0.44250100  0.66587000  0.19557800  1
  B  B10  1  0.55749900  0.33413000  0.80442200  1
  B  B11  1  0.94250100  0.33413000  0.30442200  1
  P  P12  1  0.93544400  0.92537800  0.70942300  1
  P  P13  1  0.56455600  0.92537800  0.20942300  1
  P  P14  1  0.73996500  0.57844100  0.71842200  1
  P  P15  1  0.76003500  0.57844100  0.21842200  1
  P  P16  1  0.23996500  0.42155900  0.78157800  1
  P  P17  1  0.26003500  0.42155900  0.28157800  1
  P  P18  1  0.43544400  0.07462200  0.79057700  1
  P  P19  1  0.06455600  0.07462200  0.29057700  1
  H  H20  1  0.08439800  0.60844800  0.50222200  1
  H  H21  1  0.41560200  0.60844800  0.00222200  1
  H  H22  1  0.58439800  0.39155200  0.99777800  1
  H  H23  1  0.91560200  0.39155200  0.49777800  1
  O  O24  1  0.51312300  0.92741900  0.80478700  1
  O  O25  1  0.84415400  0.89701300  0.84848900  1
  O  O26  1  0.83346000  0.91268200  0.58316700  1
  O  O27  1  0.98687700  0.92741900  0.30478700  1
  O  O28  1  0.65584600  0.89701300  0.34848900  1
  O  O29  1  0.07381300  0.80857600  0.72762600  1
  O  O30  1  0.66654000  0.91268200  0.08316700  1
  O  O31  1  0.42618700  0.80857600  0.22762600  1
  O  O32  1  0.63028300  0.65268300  0.80383300  1
  O  O33  1  0.05046800  0.69019300  0.53909900  1
  O  O34  1  0.71999200  0.63411900  0.56110800  1
  O  O35  1  0.91747500  0.58671400  0.76241500  1
  O  O36  1  0.20380500  0.58771200  0.74543400  1
  O  O37  1  0.86971700  0.65268300  0.30383300  1
  O  O38  1  0.44953200  0.69019300  0.03909900  1
  O  O39  1  0.78000800  0.63411900  0.06110800  1
  O  O40  1  0.58252500  0.58671400  0.26241500  1
  O  O41  1  0.29619500  0.58771200  0.24543400  1
  O  O42  1  0.70380500  0.41228800  0.75456600  1
  O  O43  1  0.41747500  0.41328600  0.73758500  1
  O  O44  1  0.21999200  0.36588100  0.93889200  1
  O  O45  1  0.55046800  0.30980700  0.96090100  1
  O  O46  1  0.13028300  0.34731700  0.69616700  1
  O  O47  1  0.79619500  0.41228800  0.25456600  1
  O  O48  1  0.08252500  0.41328600  0.23758500  1
  O  O49  1  0.28000800  0.36588100  0.43889200  1
  O  O50  1  0.94953200  0.30980700  0.46090100  1
  O  O51  1  0.36971700  0.34731700  0.19616700  1
  O  O52  1  0.57381300  0.19142400  0.77237400  1
  O  O53  1  0.33346000  0.08731800  0.91683300  1
  O  O54  1  0.92618700  0.19142400  0.27237400  1
  O  O55  1  0.34415400  0.10298700  0.65151100  1
  O  O56  1  0.01312300  0.07258100  0.69521300  1
  O  O57  1  0.16654000  0.08731800  0.41683300  1
  O  O58  1  0.15584600  0.10298700  0.15151100  1
  O  O59  1  0.48687700  0.07258100  0.19521300  1
