# generated using pymatgen
data_Al2H12(SeO5)3
_symmetry_space_group_name_H-M   'P 1'
_cell_length_a   8.81693911
_cell_length_b   8.81693911
_cell_length_c   10.93913700
_cell_angle_alpha   90.00000000
_cell_angle_beta   90.00000000
_cell_angle_gamma   119.99999335
_symmetry_Int_Tables_number   1
_chemical_formula_structural   Al2H12(SeO5)3
_chemical_formula_sum   'Al4 H24 Se6 O30'
_cell_volume   736.46041048
_cell_formula_units_Z   2
loop_
 _symmetry_equiv_pos_site_id
 _symmetry_equiv_pos_as_xyz
  1  'x, y, z'
loop_
 _atom_site_type_symbol
 _atom_site_label
 _atom_site_symmetry_multiplicity
 _atom_site_fract_x
 _atom_site_fract_y
 _atom_site_fract_z
 _atom_site_occupancy
  Al  Al0  1  0.33333300  0.66666700  0.96540400  1
  Al  Al1  1  0.33333300  0.66666700  0.53459600  1
  Al  Al2  1  0.66666700  0.33333300  0.46540400  1
  Al  Al3  1  0.66666700  0.33333300  0.03459600  1
  H  H4  1  0.80053900  0.21709100  0.63202200  1
  H  H5  1  0.78290900  0.58344900  0.63202200  1
  H  H6  1  0.41655100  0.19946100  0.63202200  1
  H  H7  1  0.80053900  0.21709100  0.86797800  1
  H  H8  1  0.78290900  0.58344900  0.86797800  1
  H  H9  1  0.41655100  0.19946100  0.86797800  1
  H  H10  1  0.21709100  0.80053900  0.13202200  1
  H  H11  1  0.58344900  0.78290900  0.13202200  1
  H  H12  1  0.19946100  0.41655100  0.13202200  1
  H  H13  1  0.21709100  0.80053900  0.36797800  1
  H  H14  1  0.58344900  0.78290900  0.36797800  1
  H  H15  1  0.19946100  0.41655100  0.36797800  1
  H  H16  1  0.94091800  0.41752800  0.59272000  1
  H  H17  1  0.58247200  0.52339000  0.59272000  1
  H  H18  1  0.47661000  0.05908200  0.59272000  1
  H  H19  1  0.94091800  0.41752800  0.90728000  1
  H  H20  1  0.58247200  0.52339000  0.90728000  1
  H  H21  1  0.47661000  0.05908200  0.90728000  1
  H  H22  1  0.41752800  0.94091800  0.09272000  1
  H  H23  1  0.52339000  0.58247200  0.09272000  1
  H  H24  1  0.05908200  0.47661000  0.09272000  1
  H  H25  1  0.41752800  0.94091800  0.40728000  1
  H  H26  1  0.52339000  0.58247200  0.40728000  1
  H  H27  1  0.05908200  0.47661000  0.40728000  1
  Se  Se28  1  0.61683600  0.87779000  0.75000000  1
  Se  Se29  1  0.12221000  0.73904500  0.75000000  1
  Se  Se30  1  0.26095500  0.38316400  0.75000000  1
  Se  Se31  1  0.87779000  0.61683600  0.25000000  1
  Se  Se32  1  0.73904500  0.12221000  0.25000000  1
  Se  Se33  1  0.38316400  0.26095500  0.25000000  1
  O  O34  1  0.47627100  0.16742900  0.56667300  1
  O  O35  1  0.83257100  0.30884300  0.56667300  1
  O  O36  1  0.69115700  0.52372900  0.56667300  1
  O  O37  1  0.47627100  0.16742900  0.93332700  1
  O  O38  1  0.83257100  0.30884300  0.93332700  1
  O  O39  1  0.69115700  0.52372900  0.93332700  1
  O  O40  1  0.16742900  0.47627100  0.06667300  1
  O  O41  1  0.30884300  0.83257100  0.06667300  1
  O  O42  1  0.52372900  0.69115700  0.06667300  1
  O  O43  1  0.16742900  0.47627100  0.43332700  1
  O  O44  1  0.30884300  0.83257100  0.43332700  1
  O  O45  1  0.52372900  0.69115700  0.43332700  1
  O  O46  1  0.38654100  0.51588400  0.87212200  1
  O  O47  1  0.48411600  0.87065700  0.87212200  1
  O  O48  1  0.12934300  0.61345900  0.87212200  1
  O  O49  1  0.38654100  0.51588400  0.62787800  1
  O  O50  1  0.48411600  0.87065700  0.62787800  1
  O  O51  1  0.12934300  0.61345900  0.62787800  1
  O  O52  1  0.51588400  0.38654100  0.37212200  1
  O  O53  1  0.87065700  0.48411600  0.37212200  1
  O  O54  1  0.61345900  0.12934300  0.37212200  1
  O  O55  1  0.51588400  0.38654100  0.12787800  1
  O  O56  1  0.87065700  0.48411600  0.12787800  1
  O  O57  1  0.61345900  0.12934300  0.12787800  1
  O  O58  1  0.76973300  0.09333400  0.75000000  1
  O  O59  1  0.90666600  0.67639900  0.75000000  1
  O  O60  1  0.32360100  0.23026700  0.75000000  1
  O  O61  1  0.09333400  0.76973300  0.25000000  1
  O  O62  1  0.67639900  0.90666600  0.25000000  1
  O  O63  1  0.23026700  0.32360100  0.25000000  1
