# generated using pymatgen
data_Cs2MgH12(SeO7)2
_symmetry_space_group_name_H-M   'P 1'
_cell_length_a   13.10914800
_cell_length_b   6.57584900
_cell_length_c   9.58411285
_cell_angle_alpha   74.13383137
_cell_angle_beta   90.00000000
_cell_angle_gamma   90.00000000
_symmetry_Int_Tables_number   1
_chemical_formula_structural   Cs2MgH12(SeO7)2
_chemical_formula_sum   'Cs4 Mg2 H24 Se4 O28'
_cell_volume   794.71142038
_cell_formula_units_Z   2
loop_
 _symmetry_equiv_pos_site_id
 _symmetry_equiv_pos_as_xyz
  1  'x, y, z'
loop_
 _atom_site_type_symbol
 _atom_site_label
 _atom_site_symmetry_multiplicity
 _atom_site_fract_x
 _atom_site_fract_y
 _atom_site_fract_z
 _atom_site_occupancy
  Cs  Cs0  1  0.35153100  0.64980900  0.12967300  1
  Cs  Cs1  1  0.85153100  0.35019100  0.37032700  1
  Cs  Cs2  1  0.14846900  0.64980900  0.62967300  1
  Cs  Cs3  1  0.64846900  0.35019100  0.87032700  1
  Mg  Mg4  1  0.00000000  0.00000000  0.00000000  1
  Mg  Mg5  1  0.50000000  0.00000000  0.50000000  1
  H  H6  1  0.05621100  0.33261900  0.09575100  1
  H  H7  1  0.86622100  0.68102100  0.02632800  1
  H  H8  1  0.40639400  0.06483300  0.23184500  1
  H  H9  1  0.63080400  0.08893700  0.26988700  1
  H  H10  1  0.09448500  0.68917000  0.20329900  1
  H  H11  1  0.82152600  0.99378200  0.14652700  1
  H  H12  1  0.32152600  0.00621800  0.35347300  1
  H  H13  1  0.59448500  0.31083000  0.29670100  1
  H  H14  1  0.13080400  0.91106300  0.23011300  1
  H  H15  1  0.90639400  0.93516700  0.26815500  1
  H  H16  1  0.36622100  0.31897900  0.47367200  1
  H  H17  1  0.55621100  0.66738100  0.40424900  1
  H  H18  1  0.44378900  0.33261900  0.59575100  1
  H  H19  1  0.63377900  0.68102100  0.52632800  1
  H  H20  1  0.09360600  0.06483300  0.73184500  1
  H  H21  1  0.86919600  0.08893700  0.76988700  1
  H  H22  1  0.40551500  0.68917000  0.70329900  1
  H  H23  1  0.67847400  0.99378200  0.64652700  1
  H  H24  1  0.17847400  0.00621800  0.85347300  1
  H  H25  1  0.90551500  0.31083000  0.79670100  1
  H  H26  1  0.36919600  0.91106300  0.73011300  1
  H  H27  1  0.59360600  0.93516700  0.76815500  1
  H  H28  1  0.13377900  0.31897900  0.97367200  1
  H  H29  1  0.94378900  0.66738100  0.90424900  1
  Se  Se30  1  0.64672900  0.74206700  0.10213500  1
  Se  Se31  1  0.14672900  0.25793300  0.39786500  1
  Se  Se32  1  0.85327100  0.74206700  0.60213500  1
  Se  Se33  1  0.35327100  0.25793300  0.89786500  1
  O  O34  1  0.06172900  0.28658700  0.00585700  1
  O  O35  1  0.42436000  0.19560200  0.04864800  1
  O  O36  1  0.89516700  0.01496200  0.16514200  1
  O  O37  1  0.74657600  0.59387500  0.08102200  1
  O  O38  1  0.10667200  0.84179100  0.15627700  1
  O  O39  1  0.68895200  0.96200800  0.14205700  1
  O  O40  1  0.07452000  0.40294900  0.26116000  1
  O  O41  1  0.57452000  0.59705100  0.23884000  1
  O  O42  1  0.18895200  0.03799200  0.35794300  1
  O  O43  1  0.60667200  0.15820900  0.34372300  1
  O  O44  1  0.24657600  0.40612500  0.41897800  1
  O  O45  1  0.39516700  0.98503800  0.33485800  1
  O  O46  1  0.43827100  0.28658700  0.50585700  1
  O  O47  1  0.07564000  0.19560200  0.54864800  1
  O  O48  1  0.92436000  0.80439800  0.45135200  1
  O  O49  1  0.56172900  0.71341300  0.49414300  1
  O  O50  1  0.60483300  0.01496200  0.66514200  1
  O  O51  1  0.75342400  0.59387500  0.58102200  1
  O  O52  1  0.39332800  0.84179100  0.65627700  1
  O  O53  1  0.81104800  0.96200800  0.64205700  1
  O  O54  1  0.42548000  0.40294900  0.76116000  1
  O  O55  1  0.92548000  0.59705100  0.73884000  1
  O  O56  1  0.31104800  0.03799200  0.85794300  1
  O  O57  1  0.89332800  0.15820900  0.84372300  1
  O  O58  1  0.25342400  0.40612500  0.91897800  1
  O  O59  1  0.10483300  0.98503800  0.83485800  1
  O  O60  1  0.57564000  0.80439800  0.95135200  1
  O  O61  1  0.93827100  0.71341300  0.99414300  1
