# generated using pymatgen
data_PrAsO4
_symmetry_space_group_name_H-M   'P 1'
_cell_length_a   6.18728715
_cell_length_b   6.18728715
_cell_length_c   6.18728715
_cell_angle_alpha   106.32744909
_cell_angle_beta   106.32744909
_cell_angle_gamma   115.96021935
_symmetry_Int_Tables_number   1
_chemical_formula_structural   PrAsO4
_chemical_formula_sum   'Pr2 As2 O8'
_cell_volume   180.56525166
_cell_formula_units_Z   2
loop_
 _symmetry_equiv_pos_site_id
 _symmetry_equiv_pos_as_xyz
  1  'x, y, z'
loop_
 _atom_site_type_symbol
 _atom_site_label
 _atom_site_symmetry_multiplicity
 _atom_site_fract_x
 _atom_site_fract_y
 _atom_site_fract_z
 _atom_site_occupancy
  Pr  Pr0  1  0.25000000  0.75000000  0.50000000  1
  Pr  Pr1  1  0.00000000  0.00000000  0.00000000  1
  As  As2  1  0.50000000  0.50000000  0.00000000  1
  As  As3  1  0.75000000  0.25000000  0.50000000  1
  O  O4  1  0.33115600  0.50932100  0.17816500  1
  O  O5  1  0.84700900  0.66884400  0.17816500  1
  O  O6  1  0.40299100  0.08115600  0.32183500  1
  O  O7  1  0.49067900  0.66884400  0.82183500  1
  O  O8  1  0.33115600  0.15299100  0.82183500  1
  O  O9  1  0.91884400  0.24067900  0.32183500  1
  O  O10  1  0.91884400  0.59700900  0.67816500  1
  O  O11  1  0.75932100  0.08115600  0.67816500  1
