# generated using pymatgen
data_CsFeH4Cl3O2
_symmetry_space_group_name_H-M   'P 1'
_cell_length_a   7.32817800
_cell_length_b   9.05840800
_cell_length_c   11.59416800
_cell_angle_alpha   90.00000000
_cell_angle_beta   90.00000000
_cell_angle_gamma   90.00000000
_symmetry_Int_Tables_number   1
_chemical_formula_structural   CsFeH4Cl3O2
_chemical_formula_sum   'Cs4 Fe4 H16 Cl12 O8'
_cell_volume   769.63972652
_cell_formula_units_Z   4
loop_
 _symmetry_equiv_pos_site_id
 _symmetry_equiv_pos_as_xyz
  1  'x, y, z'
loop_
 _atom_site_type_symbol
 _atom_site_label
 _atom_site_symmetry_multiplicity
 _atom_site_fract_x
 _atom_site_fract_y
 _atom_site_fract_z
 _atom_site_occupancy
  Cs  Cs0  1  0.00000000  0.25000000  0.64800900  1
  Cs  Cs1  1  0.00000000  0.75000000  0.85199100  1
  Cs  Cs2  1  0.00000000  0.75000000  0.35199100  1
  Cs  Cs3  1  0.00000000  0.25000000  0.14800900  1
  Fe  Fe4  1  0.52894400  0.00000000  0.75000000  1
  Fe  Fe5  1  0.47105600  0.50000000  0.75000000  1
  Fe  Fe6  1  0.47105600  0.00000000  0.25000000  1
  Fe  Fe7  1  0.52894400  0.50000000  0.25000000  1
  H  H8  1  0.31184200  0.02047700  0.94366700  1
  H  H9  1  0.68815800  0.47952300  0.94366700  1
  H  H10  1  0.68815800  0.52047700  0.55633300  1
  H  H11  1  0.31184200  0.97952300  0.55633300  1
  H  H12  1  0.68815800  0.97952300  0.05633300  1
  H  H13  1  0.31184200  0.52047700  0.05633300  1
  H  H14  1  0.31184200  0.47952300  0.44366700  1
  H  H15  1  0.68815800  0.02047700  0.44366700  1
  H  H16  1  0.30771800  0.17686400  0.88135000  1
  H  H17  1  0.69228200  0.32313600  0.88135000  1
  H  H18  1  0.69228200  0.67686400  0.61865000  1
  H  H19  1  0.30771800  0.82313600  0.61865000  1
  H  H20  1  0.69228200  0.82313600  0.11865000  1
  H  H21  1  0.30771800  0.67686400  0.11865000  1
  H  H22  1  0.30771800  0.32313600  0.38135000  1
  H  H23  1  0.69228200  0.17686400  0.38135000  1
  Cl  Cl24  1  0.50000000  0.25000000  0.65253000  1
  Cl  Cl25  1  0.50000000  0.75000000  0.84747000  1
  Cl  Cl26  1  0.50000000  0.75000000  0.34747000  1
  Cl  Cl27  1  0.50000000  0.25000000  0.15253000  1
  Cl  Cl28  1  0.76900800  0.08874000  0.88976900  1
  Cl  Cl29  1  0.23099200  0.41126000  0.88976900  1
  Cl  Cl30  1  0.23099200  0.58874000  0.61023100  1
  Cl  Cl31  1  0.76900800  0.91126000  0.61023100  1
  Cl  Cl32  1  0.23099200  0.91126000  0.11023100  1
  Cl  Cl33  1  0.76900800  0.58874000  0.11023100  1
  Cl  Cl34  1  0.76900800  0.41126000  0.38976900  1
  Cl  Cl35  1  0.23099200  0.08874000  0.38976900  1
  O  O36  1  0.31617800  0.06940400  0.86730400  1
  O  O37  1  0.68382200  0.43059600  0.86730400  1
  O  O38  1  0.68382200  0.56940400  0.63269600  1
  O  O39  1  0.31617800  0.93059600  0.63269600  1
  O  O40  1  0.68382200  0.93059600  0.13269600  1
  O  O41  1  0.31617800  0.56940400  0.13269600  1
  O  O42  1  0.31617800  0.43059600  0.36730400  1
  O  O43  1  0.68382200  0.06940400  0.36730400  1
