# generated using pymatgen
data_Ba7Cu3H17
_symmetry_space_group_name_H-M   'P 1'
_cell_length_a   11.90338765
_cell_length_b   11.90338765
_cell_length_c   7.44798500
_cell_angle_alpha   90.00000000
_cell_angle_beta   90.00000000
_cell_angle_gamma   119.99999808
_symmetry_Int_Tables_number   1
_chemical_formula_structural   Ba7Cu3H17
_chemical_formula_sum   'Ba14 Cu6 H34'
_cell_volume   913.92506473
_cell_formula_units_Z   2
loop_
 _symmetry_equiv_pos_site_id
 _symmetry_equiv_pos_as_xyz
  1  'x, y, z'
loop_
 _atom_site_type_symbol
 _atom_site_label
 _atom_site_symmetry_multiplicity
 _atom_site_fract_x
 _atom_site_fract_y
 _atom_site_fract_z
 _atom_site_occupancy
  Ba  Ba0  1  0.87846300  0.15311300  0.67281700  1
  Ba  Ba1  1  0.84688700  0.72535000  0.67281700  1
  Ba  Ba2  1  0.27465000  0.12153700  0.67281700  1
  Ba  Ba3  1  0.15311300  0.87846300  0.17281700  1
  Ba  Ba4  1  0.72535000  0.84688700  0.17281700  1
  Ba  Ba5  1  0.12153700  0.27465000  0.17281700  1
  Ba  Ba6  1  0.45296700  0.55721200  0.53306300  1
  Ba  Ba7  1  0.44278800  0.89575500  0.53306300  1
  Ba  Ba8  1  0.10424500  0.54703300  0.53306300  1
  Ba  Ba9  1  0.55721200  0.45296700  0.03306300  1
  Ba  Ba10  1  0.89575500  0.44278800  0.03306300  1
  Ba  Ba11  1  0.54703300  0.10424500  0.03306300  1
  Ba  Ba12  1  0.66666700  0.33333300  0.51538700  1
  Ba  Ba13  1  0.33333300  0.66666700  0.01538700  1
  Cu  Cu14  1  0.65631600  0.83672600  0.75874200  1
  Cu  Cu15  1  0.16327400  0.81959000  0.75874200  1
  Cu  Cu16  1  0.18041000  0.34368400  0.75874200  1
  Cu  Cu17  1  0.83672600  0.65631600  0.25874200  1
  Cu  Cu18  1  0.81959000  0.16327400  0.25874200  1
  Cu  Cu19  1  0.34368400  0.18041000  0.25874200  1
  H  H20  1  0.58618800  0.90763900  0.86334400  1
  H  H21  1  0.09236100  0.67854900  0.86334400  1
  H  H22  1  0.32145100  0.41381200  0.86334400  1
  H  H23  1  0.90763900  0.58618800  0.36334400  1
  H  H24  1  0.67854900  0.09236100  0.36334400  1
  H  H25  1  0.41381200  0.32145100  0.36334400  1
  H  H26  1  0.63766600  0.81980700  0.53854400  1
  H  H27  1  0.18019300  0.81785900  0.53854400  1
  H  H28  1  0.18214100  0.36233400  0.53854400  1
  H  H29  1  0.81980700  0.63766600  0.03854400  1
  H  H30  1  0.81785900  0.18019300  0.03854400  1
  H  H31  1  0.36233400  0.18214100  0.03854400  1
  H  H32  1  0.60389500  0.69272100  0.84919200  1
  H  H33  1  0.30727900  0.91117300  0.84919200  1
  H  H34  1  0.08882700  0.39610500  0.84919200  1
  H  H35  1  0.69272100  0.60389500  0.34919200  1
  H  H36  1  0.91117300  0.30727900  0.34919200  1
  H  H37  1  0.39610500  0.08882700  0.34919200  1
  H  H38  1  0.81222700  0.91453000  0.81252500  1
  H  H39  1  0.08547000  0.89769700  0.81252500  1
  H  H40  1  0.10230300  0.18777300  0.81252500  1
  H  H41  1  0.91453000  0.81222700  0.31252500  1
  H  H42  1  0.89769700  0.08547000  0.31252500  1
  H  H43  1  0.18777300  0.10230300  0.31252500  1
  H  H44  1  0.87673600  0.37651800  0.69005300  1
  H  H45  1  0.62348200  0.50021800  0.69005300  1
  H  H46  1  0.49978200  0.12326400  0.69005300  1
  H  H47  1  0.37651800  0.87673600  0.19005300  1
  H  H48  1  0.50021800  0.62348200  0.19005300  1
  H  H49  1  0.12326400  0.49978200  0.19005300  1
  H  H50  1  0.66666700  0.33333300  0.18006500  1
  H  H51  1  0.33333300  0.66666700  0.68006500  1
  H  H52  1  0.66666700  0.33333300  0.87132300  1
  H  H53  1  0.33333300  0.66666700  0.37132300  1
