# generated using pymatgen
data_H15RhBr3N5
_symmetry_space_group_name_H-M   'P 1'
_cell_length_a   7.11763200
_cell_length_b   11.09600000
_cell_length_c   14.10139600
_cell_angle_alpha   90.00000000
_cell_angle_beta   90.00000000
_cell_angle_gamma   90.00000000
_symmetry_Int_Tables_number   1
_chemical_formula_structural   H15RhBr3N5
_chemical_formula_sum   'H60 Rh4 Br12 N20'
_cell_volume   1113.68940211
_cell_formula_units_Z   4
loop_
 _symmetry_equiv_pos_site_id
 _symmetry_equiv_pos_as_xyz
  1  'x, y, z'
loop_
 _atom_site_type_symbol
 _atom_site_label
 _atom_site_symmetry_multiplicity
 _atom_site_fract_x
 _atom_site_fract_y
 _atom_site_fract_z
 _atom_site_occupancy
  H  H0  1  0.09113900  0.02587800  0.15354300  1
  H  H1  1  0.40886100  0.47412200  0.65354300  1
  H  H2  1  0.90886100  0.52587800  0.84645700  1
  H  H3  1  0.59113900  0.97412200  0.34645700  1
  H  H4  1  0.90886100  0.97412200  0.84645700  1
  H  H5  1  0.59113900  0.52587800  0.34645700  1
  H  H6  1  0.09113900  0.47412200  0.15354300  1
  H  H7  1  0.40886100  0.02587800  0.65354300  1
  H  H8  1  0.13261200  0.03007500  0.03721500  1
  H  H9  1  0.36738800  0.46992500  0.53721500  1
  H  H10  1  0.86738800  0.53007500  0.96278500  1
  H  H11  1  0.63261200  0.96992500  0.46278500  1
  H  H12  1  0.86738800  0.96992500  0.96278500  1
  H  H13  1  0.63261200  0.53007500  0.46278500  1
  H  H14  1  0.13261200  0.46992500  0.03721500  1
  H  H15  1  0.36738800  0.03007500  0.53721500  1
  H  H16  1  0.30985900  0.02816800  0.11384500  1
  H  H17  1  0.19014100  0.47183200  0.61384500  1
  H  H18  1  0.69014100  0.52816800  0.88615500  1
  H  H19  1  0.80985900  0.97183200  0.38615500  1
  H  H20  1  0.69014100  0.97183200  0.88615500  1
  H  H21  1  0.80985900  0.52816800  0.38615500  1
  H  H22  1  0.30985900  0.47183200  0.11384500  1
  H  H23  1  0.19014100  0.02816800  0.61384500  1
  H  H24  1  0.99327200  0.25000000  0.26745600  1
  H  H25  1  0.50672800  0.25000000  0.76745600  1
  H  H26  1  0.00672800  0.75000000  0.73254400  1
  H  H27  1  0.49327200  0.75000000  0.23254400  1
  H  H28  1  0.86573500  0.17457400  0.18871300  1
  H  H29  1  0.63426500  0.32542600  0.68871300  1
  H  H30  1  0.13426500  0.67457400  0.81128700  1
  H  H31  1  0.36573500  0.82542600  0.31128700  1
  H  H32  1  0.13426500  0.82542600  0.81128700  1
  H  H33  1  0.36573500  0.67457400  0.31128700  1
  H  H34  1  0.86573500  0.32542600  0.18871300  1
  H  H35  1  0.63426500  0.17457400  0.68871300  1
  H  H36  1  0.52825500  0.25000000  0.04447600  1
  H  H37  1  0.97174500  0.25000000  0.54447600  1
  H  H38  1  0.47174500  0.75000000  0.95552400  1
  H  H39  1  0.02825500  0.75000000  0.45552400  1
  H  H40  1  0.39751700  0.32555100  0.96728800  1
  H  H41  1  0.10248300  0.17444900  0.46728800  1
  H  H42  1  0.60248300  0.82555100  0.03271200  1
  H  H43  1  0.89751700  0.67444900  0.53271200  1
  H  H44  1  0.60248300  0.67444900  0.03271200  1
  H  H45  1  0.89751700  0.82555100  0.53271200  1
  H  H46  1  0.39751700  0.17444900  0.96728800  1
  H  H47  1  0.10248300  0.32555100  0.46728800  1
  H  H48  1  0.29796200  0.25000000  0.28131700  1
  H  H49  1  0.20203800  0.25000000  0.78131700  1
  H  H50  1  0.70203800  0.75000000  0.71868300  1
  H  H51  1  0.79796200  0.75000000  0.21868300  1
  H  H52  1  0.44730200  0.32571000  0.21475200  1
  H  H53  1  0.05269800  0.17429000  0.71475200  1
  H  H54  1  0.55269800  0.82571000  0.78524800  1
  H  H55  1  0.94730200  0.67429000  0.28524800  1
  H  H56  1  0.55269800  0.67429000  0.78524800  1
  H  H57  1  0.94730200  0.82571000  0.28524800  1
  H  H58  1  0.44730200  0.17429000  0.21475200  1
  H  H59  1  0.05269800  0.32571000  0.71475200  1
  Rh  Rh60  1  0.17351100  0.25000000  0.10313400  1
  Rh  Rh61  1  0.32648900  0.25000000  0.60313400  1
  Rh  Rh62  1  0.82648900  0.75000000  0.89686600  1
  Rh  Rh63  1  0.67351100  0.75000000  0.39686600  1
  Br  Br64  1  0.94340100  0.25000000  0.96599500  1
  Br  Br65  1  0.55659900  0.25000000  0.46599500  1
  Br  Br66  1  0.05659900  0.75000000  0.03400500  1
  Br  Br67  1  0.44340100  0.75000000  0.53400500  1
  Br  Br68  1  0.84759500  0.50129800  0.64817400  1
  Br  Br69  1  0.65240500  0.99870200  0.14817400  1
  Br  Br70  1  0.15240500  0.00129800  0.35182600  1
  Br  Br71  1  0.34759500  0.49870200  0.85182600  1
  Br  Br72  1  0.15240500  0.49870200  0.35182600  1
  Br  Br73  1  0.34759500  0.00129800  0.85182600  1
  Br  Br74  1  0.84759500  0.99870200  0.64817400  1
  Br  Br75  1  0.65240500  0.50129800  0.14817400  1
  N  N76  1  0.36291500  0.25000000  0.21655100  1
  N  N77  1  0.13708500  0.25000000  0.71655100  1
  N  N78  1  0.63708500  0.75000000  0.78344900  1
  N  N79  1  0.86291500  0.75000000  0.28344900  1
  N  N80  1  0.94880700  0.25000000  0.19850200  1
  N  N81  1  0.55119300  0.25000000  0.69850200  1
  N  N82  1  0.05119300  0.75000000  0.80149800  1
  N  N83  1  0.44880700  0.75000000  0.30149800  1
  N  N84  1  0.40135500  0.25000000  0.01000400  1
  N  N85  1  0.09864500  0.25000000  0.51000400  1
  N  N86  1  0.59864500  0.75000000  0.98999600  1
  N  N87  1  0.90135500  0.75000000  0.48999600  1
  N  N88  1  0.17664400  0.06162200  0.10216700  1
  N  N89  1  0.32335600  0.43837800  0.60216700  1
  N  N90  1  0.82335600  0.56162200  0.89783300  1
  N  N91  1  0.67664400  0.93837800  0.39783300  1
  N  N92  1  0.82335600  0.93837800  0.89783300  1
  N  N93  1  0.67664400  0.56162200  0.39783300  1
  N  N94  1  0.17664400  0.43837800  0.10216700  1
  N  N95  1  0.32335600  0.06162200  0.60216700  1
