# generated using pymatgen
data_Tm2WO6
_symmetry_space_group_name_H-M   'P 1'
_cell_length_a   5.33015900
_cell_length_b   7.62013300
_cell_length_c   11.35534561
_cell_angle_alpha   75.22115550
_cell_angle_beta   90.00000000
_cell_angle_gamma   90.00000000
_symmetry_Int_Tables_number   1
_chemical_formula_structural   Tm2WO6
_chemical_formula_sum   'Tm8 W4 O24'
_cell_volume   445.95656017
_cell_formula_units_Z   4
loop_
 _symmetry_equiv_pos_site_id
 _symmetry_equiv_pos_as_xyz
  1  'x, y, z'
loop_
 _atom_site_type_symbol
 _atom_site_label
 _atom_site_symmetry_multiplicity
 _atom_site_fract_x
 _atom_site_fract_y
 _atom_site_fract_z
 _atom_site_occupancy
  Tm  Tm0  1  0.73817500  0.00000000  0.75000000  1
  Tm  Tm1  1  0.26182500  0.00000000  0.25000000  1
  Tm  Tm2  1  0.18681500  0.79685300  0.57853600  1
  Tm  Tm3  1  0.81318500  0.79685300  0.07853600  1
  Tm  Tm4  1  0.68379700  0.50000000  0.75000000  1
  Tm  Tm5  1  0.31620300  0.50000000  0.25000000  1
  Tm  Tm6  1  0.18681500  0.20314700  0.92146400  1
  Tm  Tm7  1  0.81318500  0.20314700  0.42146400  1
  W  W8  1  0.25492200  0.72129200  0.88651200  1
  W  W9  1  0.74507800  0.72129200  0.38651200  1
  W  W10  1  0.25492200  0.27870800  0.61348800  1
  W  W11  1  0.74507800  0.27870800  0.11348800  1
  O  O12  1  0.03749300  0.94028200  0.89579400  1
  O  O13  1  0.53146600  0.85142200  0.93083600  1
  O  O14  1  0.96250700  0.94028200  0.39579400  1
  O  O15  1  0.46455400  0.78846300  0.72646700  1
  O  O16  1  0.46853400  0.85142200  0.43083600  1
  O  O17  1  0.98192800  0.70998300  0.76979500  1
  O  O18  1  0.53544600  0.78846300  0.22646700  1
  O  O19  1  0.85291100  0.63303400  0.55026100  1
  O  O20  1  0.36373700  0.48670600  0.88712100  1
  O  O21  1  0.01807200  0.70998300  0.26979500  1
  O  O22  1  0.36373700  0.51329400  0.61287900  1
  O  O23  1  0.85291100  0.36696600  0.94973900  1
  O  O24  1  0.14708900  0.63303400  0.05026100  1
  O  O25  1  0.63626300  0.48670600  0.38712100  1
  O  O26  1  0.98192800  0.29001700  0.73020500  1
  O  O27  1  0.63626300  0.51329400  0.11287900  1
  O  O28  1  0.14708900  0.36696600  0.44973900  1
  O  O29  1  0.46455400  0.21153700  0.77353300  1
  O  O30  1  0.01807200  0.29001700  0.23020500  1
  O  O31  1  0.53146600  0.14857800  0.56916400  1
  O  O32  1  0.53544600  0.21153700  0.27353300  1
  O  O33  1  0.03749300  0.05971800  0.60420600  1
  O  O34  1  0.46853400  0.14857800  0.06916400  1
  O  O35  1  0.96250700  0.05971800  0.10420600  1
