# generated using pymatgen
data_ZnSb
_symmetry_space_group_name_H-M   'P 1'
_cell_length_a   6.28387200
_cell_length_b   7.82284500
_cell_length_c   8.23234600
_cell_angle_alpha   90.00000000
_cell_angle_beta   90.00000000
_cell_angle_gamma   90.00000000
_symmetry_Int_Tables_number   1
_chemical_formula_structural   ZnSb
_chemical_formula_sum   'Zn8 Sb8'
_cell_volume   404.68366137
_cell_formula_units_Z   8
loop_
 _symmetry_equiv_pos_site_id
 _symmetry_equiv_pos_as_xyz
  1  'x, y, z'
loop_
 _atom_site_type_symbol
 _atom_site_label
 _atom_site_symmetry_multiplicity
 _atom_site_fract_x
 _atom_site_fract_y
 _atom_site_fract_z
 _atom_site_occupancy
  Zn  Zn0  1  0.45971300  0.10641100  0.87268200  1
  Zn  Zn1  1  0.95971300  0.39358900  0.12731800  1
  Zn  Zn2  1  0.54028700  0.60641100  0.62731800  1
  Zn  Zn3  1  0.04028700  0.89358900  0.37268200  1
  Zn  Zn4  1  0.54028700  0.89358900  0.12731800  1
  Zn  Zn5  1  0.04028700  0.60641100  0.87268200  1
  Zn  Zn6  1  0.45971300  0.39358900  0.37268200  1
  Zn  Zn7  1  0.95971300  0.10641100  0.62731800  1
  Sb  Sb8  1  0.14184800  0.08268100  0.10930900  1
  Sb  Sb9  1  0.64184800  0.41731900  0.89069100  1
  Sb  Sb10  1  0.85815200  0.58268100  0.39069100  1
  Sb  Sb11  1  0.35815200  0.91731900  0.60930900  1
  Sb  Sb12  1  0.85815200  0.91731900  0.89069100  1
  Sb  Sb13  1  0.35815200  0.58268100  0.10930900  1
  Sb  Sb14  1  0.14184800  0.41731900  0.60930900  1
  Sb  Sb15  1  0.64184800  0.08268100  0.39069100  1
