# generated using pymatgen
data_BaCdO2
_symmetry_space_group_name_H-M   'P 1'
_cell_length_a   3.71956600
_cell_length_b   6.26019300
_cell_length_c   12.18911800
_cell_angle_alpha   90.00000000
_cell_angle_beta   90.00000000
_cell_angle_gamma   90.00000000
_symmetry_Int_Tables_number   1
_chemical_formula_structural   BaCdO2
_chemical_formula_sum   'Ba4 Cd4 O8'
_cell_volume   283.82606308
_cell_formula_units_Z   4
loop_
 _symmetry_equiv_pos_site_id
 _symmetry_equiv_pos_as_xyz
  1  'x, y, z'
loop_
 _atom_site_type_symbol
 _atom_site_label
 _atom_site_symmetry_multiplicity
 _atom_site_fract_x
 _atom_site_fract_y
 _atom_site_fract_z
 _atom_site_occupancy
  Ba  Ba0  1  0.25000000  0.89668000  0.85637600  1
  Ba  Ba1  1  0.75000000  0.10332000  0.14362400  1
  Ba  Ba2  1  0.25000000  0.39668000  0.64362400  1
  Ba  Ba3  1  0.75000000  0.60332000  0.35637600  1
  Cd  Cd4  1  0.75000000  0.40578900  0.89397700  1
  Cd  Cd5  1  0.75000000  0.90578900  0.60602300  1
  Cd  Cd6  1  0.25000000  0.59421100  0.10602300  1
  Cd  Cd7  1  0.25000000  0.09421100  0.39397700  1
  O  O8  1  0.25000000  0.77716900  0.51831200  1
  O  O9  1  0.75000000  0.22283100  0.48168800  1
  O  O10  1  0.25000000  0.27716900  0.98168800  1
  O  O11  1  0.75000000  0.72283100  0.01831200  1
  O  O12  1  0.25000000  0.35903900  0.24775400  1
  O  O13  1  0.75000000  0.14096100  0.74775400  1
  O  O14  1  0.25000000  0.85903900  0.25224600  1
  O  O15  1  0.75000000  0.64096100  0.75224600  1
