# generated using pymatgen
data_K2AgSb
_symmetry_space_group_name_H-M   'P 1'
_cell_length_a   6.75906623
_cell_length_b   6.75906623
_cell_length_c   6.36017300
_cell_angle_alpha   90.00000000
_cell_angle_beta   90.00000000
_cell_angle_gamma   103.41930173
_symmetry_Int_Tables_number   1
_chemical_formula_structural   K2AgSb
_chemical_formula_sum   'K4 Ag2 Sb2'
_cell_volume   282.63129248
_cell_formula_units_Z   2
loop_
 _symmetry_equiv_pos_site_id
 _symmetry_equiv_pos_as_xyz
  1  'x, y, z'
loop_
 _atom_site_type_symbol
 _atom_site_label
 _atom_site_symmetry_multiplicity
 _atom_site_fract_x
 _atom_site_fract_y
 _atom_site_fract_z
 _atom_site_occupancy
  K  K0  1  0.32168600  0.97673100  0.75000000  1
  K  K1  1  0.67831400  0.02326900  0.25000000  1
  K  K2  1  0.97673100  0.32168600  0.75000000  1
  K  K3  1  0.02326900  0.67831400  0.25000000  1
  Ag  Ag4  1  0.50000000  0.50000000  0.00000000  1
  Ag  Ag5  1  0.50000000  0.50000000  0.50000000  1
  Sb  Sb6  1  0.76500400  0.76500400  0.75000000  1
  Sb  Sb7  1  0.23499600  0.23499600  0.25000000  1
