# generated using pymatgen
data_Li2Mn3ZnO8
_symmetry_space_group_name_H-M   'P 1'
_cell_length_a   8.30234800
_cell_length_b   8.30234800
_cell_length_c   8.30234800
_cell_angle_alpha   90.00000000
_cell_angle_beta   90.00000000
_cell_angle_gamma   90.00000000
_symmetry_Int_Tables_number   1
_chemical_formula_structural   Li2Mn3ZnO8
_chemical_formula_sum   'Li8 Mn12 Zn4 O32'
_cell_volume   572.27239845
_cell_formula_units_Z   4
loop_
 _symmetry_equiv_pos_site_id
 _symmetry_equiv_pos_as_xyz
  1  'x, y, z'
loop_
 _atom_site_type_symbol
 _atom_site_label
 _atom_site_symmetry_multiplicity
 _atom_site_fract_x
 _atom_site_fract_y
 _atom_site_fract_z
 _atom_site_occupancy
  Li  Li0  1  0.12505700  0.87494300  0.37494300  1
  Li  Li1  1  0.24938000  0.24938000  0.24938000  1
  Li  Li2  1  0.75062000  0.74938000  0.25062000  1
  Li  Li3  1  0.87494300  0.37494300  0.12505700  1
  Li  Li4  1  0.37494300  0.12505700  0.87494300  1
  Li  Li5  1  0.25062000  0.75062000  0.74938000  1
  Li  Li6  1  0.74938000  0.25062000  0.75062000  1
  Li  Li7  1  0.62505700  0.62505700  0.62505700  1
  Mn  Mn8  1  0.37780100  0.87601200  0.12304200  1
  Mn  Mn9  1  0.12398800  0.62304200  0.12219900  1
  Mn  Mn10  1  0.12304200  0.37780100  0.87601200  1
  Mn  Mn11  1  0.12219900  0.12398800  0.62304200  1
  Mn  Mn12  1  0.37695800  0.62219900  0.37601200  1
  Mn  Mn13  1  0.62398800  0.87695800  0.87780100  1
  Mn  Mn14  1  0.62219900  0.37601200  0.37695800  1
  Mn  Mn15  1  0.37601200  0.37695800  0.62219900  1
  Mn  Mn16  1  0.62304200  0.12219900  0.12398800  1
  Mn  Mn17  1  0.87780100  0.62398800  0.87695800  1
  Mn  Mn18  1  0.87695800  0.87780100  0.62398800  1
  Mn  Mn19  1  0.87601200  0.12304200  0.37780100  1
  Zn  Zn20  1  0.49870600  0.99870600  0.50129400  1
  Zn  Zn21  1  0.00129400  0.00129400  0.00129400  1
  Zn  Zn22  1  0.99870600  0.50129400  0.49870600  1
  Zn  Zn23  1  0.50129400  0.49870600  0.99870600  1
  O  O24  1  0.60603600  0.60129600  0.37115500  1
  O  O25  1  0.38669400  0.38669400  0.38669400  1
  O  O26  1  0.10603600  0.89870400  0.62884500  1
  O  O27  1  0.62884500  0.10603600  0.89870400  1
  O  O28  1  0.87877000  0.64808300  0.64146100  1
  O  O29  1  0.64808300  0.64146100  0.87877000  1
  O  O30  1  0.12884500  0.39396400  0.10129600  1
  O  O31  1  0.60129600  0.37115500  0.60603600  1
  O  O32  1  0.89396400  0.39870400  0.87115500  1
  O  O33  1  0.14808300  0.85853900  0.12123000  1
  O  O34  1  0.64146100  0.87877000  0.64808300  1
  O  O35  1  0.37115500  0.60603600  0.60129600  1
  O  O36  1  0.10129600  0.12884500  0.39396400  1
  O  O37  1  0.88669400  0.11330600  0.61330600  1
  O  O38  1  0.37877000  0.85191700  0.35853900  1
  O  O39  1  0.39870400  0.87115500  0.89396400  1
  O  O40  1  0.35853900  0.37877000  0.85191700  1
  O  O41  1  0.35191700  0.14146100  0.62123000  1
  O  O42  1  0.61330600  0.88669400  0.11330600  1
  O  O43  1  0.86290500  0.86290500  0.86290500  1
  O  O44  1  0.11330600  0.61330600  0.88669400  1
  O  O45  1  0.36290500  0.63709500  0.13709500  1
  O  O46  1  0.12123000  0.14808300  0.85853900  1
  O  O47  1  0.89870400  0.62884500  0.10603600  1
  O  O48  1  0.63709500  0.13709500  0.36290500  1
  O  O49  1  0.85191700  0.35853900  0.37877000  1
  O  O50  1  0.14146100  0.62123000  0.35191700  1
  O  O51  1  0.39396400  0.10129600  0.12884500  1
  O  O52  1  0.87115500  0.89396400  0.39870400  1
  O  O53  1  0.13709500  0.36290500  0.63709500  1
  O  O54  1  0.62123000  0.35191700  0.14146100  1
  O  O55  1  0.85853900  0.12123000  0.14808300  1
