# generated using pymatgen
data_LiVF4
_symmetry_space_group_name_H-M   'P 1'
_cell_length_a   6.52248344
_cell_length_b   6.52248344
_cell_length_c   5.49734838
_cell_angle_alpha   87.81095205
_cell_angle_beta   87.81095205
_cell_angle_gamma   47.46085411
_symmetry_Int_Tables_number   1
_chemical_formula_structural   LiVF4
_chemical_formula_sum   'Li2 V2 F8'
_cell_volume   172.17086535
_cell_formula_units_Z   2
loop_
 _symmetry_equiv_pos_site_id
 _symmetry_equiv_pos_as_xyz
  1  'x, y, z'
loop_
 _atom_site_type_symbol
 _atom_site_label
 _atom_site_symmetry_multiplicity
 _atom_site_fract_x
 _atom_site_fract_y
 _atom_site_fract_z
 _atom_site_occupancy
  Li  Li0  1  0.99391800  0.00608200  0.75000000  1
  Li  Li1  1  0.00608200  0.99391800  0.25000000  1
  V  V2  1  0.50000000  0.00000000  0.50000000  1
  V  V3  1  0.00000000  0.50000000  0.00000000  1
  F  F4  1  0.76741000  0.04367600  0.50718500  1
  F  F5  1  0.34350800  0.22946500  0.20047300  1
  F  F6  1  0.22946500  0.34350800  0.70047300  1
  F  F7  1  0.95632400  0.23259000  0.99281500  1
  F  F8  1  0.04367600  0.76741000  0.00718500  1
  F  F9  1  0.77053500  0.65649200  0.29952700  1
  F  F10  1  0.65649200  0.77053500  0.79952700  1
  F  F11  1  0.23259000  0.95632400  0.49281500  1
