# generated using pymatgen
data_AgF2
_symmetry_space_group_name_H-M   'P 1'
_cell_length_a   5.12801800
_cell_length_b   3.71136900
_cell_length_c   5.98009114
_cell_angle_alpha   57.23087817
_cell_angle_beta   90.00000000
_cell_angle_gamma   90.00000000
_symmetry_Int_Tables_number   1
_chemical_formula_structural   AgF2
_chemical_formula_sum   'Ag2 F4'
_cell_volume   95.70053337
_cell_formula_units_Z   2
loop_
 _symmetry_equiv_pos_site_id
 _symmetry_equiv_pos_as_xyz
  1  'x, y, z'
loop_
 _atom_site_type_symbol
 _atom_site_label
 _atom_site_symmetry_multiplicity
 _atom_site_fract_x
 _atom_site_fract_y
 _atom_site_fract_z
 _atom_site_occupancy
  Ag  Ag0  1  0.50000000  0.00000000  0.50000000  1
  Ag  Ag1  1  0.00000000  0.00000000  0.00000000  1
  F  F2  1  0.79384900  0.23686000  0.20420100  1
  F  F3  1  0.29384900  0.76314000  0.29579900  1
  F  F4  1  0.70615100  0.23686000  0.70420100  1
  F  F5  1  0.20615100  0.76314000  0.79579900  1
