# generated using pymatgen
data_Zn2AsHO5
_symmetry_space_group_name_H-M   'P 1'
_cell_length_a   6.14464500
_cell_length_b   8.46494800
_cell_length_c   8.64857800
_cell_angle_alpha   90.00000000
_cell_angle_beta   90.00000000
_cell_angle_gamma   90.00000000
_symmetry_Int_Tables_number   1
_chemical_formula_structural   Zn2AsHO5
_chemical_formula_sum   'Zn8 As4 H4 O20'
_cell_volume   449.84800444
_cell_formula_units_Z   4
loop_
 _symmetry_equiv_pos_site_id
 _symmetry_equiv_pos_as_xyz
  1  'x, y, z'
loop_
 _atom_site_type_symbol
 _atom_site_label
 _atom_site_symmetry_multiplicity
 _atom_site_fract_x
 _atom_site_fract_y
 _atom_site_fract_z
 _atom_site_occupancy
  Zn  Zn0  1  0.74644500  0.00000000  0.50000000  1
  Zn  Zn1  1  0.75355500  0.50000000  0.00000000  1
  Zn  Zn2  1  0.25355500  0.00000000  0.50000000  1
  Zn  Zn3  1  0.24644500  0.50000000  0.00000000  1
  Zn  Zn4  1  0.50000000  0.13332600  0.13286900  1
  Zn  Zn5  1  0.50000000  0.86667400  0.86713100  1
  Zn  Zn6  1  0.00000000  0.63332600  0.36713100  1
  Zn  Zn7  1  0.00000000  0.36667400  0.63286900  1
  As  As8  1  0.00000000  0.24963800  0.25575500  1
  As  As9  1  0.00000000  0.75036200  0.74424500  1
  As  As10  1  0.50000000  0.74963800  0.24424500  1
  As  As11  1  0.50000000  0.25036200  0.75575500  1
  H  H12  1  0.50000000  0.21313400  0.40694000  1
  H  H13  1  0.50000000  0.78686600  0.59306000  1
  H  H14  1  0.00000000  0.71313400  0.09306000  1
  H  H15  1  0.00000000  0.28686600  0.90694000  1
  O  O16  1  0.00000000  0.07163000  0.35546300  1
  O  O17  1  0.00000000  0.92837000  0.64453700  1
  O  O18  1  0.50000000  0.57163000  0.14453700  1
  O  O19  1  0.50000000  0.42837000  0.85546300  1
  O  O20  1  0.50000000  0.10528500  0.36907300  1
  O  O21  1  0.50000000  0.89471500  0.63092700  1
  O  O22  1  0.00000000  0.60528500  0.13092700  1
  O  O23  1  0.00000000  0.39471500  0.86907300  1
  O  O24  1  0.00000000  0.39435400  0.39617600  1
  O  O25  1  0.00000000  0.60564600  0.60382400  1
  O  O26  1  0.50000000  0.89435400  0.10382400  1
  O  O27  1  0.50000000  0.10564600  0.89617600  1
  O  O28  1  0.77515200  0.27089400  0.13738300  1
  O  O29  1  0.77515200  0.72910600  0.86261700  1
  O  O30  1  0.72484800  0.77089400  0.36261700  1
  O  O31  1  0.72484800  0.22910600  0.63738300  1
  O  O32  1  0.22484800  0.72910600  0.86261700  1
  O  O33  1  0.22484800  0.27089400  0.13738300  1
  O  O34  1  0.27515200  0.22910600  0.63738300  1
  O  O35  1  0.27515200  0.77089400  0.36261700  1
