# generated using pymatgen
data_CsSmHgSe3
_symmetry_space_group_name_H-M   'P 1'
_cell_length_a   8.49011422
_cell_length_b   8.49011422
_cell_length_c   11.31299200
_cell_angle_alpha   90.00000000
_cell_angle_beta   90.00000000
_cell_angle_gamma   150.16966029
_symmetry_Int_Tables_number   1
_chemical_formula_structural   CsSmHgSe3
_chemical_formula_sum   'Cs2 Sm2 Hg2 Se6'
_cell_volume   405.63879677
_cell_formula_units_Z   2
loop_
 _symmetry_equiv_pos_site_id
 _symmetry_equiv_pos_as_xyz
  1  'x, y, z'
loop_
 _atom_site_type_symbol
 _atom_site_label
 _atom_site_symmetry_multiplicity
 _atom_site_fract_x
 _atom_site_fract_y
 _atom_site_fract_z
 _atom_site_occupancy
  Cs  Cs0  1  0.74470300  0.25529700  0.25000000  1
  Cs  Cs1  1  0.25529700  0.74470300  0.75000000  1
  Sm  Sm2  1  0.00000000  0.00000000  0.50000000  1
  Sm  Sm3  1  0.00000000  0.00000000  0.00000000  1
  Hg  Hg4  1  0.54333000  0.45667000  0.75000000  1
  Hg  Hg5  1  0.45667000  0.54333000  0.25000000  1
  Se  Se6  1  0.06149000  0.93851000  0.25000000  1
  Se  Se7  1  0.93851000  0.06149000  0.75000000  1
  Se  Se8  1  0.61971800  0.38028200  0.54481200  1
  Se  Se9  1  0.61971800  0.38028200  0.95518800  1
  Se  Se10  1  0.38028200  0.61971800  0.04481200  1
  Se  Se11  1  0.38028200  0.61971800  0.45518800  1
