# generated using pymatgen
data_Na3H6Ir
_symmetry_space_group_name_H-M   'P 1'
_cell_length_a   5.26095400
_cell_length_b   9.33519500
_cell_length_c   9.65379700
_cell_angle_alpha   90.00000000
_cell_angle_beta   90.00000000
_cell_angle_gamma   90.00000000
_symmetry_Int_Tables_number   1
_chemical_formula_structural   Na3H6Ir
_chemical_formula_sum   'Na12 H24 Ir4'
_cell_volume   474.11758213
_cell_formula_units_Z   4
loop_
 _symmetry_equiv_pos_site_id
 _symmetry_equiv_pos_as_xyz
  1  'x, y, z'
loop_
 _atom_site_type_symbol
 _atom_site_label
 _atom_site_symmetry_multiplicity
 _atom_site_fract_x
 _atom_site_fract_y
 _atom_site_fract_z
 _atom_site_occupancy
  Na  Na0  1  0.25000000  0.54701500  0.87182400  1
  Na  Na1  1  0.25000000  0.04701500  0.62817600  1
  Na  Na2  1  0.75000000  0.45298500  0.12817600  1
  Na  Na3  1  0.75000000  0.95298500  0.37182400  1
  Na  Na4  1  0.25000000  0.89453100  0.96391800  1
  Na  Na5  1  0.25000000  0.39453100  0.53608200  1
  Na  Na6  1  0.75000000  0.10546900  0.03608200  1
  Na  Na7  1  0.75000000  0.60546900  0.46391800  1
  Na  Na8  1  0.25000000  0.71715500  0.24883800  1
  Na  Na9  1  0.25000000  0.21715500  0.25116200  1
  Na  Na10  1  0.75000000  0.28284500  0.75116200  1
  Na  Na11  1  0.75000000  0.78284500  0.74883800  1
  H  H12  1  0.47745900  0.83120900  0.53092500  1
  H  H13  1  0.02254100  0.33120900  0.96907500  1
  H  H14  1  0.97745900  0.16879100  0.46907500  1
  H  H15  1  0.52254100  0.66879100  0.03092500  1
  H  H16  1  0.52254100  0.16879100  0.46907500  1
  H  H17  1  0.97745900  0.66879100  0.03092500  1
  H  H18  1  0.02254100  0.83120900  0.53092500  1
  H  H19  1  0.47745900  0.33120900  0.96907500  1
  H  H20  1  0.46984200  0.61006300  0.66248800  1
  H  H21  1  0.03015800  0.11006300  0.83751200  1
  H  H22  1  0.96984200  0.38993700  0.33751200  1
  H  H23  1  0.53015800  0.88993700  0.16248800  1
  H  H24  1  0.53015800  0.38993700  0.33751200  1
  H  H25  1  0.96984200  0.88993700  0.16248800  1
  H  H26  1  0.03015800  0.61006300  0.66248800  1
  H  H27  1  0.46984200  0.11006300  0.83751200  1
  H  H28  1  0.25000000  0.62278500  0.45283600  1
  H  H29  1  0.25000000  0.12278500  0.04716400  1
  H  H30  1  0.75000000  0.37721500  0.54716400  1
  H  H31  1  0.75000000  0.87721500  0.95283600  1
  H  H32  1  0.25000000  0.81915200  0.74406300  1
  H  H33  1  0.25000000  0.31915200  0.75593700  1
  H  H34  1  0.75000000  0.18084800  0.25593700  1
  H  H35  1  0.75000000  0.68084800  0.24406300  1
  Ir  Ir36  1  0.25000000  0.72257100  0.59694300  1
  Ir  Ir37  1  0.25000000  0.22257100  0.90305700  1
  Ir  Ir38  1  0.75000000  0.27742900  0.40305700  1
  Ir  Ir39  1  0.75000000  0.77742900  0.09694300  1
