# generated using pymatgen
data_Li10CoNi9O20
_symmetry_space_group_name_H-M   'P 1'
_cell_length_a   2.91070700
_cell_length_b   11.03449957
_cell_length_c   11.61165946
_cell_angle_alpha   113.75568955
_cell_angle_beta   90.45171314
_cell_angle_gamma   97.47688762
_symmetry_Int_Tables_number   1
_chemical_formula_structural   Li10CoNi9O20
_chemical_formula_sum   'Li10 Co1 Ni9 O20'
_cell_volume   337.69603453
_cell_formula_units_Z   1
loop_
 _symmetry_equiv_pos_site_id
 _symmetry_equiv_pos_as_xyz
  1  'x, y, z'
loop_
 _atom_site_type_symbol
 _atom_site_label
 _atom_site_symmetry_multiplicity
 _atom_site_fract_x
 _atom_site_fract_y
 _atom_site_fract_z
 _atom_site_occupancy
  Li  Li0  1  0.01096400  0.99865500  0.74987600  1
  Li  Li1  1  0.78899400  0.60013500  0.35098600  1
  Li  Li2  1  0.58599000  0.19911400  0.45136600  1
  Li  Li3  1  0.80011100  0.60000900  0.85190600  1
  Li  Li4  1  0.59903600  0.19921000  0.94942000  1
  Li  Li5  1  0.39391800  0.80076900  0.04929000  1
  Li  Li6  1  0.40506600  0.80035300  0.54948000  1
  Li  Li7  1  0.20060200  0.40120300  0.14772400  1
  Li  Li8  1  0.99561400  0.00033500  0.24888200  1
  Li  Li9  1  0.20836400  0.40085700  0.65070700  1
  Co  Co10  1  0.62233000  0.19968300  0.70038800  1
  Ni  Ni11  1  0.99979500  0.00069300  0.99962000  1
  Ni  Ni12  1  0.19950300  0.40059400  0.89852200  1
  Ni  Ni13  1  0.99217100  0.99934300  0.50204600  1
  Ni  Ni14  1  0.79744300  0.60104200  0.09948000  1
  Ni  Ni15  1  0.56914400  0.20055800  0.19974900  1
  Ni  Ni16  1  0.82421200  0.59981400  0.59985300  1
  Ni  Ni17  1  0.39327500  0.80062000  0.30040900  1
  Ni  Ni18  1  0.17327600  0.39871800  0.40041800  1
  Ni  Ni19  1  0.43055100  0.79982700  0.79984100  1
  O  O20  1  0.85214500  0.80685800  0.42083700  1
  O  O21  1  0.93428200  0.79260600  0.17886300  1
  O  O22  1  0.46790200  0.00968100  0.12215800  1
  O  O23  1  0.66123600  0.40871100  0.01997400  1
  O  O24  1  0.96761900  0.79072800  0.67825800  1
  O  O25  1  0.72686100  0.40763400  0.52273800  1
  O  O26  1  0.62508300  0.39043500  0.27878000  1
  O  O27  1  0.88706700  0.80954800  0.92265500  1
  O  O28  1  0.73838200  0.39151800  0.77803700  1
  O  O29  1  0.54601000  0.00778500  0.62233100  1
  O  O30  1  0.34810400  0.60925700  0.22036300  1
  O  O31  1  0.43761300  0.99260900  0.38128700  1
  O  O32  1  0.37725000  0.60898900  0.72147400  1
  O  O33  1  0.10938900  0.19189800  0.07651500  1
  O  O34  1  0.03222000  0.20805300  0.32193000  1
  O  O35  1  0.26705800  0.59024900  0.47743300  1
  O  O36  1  0.53419600  0.99181900  0.87702000  1
  O  O37  1  0.24739700  0.59362400  0.97905100  1
  O  O38  1  0.11923000  0.19292200  0.58622800  1
  O  O39  1  0.13325600  0.20675000  0.81462700  1
