# generated using pymatgen
data_Zn2As2O7
_symmetry_space_group_name_H-M   'P 1'
_cell_length_a   5.27782000
_cell_length_b   14.14268600
_cell_length_c   16.96831600
_cell_angle_alpha   90.00000000
_cell_angle_beta   90.00000000
_cell_angle_gamma   90.00000000
_symmetry_Int_Tables_number   1
_chemical_formula_structural   Zn2As2O7
_chemical_formula_sum   'Zn16 As16 O56'
_cell_volume   1266.55839283
_cell_formula_units_Z   8
loop_
 _symmetry_equiv_pos_site_id
 _symmetry_equiv_pos_as_xyz
  1  'x, y, z'
loop_
 _atom_site_type_symbol
 _atom_site_label
 _atom_site_symmetry_multiplicity
 _atom_site_fract_x
 _atom_site_fract_y
 _atom_site_fract_z
 _atom_site_occupancy
  Zn  Zn0  1  0.08937100  0.45071100  0.08594700  1
  Zn  Zn1  1  0.08937100  0.04928900  0.58594700  1
  Zn  Zn2  1  0.08937100  0.45071100  0.41405300  1
  Zn  Zn3  1  0.08937100  0.04928900  0.91405300  1
  Zn  Zn4  1  0.31335200  0.24614300  0.15617400  1
  Zn  Zn5  1  0.31335200  0.24614300  0.34382600  1
  Zn  Zn6  1  0.31335200  0.25385700  0.65617400  1
  Zn  Zn7  1  0.31335200  0.25385700  0.84382600  1
  Zn  Zn8  1  0.68664800  0.74614300  0.15617400  1
  Zn  Zn9  1  0.68664800  0.74614300  0.34382600  1
  Zn  Zn10  1  0.68664800  0.75385700  0.65617400  1
  Zn  Zn11  1  0.68664800  0.75385700  0.84382600  1
  Zn  Zn12  1  0.91062900  0.95071100  0.08594700  1
  Zn  Zn13  1  0.91062900  0.95071100  0.41405300  1
  Zn  Zn14  1  0.91062900  0.54928900  0.58594700  1
  Zn  Zn15  1  0.91062900  0.54928900  0.91405300  1
  As  As16  1  0.03300800  0.05855300  0.25000000  1
  As  As17  1  0.03300800  0.44144700  0.75000000  1
  As  As18  1  0.17766000  0.84824400  0.25000000  1
  As  As19  1  0.17766000  0.65175600  0.75000000  1
  As  As20  1  0.42147900  0.64139500  0.00414700  1
  As  As21  1  0.42147900  0.64139500  0.49585300  1
  As  As22  1  0.42147900  0.85860500  0.50414700  1
  As  As23  1  0.42147900  0.85860500  0.99585300  1
  As  As24  1  0.57852100  0.14139500  0.00414700  1
  As  As25  1  0.57852100  0.14139500  0.49585300  1
  As  As26  1  0.57852100  0.35860500  0.50414700  1
  As  As27  1  0.57852100  0.35860500  0.99585300  1
  As  As28  1  0.82234000  0.34824400  0.25000000  1
  As  As29  1  0.82234000  0.15175600  0.75000000  1
  As  As30  1  0.96699200  0.55855300  0.25000000  1
  As  As31  1  0.96699200  0.94144700  0.75000000  1
  O  O32  1  0.00811800  0.83156500  0.16485400  1
  O  O33  1  0.00811800  0.83156500  0.33514600  1
  O  O34  1  0.00811800  0.66843500  0.66485400  1
  O  O35  1  0.00811800  0.66843500  0.83514600  1
  O  O36  1  0.13494100  0.54742200  0.16591800  1
  O  O37  1  0.13494100  0.54742200  0.33408200  1
  O  O38  1  0.13494100  0.95257800  0.66591800  1
  O  O39  1  0.13494100  0.95257800  0.83408200  1
  O  O40  1  0.19544700  0.94481900  0.00461200  1
  O  O41  1  0.19544700  0.55518100  0.50461200  1
  O  O42  1  0.19544700  0.94481900  0.49538800  1
  O  O43  1  0.19544700  0.55518100  0.99538800  1
  O  O44  1  0.19129200  0.16423000  0.25000000  1
  O  O45  1  0.19129200  0.33577000  0.75000000  1
  O  O46  1  0.27818200  0.53189700  0.75000000  1
  O  O47  1  0.27818200  0.96810300  0.25000000  1
  O  O48  1  0.24401600  0.75000000  0.00000000  1
  O  O49  1  0.24401600  0.75000000  0.50000000  1
  O  O50  1  0.40003100  0.13961900  0.08636000  1
  O  O51  1  0.40003100  0.13961900  0.41364000  1
  O  O52  1  0.40003100  0.36038100  0.58636000  1
  O  O53  1  0.40003100  0.36038100  0.91364000  1
  O  O54  1  0.39121800  0.13910200  0.57917000  1
  O  O55  1  0.39121800  0.36089800  0.07917000  1
  O  O56  1  0.39121800  0.13910200  0.92083000  1
  O  O57  1  0.39121800  0.36089800  0.42083000  1
  O  O58  1  0.45589400  0.78674300  0.25000000  1
  O  O59  1  0.45589400  0.71325700  0.75000000  1
  O  O60  1  0.54410600  0.21325700  0.75000000  1
  O  O61  1  0.54410600  0.28674300  0.25000000  1
  O  O62  1  0.60878200  0.63910200  0.57917000  1
  O  O63  1  0.60878200  0.86089800  0.07917000  1
  O  O64  1  0.60878200  0.63910200  0.92083000  1
  O  O65  1  0.60878200  0.86089800  0.42083000  1
  O  O66  1  0.59997000  0.63961900  0.08636000  1
  O  O67  1  0.59997000  0.63961900  0.41364000  1
  O  O68  1  0.59997000  0.86038100  0.58636000  1
  O  O69  1  0.59997000  0.86038100  0.91364000  1
  O  O70  1  0.75598400  0.25000000  0.00000000  1
  O  O71  1  0.75598400  0.25000000  0.50000000  1
  O  O72  1  0.72181800  0.03189700  0.75000000  1
  O  O73  1  0.72181800  0.46810300  0.25000000  1
  O  O74  1  0.80870800  0.66423000  0.25000000  1
  O  O75  1  0.80870800  0.83577000  0.75000000  1
  O  O76  1  0.80455300  0.44481900  0.00461200  1
  O  O77  1  0.80455300  0.05518100  0.50461200  1
  O  O78  1  0.80455300  0.05518100  0.99538800  1
  O  O79  1  0.80455300  0.44481900  0.49538800  1
  O  O80  1  0.86505800  0.04742200  0.16591800  1
  O  O81  1  0.86505800  0.04742200  0.33408200  1
  O  O82  1  0.86505800  0.45257800  0.66591800  1
  O  O83  1  0.86505800  0.45257800  0.83408200  1
  O  O84  1  0.99188200  0.33156500  0.16485400  1
  O  O85  1  0.99188200  0.33156500  0.33514600  1
  O  O86  1  0.99188200  0.16843500  0.66485400  1
  O  O87  1  0.99188200  0.16843500  0.83514600  1
