# generated using pymatgen
data_V2O3F
_symmetry_space_group_name_H-M   'P 1'
_cell_length_a   4.82139069
_cell_length_b   4.82136435
_cell_length_c   5.90323166
_cell_angle_alpha   89.96156833
_cell_angle_beta   90.03827165
_cell_angle_gamma   96.63174253
_symmetry_Int_Tables_number   1
_chemical_formula_structural   V2O3F
_chemical_formula_sum   'V4 O6 F2'
_cell_volume   136.30640767
_cell_formula_units_Z   2
loop_
 _symmetry_equiv_pos_site_id
 _symmetry_equiv_pos_as_xyz
  1  'x, y, z'
loop_
 _atom_site_type_symbol
 _atom_site_label
 _atom_site_symmetry_multiplicity
 _atom_site_fract_x
 _atom_site_fract_y
 _atom_site_fract_z
 _atom_site_occupancy
  V  V0  1  0.99998900  0.00002800  0.50005800  1
  V  V1  1  0.00003300  0.99999800  0.99992000  1
  V  V2  1  0.55896100  0.44095600  0.24994600  1
  V  V3  1  0.44095400  0.55901600  0.75005600  1
  O  O4  1  0.19482900  0.80520200  0.75056000  1
  O  O5  1  0.80521300  0.19481100  0.24943700  1
  O  O6  1  0.30899100  0.30898600  0.99998800  1
  O  O7  1  0.30949600  0.30949300  0.50001400  1
  O  O8  1  0.69100100  0.69099300  0.99999200  1
  O  O9  1  0.69050300  0.69049900  0.50000900  1
  F  F10  1  0.19187600  0.80815000  0.24940100  1
  F  F11  1  0.80815400  0.19186600  0.75061900  1
