# generated using pymatgen
data_KPH3O4F
_symmetry_space_group_name_H-M   'P 1'
_cell_length_a   12.27229500
_cell_length_b   6.22299200
_cell_length_c   7.05187027
_cell_angle_alpha   65.77579595
_cell_angle_beta   90.00000000
_cell_angle_gamma   90.00000000
_symmetry_Int_Tables_number   1
_chemical_formula_structural   KPH3O4F
_chemical_formula_sum   'K4 P4 H12 O16 F4'
_cell_volume   491.13273173
_cell_formula_units_Z   4
loop_
 _symmetry_equiv_pos_site_id
 _symmetry_equiv_pos_as_xyz
  1  'x, y, z'
loop_
 _atom_site_type_symbol
 _atom_site_label
 _atom_site_symmetry_multiplicity
 _atom_site_fract_x
 _atom_site_fract_y
 _atom_site_fract_z
 _atom_site_occupancy
  K  K0  1  0.86772900  0.85251300  0.88294400  1
  K  K1  1  0.63227100  0.85251300  0.38294400  1
  K  K2  1  0.36772900  0.14748700  0.61705600  1
  K  K3  1  0.13227100  0.14748700  0.11705600  1
  P  P4  1  0.13895400  0.65371300  0.59276100  1
  P  P5  1  0.63895400  0.34628700  0.90723900  1
  P  P6  1  0.36104600  0.65371300  0.09276100  1
  P  P7  1  0.86104600  0.34628700  0.40723900  1
  H  H8  1  0.11499600  0.96625700  0.71475800  1
  H  H9  1  0.38500400  0.96625700  0.21475800  1
  H  H10  1  0.29204500  0.55316800  0.77904500  1
  H  H11  1  0.48009100  0.53052600  0.81190900  1
  H  H12  1  0.98009100  0.46947400  0.68809100  1
  H  H13  1  0.79204500  0.44683200  0.72095500  1
  H  H14  1  0.20795500  0.55316800  0.27904500  1
  H  H15  1  0.01990900  0.53052600  0.31190900  1
  H  H16  1  0.51990900  0.46947400  0.18809100  1
  H  H17  1  0.70795500  0.44683200  0.22095500  1
  H  H18  1  0.61499600  0.03374300  0.78524200  1
  H  H19  1  0.88500400  0.03374300  0.28524200  1
  O  O20  1  0.16299800  0.90297900  0.57336700  1
  O  O21  1  0.37969200  0.63632200  0.88507700  1
  O  O22  1  0.33700200  0.90297900  0.07336700  1
  O  O23  1  0.03590400  0.55507000  0.73964900  1
  O  O24  1  0.73772800  0.51595900  0.79321800  1
  O  O25  1  0.23772800  0.48404100  0.70678200  1
  O  O26  1  0.12030800  0.63632200  0.38507700  1
  O  O27  1  0.53590400  0.44493000  0.76035100  1
  O  O28  1  0.46409600  0.55507000  0.23964900  1
  O  O29  1  0.87969200  0.36367800  0.61492300  1
  O  O30  1  0.76227200  0.51595900  0.29321800  1
  O  O31  1  0.26227200  0.48404100  0.20678200  1
  O  O32  1  0.96409600  0.44493000  0.26035100  1
  O  O33  1  0.66299800  0.09702100  0.92663300  1
  O  O34  1  0.62030800  0.36367800  0.11492300  1
  O  O35  1  0.83700200  0.09702100  0.42663300  1
  F  F36  1  0.57749700  0.98814800  0.67386400  1
  F  F37  1  0.92250300  0.98814800  0.17386400  1
  F  F38  1  0.07749700  0.01185200  0.82613600  1
  F  F39  1  0.42250300  0.01185200  0.32613600  1
