# generated using pymatgen
data_TiB
_symmetry_space_group_name_H-M   'P 1'
_cell_length_a   3.05165000
_cell_length_b   4.56017100
_cell_length_c   6.12059800
_cell_angle_alpha   90.00000000
_cell_angle_beta   90.00000000
_cell_angle_gamma   90.00000000
_symmetry_Int_Tables_number   1
_chemical_formula_structural   TiB
_chemical_formula_sum   'Ti4 B4'
_cell_volume   85.17452229
_cell_formula_units_Z   4
loop_
 _symmetry_equiv_pos_site_id
 _symmetry_equiv_pos_as_xyz
  1  'x, y, z'
loop_
 _atom_site_type_symbol
 _atom_site_label
 _atom_site_symmetry_multiplicity
 _atom_site_fract_x
 _atom_site_fract_y
 _atom_site_fract_z
 _atom_site_occupancy
  Ti  Ti0  1  0.25000000  0.37818300  0.67759600  1
  Ti  Ti1  1  0.25000000  0.12181700  0.17759600  1
  Ti  Ti2  1  0.75000000  0.62181700  0.32240400  1
  Ti  Ti3  1  0.75000000  0.87818300  0.82240400  1
  B  B4  1  0.25000000  0.90071000  0.52986700  1
  B  B5  1  0.25000000  0.59929000  0.02986700  1
  B  B6  1  0.75000000  0.09929000  0.47013300  1
  B  B7  1  0.75000000  0.40071000  0.97013300  1
