# generated using pymatgen
data_Ce3Sn13Rh4
_symmetry_space_group_name_H-M   'P 1'
_cell_length_a   9.78371100
_cell_length_b   9.78371100
_cell_length_c   9.78371100
_cell_angle_alpha   90.00000000
_cell_angle_beta   90.00000000
_cell_angle_gamma   90.00000000
_symmetry_Int_Tables_number   1
_chemical_formula_structural   Ce3Sn13Rh4
_chemical_formula_sum   'Ce6 Sn26 Rh8'
_cell_volume   936.50660974
_cell_formula_units_Z   2
loop_
 _symmetry_equiv_pos_site_id
 _symmetry_equiv_pos_as_xyz
  1  'x, y, z'
loop_
 _atom_site_type_symbol
 _atom_site_label
 _atom_site_symmetry_multiplicity
 _atom_site_fract_x
 _atom_site_fract_y
 _atom_site_fract_z
 _atom_site_occupancy
  Ce  Ce0  1  0.50000000  0.00000000  0.75000000  1
  Ce  Ce1  1  0.00000000  0.25000000  0.50000000  1
  Ce  Ce2  1  0.75000000  0.50000000  0.00000000  1
  Ce  Ce3  1  0.50000000  0.00000000  0.25000000  1
  Ce  Ce4  1  0.00000000  0.75000000  0.50000000  1
  Ce  Ce5  1  0.25000000  0.50000000  0.00000000  1
  Sn  Sn6  1  0.50000000  0.50000000  0.50000000  1
  Sn  Sn7  1  0.00000000  0.00000000  0.00000000  1
  Sn  Sn8  1  0.65164200  0.19171700  0.50000000  1
  Sn  Sn9  1  0.80828300  0.50000000  0.65164200  1
  Sn  Sn10  1  0.50000000  0.34835800  0.80828300  1
  Sn  Sn11  1  0.34835800  0.80828300  0.50000000  1
  Sn  Sn12  1  0.19171700  0.50000000  0.34835800  1
  Sn  Sn13  1  0.50000000  0.65164200  0.19171700  1
  Sn  Sn14  1  0.65164200  0.80828300  0.50000000  1
  Sn  Sn15  1  0.80828300  0.50000000  0.34835800  1
  Sn  Sn16  1  0.34835800  0.19171700  0.50000000  1
  Sn  Sn17  1  0.19171700  0.50000000  0.65164200  1
  Sn  Sn18  1  0.50000000  0.65164200  0.80828300  1
  Sn  Sn19  1  0.50000000  0.34835800  0.19171700  1
  Sn  Sn20  1  0.15164200  0.00000000  0.69171700  1
  Sn  Sn21  1  0.30828300  0.15164200  0.00000000  1
  Sn  Sn22  1  0.00000000  0.30828300  0.84835800  1
  Sn  Sn23  1  0.84835800  0.00000000  0.30828300  1
  Sn  Sn24  1  0.69171700  0.84835800  0.00000000  1
  Sn  Sn25  1  0.00000000  0.69171700  0.15164200  1
  Sn  Sn26  1  0.15164200  0.00000000  0.30828300  1
  Sn  Sn27  1  0.30828300  0.84835800  0.00000000  1
  Sn  Sn28  1  0.84835800  0.00000000  0.69171700  1
  Sn  Sn29  1  0.69171700  0.15164200  0.00000000  1
  Sn  Sn30  1  0.00000000  0.30828300  0.15164200  1
  Sn  Sn31  1  0.00000000  0.69171700  0.84835800  1
  Rh  Rh32  1  0.75000000  0.25000000  0.75000000  1
  Rh  Rh33  1  0.25000000  0.75000000  0.25000000  1
  Rh  Rh34  1  0.75000000  0.75000000  0.25000000  1
  Rh  Rh35  1  0.25000000  0.25000000  0.75000000  1
  Rh  Rh36  1  0.25000000  0.75000000  0.75000000  1
  Rh  Rh37  1  0.75000000  0.25000000  0.25000000  1
  Rh  Rh38  1  0.25000000  0.25000000  0.25000000  1
  Rh  Rh39  1  0.75000000  0.75000000  0.75000000  1
