# generated using pymatgen
data_K2MgH8(CO5)2
_symmetry_space_group_name_H-M   'P 1'
_cell_length_a   6.26948400
_cell_length_b   6.94821800
_cell_length_c   12.25888497
_cell_angle_alpha   66.55116917
_cell_angle_beta   90.00000000
_cell_angle_gamma   90.00000000
_symmetry_Int_Tables_number   1
_chemical_formula_structural   K2MgH8(CO5)2
_chemical_formula_sum   'K4 Mg2 H16 C4 O20'
_cell_volume   489.91690887
_cell_formula_units_Z   2
loop_
 _symmetry_equiv_pos_site_id
 _symmetry_equiv_pos_as_xyz
  1  'x, y, z'
loop_
 _atom_site_type_symbol
 _atom_site_label
 _atom_site_symmetry_multiplicity
 _atom_site_fract_x
 _atom_site_fract_y
 _atom_site_fract_z
 _atom_site_occupancy
  K  K0  1  0.85127400  0.76657300  0.81740400  1
  K  K1  1  0.35127400  0.23342700  0.68259600  1
  K  K2  1  0.64872600  0.76657300  0.31740400  1
  K  K3  1  0.14872600  0.23342700  0.18259600  1
  Mg  Mg4  1  0.50000000  0.00000000  0.00000000  1
  Mg  Mg5  1  0.00000000  0.00000000  0.50000000  1
  H  H6  1  0.17620200  0.30237800  0.92312400  1
  H  H7  1  0.19943500  0.79161600  0.97842100  1
  H  H8  1  0.39561000  0.42397600  0.88659700  1
  H  H9  1  0.34158600  0.80394700  0.86216700  1
  H  H10  1  0.89561000  0.57602400  0.61340300  1
  H  H11  1  0.84158600  0.19605300  0.63783300  1
  H  H12  1  0.67620200  0.69762200  0.57687600  1
  H  H13  1  0.69943500  0.20838400  0.52157900  1
  H  H14  1  0.30056500  0.79161600  0.47842100  1
  H  H15  1  0.32379800  0.30237800  0.42312400  1
  H  H16  1  0.15841400  0.80394700  0.36216700  1
  H  H17  1  0.10439000  0.42397600  0.38659700  1
  H  H18  1  0.65841400  0.19605300  0.13783300  1
  H  H19  1  0.60439000  0.57602400  0.11340300  1
  H  H20  1  0.80056500  0.20838400  0.02157900  1
  H  H21  1  0.82379800  0.69762200  0.07687600  1
  C  C22  1  0.84949400  0.25663700  0.82408700  1
  C  C23  1  0.34949400  0.74336300  0.67591300  1
  C  C24  1  0.65050600  0.25663700  0.32408700  1
  C  C25  1  0.15050600  0.74336300  0.17591300  1
  O  O26  1  0.33322400  0.28994000  0.94347000  1
  O  O27  1  0.91924600  0.33116000  0.90009700  1
  O  O28  1  0.28324700  0.88909800  0.90573300  1
  O  O29  1  0.69423000  0.12196400  0.85238500  1
  O  O30  1  0.43722900  0.68235700  0.78060800  1
  O  O31  1  0.93722900  0.31764300  0.71939200  1
  O  O32  1  0.19423000  0.87803600  0.64761500  1
  O  O33  1  0.41924600  0.66884000  0.59990300  1
  O  O34  1  0.83322400  0.71006000  0.55653000  1
  O  O35  1  0.78324700  0.11090200  0.59426700  1
  O  O36  1  0.21675300  0.88909800  0.40573300  1
  O  O37  1  0.16677600  0.28994000  0.44347000  1
  O  O38  1  0.58075400  0.33116000  0.40009700  1
  O  O39  1  0.80577000  0.12196400  0.35238500  1
  O  O40  1  0.06277100  0.68235700  0.28060800  1
  O  O41  1  0.56277100  0.31764300  0.21939200  1
  O  O42  1  0.30577000  0.87803600  0.14761500  1
  O  O43  1  0.71675300  0.11090200  0.09426700  1
  O  O44  1  0.08075400  0.66884000  0.09990300  1
  O  O45  1  0.66677600  0.71006000  0.05653000  1
