# generated using pymatgen
data_Zn2Hg2H2Se2O11
_symmetry_space_group_name_H-M   'P 1'
_cell_length_a   6.30183500
_cell_length_b   11.63805900
_cell_length_c   13.69536300
_cell_angle_alpha   90.00000000
_cell_angle_beta   90.00000000
_cell_angle_gamma   90.00000000
_symmetry_Int_Tables_number   1
_chemical_formula_structural   Zn2Hg2H2Se2O11
_chemical_formula_sum   'Zn8 Hg8 H8 Se8 O44'
_cell_volume   1004.43336447
_cell_formula_units_Z   4
loop_
 _symmetry_equiv_pos_site_id
 _symmetry_equiv_pos_as_xyz
  1  'x, y, z'
loop_
 _atom_site_type_symbol
 _atom_site_label
 _atom_site_symmetry_multiplicity
 _atom_site_fract_x
 _atom_site_fract_y
 _atom_site_fract_z
 _atom_site_occupancy
  Zn  Zn0  1  0.02026000  0.16941800  0.13079400  1
  Zn  Zn1  1  0.02026000  0.16941800  0.36920600  1
  Zn  Zn2  1  0.02026000  0.33058200  0.63079400  1
  Zn  Zn3  1  0.02026000  0.33058200  0.86920600  1
  Zn  Zn4  1  0.97974000  0.66941800  0.13079400  1
  Zn  Zn5  1  0.97974000  0.66941800  0.36920600  1
  Zn  Zn6  1  0.97974000  0.83058200  0.86920600  1
  Zn  Zn7  1  0.97974000  0.83058200  0.63079400  1
  Hg  Hg8  1  0.20627700  0.42017200  0.25000000  1
  Hg  Hg9  1  0.20627700  0.07982800  0.75000000  1
  Hg  Hg10  1  0.47597600  0.67081000  0.25000000  1
  Hg  Hg11  1  0.47597600  0.82919000  0.75000000  1
  Hg  Hg12  1  0.52402400  0.17081000  0.25000000  1
  Hg  Hg13  1  0.52402400  0.32919000  0.75000000  1
  Hg  Hg14  1  0.79372300  0.57982800  0.75000000  1
  Hg  Hg15  1  0.79372300  0.92017200  0.25000000  1
  H  H16  1  0.28361600  0.30826800  0.02755400  1
  H  H17  1  0.28361600  0.30826800  0.47244600  1
  H  H18  1  0.28361600  0.19173200  0.52755400  1
  H  H19  1  0.28361600  0.19173200  0.97244600  1
  H  H20  1  0.71638400  0.69173200  0.52755400  1
  H  H21  1  0.71638400  0.80826800  0.02755400  1
  H  H22  1  0.71638400  0.80826800  0.47244600  1
  H  H23  1  0.71638400  0.69173200  0.97244600  1
  Se  Se24  1  0.27440900  0.91193300  0.07595900  1
  Se  Se25  1  0.27440900  0.58806700  0.92404100  1
  Se  Se26  1  0.27440900  0.58806700  0.57595900  1
  Se  Se27  1  0.27440900  0.91193300  0.42404100  1
  Se  Se28  1  0.72559100  0.41193300  0.42404100  1
  Se  Se29  1  0.72559100  0.41193300  0.07595900  1
  Se  Se30  1  0.72559100  0.08806700  0.57595900  1
  Se  Se31  1  0.72559100  0.08806700  0.92404100  1
  O  O32  1  0.10128900  0.83434900  0.14244100  1
  O  O33  1  0.10128900  0.83434900  0.35755900  1
  O  O34  1  0.10128900  0.66565100  0.64244100  1
  O  O35  1  0.10128900  0.66565100  0.85755900  1
  O  O36  1  0.16823000  0.60215600  0.25000000  1
  O  O37  1  0.16823000  0.89784400  0.75000000  1
  O  O38  1  0.18329400  0.25000000  0.00000000  1
  O  O39  1  0.18329400  0.25000000  0.50000000  1
  O  O40  1  0.22004500  0.59579200  0.04353400  1
  O  O41  1  0.22004500  0.59579200  0.45646600  1
  O  O42  1  0.22004500  0.90420800  0.54353400  1
  O  O43  1  0.22004500  0.90420800  0.95646600  1
  O  O44  1  0.21586900  0.23511200  0.25000000  1
  O  O45  1  0.21586900  0.26488800  0.75000000  1
  O  O46  1  0.25737700  0.04770500  0.11714400  1
  O  O47  1  0.25737700  0.04770500  0.38285600  1
  O  O48  1  0.25737700  0.45229500  0.61714400  1
  O  O49  1  0.25737700  0.45229500  0.88285600  1
  O  O50  1  0.48125100  0.13537000  0.60042100  1
  O  O51  1  0.48125100  0.36463000  0.10042100  1
  O  O52  1  0.48125100  0.13537000  0.89957900  1
  O  O53  1  0.48125100  0.36463000  0.39957900  1
  O  O54  1  0.51874900  0.63537000  0.60042100  1
  O  O55  1  0.51874900  0.86463000  0.10042100  1
  O  O56  1  0.51874900  0.86463000  0.39957900  1
  O  O57  1  0.51874900  0.63537000  0.89957900  1
  O  O58  1  0.74262300  0.54770500  0.11714400  1
  O  O59  1  0.74262300  0.54770500  0.38285600  1
  O  O60  1  0.74262300  0.95229500  0.61714400  1
  O  O61  1  0.74262300  0.95229500  0.88285600  1
  O  O62  1  0.78413100  0.73511200  0.25000000  1
  O  O63  1  0.78413100  0.76488800  0.75000000  1
  O  O64  1  0.77995500  0.09579200  0.45646600  1
  O  O65  1  0.77995500  0.40420800  0.54353400  1
  O  O66  1  0.77995500  0.09579200  0.04353400  1
  O  O67  1  0.77995500  0.40420800  0.95646600  1
  O  O68  1  0.81670600  0.75000000  0.50000000  1
  O  O69  1  0.81670600  0.75000000  0.00000000  1
  O  O70  1  0.83177000  0.10215600  0.25000000  1
  O  O71  1  0.83177000  0.39784400  0.75000000  1
  O  O72  1  0.89871100  0.33434900  0.14244100  1
  O  O73  1  0.89871100  0.33434900  0.35755900  1
  O  O74  1  0.89871100  0.16565100  0.64244100  1
  O  O75  1  0.89871100  0.16565100  0.85755900  1
