# generated using pymatgen
data_SbHC3(NCl3)3
_symmetry_space_group_name_H-M   'P 1'
_cell_length_a   9.91312500
_cell_length_b   13.39952100
_cell_length_c   14.13649027
_cell_angle_alpha   58.95029962
_cell_angle_beta   90.00000000
_cell_angle_gamma   90.00000000
_symmetry_Int_Tables_number   1
_chemical_formula_structural   SbHC3(NCl3)3
_chemical_formula_sum   'Sb4 H4 C12 N12 Cl36'
_cell_volume   1608.72003254
_cell_formula_units_Z   4
loop_
 _symmetry_equiv_pos_site_id
 _symmetry_equiv_pos_as_xyz
  1  'x, y, z'
loop_
 _atom_site_type_symbol
 _atom_site_label
 _atom_site_symmetry_multiplicity
 _atom_site_fract_x
 _atom_site_fract_y
 _atom_site_fract_z
 _atom_site_occupancy
  Sb  Sb0  1  0.62202500  0.75540200  0.45197100  1
  Sb  Sb1  1  0.87797500  0.75540200  0.95197100  1
  Sb  Sb2  1  0.37797500  0.24459800  0.54802900  1
  Sb  Sb3  1  0.12202500  0.24459800  0.04802900  1
  H  H4  1  0.69293700  0.06381300  0.20638400  1
  H  H5  1  0.80706300  0.06381300  0.70638400  1
  H  H6  1  0.30706300  0.93618700  0.79361600  1
  H  H7  1  0.19293700  0.93618700  0.29361600  1
  C  C8  1  0.59458700  0.32859400  0.94928600  1
  C  C9  1  0.90541300  0.32859400  0.44928600  1
  C  C10  1  0.40541300  0.67140600  0.05071400  1
  C  C11  1  0.09458700  0.67140600  0.55071400  1
  C  C12  1  0.63007600  0.23866200  0.13241100  1
  C  C13  1  0.86992400  0.23866200  0.63241100  1
  C  C14  1  0.36992400  0.76133800  0.86758900  1
  C  C15  1  0.13007600  0.76133800  0.36758900  1
  C  C16  1  0.64629800  0.13761200  0.03832600  1
  C  C17  1  0.85370200  0.13761200  0.53832600  1
  C  C18  1  0.35370200  0.86238800  0.96167400  1
  C  C19  1  0.14629800  0.86238800  0.46167400  1
  N  N20  1  0.59676600  0.33482200  0.04076100  1
  N  N21  1  0.90323400  0.33482200  0.54076100  1
  N  N22  1  0.40323400  0.66517800  0.95923900  1
  N  N23  1  0.09676600  0.66517800  0.45923900  1
  N  N24  1  0.66159600  0.13809900  0.13424300  1
  N  N25  1  0.83840400  0.13809900  0.63424300  1
  N  N26  1  0.33840400  0.86190100  0.86575700  1
  N  N27  1  0.16159600  0.86190100  0.36575700  1
  N  N28  1  0.61266600  0.23152300  0.94487300  1
  N  N29  1  0.88733400  0.23152300  0.44487300  1
  N  N30  1  0.38733400  0.76847700  0.05512700  1
  N  N31  1  0.11266600  0.76847700  0.55512700  1
  Cl  Cl32  1  0.80369500  0.88886700  0.33357200  1
  Cl  Cl33  1  0.69630500  0.88886700  0.83357200  1
  Cl  Cl34  1  0.19630500  0.11113300  0.66642800  1
  Cl  Cl35  1  0.30369500  0.11113300  0.16642800  1
  Cl  Cl36  1  0.43893500  0.63531600  0.56708600  1
  Cl  Cl37  1  0.06106500  0.63531600  0.06708600  1
  Cl  Cl38  1  0.56106500  0.36468400  0.43291400  1
  Cl  Cl39  1  0.93893500  0.36468400  0.93291400  1
  Cl  Cl40  1  0.73515400  0.73703400  0.61129800  1
  Cl  Cl41  1  0.76484600  0.73703400  0.11129800  1
  Cl  Cl42  1  0.26484600  0.26296600  0.38870200  1
  Cl  Cl43  1  0.23515400  0.26296600  0.88870200  1
  Cl  Cl44  1  0.50658400  0.92666100  0.42653700  1
  Cl  Cl45  1  0.99341600  0.92666100  0.92653700  1
  Cl  Cl46  1  0.49341600  0.07333900  0.57346300  1
  Cl  Cl47  1  0.00658400  0.07333900  0.07346300  1
  Cl  Cl48  1  0.50836500  0.77787100  0.29172500  1
  Cl  Cl49  1  0.99163500  0.77787100  0.79172500  1
  Cl  Cl50  1  0.49163500  0.22212900  0.70827500  1
  Cl  Cl51  1  0.00836500  0.22212900  0.20827500  1
  Cl  Cl52  1  0.74544900  0.59352000  0.47172100  1
  Cl  Cl53  1  0.75455100  0.59352000  0.97172100  1
  Cl  Cl54  1  0.25455100  0.40648000  0.52827900  1
  Cl  Cl55  1  0.24544900  0.40648000  0.02827900  1
  Cl  Cl56  1  0.63333900  0.23577600  0.25264200  1
  Cl  Cl57  1  0.86666100  0.23577600  0.75264200  1
  Cl  Cl58  1  0.36666100  0.76422400  0.74735800  1
  Cl  Cl59  1  0.13333900  0.76422400  0.24735800  1
  Cl  Cl60  1  0.56732600  0.45310100  0.82880800  1
  Cl  Cl61  1  0.93267400  0.45310100  0.32880800  1
  Cl  Cl62  1  0.43267400  0.54689900  0.17119200  1
  Cl  Cl63  1  0.06732600  0.54689900  0.67119200  1
  Cl  Cl64  1  0.67171200  0.01121000  0.04278100  1
  Cl  Cl65  1  0.82828800  0.01121000  0.54278100  1
  Cl  Cl66  1  0.32828800  0.98879000  0.95721900  1
  Cl  Cl67  1  0.17171200  0.98879000  0.45721900  1
