# generated using pymatgen
data_Er(ReO4)3
_symmetry_space_group_name_H-M   'P 1'
_cell_length_a   10.17961402
_cell_length_b   10.17961402
_cell_length_c   10.17961442
_cell_angle_alpha   52.15569426
_cell_angle_beta   52.15569426
_cell_angle_gamma   52.15569297
_symmetry_Int_Tables_number   1
_chemical_formula_structural   Er(ReO4)3
_chemical_formula_sum   'Er2 Re6 O24'
_cell_volume   608.39683321
_cell_formula_units_Z   2
loop_
 _symmetry_equiv_pos_site_id
 _symmetry_equiv_pos_as_xyz
  1  'x, y, z'
loop_
 _atom_site_type_symbol
 _atom_site_label
 _atom_site_symmetry_multiplicity
 _atom_site_fract_x
 _atom_site_fract_y
 _atom_site_fract_z
 _atom_site_occupancy
  Er  Er0  1  0.93981100  0.93981100  0.93981100  1
  Er  Er1  1  0.43981100  0.43981100  0.43981100  1
  Re  Re2  1  0.80386000  0.54078700  0.15953500  1
  Re  Re3  1  0.54078700  0.15953500  0.80386000  1
  Re  Re4  1  0.15953500  0.80386000  0.54078700  1
  Re  Re5  1  0.65953500  0.04078700  0.30386000  1
  Re  Re6  1  0.30386000  0.65953500  0.04078700  1
  Re  Re7  1  0.04078700  0.30386000  0.65953500  1
  O  O8  1  0.91436300  0.51276500  0.54579700  1
  O  O9  1  0.54579700  0.91436300  0.51276500  1
  O  O10  1  0.51276500  0.54579700  0.91436300  1
  O  O11  1  0.60549400  0.08685400  0.14246500  1
  O  O12  1  0.80702100  0.74439900  0.10001900  1
  O  O13  1  0.01276500  0.41436300  0.04579700  1
  O  O14  1  0.74439900  0.10001900  0.80702100  1
  O  O15  1  0.72906900  0.41223000  0.39297300  1
  O  O16  1  0.14246500  0.60549400  0.08685400  1
  O  O17  1  0.08685400  0.14246500  0.60549400  1
  O  O18  1  0.41223000  0.39297300  0.72906900  1
  O  O19  1  0.39297300  0.72906900  0.41223000  1
  O  O20  1  0.64246500  0.58685400  0.10549400  1
  O  O21  1  0.41436300  0.04579700  0.01276500  1
  O  O22  1  0.58685400  0.10549400  0.64246500  1
  O  O23  1  0.10001900  0.80702100  0.74439900  1
  O  O24  1  0.91223000  0.22906900  0.89297300  1
  O  O25  1  0.89297300  0.91223000  0.22906900  1
  O  O26  1  0.04579700  0.01276500  0.41436300  1
  O  O27  1  0.60001900  0.24439900  0.30702100  1
  O  O28  1  0.10549400  0.64246500  0.58685400  1
  O  O29  1  0.30702100  0.60001900  0.24439900  1
  O  O30  1  0.24439900  0.30702100  0.60001900  1
  O  O31  1  0.22906900  0.89297300  0.91223000  1
