# generated using pymatgen
data_ThSeO
_symmetry_space_group_name_H-M   'P 1'
_cell_length_a   4.04122600
_cell_length_b   4.04122600
_cell_length_c   7.10609300
_cell_angle_alpha   90.00000000
_cell_angle_beta   90.00000000
_cell_angle_gamma   90.00000000
_symmetry_Int_Tables_number   1
_chemical_formula_structural   ThSeO
_chemical_formula_sum   'Th2 Se2 O2'
_cell_volume   116.05321172
_cell_formula_units_Z   2
loop_
 _symmetry_equiv_pos_site_id
 _symmetry_equiv_pos_as_xyz
  1  'x, y, z'
loop_
 _atom_site_type_symbol
 _atom_site_label
 _atom_site_symmetry_multiplicity
 _atom_site_fract_x
 _atom_site_fract_y
 _atom_site_fract_z
 _atom_site_occupancy
  Th  Th0  1  0.50000000  0.00000000  0.18769100  1
  Th  Th1  1  0.00000000  0.50000000  0.81230900  1
  Se  Se2  1  0.50000000  0.00000000  0.63584100  1
  Se  Se3  1  0.00000000  0.50000000  0.36415900  1
  O  O4  1  0.00000000  0.00000000  0.00000000  1
  O  O5  1  0.50000000  0.50000000  0.00000000  1
