# generated using pymatgen
data_BeH2
_symmetry_space_group_name_H-M   'P 1'
_cell_length_a   6.17478619
_cell_length_b   6.17478619
_cell_length_c   6.17478619
_cell_angle_alpha   141.75195061
_cell_angle_beta   104.16890001
_cell_angle_gamma   88.27403910
_symmetry_Int_Tables_number   1
_chemical_formula_structural   BeH2
_chemical_formula_sum   'Be6 H12'
_cell_volume   136.06251435
_cell_formula_units_Z   6
loop_
 _symmetry_equiv_pos_site_id
 _symmetry_equiv_pos_as_xyz
  1  'x, y, z'
loop_
 _atom_site_type_symbol
 _atom_site_label
 _atom_site_symmetry_multiplicity
 _atom_site_fract_x
 _atom_site_fract_y
 _atom_site_fract_z
 _atom_site_occupancy
  Be  Be0  1  0.25000000  0.00000000  0.25000000  1
  Be  Be1  1  0.75000000  0.00000000  0.75000000  1
  Be  Be2  1  0.16783400  0.28860300  0.12076900  1
  Be  Be3  1  0.66783400  0.04706500  0.37923100  1
  Be  Be4  1  0.33216600  0.95293500  0.62076900  1
  Be  Be5  1  0.83216600  0.71139700  0.87923100  1
  H  H6  1  0.56426200  0.14473800  0.88673100  1
  H  H7  1  0.25800600  0.14473800  0.58047600  1
  H  H8  1  0.75800600  0.67753100  0.61326900  1
  H  H9  1  0.93573800  0.32246900  0.08047600  1
  H  H10  1  0.68425200  0.41473600  0.73048400  1
  H  H11  1  0.18425200  0.95376900  0.76951700  1
  H  H12  1  0.31574800  0.58526400  0.26951600  1
  H  H13  1  0.81574800  0.04623100  0.23048400  1
  H  H14  1  0.06426200  0.67753100  0.91952400  1
  H  H15  1  0.24199400  0.32246900  0.38673100  1
  H  H16  1  0.74199400  0.85526200  0.41952400  1
  H  H17  1  0.43573800  0.85526200  0.11326900  1
