# generated using pymatgen
data_Na3GaB4O9
_symmetry_space_group_name_H-M   'P 1'
_cell_length_a   8.78197800
_cell_length_b   6.28100600
_cell_length_c   6.88167887
_cell_angle_alpha   80.98282636
_cell_angle_beta   90.00000000
_cell_angle_gamma   90.00000000
_symmetry_Int_Tables_number   1
_chemical_formula_structural   Na3GaB4O9
_chemical_formula_sum   'Na6 Ga2 B8 O18'
_cell_volume   374.89983138
_cell_formula_units_Z   2
loop_
 _symmetry_equiv_pos_site_id
 _symmetry_equiv_pos_as_xyz
  1  'x, y, z'
loop_
 _atom_site_type_symbol
 _atom_site_label
 _atom_site_symmetry_multiplicity
 _atom_site_fract_x
 _atom_site_fract_y
 _atom_site_fract_z
 _atom_site_occupancy
  Na  Na0  1  0.46571400  0.74637400  0.17701600  1
  Na  Na1  1  0.03428600  0.74637400  0.17701600  1
  Na  Na2  1  0.75000000  0.57697800  0.49278800  1
  Na  Na3  1  0.25000000  0.42302200  0.50721200  1
  Na  Na4  1  0.96571400  0.25362600  0.82298400  1
  Na  Na5  1  0.53428600  0.25362600  0.82298400  1
  Ga  Ga6  1  0.75000000  0.79342400  0.86417500  1
  Ga  Ga7  1  0.25000000  0.20657600  0.13582500  1
  B  B8  1  0.75000000  0.98481500  0.21859800  1
  B  B9  1  0.25000000  0.87784600  0.47442500  1
  B  B10  1  0.45472900  0.75436700  0.72017900  1
  B  B11  1  0.04527100  0.75436700  0.72017900  1
  B  B12  1  0.95472900  0.24563300  0.27982100  1
  B  B13  1  0.54527100  0.24563300  0.27982100  1
  B  B14  1  0.75000000  0.12215400  0.52557500  1
  B  B15  1  0.25000000  0.01518500  0.78140200  1
  O  O16  1  0.39151100  0.88281100  0.84551700  1
  O  O17  1  0.10848900  0.88281100  0.84551700  1
  O  O18  1  0.75000000  0.93374100  0.43136100  1
  O  O19  1  0.25000000  0.92394200  0.26191100  1
  O  O20  1  0.38882700  0.73521000  0.54129800  1
  O  O21  1  0.11117300  0.73521000  0.54129800  1
  O  O22  1  0.75000000  0.78358200  0.13452800  1
  O  O23  1  0.91389400  0.63719600  0.77847700  1
  O  O24  1  0.58610600  0.63719600  0.77847700  1
  O  O25  1  0.08610600  0.36280400  0.22152300  1
  O  O26  1  0.41389400  0.36280400  0.22152300  1
  O  O27  1  0.25000000  0.21641800  0.86547200  1
  O  O28  1  0.88882700  0.26479000  0.45870200  1
  O  O29  1  0.61117300  0.26479000  0.45870200  1
  O  O30  1  0.75000000  0.07605800  0.73808900  1
  O  O31  1  0.25000000  0.06625900  0.56863900  1
  O  O32  1  0.89151100  0.11718900  0.15448300  1
  O  O33  1  0.60848900  0.11718900  0.15448300  1
