# generated using pymatgen
data_Li3BiO4
_symmetry_space_group_name_H-M   'P 1'
_cell_length_a   6.31172200
_cell_length_b   5.32241900
_cell_length_c   5.39633597
_cell_angle_alpha   70.97539633
_cell_angle_beta   90.00000000
_cell_angle_gamma   90.00000000
_symmetry_Int_Tables_number   1
_chemical_formula_structural   Li3BiO4
_chemical_formula_sum   'Li6 Bi2 O8'
_cell_volume   171.38061991
_cell_formula_units_Z   2
loop_
 _symmetry_equiv_pos_site_id
 _symmetry_equiv_pos_as_xyz
  1  'x, y, z'
loop_
 _atom_site_type_symbol
 _atom_site_label
 _atom_site_symmetry_multiplicity
 _atom_site_fract_x
 _atom_site_fract_y
 _atom_site_fract_z
 _atom_site_occupancy
  Li  Li0  1  0.61330500  0.00000000  0.75000000  1
  Li  Li1  1  0.38669500  0.00000000  0.25000000  1
  Li  Li2  1  0.84249800  0.50000000  0.75000000  1
  Li  Li3  1  0.42138300  0.50000000  0.75000000  1
  Li  Li4  1  0.57861700  0.50000000  0.25000000  1
  Li  Li5  1  0.15750200  0.50000000  0.25000000  1
  Bi  Bi6  1  0.14912700  0.00000000  0.75000000  1
  Bi  Bi7  1  0.85087300  0.00000000  0.25000000  1
  O  O8  1  0.37367100  0.74840100  0.98624900  1
  O  O9  1  0.10828600  0.76412700  0.49279900  1
  O  O10  1  0.62632900  0.74840100  0.48624900  1
  O  O11  1  0.89171400  0.76412700  0.99279900  1
  O  O12  1  0.37367100  0.25159900  0.51375100  1
  O  O13  1  0.89171400  0.23587300  0.50720100  1
  O  O14  1  0.62632900  0.25159900  0.01375100  1
  O  O15  1  0.10828600  0.23587300  0.00720100  1
