# generated using pymatgen
data_Gd2HgO4
_symmetry_space_group_name_H-M   'P 1'
_cell_length_a   7.14937534
_cell_length_b   7.14937534
_cell_length_c   10.23448182
_cell_angle_alpha   59.17210010
_cell_angle_beta   59.17210010
_cell_angle_gamma   30.06960759
_symmetry_Int_Tables_number   1
_chemical_formula_structural   Gd2HgO4
_chemical_formula_sum   'Gd4 Hg2 O8'
_cell_volume   222.16669258
_cell_formula_units_Z   2
loop_
 _symmetry_equiv_pos_site_id
 _symmetry_equiv_pos_as_xyz
  1  'x, y, z'
loop_
 _atom_site_type_symbol
 _atom_site_label
 _atom_site_symmetry_multiplicity
 _atom_site_fract_x
 _atom_site_fract_y
 _atom_site_fract_z
 _atom_site_occupancy
  Gd  Gd0  1  0.61969500  0.61969500  0.53858400  1
  Gd  Gd1  1  0.15936100  0.15936100  0.20064000  1
  Gd  Gd2  1  0.84063900  0.84063900  0.79936000  1
  Gd  Gd3  1  0.38030500  0.38030500  0.46141600  1
  Hg  Hg4  1  0.88617800  0.88617800  0.16148500  1
  Hg  Hg5  1  0.11382200  0.11382200  0.83851500  1
  O  O6  1  0.23069000  0.23069000  0.38863800  1
  O  O7  1  0.79676000  0.79676000  0.05579200  1
  O  O8  1  0.03515400  0.03515400  0.71876700  1
  O  O9  1  0.58182900  0.58182900  0.34721000  1
  O  O10  1  0.41817100  0.41817100  0.65279000  1
  O  O11  1  0.96484600  0.96484600  0.28123300  1
  O  O12  1  0.20324000  0.20324000  0.94420800  1
  O  O13  1  0.76931000  0.76931000  0.61136200  1
