# generated using pymatgen
data_Lu2TeO6
_symmetry_space_group_name_H-M   'P 1'
_cell_length_a   9.09542962
_cell_length_b   9.09542962
_cell_length_c   5.06102600
_cell_angle_alpha   90.00000000
_cell_angle_beta   90.00000000
_cell_angle_gamma   119.99999724
_symmetry_Int_Tables_number   1
_chemical_formula_structural   Lu2TeO6
_chemical_formula_sum   'Lu6 Te3 O18'
_cell_volume   362.58985405
_cell_formula_units_Z   3
loop_
 _symmetry_equiv_pos_site_id
 _symmetry_equiv_pos_as_xyz
  1  'x, y, z'
loop_
 _atom_site_type_symbol
 _atom_site_label
 _atom_site_symmetry_multiplicity
 _atom_site_fract_x
 _atom_site_fract_y
 _atom_site_fract_z
 _atom_site_occupancy
  Lu  Lu0  1  0.00000000  0.62730300  0.00000000  1
  Lu  Lu1  1  0.00000000  0.29007800  0.50000000  1
  Lu  Lu2  1  0.37269700  0.37269700  0.00000000  1
  Lu  Lu3  1  0.29007800  0.00000000  0.50000000  1
  Lu  Lu4  1  0.70992200  0.70992200  0.50000000  1
  Lu  Lu5  1  0.62730300  0.00000000  0.00000000  1
  Te  Te6  1  0.33333300  0.66666700  0.50833300  1
  Te  Te7  1  0.00000000  0.00000000  0.00000000  1
  Te  Te8  1  0.66666700  0.33333300  0.49166700  1
  O  O9  1  0.08523100  0.88120900  0.78578700  1
  O  O10  1  0.22006300  0.75924900  0.29128500  1
  O  O11  1  0.12955400  0.54244700  0.72600700  1
  O  O12  1  0.41289300  0.87044600  0.72600700  1
  O  O13  1  0.24075100  0.46081400  0.29128500  1
  O  O14  1  0.11879100  0.20402200  0.78578700  1
  O  O15  1  0.20402200  0.11879100  0.21421300  1
  O  O16  1  0.53918600  0.77993700  0.29128500  1
  O  O17  1  0.45755300  0.58710700  0.72600700  1
  O  O18  1  0.79597800  0.91476900  0.78578700  1
  O  O19  1  0.46081400  0.24075100  0.70871500  1
  O  O20  1  0.58710700  0.45755300  0.27399300  1
  O  O21  1  0.54244700  0.12955400  0.27399300  1
  O  O22  1  0.77993700  0.53918600  0.70871500  1
  O  O23  1  0.91476900  0.79597800  0.21421300  1
  O  O24  1  0.75924900  0.22006300  0.70871500  1
  O  O25  1  0.87044600  0.41289300  0.27399300  1
  O  O26  1  0.88120900  0.08523100  0.21421300  1
