# generated using pymatgen
data_LiNiSbO4
_symmetry_space_group_name_H-M   'P 1'
_cell_length_a   6.05658700
_cell_length_b   8.63105911
_cell_length_c   6.21168947
_cell_angle_alpha   89.99959308
_cell_angle_beta   90.00001469
_cell_angle_gamma   89.99999891
_symmetry_Int_Tables_number   1
_chemical_formula_structural   LiNiSbO4
_chemical_formula_sum   'Li4 Ni4 Sb4 O16'
_cell_volume   324.71457874
_cell_formula_units_Z   4
loop_
 _symmetry_equiv_pos_site_id
 _symmetry_equiv_pos_as_xyz
  1  'x, y, z'
loop_
 _atom_site_type_symbol
 _atom_site_label
 _atom_site_symmetry_multiplicity
 _atom_site_fract_x
 _atom_site_fract_y
 _atom_site_fract_z
 _atom_site_occupancy
  Li  Li0  1  0.25000000  0.10728500  0.99999900  1
  Li  Li1  1  0.75000000  0.60731000  0.49999900  1
  Li  Li2  1  0.75000000  0.89271500  0.00000200  1
  Li  Li3  1  0.25000000  0.39268900  0.50000200  1
  Ni  Ni4  1  0.99999900  0.99999900  0.50001200  1
  Ni  Ni5  1  0.49999600  0.99999500  0.50000500  1
  Ni  Ni6  1  0.50000200  0.50001000  0.99999500  1
  Ni  Ni7  1  0.00000500  0.49999800  0.99998400  1
  Sb  Sb8  1  0.75000000  0.24999400  0.25001100  1
  Sb  Sb9  1  0.24999900  0.75000600  0.74999000  1
  Sb  Sb10  1  0.74999900  0.24999300  0.74998900  1
  Sb  Sb11  1  0.24999900  0.75000600  0.25001100  1
  O  O12  1  0.52382600  0.25222600  0.00000000  1
  O  O13  1  0.02380800  0.75220800  0.50000000  1
  O  O14  1  0.97617400  0.25222600  0.00000000  1
  O  O15  1  0.47619200  0.75220800  0.50000000  1
  O  O16  1  0.02382700  0.74777400  0.99999900  1
  O  O17  1  0.52380700  0.24779200  0.50000100  1
  O  O18  1  0.47617300  0.74777400  0.00000000  1
  O  O19  1  0.97619300  0.24779200  0.50000100  1
  O  O20  1  0.75000000  0.47747400  0.22972000  1
  O  O21  1  0.25000000  0.97747500  0.72974000  1
  O  O22  1  0.75000000  0.47747400  0.77026600  1
  O  O23  1  0.25000000  0.97747500  0.27024800  1
  O  O24  1  0.25000100  0.52252700  0.77027800  1
  O  O25  1  0.75000000  0.02252400  0.27026100  1
  O  O26  1  0.25000000  0.52252700  0.22973400  1
  O  O27  1  0.75000000  0.02252400  0.72975400  1
