# generated using pymatgen
data_Na(WO3)9
_symmetry_space_group_name_H-M   'P 1'
_cell_length_a   8.65712706
_cell_length_b   8.65712706
_cell_length_c   8.65712659
_cell_angle_alpha   66.42269641
_cell_angle_beta   66.42269641
_cell_angle_gamma   66.42269526
_symmetry_Int_Tables_number   1
_chemical_formula_structural   Na(WO3)9
_chemical_formula_sum   'Na1 W9 O27'
_cell_volume   522.29468255
_cell_formula_units_Z   1
loop_
 _symmetry_equiv_pos_site_id
 _symmetry_equiv_pos_as_xyz
  1  'x, y, z'
loop_
 _atom_site_type_symbol
 _atom_site_label
 _atom_site_symmetry_multiplicity
 _atom_site_fract_x
 _atom_site_fract_y
 _atom_site_fract_z
 _atom_site_occupancy
  Na  Na0  1  0.00000000  0.00000000  0.00000000  1
  W  W1  1  0.50000000  0.50000000  0.50000000  1
  W  W2  1  0.94313400  0.60951400  0.27956900  1
  W  W3  1  0.83233400  0.83233400  0.83233400  1
  W  W4  1  0.72043100  0.05686600  0.39048600  1
  W  W5  1  0.16766600  0.16766600  0.16766600  1
  W  W6  1  0.27956900  0.94313400  0.60951400  1
  W  W7  1  0.39048600  0.72043100  0.05686600  1
  W  W8  1  0.60951400  0.27956900  0.94313400  1
  W  W9  1  0.05686600  0.39048600  0.72043100  1
  O  O10  1  0.44462700  0.61094000  0.27793700  1
  O  O11  1  0.16504700  0.66980600  0.16502400  1
  O  O12  1  0.00000000  0.50000000  0.50000000  1
  O  O13  1  0.72206300  0.55537300  0.38906000  1
  O  O14  1  0.94444200  0.61111200  0.77761800  1
  O  O15  1  0.83497600  0.83495300  0.33019400  1
  O  O16  1  0.50000000  0.50000000  0.00000000  1
  O  O17  1  0.38906000  0.72206300  0.55537300  1
  O  O18  1  0.88991800  0.72486400  0.05501300  1
  O  O19  1  0.05501300  0.88991800  0.72486400  1
  O  O20  1  0.33019400  0.83497600  0.83495300  1
  O  O21  1  0.22238200  0.05555800  0.38888800  1
  O  O22  1  0.66980600  0.16502400  0.16504700  1
  O  O23  1  0.77761800  0.94444200  0.61111200  1
  O  O24  1  0.94498700  0.11008200  0.27513600  1
  O  O25  1  0.50000000  0.00000000  0.50000000  1
  O  O26  1  0.61111200  0.77761800  0.94444200  1
  O  O27  1  0.72486400  0.05501300  0.88991800  1
  O  O28  1  0.05555800  0.38888800  0.22238200  1
  O  O29  1  0.61094000  0.27793700  0.44462700  1
  O  O30  1  0.27513600  0.94498700  0.11008200  1
  O  O31  1  0.16502400  0.16504700  0.66980600  1
  O  O32  1  0.83495300  0.33019400  0.83497600  1
  O  O33  1  0.27793700  0.44462700  0.61094000  1
  O  O34  1  0.38888800  0.22238200  0.05555800  1
  O  O35  1  0.11008200  0.27513600  0.94498700  1
  O  O36  1  0.55537300  0.38906000  0.72206300  1
