# generated using pymatgen
data_BeH2SeO4
_symmetry_space_group_name_H-M   'P 1'
_cell_length_a   5.71814700
_cell_length_b   7.62828000
_cell_length_c   7.95244800
_cell_angle_alpha   90.00000000
_cell_angle_beta   90.00000000
_cell_angle_gamma   90.00000000
_symmetry_Int_Tables_number   1
_chemical_formula_structural   BeH2SeO4
_chemical_formula_sum   'Be4 H8 Se4 O16'
_cell_volume   346.88281070
_cell_formula_units_Z   4
loop_
 _symmetry_equiv_pos_site_id
 _symmetry_equiv_pos_as_xyz
  1  'x, y, z'
loop_
 _atom_site_type_symbol
 _atom_site_label
 _atom_site_symmetry_multiplicity
 _atom_site_fract_x
 _atom_site_fract_y
 _atom_site_fract_z
 _atom_site_occupancy
  Be  Be0  1  0.11106200  0.26788100  0.26627000  1
  Be  Be1  1  0.38893800  0.73211900  0.76627000  1
  Be  Be2  1  0.61106200  0.23211900  0.73373000  1
  Be  Be3  1  0.88893800  0.76788100  0.23373000  1
  H  H4  1  0.14577600  0.90465000  0.94381700  1
  H  H5  1  0.21759800  0.96919400  0.31586000  1
  H  H6  1  0.28240200  0.03080600  0.81586000  1
  H  H7  1  0.35422400  0.09535000  0.44381700  1
  H  H8  1  0.64577600  0.59535000  0.05618300  1
  H  H9  1  0.71759800  0.53080600  0.68414000  1
  H  H10  1  0.78240200  0.46919400  0.18414000  1
  H  H11  1  0.85422400  0.40465000  0.55618300  1
  Se  Se12  1  0.21276600  0.41253900  0.92255200  1
  Se  Se13  1  0.28723400  0.58746100  0.42255200  1
  Se  Se14  1  0.71276600  0.08746100  0.07744800  1
  Se  Se15  1  0.78723400  0.91253900  0.57744800  1
  O  O16  1  0.08283800  0.41850200  0.41284300  1
  O  O17  1  0.15921200  0.74248900  0.29232500  1
  O  O18  1  0.21086000  0.66805600  0.61766300  1
  O  O19  1  0.22355800  0.09120400  0.35972100  1
  O  O20  1  0.27644200  0.90879600  0.85972100  1
  O  O21  1  0.28914100  0.33194400  0.11766300  1
  O  O22  1  0.34078800  0.25751100  0.79232500  1
  O  O23  1  0.41716200  0.58149800  0.91284300  1
  O  O24  1  0.58283800  0.08149800  0.58715700  1
  O  O25  1  0.65921200  0.75751100  0.70767500  1
  O  O26  1  0.71085900  0.83194400  0.38233700  1
  O  O27  1  0.72355800  0.40879600  0.64027900  1
  O  O28  1  0.77644200  0.59120400  0.14027900  1
  O  O29  1  0.78914100  0.16805600  0.88233700  1
  O  O30  1  0.84078800  0.24248900  0.20767500  1
  O  O31  1  0.91716200  0.91850200  0.08715700  1
