# generated using pymatgen
data_Ca(ClO3)2
_symmetry_space_group_name_H-M   'P 1'
_cell_length_a   10.72176600
_cell_length_b   7.15858300
_cell_length_c   8.76141592
_cell_angle_alpha   54.39599024
_cell_angle_beta   90.00000000
_cell_angle_gamma   90.00000000
_symmetry_Int_Tables_number   1
_chemical_formula_structural   Ca(ClO3)2
_chemical_formula_sum   'Ca4 Cl8 O24'
_cell_volume   546.75189012
_cell_formula_units_Z   4
loop_
 _symmetry_equiv_pos_site_id
 _symmetry_equiv_pos_as_xyz
  1  'x, y, z'
loop_
 _atom_site_type_symbol
 _atom_site_label
 _atom_site_symmetry_multiplicity
 _atom_site_fract_x
 _atom_site_fract_y
 _atom_site_fract_z
 _atom_site_occupancy
  Ca  Ca0  1  0.89212000  0.23576300  0.99022100  1
  Ca  Ca1  1  0.39212000  0.76423700  0.50977900  1
  Ca  Ca2  1  0.60788000  0.23576300  0.49022100  1
  Ca  Ca3  1  0.10788000  0.76423700  0.00977900  1
  Cl  Cl4  1  0.19801700  0.33207800  0.92059300  1
  Cl  Cl5  1  0.69801700  0.66792200  0.57940700  1
  Cl  Cl6  1  0.07070200  0.79227200  0.41749300  1
  Cl  Cl7  1  0.57070200  0.20772800  0.08250700  1
  Cl  Cl8  1  0.42929800  0.79227200  0.91749300  1
  Cl  Cl9  1  0.92929800  0.20772800  0.58250700  1
  Cl  Cl10  1  0.30198300  0.33207800  0.42059300  1
  Cl  Cl11  1  0.80198300  0.66792200  0.07940700  1
  O  O12  1  0.11043800  0.14244900  0.95890600  1
  O  O13  1  0.91026800  0.32829800  0.67586900  1
  O  O14  1  0.60782700  0.49383400  0.59463500  1
  O  O15  1  0.25334800  0.43268900  0.73181500  1
  O  O16  1  0.75334800  0.56731100  0.76818500  1
  O  O17  1  0.69178200  0.08317300  0.10941300  1
  O  O18  1  0.47250700  0.02627900  0.18636300  1
  O  O19  1  0.10782700  0.50616600  0.90536500  1
  O  O20  1  0.97250700  0.97372100  0.31363700  1
  O  O21  1  0.19178200  0.91682700  0.39058700  1
  O  O22  1  0.41026800  0.67170200  0.82413100  1
  O  O23  1  0.61043800  0.85755100  0.54109400  1
  O  O24  1  0.38956200  0.14244900  0.45890600  1
  O  O25  1  0.58973200  0.32829800  0.17586900  1
  O  O26  1  0.80821800  0.08317300  0.60941300  1
  O  O27  1  0.02749300  0.02627900  0.68636300  1
  O  O28  1  0.89217300  0.49383400  0.09463500  1
  O  O29  1  0.52749300  0.97372100  0.81363700  1
  O  O30  1  0.30821800  0.91682700  0.89058700  1
  O  O31  1  0.24665200  0.43268900  0.23181500  1
  O  O32  1  0.74665200  0.56731100  0.26818500  1
  O  O33  1  0.39217300  0.50616600  0.40536500  1
  O  O34  1  0.08973200  0.67170200  0.32413100  1
  O  O35  1  0.88956200  0.85755100  0.04109400  1
