# generated using pymatgen
data_Na3YH6(CO4)3
_symmetry_space_group_name_H-M   'P 1'
_cell_length_a   5.96381900
_cell_length_b   10.21030500
_cell_length_c   17.43962900
_cell_angle_alpha   90.00000000
_cell_angle_beta   90.00000000
_cell_angle_gamma   90.00000000
_symmetry_Int_Tables_number   1
_chemical_formula_structural   Na3YH6(CO4)3
_chemical_formula_sum   'Na12 Y4 H24 C12 O48'
_cell_volume   1061.94105597
_cell_formula_units_Z   4
loop_
 _symmetry_equiv_pos_site_id
 _symmetry_equiv_pos_as_xyz
  1  'x, y, z'
loop_
 _atom_site_type_symbol
 _atom_site_label
 _atom_site_symmetry_multiplicity
 _atom_site_fract_x
 _atom_site_fract_y
 _atom_site_fract_z
 _atom_site_occupancy
  Na  Na0  1  0.91359900  0.12773300  0.95104500  1
  Na  Na1  1  0.41359900  0.87226700  0.04895500  1
  Na  Na2  1  0.41359900  0.62773300  0.54895500  1
  Na  Na3  1  0.91359900  0.37226700  0.45104500  1
  Na  Na4  1  0.40675600  0.35841900  0.86755300  1
  Na  Na5  1  0.90675600  0.64158100  0.13244700  1
  Na  Na6  1  0.90675600  0.85841900  0.63244700  1
  Na  Na7  1  0.40675600  0.14158100  0.36755300  1
  Na  Na8  1  0.41655400  0.01480000  0.58209900  1
  Na  Na9  1  0.91655400  0.98520000  0.41790100  1
  Na  Na10  1  0.91655400  0.51480000  0.91790100  1
  Na  Na11  1  0.41655400  0.48520000  0.08209900  1
  Y  Y12  1  0.68528400  0.32122500  0.66128000  1
  Y  Y13  1  0.18528400  0.67877500  0.33872000  1
  Y  Y14  1  0.18528400  0.82122500  0.83872000  1
  Y  Y15  1  0.68528400  0.17877500  0.16128000  1
  H  H16  1  0.44757000  0.30894400  0.51076200  1
  H  H17  1  0.94757000  0.69105600  0.48923800  1
  H  H18  1  0.94757000  0.80894400  0.98923800  1
  H  H19  1  0.44757000  0.19105600  0.01076200  1
  H  H20  1  0.24333300  0.27281900  0.56870200  1
  H  H21  1  0.74333300  0.72718100  0.43129800  1
  H  H22  1  0.74333300  0.77281900  0.93129800  1
  H  H23  1  0.24333300  0.22718100  0.06870200  1
  H  H24  1  0.23635000  0.21309900  0.73406700  1
  H  H25  1  0.73635000  0.78690100  0.26593300  1
  H  H26  1  0.73635000  0.71309900  0.76593300  1
  H  H27  1  0.23635000  0.28690100  0.23406700  1
  H  H28  1  0.43463100  0.11802400  0.76100700  1
  H  H29  1  0.93463100  0.88197600  0.23899300  1
  H  H30  1  0.93463100  0.61802400  0.73899300  1
  H  H31  1  0.43463100  0.38197600  0.26100700  1
  H  H32  1  0.23020100  0.47847200  0.68208400  1
  H  H33  1  0.73020100  0.52152800  0.31791600  1
  H  H34  1  0.73020100  0.97847200  0.81791600  1
  H  H35  1  0.23020100  0.02152800  0.18208400  1
  H  H36  1  0.42032500  0.55180300  0.72872400  1
  H  H37  1  0.92032500  0.44819700  0.27127600  1
  H  H38  1  0.92032500  0.05180300  0.77127600  1
  H  H39  1  0.42032500  0.94819700  0.22872400  1
  C  C40  1  0.40825700  0.05049900  0.90180200  1
  C  C41  1  0.90825700  0.94950100  0.09819800  1
  C  C42  1  0.90825700  0.55049900  0.59819800  1
  C  C43  1  0.40825700  0.44950100  0.40180200  1
  C  C44  1  0.91178900  0.30415800  0.80487000  1
  C  C45  1  0.41178900  0.69584200  0.19513000  1
  C  C46  1  0.41178900  0.80415800  0.69513000  1
  C  C47  1  0.91178900  0.19584200  0.30487000  1
  C  C48  1  0.92211100  0.12046000  0.57900500  1
  C  C49  1  0.42211100  0.87954000  0.42099500  1
  C  C50  1  0.42211100  0.62046000  0.92099500  1
  C  C51  1  0.92211100  0.37954000  0.07900500  1
  O  O52  1  0.96509300  0.23124300  0.74469000  1
  O  O53  1  0.46509300  0.76875700  0.25531000  1
  O  O54  1  0.46509300  0.73124300  0.75531000  1
  O  O55  1  0.96509300  0.26875700  0.24469000  1
  O  O56  1  0.03821500  0.03053800  0.54665400  1
  O  O57  1  0.53821500  0.96946200  0.45334600  1
  O  O58  1  0.53821500  0.53053800  0.95334600  1
  O  O59  1  0.03821500  0.46946200  0.04665400  1
  O  O60  1  0.96387000  0.24634700  0.56852000  1
  O  O61  1  0.46387000  0.75365300  0.43148000  1
  O  O62  1  0.46387000  0.74634700  0.93148000  1
  O  O63  1  0.96387000  0.25365300  0.06852000  1
  O  O64  1  0.75688700  0.09343900  0.62504600  1
  O  O65  1  0.25688700  0.90656100  0.37495400  1
  O  O66  1  0.25688700  0.59343900  0.87495400  1
  O  O67  1  0.75688700  0.40656100  0.12504600  1
  O  O68  1  0.95997800  0.49635400  0.66462900  1
  O  O69  1  0.45997800  0.50364600  0.33537100  1
  O  O70  1  0.45997800  0.99635400  0.83537100  1
  O  O71  1  0.95997800  0.00364600  0.16462900  1
  O  O72  1  0.73764100  0.37914500  0.79632500  1
  O  O73  1  0.23764100  0.62085500  0.20367500  1
  O  O74  1  0.23764100  0.87914500  0.70367500  1
  O  O75  1  0.73764100  0.12085500  0.29632500  1
  O  O76  1  0.02608000  0.30027200  0.86669200  1
  O  O77  1  0.52608000  0.69972800  0.13330800  1
  O  O78  1  0.52608000  0.80027200  0.63330800  1
  O  O79  1  0.02608000  0.19972800  0.36669200  1
  O  O80  1  0.51791800  0.14999500  0.92620500  1
  O  O81  1  0.01791800  0.85000500  0.07379500  1
  O  O82  1  0.01791800  0.64999500  0.57379500  1
  O  O83  1  0.51791800  0.35000500  0.42620500  1
  O  O84  1  0.24294300  0.99741800  0.93903000  1
  O  O85  1  0.74294300  0.00258200  0.06097000  1
  O  O86  1  0.74294300  0.49741800  0.56097000  1
  O  O87  1  0.24294300  0.50258200  0.43903000  1
  O  O88  1  0.41127200  0.27794700  0.56482100  1
  O  O89  1  0.91127200  0.72205300  0.43517900  1
  O  O90  1  0.91127200  0.77794700  0.93517900  1
  O  O91  1  0.41127200  0.22205300  0.06482100  1
  O  O92  1  0.40186100  0.19449700  0.72797100  1
  O  O93  1  0.90186100  0.80550300  0.27202900  1
  O  O94  1  0.90186100  0.69449700  0.77202900  1
  O  O95  1  0.40186100  0.30550300  0.22797100  1
  O  O96  1  0.39388200  0.47520600  0.69539900  1
  O  O97  1  0.89388200  0.52479400  0.30460100  1
  O  O98  1  0.89388200  0.97520600  0.80460100  1
  O  O99  1  0.39388200  0.02479400  0.19539900  1
