# generated using pymatgen
data_Sm2TiO5
_symmetry_space_group_name_H-M   'P 1'
_cell_length_a   3.81047200
_cell_length_b   10.67958500
_cell_length_c   11.45601200
_cell_angle_alpha   90.00000000
_cell_angle_beta   90.00000000
_cell_angle_gamma   90.00000000
_symmetry_Int_Tables_number   1
_chemical_formula_structural   Sm2TiO5
_chemical_formula_sum   'Sm8 Ti4 O20'
_cell_volume   466.19392647
_cell_formula_units_Z   4
loop_
 _symmetry_equiv_pos_site_id
 _symmetry_equiv_pos_as_xyz
  1  'x, y, z'
loop_
 _atom_site_type_symbol
 _atom_site_label
 _atom_site_symmetry_multiplicity
 _atom_site_fract_x
 _atom_site_fract_y
 _atom_site_fract_z
 _atom_site_occupancy
  Sm  Sm0  1  0.25000000  0.10982900  0.27718900  1
  Sm  Sm1  1  0.25000000  0.13686100  0.94357300  1
  Sm  Sm2  1  0.75000000  0.36313900  0.44357300  1
  Sm  Sm3  1  0.75000000  0.39017100  0.77718900  1
  Sm  Sm4  1  0.25000000  0.60982900  0.22281100  1
  Sm  Sm5  1  0.25000000  0.63686100  0.55642700  1
  Sm  Sm6  1  0.75000000  0.86313900  0.05642700  1
  Sm  Sm7  1  0.75000000  0.89017100  0.72281100  1
  Ti  Ti8  1  0.25000000  0.17959700  0.62147000  1
  Ti  Ti9  1  0.75000000  0.32040300  0.12147000  1
  Ti  Ti10  1  0.25000000  0.67959700  0.87853000  1
  Ti  Ti11  1  0.75000000  0.82040300  0.37853000  1
  O  O12  1  0.75000000  0.00716700  0.89642200  1
  O  O13  1  0.25000000  0.01650700  0.65817500  1
  O  O14  1  0.25000000  0.22447000  0.46037600  1
  O  O15  1  0.75000000  0.23600600  0.61834600  1
  O  O16  1  0.75000000  0.23633900  0.26928400  1
  O  O17  1  0.25000000  0.26366100  0.76928400  1
  O  O18  1  0.25000000  0.26399400  0.11834600  1
  O  O19  1  0.75000000  0.27553000  0.96037600  1
  O  O20  1  0.75000000  0.48349300  0.15817500  1
  O  O21  1  0.25000000  0.49283300  0.39642200  1
  O  O22  1  0.75000000  0.50716700  0.60357800  1
  O  O23  1  0.25000000  0.51650700  0.84182500  1
  O  O24  1  0.25000000  0.72447000  0.03962400  1
  O  O25  1  0.75000000  0.73600600  0.88165400  1
  O  O26  1  0.75000000  0.73633900  0.23071600  1
  O  O27  1  0.25000000  0.76366100  0.73071600  1
  O  O28  1  0.25000000  0.76399400  0.38165400  1
  O  O29  1  0.75000000  0.77553000  0.53962400  1
  O  O30  1  0.75000000  0.98349300  0.34182500  1
  O  O31  1  0.25000000  0.99283300  0.10357800  1
