# generated using pymatgen
data_K3CaPCO7
_symmetry_space_group_name_H-M   'P 1'
_cell_length_a   7.28391300
_cell_length_b   5.75699200
_cell_length_c   9.90971527
_cell_angle_alpha   88.63908998
_cell_angle_beta   90.00000000
_cell_angle_gamma   90.00000000
_symmetry_Int_Tables_number   1
_chemical_formula_structural   K3CaPCO7
_chemical_formula_sum   'K6 Ca2 P2 C2 O14'
_cell_volume   415.43112514
_cell_formula_units_Z   2
loop_
 _symmetry_equiv_pos_site_id
 _symmetry_equiv_pos_as_xyz
  1  'x, y, z'
loop_
 _atom_site_type_symbol
 _atom_site_label
 _atom_site_symmetry_multiplicity
 _atom_site_fract_x
 _atom_site_fract_y
 _atom_site_fract_z
 _atom_site_occupancy
  K  K0  1  0.25000000  0.76196300  0.91690200  1
  K  K1  1  0.00617600  0.25618600  0.73916100  1
  K  K2  1  0.49382400  0.25618600  0.73916100  1
  K  K3  1  0.50617600  0.74381400  0.26083900  1
  K  K4  1  0.99382400  0.74381400  0.26083900  1
  K  K5  1  0.75000000  0.23803700  0.08309800  1
  Ca  Ca6  1  0.75000000  0.77858600  0.63357900  1
  Ca  Ca7  1  0.25000000  0.22141400  0.36642100  1
  P  P8  1  0.25000000  0.70620500  0.58221100  1
  P  P9  1  0.75000000  0.29379500  0.41778900  1
  C  C10  1  0.75000000  0.73952200  0.92567700  1
  C  C11  1  0.25000000  0.26047800  0.07432300  1
  O  O12  1  0.25000000  0.27274700  0.94318900  1
  O  O13  1  0.75000000  0.94142400  0.86247300  1
  O  O14  1  0.75000000  0.55075100  0.85480400  1
  O  O15  1  0.07529400  0.76665700  0.66601300  1
  O  O16  1  0.42470600  0.76665700  0.66601300  1
  O  O17  1  0.25000000  0.43959900  0.55551500  1
  O  O18  1  0.75000000  0.15708700  0.55536800  1
  O  O19  1  0.25000000  0.84291300  0.44463200  1
  O  O20  1  0.75000000  0.56040100  0.44448500  1
  O  O21  1  0.57529400  0.23334300  0.33398700  1
  O  O22  1  0.92470600  0.23334300  0.33398700  1
  O  O23  1  0.25000000  0.44924900  0.14519600  1
  O  O24  1  0.25000000  0.05857600  0.13752700  1
  O  O25  1  0.75000000  0.72725300  0.05681100  1
