# generated using pymatgen
data_NaH8O5
_symmetry_space_group_name_H-M   'P 1'
_cell_length_a   7.90981343
_cell_length_b   7.90981343
_cell_length_c   11.56070379
_cell_angle_alpha   64.53510596
_cell_angle_beta   64.53510596
_cell_angle_gamma   48.72861495
_symmetry_Int_Tables_number   1
_chemical_formula_structural   NaH8O5
_chemical_formula_sum   'Na4 H32 O20'
_cell_volume   479.26144136
_cell_formula_units_Z   4
loop_
 _symmetry_equiv_pos_site_id
 _symmetry_equiv_pos_as_xyz
  1  'x, y, z'
loop_
 _atom_site_type_symbol
 _atom_site_label
 _atom_site_symmetry_multiplicity
 _atom_site_fract_x
 _atom_site_fract_y
 _atom_site_fract_z
 _atom_site_occupancy
  Na  Na0  1  0.69405100  0.70394900  0.56799300  1
  Na  Na1  1  0.29605100  0.30594900  0.93200700  1
  Na  Na2  1  0.30594900  0.29605100  0.43200700  1
  Na  Na3  1  0.70394900  0.69405100  0.06799300  1
  H  H4  1  0.09732900  0.65556700  0.57034000  1
  H  H5  1  0.34443300  0.90267100  0.92966000  1
  H  H6  1  0.90267100  0.34443300  0.42966000  1
  H  H7  1  0.65556700  0.09732900  0.07034000  1
  H  H8  1  0.04051700  0.79480900  0.42870200  1
  H  H9  1  0.20519100  0.95948300  0.07129800  1
  H  H10  1  0.95948300  0.20519100  0.57129800  1
  H  H11  1  0.79480900  0.04051700  0.92870200  1
  H  H12  1  0.84460300  0.32092500  0.78658100  1
  H  H13  1  0.67907500  0.15539700  0.71341900  1
  H  H14  1  0.15539700  0.67907500  0.21341900  1
  H  H15  1  0.32092500  0.84460300  0.28658100  1
  H  H16  1  0.58622400  0.54049900  0.82829900  1
  H  H17  1  0.45950100  0.41377600  0.67170100  1
  H  H18  1  0.41377600  0.45950100  0.17170100  1
  H  H19  1  0.54049900  0.58622400  0.32829900  1
  H  H20  1  0.21417800  0.82036600  0.63122100  1
  H  H21  1  0.17963400  0.78582200  0.86877900  1
  H  H22  1  0.78582200  0.17963400  0.36877900  1
  H  H23  1  0.82036600  0.21417800  0.13122100  1
  H  H24  1  0.38354800  0.73753300  0.49473800  1
  H  H25  1  0.26246700  0.61645200  0.00526200  1
  H  H26  1  0.61645200  0.26246700  0.50526200  1
  H  H27  1  0.73753300  0.38354800  0.99473800  1
  H  H28  1  0.40728200  0.11822100  0.68358100  1
  H  H29  1  0.88177900  0.59271800  0.81641900  1
  H  H30  1  0.59271800  0.88177900  0.31641900  1
  H  H31  1  0.11822100  0.40728200  0.18358100  1
  H  H32  1  0.23656100  0.05558900  0.70420400  1
  H  H33  1  0.94441100  0.76343900  0.79579600  1
  H  H34  1  0.76343900  0.94441100  0.29579600  1
  H  H35  1  0.05558900  0.23656100  0.20420400  1
  O  O36  1  0.00117600  0.03900900  0.79924100  1
  O  O37  1  0.96099100  0.99882400  0.70075800  1
  O  O38  1  0.99882400  0.96099100  0.20075800  1
  O  O39  1  0.03900900  0.00117600  0.29924100  1
  O  O40  1  0.04254300  0.66609700  0.50516600  1
  O  O41  1  0.33390300  0.95745800  0.99483400  1
  O  O42  1  0.95745700  0.33390300  0.49483400  1
  O  O43  1  0.66609700  0.04254300  0.00516600  1
  O  O44  1  0.74913200  0.48924000  0.78914600  1
  O  O45  1  0.51076000  0.25086800  0.71085400  1
  O  O46  1  0.25086800  0.51076000  0.21085400  1
  O  O47  1  0.48924000  0.74913200  0.28914600  1
  O  O48  1  0.37662200  0.69671500  0.58884600  1
  O  O49  1  0.30328500  0.62337800  0.91115400  1
  O  O50  1  0.62337800  0.30328500  0.41115400  1
  O  O51  1  0.69671500  0.37662200  0.08884600  1
  O  O52  1  0.37485000  0.05366500  0.64587500  1
  O  O53  1  0.94633500  0.62515000  0.85412500  1
  O  O54  1  0.62515000  0.94633500  0.35412500  1
  O  O55  1  0.05366500  0.37485000  0.14587500  1
