# generated using pymatgen
data_K3TbSi3(HO5)2
_symmetry_space_group_name_H-M   'P 1'
_cell_length_a   5.96841100
_cell_length_b   13.31601300
_cell_length_c   13.77292300
_cell_angle_alpha   90.00000000
_cell_angle_beta   90.00000000
_cell_angle_gamma   90.00000000
_symmetry_Int_Tables_number   1
_chemical_formula_structural   K3TbSi3(HO5)2
_chemical_formula_sum   'K12 Tb4 Si12 H8 O40'
_cell_volume   1094.60909437
_cell_formula_units_Z   4
loop_
 _symmetry_equiv_pos_site_id
 _symmetry_equiv_pos_as_xyz
  1  'x, y, z'
loop_
 _atom_site_type_symbol
 _atom_site_label
 _atom_site_symmetry_multiplicity
 _atom_site_fract_x
 _atom_site_fract_y
 _atom_site_fract_z
 _atom_site_occupancy
  K  K0  1  0.42381500  0.12803600  0.75000000  1
  K  K1  1  0.08566800  0.13758100  0.51610700  1
  K  K2  1  0.08566800  0.13758100  0.98389300  1
  K  K3  1  0.58566800  0.36241900  0.48389300  1
  K  K4  1  0.58566800  0.36241900  0.01610700  1
  K  K5  1  0.92381500  0.37196400  0.25000000  1
  K  K6  1  0.07618500  0.62803600  0.75000000  1
  K  K7  1  0.41433200  0.63758100  0.51610700  1
  K  K8  1  0.41433200  0.63758100  0.98389300  1
  K  K9  1  0.91433200  0.86241900  0.01610700  1
  K  K10  1  0.91433200  0.86241900  0.48389300  1
  K  K11  1  0.57618500  0.87196400  0.25000000  1
  Tb  Tb12  1  0.08634900  0.04066500  0.25000000  1
  Tb  Tb13  1  0.58634900  0.45933500  0.75000000  1
  Tb  Tb14  1  0.41365100  0.54066500  0.25000000  1
  Tb  Tb15  1  0.91365100  0.95933500  0.75000000  1
  Si  Si16  1  0.58730300  0.09793800  0.10403800  1
  Si  Si17  1  0.58730300  0.09793800  0.39596200  1
  Si  Si18  1  0.91923200  0.24804500  0.75000000  1
  Si  Si19  1  0.41923200  0.25195500  0.25000000  1
  Si  Si20  1  0.08730300  0.40206200  0.60403800  1
  Si  Si21  1  0.08730300  0.40206200  0.89596200  1
  Si  Si22  1  0.91269700  0.59793800  0.10403800  1
  Si  Si23  1  0.91269700  0.59793800  0.39596200  1
  Si  Si24  1  0.58076800  0.74804500  0.75000000  1
  Si  Si25  1  0.08076800  0.75195500  0.25000000  1
  Si  Si26  1  0.41269700  0.90206200  0.60403800  1
  Si  Si27  1  0.41269700  0.90206200  0.89596200  1
  H  H28  1  0.61017300  0.07069300  0.55958500  1
  H  H29  1  0.61017300  0.07069300  0.94041500  1
  H  H30  1  0.11017300  0.42930700  0.05958500  1
  H  H31  1  0.11017300  0.42930700  0.44041500  1
  H  H32  1  0.88982700  0.57069300  0.94041500  1
  H  H33  1  0.88982700  0.57069300  0.55958500  1
  H  H34  1  0.38982700  0.92930700  0.05958500  1
  H  H35  1  0.38982700  0.92930700  0.44041500  1
  O  O36  1  0.36900500  0.02904400  0.13059300  1
  O  O37  1  0.36900500  0.02904400  0.36940700  1
  O  O38  1  0.82329900  0.04418200  0.13023500  1
  O  O39  1  0.82329900  0.04418200  0.36976500  1
  O  O40  1  0.93441200  0.12734400  0.75000000  1
  O  O41  1  0.58509000  0.13000800  0.51457000  1
  O  O42  1  0.58509000  0.13000800  0.98543000  1
  O  O43  1  0.17032900  0.20518300  0.25000000  1
  O  O44  1  0.56591300  0.21170500  0.15355100  1
  O  O45  1  0.56591300  0.21170500  0.34644900  1
  O  O46  1  0.06591300  0.28829500  0.65355100  1
  O  O47  1  0.06591300  0.28829500  0.84644900  1
  O  O48  1  0.67032900  0.29481700  0.75000000  1
  O  O49  1  0.08509000  0.36999200  0.48543000  1
  O  O50  1  0.08509000  0.36999200  0.01457000  1
  O  O51  1  0.43441200  0.37265600  0.25000000  1
  O  O52  1  0.32329900  0.45581800  0.63023500  1
  O  O53  1  0.32329900  0.45581800  0.86976500  1
  O  O54  1  0.86900500  0.47095600  0.63059300  1
  O  O55  1  0.86900500  0.47095600  0.86940700  1
  O  O56  1  0.13099500  0.52904400  0.13059300  1
  O  O57  1  0.13099500  0.52904400  0.36940700  1
  O  O58  1  0.67670100  0.54418200  0.13023500  1
  O  O59  1  0.67670100  0.54418200  0.36976500  1
  O  O60  1  0.56558800  0.62734400  0.75000000  1
  O  O61  1  0.91491000  0.63000800  0.98543000  1
  O  O62  1  0.91491000  0.63000800  0.51457000  1
  O  O63  1  0.32967100  0.70518300  0.25000000  1
  O  O64  1  0.93408700  0.71170500  0.15355100  1
  O  O65  1  0.93408700  0.71170500  0.34644900  1
  O  O66  1  0.43408700  0.78829500  0.65355100  1
  O  O67  1  0.43408700  0.78829500  0.84644900  1
  O  O68  1  0.82967100  0.79481700  0.75000000  1
  O  O69  1  0.41491000  0.86999200  0.01457000  1
  O  O70  1  0.41491000  0.86999200  0.48543000  1
  O  O71  1  0.06558800  0.87265600  0.25000000  1
  O  O72  1  0.17670100  0.95581800  0.63023500  1
  O  O73  1  0.17670100  0.95581800  0.86976500  1
  O  O74  1  0.63099500  0.97095600  0.63059300  1
  O  O75  1  0.63099500  0.97095600  0.86940700  1
