# generated using pymatgen
data_Ce2TiO5
_symmetry_space_group_name_H-M   'P 1'
_cell_length_a   3.84674400
_cell_length_b   10.77342700
_cell_length_c   11.54250800
_cell_angle_alpha   90.00000000
_cell_angle_beta   90.00000000
_cell_angle_gamma   90.00000000
_symmetry_Int_Tables_number   1
_chemical_formula_structural   Ce2TiO5
_chemical_formula_sum   'Ce8 Ti4 O20'
_cell_volume   478.35172293
_cell_formula_units_Z   4
loop_
 _symmetry_equiv_pos_site_id
 _symmetry_equiv_pos_as_xyz
  1  'x, y, z'
loop_
 _atom_site_type_symbol
 _atom_site_label
 _atom_site_symmetry_multiplicity
 _atom_site_fract_x
 _atom_site_fract_y
 _atom_site_fract_z
 _atom_site_occupancy
  Ce  Ce0  1  0.25000000  0.10782200  0.27807000  1
  Ce  Ce1  1  0.25000000  0.13756200  0.94238800  1
  Ce  Ce2  1  0.75000000  0.36243800  0.44238800  1
  Ce  Ce3  1  0.75000000  0.39217800  0.77807000  1
  Ce  Ce4  1  0.25000000  0.60782200  0.22193000  1
  Ce  Ce5  1  0.25000000  0.63756200  0.55761200  1
  Ce  Ce6  1  0.75000000  0.86243800  0.05761200  1
  Ce  Ce7  1  0.75000000  0.89217800  0.72193000  1
  Ti  Ti8  1  0.25000000  0.18135800  0.62159200  1
  Ti  Ti9  1  0.75000000  0.31864200  0.12159200  1
  Ti  Ti10  1  0.25000000  0.68135800  0.87840800  1
  Ti  Ti11  1  0.75000000  0.81864200  0.37840800  1
  O  O12  1  0.75000000  0.00840500  0.89745100  1
  O  O13  1  0.25000000  0.01734400  0.66120300  1
  O  O14  1  0.25000000  0.22389600  0.45758300  1
  O  O15  1  0.75000000  0.23554300  0.61758800  1
  O  O16  1  0.75000000  0.23693100  0.27179100  1
  O  O17  1  0.25000000  0.26306900  0.77179100  1
  O  O18  1  0.25000000  0.26445700  0.11758800  1
  O  O19  1  0.75000000  0.27610400  0.95758300  1
  O  O20  1  0.75000000  0.48265600  0.16120300  1
  O  O21  1  0.25000000  0.49159500  0.39745100  1
  O  O22  1  0.75000000  0.50840500  0.60254900  1
  O  O23  1  0.25000000  0.51734400  0.83879700  1
  O  O24  1  0.25000000  0.72389600  0.04241700  1
  O  O25  1  0.75000000  0.73554300  0.88241200  1
  O  O26  1  0.75000000  0.73693100  0.22820900  1
  O  O27  1  0.25000000  0.76306900  0.72820900  1
  O  O28  1  0.25000000  0.76445700  0.38241200  1
  O  O29  1  0.75000000  0.77610400  0.54241700  1
  O  O30  1  0.75000000  0.98265600  0.33879700  1
  O  O31  1  0.25000000  0.99159500  0.10254900  1
