# generated using pymatgen
data_Tb2WO6
_symmetry_space_group_name_H-M   'P 1'
_cell_length_a   5.30600100
_cell_length_b   9.18415500
_cell_length_c   10.03981000
_cell_angle_alpha   90.00000000
_cell_angle_beta   90.00000000
_cell_angle_gamma   90.00000000
_symmetry_Int_Tables_number   1
_chemical_formula_structural   Tb2WO6
_chemical_formula_sum   'Tb8 W4 O24'
_cell_volume   489.25134265
_cell_formula_units_Z   4
loop_
 _symmetry_equiv_pos_site_id
 _symmetry_equiv_pos_as_xyz
  1  'x, y, z'
loop_
 _atom_site_type_symbol
 _atom_site_label
 _atom_site_symmetry_multiplicity
 _atom_site_fract_x
 _atom_site_fract_y
 _atom_site_fract_z
 _atom_site_occupancy
  Tb  Tb0  1  0.02002000  0.39674300  0.03477800  1
  Tb  Tb1  1  0.03760300  0.28086000  0.62872700  1
  Tb  Tb2  1  0.46239700  0.71914000  0.12872700  1
  Tb  Tb3  1  0.47998000  0.60325700  0.53477800  1
  Tb  Tb4  1  0.52002000  0.10325700  0.96522200  1
  Tb  Tb5  1  0.53760300  0.21914000  0.37127300  1
  Tb  Tb6  1  0.96239700  0.78086000  0.87127300  1
  Tb  Tb7  1  0.97998000  0.89674300  0.46522200  1
  W  W8  1  0.03954200  0.00450200  0.15212600  1
  W  W9  1  0.46045800  0.99549800  0.65212600  1
  W  W10  1  0.53954200  0.49549800  0.84787400  1
  W  W11  1  0.96045800  0.50450200  0.34787400  1
  O  O12  1  0.08440500  0.65630100  0.46963700  1
  O  O13  1  0.17499000  0.54759600  0.20262700  1
  O  O14  1  0.18183500  0.86182200  0.68092000  1
  O  O15  1  0.19230500  0.85996400  0.26416200  1
  O  O16  1  0.23056000  0.38593100  0.43276000  1
  O  O17  1  0.25126900  0.08975800  0.50684600  1
  O  O18  1  0.24873100  0.91024200  0.00684600  1
  O  O19  1  0.26944000  0.61406900  0.93276000  1
  O  O20  1  0.30769500  0.14003600  0.76416200  1
  O  O21  1  0.31816500  0.13817800  0.18092000  1
  O  O22  1  0.32501000  0.45240400  0.70262700  1
  O  O23  1  0.41559500  0.34369900  0.96963700  1
  O  O24  1  0.58440500  0.84369900  0.53036300  1
  O  O25  1  0.67499000  0.95240400  0.79737300  1
  O  O26  1  0.68183500  0.63817800  0.31908000  1
  O  O27  1  0.69230500  0.64003600  0.73583800  1
  O  O28  1  0.73056000  0.11406900  0.56724000  1
  O  O29  1  0.75126900  0.41024300  0.49315400  1
  O  O30  1  0.74873100  0.58975800  0.99315400  1
  O  O31  1  0.76944000  0.88593100  0.06724000  1
  O  O32  1  0.80769500  0.35996400  0.23583800  1
  O  O33  1  0.81816500  0.36182200  0.81908000  1
  O  O34  1  0.82501000  0.04759600  0.29737300  1
  O  O35  1  0.91559500  0.15630100  0.03036300  1
