# generated using pymatgen
data_K2NaZn2H5(C2O7)2
_symmetry_space_group_name_H-M   'P 1'
_cell_length_a   11.15380200
_cell_length_b   5.21873700
_cell_length_c   11.63560208
_cell_angle_alpha   66.37375284
_cell_angle_beta   90.00000000
_cell_angle_gamma   90.00000000
_symmetry_Int_Tables_number   1
_chemical_formula_structural   K2NaZn2H5(C2O7)2
_chemical_formula_sum   'K4 Na2 Zn4 H10 C8 O28'
_cell_volume   620.52266095
_cell_formula_units_Z   2
loop_
 _symmetry_equiv_pos_site_id
 _symmetry_equiv_pos_as_xyz
  1  'x, y, z'
loop_
 _atom_site_type_symbol
 _atom_site_label
 _atom_site_symmetry_multiplicity
 _atom_site_fract_x
 _atom_site_fract_y
 _atom_site_fract_z
 _atom_site_occupancy
  K  K0  1  0.83470600  0.03939300  0.92411700  1
  K  K1  1  0.33470600  0.96060700  0.57588300  1
  K  K2  1  0.66529400  0.03939300  0.42411700  1
  K  K3  1  0.16529400  0.96060700  0.07588300  1
  Na  Na4  1  0.50000000  0.00000000  0.00000000  1
  Na  Na5  1  0.00000000  0.00000000  0.50000000  1
  Zn  Zn6  1  0.60323400  0.67424900  0.79473500  1
  Zn  Zn7  1  0.10323400  0.32575100  0.70526500  1
  Zn  Zn8  1  0.89676600  0.67424900  0.29473500  1
  Zn  Zn9  1  0.39676600  0.32575100  0.20526500  1
  H  H10  1  0.00000000  0.50000000  0.00000000  1
  H  H11  1  0.30858600  0.05881800  0.81561000  1
  H  H12  1  0.33135800  0.38398000  0.76831200  1
  H  H13  1  0.83135800  0.61602000  0.73168800  1
  H  H14  1  0.80858600  0.94118200  0.68439000  1
  H  H15  1  0.50000000  0.50000000  0.50000000  1
  H  H16  1  0.19141400  0.05881800  0.31561000  1
  H  H17  1  0.16864200  0.38398000  0.26831200  1
  H  H18  1  0.66864200  0.61602000  0.23168800  1
  H  H19  1  0.69141400  0.94118200  0.18439000  1
  C  C20  1  0.37248700  0.57247700  0.93432100  1
  C  C21  1  0.07511800  0.71005600  0.81999100  1
  C  C22  1  0.57511800  0.28994400  0.68000900  1
  C  C23  1  0.87248700  0.42752300  0.56567900  1
  C  C24  1  0.12751300  0.57247700  0.43432100  1
  C  C25  1  0.42488200  0.71005600  0.31999100  1
  C  C26  1  0.92488200  0.28994400  0.18000900  1
  C  C27  1  0.62751300  0.42752300  0.06567900  1
  O  O28  1  0.62005400  0.66893800  0.96934800  1
  O  O29  1  0.33269900  0.78982700  0.94792800  1
  O  O30  1  0.04612700  0.47070000  0.91126300  1
  O  O31  1  0.06204600  0.93939600  0.83680700  1
  O  O32  1  0.40794000  0.58655900  0.82473300  1
  O  O33  1  0.61533500  0.29259300  0.78355700  1
  O  O34  1  0.78993300  0.75639700  0.75682300  1
  O  O35  1  0.28993300  0.24360300  0.74317700  1
  O  O36  1  0.11533500  0.70740700  0.71644300  1
  O  O37  1  0.90794000  0.41344100  0.67526700  1
  O  O38  1  0.56204600  0.06060400  0.66319300  1
  O  O39  1  0.54612700  0.52930000  0.58873700  1
  O  O40  1  0.83269900  0.21017300  0.55207200  1
  O  O41  1  0.12005400  0.33106200  0.53065200  1
  O  O42  1  0.87994600  0.66893800  0.46934800  1
  O  O43  1  0.16730100  0.78982700  0.44792800  1
  O  O44  1  0.45387300  0.47070000  0.41126300  1
  O  O45  1  0.43795400  0.93939600  0.33680700  1
  O  O46  1  0.09206000  0.58655900  0.32473300  1
  O  O47  1  0.88466500  0.29259300  0.28355700  1
  O  O48  1  0.71006700  0.75639700  0.25682300  1
  O  O49  1  0.21006700  0.24360300  0.24317700  1
  O  O50  1  0.38466500  0.70740700  0.21644300  1
  O  O51  1  0.59206000  0.41344100  0.17526700  1
  O  O52  1  0.93795400  0.06060400  0.16319300  1
  O  O53  1  0.95387300  0.52930000  0.08873700  1
  O  O54  1  0.66730100  0.21017300  0.05207200  1
  O  O55  1  0.37994600  0.33106200  0.03065200  1
