# generated using pymatgen
data_NdP5
_symmetry_space_group_name_H-M   'P 1'
_cell_length_a   9.59853000
_cell_length_b   5.05461300
_cell_length_c   5.46987825
_cell_angle_alpha   77.96100256
_cell_angle_beta   90.00000000
_cell_angle_gamma   90.00000000
_symmetry_Int_Tables_number   1
_chemical_formula_structural   NdP5
_chemical_formula_sum   'Nd2 P10'
_cell_volume   259.54445498
_cell_formula_units_Z   2
loop_
 _symmetry_equiv_pos_site_id
 _symmetry_equiv_pos_as_xyz
  1  'x, y, z'
loop_
 _atom_site_type_symbol
 _atom_site_label
 _atom_site_symmetry_multiplicity
 _atom_site_fract_x
 _atom_site_fract_y
 _atom_site_fract_z
 _atom_site_occupancy
  Nd  Nd0  1  0.25000000  0.99209500  0.34804100  1
  Nd  Nd1  1  0.75000000  0.00790500  0.65195900  1
  P  P2  1  0.25000000  0.71133600  0.89949600  1
  P  P3  1  0.75000000  0.28866400  0.10050400  1
  P  P4  1  0.40932700  0.38510700  0.95232800  1
  P  P5  1  0.90932700  0.61489300  0.04767200  1
  P  P6  1  0.59067300  0.61489300  0.04767200  1
  P  P7  1  0.09067300  0.38510700  0.95232800  1
  P  P8  1  0.47025000  0.29280000  0.59707900  1
  P  P9  1  0.97025000  0.70720000  0.40292100  1
  P  P10  1  0.52975000  0.70720000  0.40292100  1
  P  P11  1  0.02975000  0.29280000  0.59707900  1
