# generated using pymatgen
data_Li2RhO3
_symmetry_space_group_name_H-M   'P 1'
_cell_length_a   5.15389046
_cell_length_b   5.15389046
_cell_length_c   5.15584525
_cell_angle_alpha   80.53149557
_cell_angle_beta   80.53149557
_cell_angle_gamma   120.07167370
_symmetry_Int_Tables_number   1
_chemical_formula_structural   Li2RhO3
_chemical_formula_sum   'Li4 Rh2 O6'
_cell_volume   111.90553053
_cell_formula_units_Z   2
loop_
 _symmetry_equiv_pos_site_id
 _symmetry_equiv_pos_as_xyz
  1  'x, y, z'
loop_
 _atom_site_type_symbol
 _atom_site_label
 _atom_site_symmetry_multiplicity
 _atom_site_fract_x
 _atom_site_fract_y
 _atom_site_fract_z
 _atom_site_occupancy
  Li  Li0  1  0.50000000  0.50000000  0.00000000  1
  Li  Li1  1  0.83759300  0.16240700  0.00000000  1
  Li  Li2  1  0.16240700  0.83759300  0.00000000  1
  Li  Li3  1  0.00000000  0.00000000  0.50000000  1
  Rh  Rh4  1  0.66653200  0.33346800  0.50000000  1
  Rh  Rh5  1  0.33346800  0.66653200  0.50000000  1
  O  O6  1  0.57505900  0.92380500  0.73437700  1
  O  O7  1  0.42494100  0.07619500  0.26562300  1
  O  O8  1  0.73058900  0.73058900  0.26445300  1
  O  O9  1  0.92380500  0.57505900  0.73437700  1
  O  O10  1  0.07619500  0.42494100  0.26562300  1
  O  O11  1  0.26941100  0.26941100  0.73554700  1
