# generated using pymatgen
data_CdSnO3
_symmetry_space_group_name_H-M   'P 1'
_cell_length_a   6.02233483
_cell_length_b   6.02233483
_cell_length_c   6.02233461
_cell_angle_alpha   54.91035605
_cell_angle_beta   54.91035605
_cell_angle_gamma   54.91035598
_symmetry_Int_Tables_number   1
_chemical_formula_structural   CdSnO3
_chemical_formula_sum   'Cd2 Sn2 O6'
_cell_volume   136.15066093
_cell_formula_units_Z   2
loop_
 _symmetry_equiv_pos_site_id
 _symmetry_equiv_pos_as_xyz
  1  'x, y, z'
loop_
 _atom_site_type_symbol
 _atom_site_label
 _atom_site_symmetry_multiplicity
 _atom_site_fract_x
 _atom_site_fract_y
 _atom_site_fract_z
 _atom_site_occupancy
  Cd  Cd0  1  0.63432300  0.63432300  0.63432300  1
  Cd  Cd1  1  0.36567700  0.36567700  0.36567700  1
  Sn  Sn2  1  0.84558000  0.84558000  0.84558000  1
  Sn  Sn3  1  0.15442000  0.15442000  0.15442000  1
  O  O4  1  0.21208500  0.55620500  0.96085800  1
  O  O5  1  0.03914200  0.78791500  0.44379500  1
  O  O6  1  0.44379500  0.03914200  0.78791500  1
  O  O7  1  0.55620500  0.96085800  0.21208500  1
  O  O8  1  0.96085800  0.21208500  0.55620500  1
  O  O9  1  0.78791500  0.44379500  0.03914200  1
