# generated using pymatgen
data_Rb2U2WO10
_symmetry_space_group_name_H-M   'P 1'
_cell_length_a   29.09314200
_cell_length_b   8.41571500
_cell_length_c   10.95468752
_cell_angle_alpha   57.28866814
_cell_angle_beta   90.00000000
_cell_angle_gamma   90.00000000
_symmetry_Int_Tables_number   1
_chemical_formula_structural   Rb2U2WO10
_chemical_formula_sum   'Rb16 U16 W8 O80'
_cell_volume   2256.76412925
_cell_formula_units_Z   8
loop_
 _symmetry_equiv_pos_site_id
 _symmetry_equiv_pos_as_xyz
  1  'x, y, z'
loop_
 _atom_site_type_symbol
 _atom_site_label
 _atom_site_symmetry_multiplicity
 _atom_site_fract_x
 _atom_site_fract_y
 _atom_site_fract_z
 _atom_site_occupancy
  Rb  Rb0  1  0.87841000  0.02736800  0.39144500  1
  Rb  Rb1  1  0.74446900  0.07582000  0.04432600  1
  Rb  Rb2  1  0.51338100  0.05965000  0.18071700  1
  Rb  Rb3  1  0.98661900  0.05965000  0.68071700  1
  Rb  Rb4  1  0.37841000  0.97263200  0.10855500  1
  Rb  Rb5  1  0.01338100  0.94035000  0.31928300  1
  Rb  Rb6  1  0.48661900  0.94035000  0.81928300  1
  Rb  Rb7  1  0.24446900  0.92418000  0.45567400  1
  Rb  Rb8  1  0.39828200  0.95933700  0.51922600  1
  Rb  Rb9  1  0.89828200  0.04066300  0.98077400  1
  Rb  Rb10  1  0.75553100  0.07582000  0.54432600  1
  Rb  Rb11  1  0.25553100  0.92418000  0.95567400  1
  Rb  Rb12  1  0.60171800  0.04066300  0.48077400  1
  Rb  Rb13  1  0.62159000  0.02736800  0.89144500  1
  Rb  Rb14  1  0.10171800  0.95933700  0.01922600  1
  Rb  Rb15  1  0.12159000  0.97263200  0.60855500  1
  U  U16  1  0.43204600  0.50056500  0.47130500  1
  U  U17  1  0.59808900  0.49395000  0.91879000  1
  U  U18  1  0.06795400  0.50056500  0.97130500  1
  U  U19  1  0.09808900  0.50605000  0.58121000  1
  U  U20  1  0.40191100  0.50605000  0.08121000  1
  U  U21  1  0.81388800  0.54509700  0.14042800  1
  U  U22  1  0.68611200  0.54509700  0.64042800  1
  U  U23  1  0.16768600  0.44747200  0.21799800  1
  U  U24  1  0.31388800  0.45490300  0.35957200  1
  U  U25  1  0.56795400  0.49943500  0.52869500  1
  U  U26  1  0.83231400  0.55252800  0.78200200  1
  U  U27  1  0.90191100  0.49395000  0.41879000  1
  U  U28  1  0.66768600  0.55252800  0.28200200  1
  U  U29  1  0.18611200  0.45490300  0.85957200  1
  U  U30  1  0.93204600  0.49943500  0.02869500  1
  U  U31  1  0.33231400  0.44747200  0.71799800  1
  W  W32  1  0.46783200  0.42060400  0.81086000  1
  W  W33  1  0.78984800  0.64686700  0.45198100  1
  W  W34  1  0.28984800  0.35313300  0.04801900  1
  W  W35  1  0.21015200  0.35313300  0.54801900  1
  W  W36  1  0.71015200  0.64686700  0.95198100  1
  W  W37  1  0.03216800  0.42060400  0.31086000  1
  W  W38  1  0.53216800  0.57939600  0.18914000  1
  W  W39  1  0.96783200  0.57939600  0.68914000  1
  O  O40  1  0.54462800  0.82575100  0.07052900  1
  O  O41  1  0.66250000  0.81104100  0.18635100  1
  O  O42  1  0.29065900  0.10539400  0.17514500  1
  O  O43  1  0.15180700  0.41565300  0.44477800  1
  O  O44  1  0.44441100  0.56321500  0.88054700  1
  O  O45  1  0.67836900  0.80420500  0.53219100  1
  O  O46  1  0.18080800  0.45513000  0.64847300  1
  O  O47  1  0.68080800  0.54487000  0.85152700  1
  O  O48  1  0.93641800  0.76077900  0.92996200  1
  O  O49  1  0.19909300  0.70953200  0.74329200  1
  O  O50  1  0.08836000  0.49272400  0.18902000  1
  O  O51  1  0.64334200  0.51104400  0.48863400  1
  O  O52  1  0.58836000  0.50727600  0.31098000  1
  O  O53  1  0.97226100  0.42052200  0.37660100  1
  O  O54  1  0.04462800  0.17424900  0.42947100  1
  O  O55  1  0.45537200  0.17424900  0.92947100  1
  O  O56  1  0.82295000  0.29660300  0.86885800  1
  O  O57  1  0.56759700  0.23674300  0.62549100  1
  O  O58  1  0.76615200  0.61515400  0.63065500  1
  O  O59  1  0.05558900  0.56321500  0.38054700  1
  O  O60  1  0.91606200  0.74966400  0.30852600  1
  O  O61  1  0.84819300  0.58434700  0.55522200  1
  O  O62  1  0.38750000  0.75862000  0.96611300  1
  O  O63  1  0.50503900  0.52074000  0.37100600  1
  O  O64  1  0.60977400  0.49210300  0.71360000  1
  O  O65  1  0.08393800  0.25033600  0.69147400  1
  O  O66  1  0.82163100  0.80420500  0.03219100  1
  O  O67  1  0.06358200  0.23922100  0.07003800  1
  O  O68  1  0.80090700  0.29046800  0.25670800  1
  O  O69  1  0.14334200  0.48895600  0.01136600  1
  O  O70  1  0.31919200  0.45513000  0.14847300  1
  O  O71  1  0.41164000  0.49272400  0.68902000  1
  O  O72  1  0.32295000  0.70339700  0.63114200  1
  O  O73  1  0.79065900  0.89460600  0.32485500  1
  O  O74  1  0.94441100  0.43678500  0.61945300  1
  O  O75  1  0.43240300  0.76325700  0.37450900  1
  O  O76  1  0.76802000  0.55770800  0.93505400  1
  O  O77  1  0.41606200  0.25033600  0.19147400  1
  O  O78  1  0.32163100  0.19579500  0.46780900  1
  O  O79  1  0.02773900  0.57947800  0.62339900  1
  O  O80  1  0.11250000  0.75862000  0.46611300  1
  O  O81  1  0.56358200  0.76077900  0.42996200  1
  O  O82  1  0.34819300  0.41565300  0.94477800  1
  O  O83  1  0.17836900  0.19579500  0.96780900  1
  O  O84  1  0.43641800  0.23922100  0.57003800  1
  O  O85  1  0.26615200  0.38484600  0.86934500  1
  O  O86  1  0.23198000  0.44229200  0.06494600  1
  O  O87  1  0.00503900  0.47926000  0.12899400  1
  O  O88  1  0.93240300  0.23674300  0.12549100  1
  O  O89  1  0.85665800  0.51104400  0.98863400  1
  O  O90  1  0.73198000  0.55770800  0.43505400  1
  O  O91  1  0.39022600  0.50789700  0.28640000  1
  O  O92  1  0.16250000  0.18895900  0.31364900  1
  O  O93  1  0.81919200  0.54487000  0.35152700  1
  O  O94  1  0.65180700  0.58434700  0.05522200  1
  O  O95  1  0.55558900  0.43678500  0.11945300  1
  O  O96  1  0.67705000  0.29660300  0.36885800  1
  O  O97  1  0.61250000  0.24138000  0.03388700  1
  O  O98  1  0.88750000  0.24138000  0.53388700  1
  O  O99  1  0.06759700  0.76325700  0.87450900  1
  O  O100  1  0.26802000  0.44229200  0.56494600  1
  O  O101  1  0.35665800  0.48895600  0.51136600  1
  O  O102  1  0.49496100  0.47926000  0.62899400  1
  O  O103  1  0.70934100  0.89460600  0.82485500  1
  O  O104  1  0.69909300  0.29046800  0.75670800  1
  O  O105  1  0.20934100  0.10539400  0.67514500  1
  O  O106  1  0.58393800  0.74966400  0.80852600  1
  O  O107  1  0.89022600  0.49210300  0.21360000  1
  O  O108  1  0.47226100  0.57947800  0.12339900  1
  O  O109  1  0.73384800  0.61515400  0.13065500  1
  O  O110  1  0.10977400  0.50789700  0.78640000  1
  O  O111  1  0.33750000  0.18895900  0.81364900  1
  O  O112  1  0.83750000  0.81104100  0.68635100  1
  O  O113  1  0.30090700  0.70953200  0.24329200  1
  O  O114  1  0.23384800  0.38484600  0.36934500  1
  O  O115  1  0.17705000  0.70339700  0.13114200  1
  O  O116  1  0.99496100  0.52074000  0.87100600  1
  O  O117  1  0.91164000  0.50727600  0.81098000  1
  O  O118  1  0.52773900  0.42052200  0.87660100  1
  O  O119  1  0.95537200  0.82575100  0.57052900  1
