# generated using pymatgen
data_Cs2CeO3
_symmetry_space_group_name_H-M   'P 1'
_cell_length_a   7.02260382
_cell_length_b   7.02260382
_cell_length_c   6.54551900
_cell_angle_alpha   90.00000000
_cell_angle_beta   90.00000000
_cell_angle_gamma   112.26244514
_symmetry_Int_Tables_number   1
_chemical_formula_structural   Cs2CeO3
_chemical_formula_sum   'Cs4 Ce2 O6'
_cell_volume   298.74266423
_cell_formula_units_Z   2
loop_
 _symmetry_equiv_pos_site_id
 _symmetry_equiv_pos_as_xyz
  1  'x, y, z'
loop_
 _atom_site_type_symbol
 _atom_site_label
 _atom_site_symmetry_multiplicity
 _atom_site_fract_x
 _atom_site_fract_y
 _atom_site_fract_z
 _atom_site_occupancy
  Cs  Cs0  1  0.80656800  0.47677000  0.25529600  1
  Cs  Cs1  1  0.52323000  0.19343200  0.75529600  1
  Cs  Cs2  1  0.19343200  0.52323000  0.75529600  1
  Cs  Cs3  1  0.47677000  0.80656800  0.25529600  1
  Ce  Ce4  1  0.09192400  0.09192400  0.23759900  1
  Ce  Ce5  1  0.90807600  0.90807600  0.73759900  1
  O  O6  1  0.89019700  0.13024000  0.49543200  1
  O  O7  1  0.86976000  0.10980300  0.99543200  1
  O  O8  1  0.64878800  0.64878800  0.69307600  1
  O  O9  1  0.35121200  0.35121200  0.19307600  1
  O  O10  1  0.10980300  0.86976000  0.99543200  1
  O  O11  1  0.13024000  0.89019700  0.49543200  1
