# generated using pymatgen
data_Cs4SiO4
_symmetry_space_group_name_H-M   'P 1'
_cell_length_a   7.06209000
_cell_length_b   11.35062800
_cell_length_c   11.62540987
_cell_angle_alpha   68.72925223
_cell_angle_beta   90.00000000
_cell_angle_gamma   90.00000000
_symmetry_Int_Tables_number   1
_chemical_formula_structural   Cs4SiO4
_chemical_formula_sum   'Cs16 Si4 O16'
_cell_volume   868.39997343
_cell_formula_units_Z   4
loop_
 _symmetry_equiv_pos_site_id
 _symmetry_equiv_pos_as_xyz
  1  'x, y, z'
loop_
 _atom_site_type_symbol
 _atom_site_label
 _atom_site_symmetry_multiplicity
 _atom_site_fract_x
 _atom_site_fract_y
 _atom_site_fract_z
 _atom_site_occupancy
  Cs  Cs0  1  0.59162900  0.29992300  0.06498300  1
  Cs  Cs1  1  0.11933900  0.41505600  0.15024700  1
  Cs  Cs2  1  0.90837100  0.79992300  0.06498300  1
  Cs  Cs3  1  0.33404600  0.10508900  0.36984800  1
  Cs  Cs4  1  0.38066100  0.91505600  0.15024700  1
  Cs  Cs5  1  0.82498100  0.21186000  0.41542600  1
  Cs  Cs6  1  0.16595400  0.60508900  0.36984800  1
  Cs  Cs7  1  0.32498100  0.28814000  0.58457400  1
  Cs  Cs8  1  0.67501900  0.71186000  0.41542600  1
  Cs  Cs9  1  0.83404600  0.39491100  0.63015200  1
  Cs  Cs10  1  0.17501900  0.78814000  0.58457400  1
  Cs  Cs11  1  0.61933900  0.08494400  0.84975300  1
  Cs  Cs12  1  0.66595400  0.89491100  0.63015200  1
  Cs  Cs13  1  0.09162900  0.20007700  0.93501700  1
  Cs  Cs14  1  0.88066100  0.58494400  0.84975300  1
  Cs  Cs15  1  0.40837100  0.70007700  0.93501700  1
  Si  Si16  1  0.87214000  0.00983900  0.24031400  1
  Si  Si17  1  0.62786000  0.50983900  0.24031400  1
  Si  Si18  1  0.37214000  0.49016100  0.75968600  1
  Si  Si19  1  0.12786000  0.99016100  0.75968600  1
  O  O20  1  0.77374700  0.02185400  0.10531000  1
  O  O21  1  0.99986300  0.14078900  0.21963100  1
  O  O22  1  0.72625300  0.52185400  0.10531000  1
  O  O23  1  0.48882300  0.38083700  0.29291900  1
  O  O24  1  0.50013700  0.64078900  0.21963100  1
  O  O25  1  0.80234400  0.49717100  0.34274300  1
  O  O26  1  0.01117700  0.88083700  0.29291900  1
  O  O27  1  0.30234400  0.00282900  0.65725700  1
  O  O28  1  0.69765600  0.99717100  0.34274300  1
  O  O29  1  0.98882300  0.11916300  0.70708100  1
  O  O30  1  0.19765600  0.50282900  0.65725700  1
  O  O31  1  0.49986300  0.35921100  0.78036900  1
  O  O32  1  0.51117700  0.61916300  0.70708100  1
  O  O33  1  0.27374700  0.47814600  0.89469000  1
  O  O34  1  0.00013700  0.85921100  0.78036900  1
  O  O35  1  0.22625300  0.97814600  0.89469000  1
