# generated using pymatgen
data_Tm3Sb5O12
_symmetry_space_group_name_H-M   'P 1'
_cell_length_a   9.35758809
_cell_length_b   9.35758809
_cell_length_c   9.35758809
_cell_angle_alpha   109.47122063
_cell_angle_beta   109.47122063
_cell_angle_gamma   109.47122063
_symmetry_Int_Tables_number   1
_chemical_formula_structural   Tm3Sb5O12
_chemical_formula_sum   'Tm6 Sb10 O24'
_cell_volume   630.76833166
_cell_formula_units_Z   2
loop_
 _symmetry_equiv_pos_site_id
 _symmetry_equiv_pos_as_xyz
  1  'x, y, z'
loop_
 _atom_site_type_symbol
 _atom_site_label
 _atom_site_symmetry_multiplicity
 _atom_site_fract_x
 _atom_site_fract_y
 _atom_site_fract_z
 _atom_site_occupancy
  Tm  Tm0  1  0.75000000  0.25000000  0.50000000  1
  Tm  Tm1  1  0.75000000  0.50000000  0.25000000  1
  Tm  Tm2  1  0.50000000  0.25000000  0.75000000  1
  Tm  Tm3  1  0.50000000  0.75000000  0.25000000  1
  Tm  Tm4  1  0.25000000  0.75000000  0.50000000  1
  Tm  Tm5  1  0.25000000  0.50000000  0.75000000  1
  Sb  Sb6  1  0.51803400  0.00000000  0.00000000  1
  Sb  Sb7  1  0.28390100  0.00000000  0.28390100  1
  Sb  Sb8  1  0.28390100  0.28390100  0.00000000  1
  Sb  Sb9  1  0.71609900  0.00000000  0.71609900  1
  Sb  Sb10  1  0.71609900  0.71609900  0.00000000  1
  Sb  Sb11  1  0.00000000  0.51803400  0.00000000  1
  Sb  Sb12  1  0.00000000  0.00000000  0.51803400  1
  Sb  Sb13  1  0.48196600  0.48196600  0.48196600  1
  Sb  Sb14  1  0.00000000  0.28390100  0.28390100  1
  Sb  Sb15  1  0.00000000  0.71609900  0.71609900  1
  O  O16  1  0.48152000  0.00000000  0.20284700  1
  O  O17  1  0.48152000  0.20284700  0.00000000  1
  O  O18  1  0.70282800  0.49942200  0.00000000  1
  O  O19  1  0.70282800  0.00000000  0.49942200  1
  O  O20  1  0.79659300  0.29717200  0.29717200  1
  O  O21  1  0.50057800  0.50057800  0.20340700  1
  O  O22  1  0.50057800  0.20340700  0.50057800  1
  O  O23  1  0.49942200  0.70282800  0.00000000  1
  O  O24  1  0.49942200  0.00000000  0.70282800  1
  O  O25  1  0.72132600  0.51848000  0.51848000  1
  O  O26  1  0.79715300  0.27867400  0.79715300  1
  O  O27  1  0.79715300  0.79715300  0.27867400  1
  O  O28  1  0.20284700  0.48152000  0.00000000  1
  O  O29  1  0.20284700  0.00000000  0.48152000  1
  O  O30  1  0.51848000  0.72132600  0.51848000  1
  O  O31  1  0.51848000  0.51848000  0.72132600  1
  O  O32  1  0.00000000  0.48152000  0.20284700  1
  O  O33  1  0.00000000  0.20284700  0.48152000  1
  O  O34  1  0.29717200  0.79659300  0.29717200  1
  O  O35  1  0.29717200  0.29717200  0.79659300  1
  O  O36  1  0.20340700  0.50057800  0.50057800  1
  O  O37  1  0.00000000  0.70282800  0.49942200  1
  O  O38  1  0.00000000  0.49942200  0.70282800  1
  O  O39  1  0.27867400  0.79715300  0.79715300  1
