# generated using pymatgen
data_YbSb2
_symmetry_space_group_name_H-M   'P 1'
_cell_length_a   8.74575278
_cell_length_b   8.74575278
_cell_length_c   4.34302000
_cell_angle_alpha   90.00000000
_cell_angle_beta   90.00000000
_cell_angle_gamma   149.52933307
_symmetry_Int_Tables_number   1
_chemical_formula_structural   YbSb2
_chemical_formula_sum   'Yb2 Sb4'
_cell_volume   168.45248292
_cell_formula_units_Z   2
loop_
 _symmetry_equiv_pos_site_id
 _symmetry_equiv_pos_as_xyz
  1  'x, y, z'
loop_
 _atom_site_type_symbol
 _atom_site_label
 _atom_site_symmetry_multiplicity
 _atom_site_fract_x
 _atom_site_fract_y
 _atom_site_fract_z
 _atom_site_occupancy
  Yb  Yb0  1  0.89777600  0.10222400  0.75000000  1
  Yb  Yb1  1  0.10222400  0.89777600  0.25000000  1
  Sb  Sb2  1  0.56172000  0.43828000  0.75000000  1
  Sb  Sb3  1  0.43828000  0.56172000  0.25000000  1
  Sb  Sb4  1  0.25670900  0.74329100  0.75000000  1
  Sb  Sb5  1  0.74329100  0.25670900  0.25000000  1
