# generated using pymatgen
data_LiFeO2
_symmetry_space_group_name_H-M   'P 1'
_cell_length_a   5.05251505
_cell_length_b   6.14432100
_cell_length_c   5.07021889
_cell_angle_alpha   89.99990513
_cell_angle_beta   107.50032976
_cell_angle_gamma   89.99989371
_symmetry_Int_Tables_number   1
_chemical_formula_structural   LiFeO2
_chemical_formula_sum   'Li4 Fe4 O8'
_cell_volume   150.11598338
_cell_formula_units_Z   4
loop_
 _symmetry_equiv_pos_site_id
 _symmetry_equiv_pos_as_xyz
  1  'x, y, z'
loop_
 _atom_site_type_symbol
 _atom_site_label
 _atom_site_symmetry_multiplicity
 _atom_site_fract_x
 _atom_site_fract_y
 _atom_site_fract_z
 _atom_site_occupancy
  Li  Li0  1  0.25000100  0.10486000  0.00000000  1
  Li  Li1  1  0.75000200  0.10486100  0.50000000  1
  Li  Li2  1  0.75000100  0.89516400  0.00000000  1
  Li  Li3  1  0.25000100  0.89516200  0.50000000  1
  Fe  Fe4  1  0.75000000  0.64633300  0.50000600  1
  Fe  Fe5  1  0.25000200  0.35365200  0.50000600  1
  Fe  Fe6  1  0.24999000  0.64634300  0.99999100  1
  Fe  Fe7  1  0.74999100  0.35366200  0.00000000  1
  O  O8  1  0.50000000  0.39763800  0.24999900  1
  O  O9  1  0.00000500  0.39763600  0.74999800  1
  O  O10  1  0.50000000  0.60235100  0.74999700  1
  O  O11  1  0.00000000  0.60234900  0.25000200  1
  O  O12  1  0.50000300  0.85575900  0.24999800  1
  O  O13  1  0.00000200  0.85576000  0.75000100  1
  O  O14  1  0.50000700  0.14423300  0.75000400  1
  O  O15  1  0.99999700  0.14423700  0.24999700  1
