# generated using pymatgen
data_Nb2CdO6
_symmetry_space_group_name_H-M   'P 1'
_cell_length_a   5.23063100
_cell_length_b   5.96191100
_cell_length_c   15.04688000
_cell_angle_alpha   90.00000000
_cell_angle_beta   90.00000000
_cell_angle_gamma   90.00000000
_symmetry_Int_Tables_number   1
_chemical_formula_structural   Nb2CdO6
_chemical_formula_sum   'Nb8 Cd4 O24'
_cell_volume   469.23027945
_cell_formula_units_Z   4
loop_
 _symmetry_equiv_pos_site_id
 _symmetry_equiv_pos_as_xyz
  1  'x, y, z'
loop_
 _atom_site_type_symbol
 _atom_site_label
 _atom_site_symmetry_multiplicity
 _atom_site_fract_x
 _atom_site_fract_y
 _atom_site_fract_z
 _atom_site_occupancy
  Nb  Nb0  1  0.29068000  0.31847000  0.16511900  1
  Nb  Nb1  1  0.79068000  0.68153000  0.16511900  1
  Nb  Nb2  1  0.79068000  0.18153000  0.33488100  1
  Nb  Nb3  1  0.29068000  0.81847000  0.33488100  1
  Nb  Nb4  1  0.70932000  0.18153000  0.66511900  1
  Nb  Nb5  1  0.20932000  0.81847000  0.66511900  1
  Nb  Nb6  1  0.20932000  0.31847000  0.83488100  1
  Nb  Nb7  1  0.70932000  0.68153000  0.83488100  1
  Cd  Cd8  1  0.75000000  0.20176500  0.00000000  1
  Cd  Cd9  1  0.25000000  0.79823500  0.00000000  1
  Cd  Cd10  1  0.25000000  0.29823500  0.50000000  1
  Cd  Cd11  1  0.75000000  0.70176500  0.50000000  1
  O  O12  1  0.41112900  0.10929500  0.08698000  1
  O  O13  1  0.91112900  0.89070500  0.08698000  1
  O  O14  1  0.98263200  0.41283900  0.10150200  1
  O  O15  1  0.48263200  0.58716100  0.10150200  1
  O  O16  1  0.62058100  0.36359600  0.24296300  1
  O  O17  1  0.12058100  0.63640400  0.24296300  1
  O  O18  1  0.12058100  0.13640400  0.25703700  1
  O  O19  1  0.62058100  0.86359600  0.25703700  1
  O  O20  1  0.48263200  0.08716100  0.39849800  1
  O  O21  1  0.98263200  0.91283900  0.39849800  1
  O  O22  1  0.91112900  0.39070500  0.41302000  1
  O  O23  1  0.41112900  0.60929500  0.41302000  1
  O  O24  1  0.58887100  0.39070500  0.58698000  1
  O  O25  1  0.08887100  0.60929500  0.58698000  1
  O  O26  1  0.01736800  0.08716100  0.60150200  1
  O  O27  1  0.51736800  0.91283900  0.60150200  1
  O  O28  1  0.37941900  0.13640400  0.74296300  1
  O  O29  1  0.87941900  0.86359600  0.74296300  1
  O  O30  1  0.87941900  0.36359600  0.75703700  1
  O  O31  1  0.37941900  0.63640400  0.75703700  1
  O  O32  1  0.51736800  0.41283900  0.89849800  1
  O  O33  1  0.01736800  0.58716100  0.89849800  1
  O  O34  1  0.08887100  0.10929500  0.91302000  1
  O  O35  1  0.58887100  0.89070500  0.91302000  1
