# generated using pymatgen
data_BaSe2
_symmetry_space_group_name_H-M   'P 1'
_cell_length_a   5.48575084
_cell_length_b   5.48575084
_cell_length_c   9.48501284
_cell_angle_alpha   65.75308570
_cell_angle_beta   65.75308570
_cell_angle_gamma   54.53874433
_symmetry_Int_Tables_number   1
_chemical_formula_structural   BaSe2
_chemical_formula_sum   'Ba2 Se4'
_cell_volume   206.18917110
_cell_formula_units_Z   2
loop_
 _symmetry_equiv_pos_site_id
 _symmetry_equiv_pos_as_xyz
  1  'x, y, z'
loop_
 _atom_site_type_symbol
 _atom_site_label
 _atom_site_symmetry_multiplicity
 _atom_site_fract_x
 _atom_site_fract_y
 _atom_site_fract_z
 _atom_site_occupancy
  Ba  Ba0  1  0.12779000  0.87221000  0.25000000  1
  Ba  Ba1  1  0.87221000  0.12779000  0.75000000  1
  Se  Se2  1  0.78134400  0.52884600  0.97404100  1
  Se  Se3  1  0.47115400  0.21865600  0.52595900  1
  Se  Se4  1  0.52884600  0.78134400  0.47404100  1
  Se  Se5  1  0.21865600  0.47115400  0.02595900  1
