# generated using pymatgen
data_LiWF6
_symmetry_space_group_name_H-M   'P 1'
_cell_length_a   5.23018200
_cell_length_b   8.97323700
_cell_length_c   10.24825056
_cell_angle_alpha   87.99398504
_cell_angle_beta   90.00000000
_cell_angle_gamma   90.00000000
_symmetry_Int_Tables_number   1
_chemical_formula_structural   LiWF6
_chemical_formula_sum   'Li4 W4 F24'
_cell_volume   480.67268080
_cell_formula_units_Z   4
loop_
 _symmetry_equiv_pos_site_id
 _symmetry_equiv_pos_as_xyz
  1  'x, y, z'
loop_
 _atom_site_type_symbol
 _atom_site_label
 _atom_site_symmetry_multiplicity
 _atom_site_fract_x
 _atom_site_fract_y
 _atom_site_fract_z
 _atom_site_occupancy
  Li  Li0  1  0.60465500  0.60532600  0.08116700  1
  Li  Li1  1  0.10465500  0.39467400  0.41883300  1
  Li  Li2  1  0.89534500  0.60532600  0.58116700  1
  Li  Li3  1  0.39534500  0.39467400  0.91883300  1
  W  W4  1  0.89640500  0.23906600  0.13074800  1
  W  W5  1  0.39640500  0.76093400  0.36925200  1
  W  W6  1  0.60359500  0.23906600  0.63074800  1
  W  W7  1  0.10359500  0.76093400  0.86925200  1
  F  F8  1  0.19534400  0.25808900  0.01518200  1
  F  F9  1  0.71403500  0.40673800  0.02398800  1
  F  F10  1  0.76482900  0.10312900  0.01124700  1
  F  F11  1  0.07188400  0.09639000  0.24036100  1
  F  F12  1  0.05884800  0.39480900  0.23705200  1
  F  F13  1  0.61727900  0.25645600  0.24726100  1
  F  F14  1  0.11727900  0.74354400  0.25273900  1
  F  F15  1  0.57188400  0.90361000  0.25963900  1
  F  F16  1  0.55884800  0.60519100  0.26294800  1
  F  F17  1  0.26482900  0.89687100  0.48875300  1
  F  F18  1  0.21403500  0.59326200  0.47601200  1
  F  F19  1  0.69534400  0.74191100  0.48481800  1
  F  F20  1  0.30465600  0.25808900  0.51518200  1
  F  F21  1  0.73517100  0.10312900  0.51124700  1
  F  F22  1  0.78596500  0.40673800  0.52398800  1
  F  F23  1  0.42811600  0.09639000  0.74036100  1
  F  F24  1  0.44115200  0.39480900  0.73705200  1
  F  F25  1  0.88272100  0.25645600  0.74726100  1
  F  F26  1  0.38272100  0.74354400  0.75273900  1
  F  F27  1  0.94115200  0.60519100  0.76294800  1
  F  F28  1  0.92811600  0.90361000  0.75963900  1
  F  F29  1  0.23517100  0.89687100  0.98875300  1
  F  F30  1  0.28596500  0.59326200  0.97601200  1
  F  F31  1  0.80465600  0.74191100  0.98481800  1
