# generated using pymatgen
data_RbInPHO5
_symmetry_space_group_name_H-M   'P 1'
_cell_length_a   9.54211000
_cell_length_b   9.54211000
_cell_length_c   11.37683700
_cell_angle_alpha   90.00000000
_cell_angle_beta   90.00000000
_cell_angle_gamma   90.00000000
_symmetry_Int_Tables_number   1
_chemical_formula_structural   RbInPHO5
_chemical_formula_sum   'Rb8 In8 P8 H8 O40'
_cell_volume   1035.88220677
_cell_formula_units_Z   8
loop_
 _symmetry_equiv_pos_site_id
 _symmetry_equiv_pos_as_xyz
  1  'x, y, z'
loop_
 _atom_site_type_symbol
 _atom_site_label
 _atom_site_symmetry_multiplicity
 _atom_site_fract_x
 _atom_site_fract_y
 _atom_site_fract_z
 _atom_site_occupancy
  Rb  Rb0  1  0.98429900  0.31612600  0.29630500  1
  Rb  Rb1  1  0.01570100  0.68387400  0.79630500  1
  Rb  Rb2  1  0.81612600  0.51570100  0.54630500  1
  Rb  Rb3  1  0.18387400  0.48429900  0.04630500  1
  Rb  Rb4  1  0.68387400  0.01570100  0.20369500  1
  Rb  Rb5  1  0.31612600  0.98429900  0.70369500  1
  Rb  Rb6  1  0.51570100  0.81612600  0.45369500  1
  Rb  Rb7  1  0.48429900  0.18387400  0.95369500  1
  In  In8  1  0.60020700  0.39979300  0.25000000  1
  In  In9  1  0.39979300  0.60020700  0.75000000  1
  In  In10  1  0.89979300  0.89979300  0.50000000  1
  In  In11  1  0.10020700  0.10020700  0.00000000  1
  In  In12  1  0.15333900  0.84666100  0.25000000  1
  In  In13  1  0.84666100  0.15333900  0.75000000  1
  In  In14  1  0.34666100  0.34666100  0.50000000  1
  In  In15  1  0.65333900  0.65333900  0.00000000  1
  P  P16  1  0.84012400  0.68450200  0.25341200  1
  P  P17  1  0.15987600  0.31549800  0.75341200  1
  P  P18  1  0.18450200  0.65987600  0.50341200  1
  P  P19  1  0.81549800  0.34012400  0.00341200  1
  P  P20  1  0.31549800  0.15987600  0.24658800  1
  P  P21  1  0.68450200  0.84012400  0.74658800  1
  P  P22  1  0.65987600  0.18450200  0.49658800  1
  P  P23  1  0.34012400  0.81549800  0.99658800  1
  H  H24  1  0.12191000  0.04081400  0.40669200  1
  H  H25  1  0.87809000  0.95918600  0.90669200  1
  H  H26  1  0.54081400  0.37809000  0.65669200  1
  H  H27  1  0.45918600  0.62191000  0.15669200  1
  H  H28  1  0.95918600  0.87809000  0.09330800  1
  H  H29  1  0.04081400  0.12191000  0.59330800  1
  H  H30  1  0.37809000  0.54081400  0.34330800  1
  H  H31  1  0.62191000  0.45918600  0.84330800  1
  O  O32  1  0.82806200  0.50128600  0.98956900  1
  O  O33  1  0.17193800  0.49871400  0.48956900  1
  O  O34  1  0.00128600  0.67193800  0.23956900  1
  O  O35  1  0.99871400  0.32806200  0.73956900  1
  O  O36  1  0.49871400  0.17193800  0.51043100  1
  O  O37  1  0.50128600  0.82806200  0.01043100  1
  O  O38  1  0.67193800  0.00128600  0.76043100  1
  O  O39  1  0.32806200  0.99871400  0.26043100  1
  O  O40  1  0.71559700  0.29864100  0.10701900  1
  O  O41  1  0.28440300  0.70135900  0.60701900  1
  O  O42  1  0.79864100  0.78440300  0.35701900  1
  O  O43  1  0.20135900  0.21559700  0.85701900  1
  O  O44  1  0.70135900  0.28440300  0.39298100  1
  O  O45  1  0.29864100  0.71559700  0.89298100  1
  O  O46  1  0.78440300  0.79864100  0.64298100  1
  O  O47  1  0.21559700  0.20135900  0.14298100  1
  O  O48  1  0.78044000  0.53721200  0.28234500  1
  O  O49  1  0.21956000  0.46278800  0.78234500  1
  O  O50  1  0.03721200  0.71956000  0.53234500  1
  O  O51  1  0.96278800  0.28044000  0.03234500  1
  O  O52  1  0.46278800  0.21956000  0.21765500  1
  O  O53  1  0.53721200  0.78044000  0.71765500  1
  O  O54  1  0.71956000  0.03721200  0.46765500  1
  O  O55  1  0.28044000  0.96278800  0.96765500  1
  O  O56  1  0.77574100  0.74874700  0.13923100  1
  O  O57  1  0.22425900  0.25125300  0.63923100  1
  O  O58  1  0.24874700  0.72425900  0.38923100  1
  O  O59  1  0.75125300  0.27574100  0.88923100  1
  O  O60  1  0.25125300  0.22425900  0.36076900  1
  O  O61  1  0.74874700  0.77574100  0.86076900  1
  O  O62  1  0.72425900  0.24874700  0.61076900  1
  O  O63  1  0.27574100  0.75125300  0.11076900  1
  O  O64  1  0.45512900  0.48543600  0.37627600  1
  O  O65  1  0.54487100  0.51456400  0.87627600  1
  O  O66  1  0.98543600  0.04487100  0.62627600  1
  O  O67  1  0.01456400  0.95512900  0.12627600  1
  O  O68  1  0.51456400  0.54487100  0.12372400  1
  O  O69  1  0.48543600  0.45512900  0.62372400  1
  O  O70  1  0.04487100  0.98543600  0.37372400  1
  O  O71  1  0.95512900  0.01456400  0.87372400  1
