# generated using pymatgen
data_U3P4
_symmetry_space_group_name_H-M   'P 1'
_cell_length_a   7.08167852
_cell_length_b   7.08167852
_cell_length_c   7.08167852
_cell_angle_alpha   109.47122063
_cell_angle_beta   109.47122063
_cell_angle_gamma   109.47122063
_symmetry_Int_Tables_number   1
_chemical_formula_structural   U3P4
_chemical_formula_sum   'U6 P8'
_cell_volume   273.39258551
_cell_formula_units_Z   2
loop_
 _symmetry_equiv_pos_site_id
 _symmetry_equiv_pos_as_xyz
  1  'x, y, z'
loop_
 _atom_site_type_symbol
 _atom_site_label
 _atom_site_symmetry_multiplicity
 _atom_site_fract_x
 _atom_site_fract_y
 _atom_site_fract_z
 _atom_site_occupancy
  U  U0  1  0.87500000  0.12500000  0.75000000  1
  U  U1  1  0.37500000  0.25000000  0.62500000  1
  U  U2  1  0.12500000  0.75000000  0.87500000  1
  U  U3  1  0.75000000  0.87500000  0.12500000  1
  U  U4  1  0.25000000  0.62500000  0.37500000  1
  U  U5  1  0.62500000  0.37500000  0.25000000  1
  P  P6  1  0.65954800  0.65954800  0.65954800  1
  P  P7  1  0.50000000  0.00000000  0.34045200  1
  P  P8  1  0.00000000  0.34045200  0.50000000  1
  P  P9  1  0.34045200  0.50000000  0.00000000  1
  P  P10  1  0.00000000  0.84045200  0.50000000  1
  P  P11  1  0.84045200  0.50000000  0.00000000  1
  P  P12  1  0.15954800  0.15954800  0.15954800  1
  P  P13  1  0.50000000  0.00000000  0.84045200  1
