# generated using pymatgen
data_MnH6(OF)3
_symmetry_space_group_name_H-M   'P 1'
_cell_length_a   9.60012900
_cell_length_b   6.52924400
_cell_length_c   8.58239982
_cell_angle_alpha   78.80308196
_cell_angle_beta   90.00000000
_cell_angle_gamma   90.00000000
_symmetry_Int_Tables_number   1
_chemical_formula_structural   MnH6(OF)3
_chemical_formula_sum   'Mn4 H24 O12 F12'
_cell_volume   527.71870594
_cell_formula_units_Z   4
loop_
 _symmetry_equiv_pos_site_id
 _symmetry_equiv_pos_as_xyz
  1  'x, y, z'
loop_
 _atom_site_type_symbol
 _atom_site_label
 _atom_site_symmetry_multiplicity
 _atom_site_fract_x
 _atom_site_fract_y
 _atom_site_fract_z
 _atom_site_occupancy
  Mn  Mn0  1  0.50000000  0.00000000  0.00000000  1
  Mn  Mn1  1  0.00000000  0.00000000  0.50000000  1
  Mn  Mn2  1  0.50000000  0.50000000  0.50000000  1
  Mn  Mn3  1  0.00000000  0.50000000  0.00000000  1
  H  H4  1  0.25326400  0.76612400  0.04328800  1
  H  H5  1  0.75326400  0.23387600  0.45671200  1
  H  H6  1  0.74673600  0.23387600  0.95671200  1
  H  H7  1  0.24673600  0.76612400  0.54328800  1
  H  H8  1  0.31791800  0.76356400  0.21539300  1
  H  H9  1  0.81791800  0.23643600  0.28460700  1
  H  H10  1  0.68208200  0.23643600  0.78460700  1
  H  H11  1  0.18208200  0.76356400  0.71539300  1
  H  H12  1  0.40011900  0.12817000  0.64036500  1
  H  H13  1  0.90011900  0.87183000  0.85963500  1
  H  H14  1  0.59988100  0.87183000  0.35963500  1
  H  H15  1  0.09988100  0.12817000  0.14036500  1
  H  H16  1  0.27720800  0.24614200  0.52584300  1
  H  H17  1  0.77720800  0.75385800  0.97415700  1
  H  H18  1  0.72279200  0.75385800  0.47415700  1
  H  H19  1  0.22279200  0.24614200  0.02584300  1
  H  H20  1  0.46644100  0.70530000  0.75841100  1
  H  H21  1  0.96644100  0.29470000  0.74158900  1
  H  H22  1  0.53355900  0.29470000  0.24158900  1
  H  H23  1  0.03355900  0.70530000  0.25841100  1
  H  H24  1  0.43615000  0.46000900  0.82549900  1
  H  H25  1  0.93615000  0.53999100  0.67450100  1
  H  H26  1  0.56385000  0.53999100  0.17450100  1
  H  H27  1  0.06385000  0.46000900  0.32549900  1
  O  O28  1  0.31323600  0.84350000  0.10529200  1
  O  O29  1  0.81323600  0.15650000  0.39470800  1
  O  O30  1  0.68676400  0.15650000  0.89470800  1
  O  O31  1  0.18676400  0.84350000  0.60529200  1
  O  O32  1  0.37894600  0.23992800  0.54580200  1
  O  O33  1  0.87894600  0.76007200  0.95419800  1
  O  O34  1  0.62105400  0.76007200  0.45419800  1
  O  O35  1  0.12105400  0.23992800  0.04580200  1
  O  O36  1  0.45091100  0.56848300  0.72867300  1
  O  O37  1  0.95091100  0.43151700  0.77132700  1
  O  O38  1  0.54908900  0.43151700  0.27132700  1
  O  O39  1  0.04908900  0.56848300  0.22867300  1
  F  F40  1  0.45118200  0.95771400  0.79412900  1
  F  F41  1  0.95118200  0.04228600  0.70587100  1
  F  F42  1  0.54881800  0.04228600  0.20587100  1
  F  F43  1  0.04881800  0.95771400  0.29412900  1
  F  F44  1  0.60342300  0.74412600  0.03332600  1
  F  F45  1  0.10342300  0.25587400  0.46667400  1
  F  F46  1  0.39657700  0.25587400  0.96667400  1
  F  F47  1  0.89657700  0.74412600  0.53332600  1
  F  F48  1  0.34771900  0.65881500  0.41336500  1
  F  F49  1  0.84771900  0.34118500  0.08663500  1
  F  F50  1  0.65228100  0.34118500  0.58663500  1
  F  F51  1  0.15228100  0.65881500  0.91336500  1
