# generated using pymatgen
data_RbCrO2
_symmetry_space_group_name_H-M   'P 1'
_cell_length_a   3.17667852
_cell_length_b   12.70234775
_cell_length_c   3.17667800
_cell_angle_alpha   82.81519956
_cell_angle_beta   60.00085486
_cell_angle_gamma   82.81517224
_symmetry_Int_Tables_number   1
_chemical_formula_structural   RbCrO2
_chemical_formula_sum   'Rb2 Cr2 O4'
_cell_volume   109.84692585
_cell_formula_units_Z   2
loop_
 _symmetry_equiv_pos_site_id
 _symmetry_equiv_pos_as_xyz
  1  'x, y, z'
loop_
 _atom_site_type_symbol
 _atom_site_label
 _atom_site_symmetry_multiplicity
 _atom_site_fract_x
 _atom_site_fract_y
 _atom_site_fract_z
 _atom_site_occupancy
  Rb  Rb0  1  0.49999900  0.50000300  0.49999900  1
  Rb  Rb1  1  0.00000000  0.99999700  0.00000100  1
  Cr  Cr2  1  0.25000000  0.25000000  0.25000100  1
  Cr  Cr3  1  0.75000200  0.75000000  0.74999600  1
  O  O4  1  0.38981400  0.83055800  0.38981500  1
  O  O5  1  0.88981500  0.33055700  0.88981500  1
  O  O6  1  0.11018500  0.66944200  0.11018600  1
  O  O7  1  0.61018500  0.16944300  0.61018500  1
