# generated using pymatgen
data_RbLuO2
_symmetry_space_group_name_H-M   'P 1'
_cell_length_a   6.81955049
_cell_length_b   6.81955049
_cell_length_c   6.81955034
_cell_angle_alpha   29.03311988
_cell_angle_beta   29.03311988
_cell_angle_gamma   29.03311554
_symmetry_Int_Tables_number   1
_chemical_formula_structural   RbLuO2
_chemical_formula_sum   'Rb1 Lu1 O2'
_cell_volume   66.07369571
_cell_formula_units_Z   1
loop_
 _symmetry_equiv_pos_site_id
 _symmetry_equiv_pos_as_xyz
  1  'x, y, z'
loop_
 _atom_site_type_symbol
 _atom_site_label
 _atom_site_symmetry_multiplicity
 _atom_site_fract_x
 _atom_site_fract_y
 _atom_site_fract_z
 _atom_site_occupancy
  Rb  Rb0  1  0.00000000  0.00000000  0.00000000  1
  Lu  Lu1  1  0.50000000  0.50000000  0.50000000  1
  O  O2  1  0.77618000  0.77618000  0.77618000  1
  O  O3  1  0.22382000  0.22382000  0.22382000  1
