# generated using pymatgen
data_Nb5SiSn2
_symmetry_space_group_name_H-M   'P 1'
_cell_length_a   7.97828522
_cell_length_b   7.97828522
_cell_length_c   7.97828522
_cell_angle_alpha   96.01899396
_cell_angle_beta   96.01899396
_cell_angle_gamma   142.21203185
_symmetry_Int_Tables_number   1
_chemical_formula_structural   Nb5SiSn2
_chemical_formula_sum   'Nb10 Si2 Sn4'
_cell_volume   294.40936873
_cell_formula_units_Z   2
loop_
 _symmetry_equiv_pos_site_id
 _symmetry_equiv_pos_as_xyz
  1  'x, y, z'
loop_
 _atom_site_type_symbol
 _atom_site_label
 _atom_site_symmetry_multiplicity
 _atom_site_fract_x
 _atom_site_fract_y
 _atom_site_fract_z
 _atom_site_occupancy
  Nb  Nb0  1  0.43021000  0.28942600  0.71963500  1
  Nb  Nb1  1  0.21057400  0.06979000  0.28036400  1
  Nb  Nb2  1  0.56979000  0.71057400  0.28036400  1
  Nb  Nb3  1  0.25000000  0.75000000  0.50000000  1
  Nb  Nb4  1  0.28942600  0.56979000  0.85921600  1
  Nb  Nb5  1  0.71057400  0.43021000  0.14078400  1
  Nb  Nb6  1  0.75000000  0.25000000  0.50000000  1
  Nb  Nb7  1  0.93021000  0.21057400  0.14078400  1
  Nb  Nb8  1  0.78942600  0.93021000  0.71963600  1
  Nb  Nb9  1  0.06979000  0.78942600  0.85921600  1
  Si  Si10  1  0.25000000  0.25000000  0.00000000  1
  Si  Si11  1  0.75000000  0.75000000  0.00000000  1
  Sn  Sn12  1  0.16881500  0.33118500  0.50000000  1
  Sn  Sn13  1  0.66881500  0.16881500  0.83763000  1
  Sn  Sn14  1  0.83118500  0.66881500  0.50000000  1
  Sn  Sn15  1  0.33118500  0.83118500  0.16237000  1
