# generated using pymatgen
data_Li(NiO2)2
_symmetry_space_group_name_H-M   'P 1'
_cell_length_a   8.11274700
_cell_length_b   8.11274700
_cell_length_c   8.11274700
_cell_angle_alpha   90.00000000
_cell_angle_beta   90.00000000
_cell_angle_gamma   90.00000000
_symmetry_Int_Tables_number   1
_chemical_formula_structural   Li(NiO2)2
_chemical_formula_sum   'Li8 Ni16 O32'
_cell_volume   533.95394249
_cell_formula_units_Z   8
loop_
 _symmetry_equiv_pos_site_id
 _symmetry_equiv_pos_as_xyz
  1  'x, y, z'
loop_
 _atom_site_type_symbol
 _atom_site_label
 _atom_site_symmetry_multiplicity
 _atom_site_fract_x
 _atom_site_fract_y
 _atom_site_fract_z
 _atom_site_occupancy
  Li  Li0  1  0.00630100  0.00630100  0.00630100  1
  Li  Li1  1  0.24369900  0.24369900  0.24369900  1
  Li  Li2  1  0.25630100  0.75630100  0.74369900  1
  Li  Li3  1  0.49369900  0.99369900  0.50630100  1
  Li  Li4  1  0.50630100  0.49369900  0.99369900  1
  Li  Li5  1  0.74369900  0.25630100  0.75630100  1
  Li  Li6  1  0.75630100  0.74369900  0.25630100  1
  Li  Li7  1  0.99369900  0.50630100  0.49369900  1
  Ni  Ni8  1  0.11559600  0.13440400  0.62500000  1
  Ni  Ni9  1  0.12500000  0.38440400  0.86559600  1
  Ni  Ni10  1  0.12500000  0.87500000  0.37500000  1
  Ni  Ni11  1  0.13440400  0.62500000  0.11559600  1
  Ni  Ni12  1  0.36559600  0.37500000  0.61559600  1
  Ni  Ni13  1  0.37500000  0.12500000  0.87500000  1
  Ni  Ni14  1  0.37500000  0.61559600  0.36559600  1
  Ni  Ni15  1  0.38440400  0.86559600  0.12500000  1
  Ni  Ni16  1  0.61559600  0.36559600  0.37500000  1
  Ni  Ni17  1  0.62500000  0.11559600  0.13440400  1
  Ni  Ni18  1  0.62500000  0.62500000  0.62500000  1
  Ni  Ni19  1  0.63440400  0.87500000  0.88440400  1
  Ni  Ni20  1  0.86559600  0.12500000  0.38440400  1
  Ni  Ni21  1  0.87500000  0.37500000  0.12500000  1
  Ni  Ni22  1  0.87500000  0.88440400  0.63440400  1
  Ni  Ni23  1  0.88440400  0.63440400  0.87500000  1
  O  O24  1  0.09538400  0.12695700  0.39460100  1
  O  O25  1  0.10539900  0.90461600  0.62695700  1
  O  O26  1  0.11697600  0.61697600  0.88302400  1
  O  O27  1  0.12304300  0.15461600  0.85539900  1
  O  O28  1  0.12695700  0.39460100  0.09538400  1
  O  O29  1  0.13302400  0.36697600  0.63302400  1
  O  O30  1  0.14460100  0.62304300  0.34538400  1
  O  O31  1  0.15461600  0.85539900  0.12304300  1
  O  O32  1  0.34538400  0.14460100  0.62304300  1
  O  O33  1  0.35539900  0.37695700  0.84538400  1
  O  O34  1  0.36697600  0.63302400  0.13302400  1
  O  O35  1  0.37304300  0.60539900  0.59538400  1
  O  O36  1  0.37695700  0.84538400  0.35539900  1
  O  O37  1  0.38302400  0.38302400  0.38302400  1
  O  O38  1  0.39460100  0.09538400  0.12695700  1
  O  O39  1  0.40461600  0.87304300  0.89460100  1
  O  O40  1  0.59538400  0.37304300  0.60539900  1
  O  O41  1  0.60539900  0.59538400  0.37304300  1
  O  O42  1  0.61697600  0.88302400  0.11697600  1
  O  O43  1  0.62304300  0.34538400  0.14460100  1
  O  O44  1  0.62695700  0.10539900  0.90461600  1
  O  O45  1  0.63302400  0.13302400  0.36697600  1
  O  O46  1  0.64460100  0.87695700  0.65461600  1
  O  O47  1  0.65461600  0.64460100  0.87695700  1
  O  O48  1  0.84538400  0.35539900  0.37695700  1
  O  O49  1  0.85539900  0.12304300  0.15461600  1
  O  O50  1  0.86697600  0.86697600  0.86697600  1
  O  O51  1  0.87304300  0.89460100  0.40461600  1
  O  O52  1  0.87695700  0.65461600  0.64460100  1
  O  O53  1  0.88302400  0.11697600  0.61697600  1
  O  O54  1  0.89460100  0.40461600  0.87304300  1
  O  O55  1  0.90461600  0.62695700  0.10539900  1
