# generated using pymatgen
data_Na6Ni2C4SO16
_symmetry_space_group_name_H-M   'P 1'
_cell_length_a   9.82723287
_cell_length_b   9.82723287
_cell_length_c   9.82723287
_cell_angle_alpha   60.00000000
_cell_angle_beta   60.00000000
_cell_angle_gamma   60.00000000
_symmetry_Int_Tables_number   1
_chemical_formula_structural   Na6Ni2C4SO16
_chemical_formula_sum   'Na12 Ni4 C8 S2 O32'
_cell_volume   671.08687312
_cell_formula_units_Z   2
loop_
 _symmetry_equiv_pos_site_id
 _symmetry_equiv_pos_as_xyz
  1  'x, y, z'
loop_
 _atom_site_type_symbol
 _atom_site_label
 _atom_site_symmetry_multiplicity
 _atom_site_fract_x
 _atom_site_fract_y
 _atom_site_fract_z
 _atom_site_occupancy
  Na  Na0  1  0.28335600  0.71664400  0.28335600  1
  Na  Na1  1  0.71664400  0.71664400  0.28335600  1
  Na  Na2  1  0.28335600  0.71664400  0.71664400  1
  Na  Na3  1  0.96664400  0.96664400  0.53335600  1
  Na  Na4  1  0.53335600  0.96664400  0.96664400  1
  Na  Na5  1  0.53335600  0.96664400  0.53335600  1
  Na  Na6  1  0.71664400  0.28335600  0.71664400  1
  Na  Na7  1  0.71664400  0.28335600  0.28335600  1
  Na  Na8  1  0.28335600  0.28335600  0.71664400  1
  Na  Na9  1  0.96664400  0.53335600  0.53335600  1
  Na  Na10  1  0.53335600  0.53335600  0.96664400  1
  Na  Na11  1  0.96664400  0.53335600  0.96664400  1
  Ni  Ni12  1  0.12500000  0.62500000  0.12500000  1
  Ni  Ni13  1  0.12500000  0.12500000  0.12500000  1
  Ni  Ni14  1  0.62500000  0.12500000  0.12500000  1
  Ni  Ni15  1  0.12500000  0.12500000  0.62500000  1
  C  C16  1  0.34293600  0.97119100  0.34293600  1
  C  C17  1  0.90706400  0.90706400  0.90706400  1
  C  C18  1  0.97119100  0.34293600  0.34293600  1
  C  C19  1  0.34293600  0.34293600  0.97119100  1
  C  C20  1  0.90706400  0.90706400  0.27880900  1
  C  C21  1  0.27880900  0.90706400  0.90706400  1
  C  C22  1  0.34293600  0.34293600  0.34293600  1
  C  C23  1  0.90706400  0.27880900  0.90706400  1
  S  S24  1  0.75000000  0.75000000  0.75000000  1
  S  S25  1  0.50000000  0.50000000  0.50000000  1
  O  O26  1  0.68782300  0.68782300  0.68782300  1
  O  O27  1  0.02503400  0.76413400  0.28141100  1
  O  O28  1  0.68782300  0.68782300  0.93653200  1
  O  O29  1  0.93653200  0.68782300  0.68782300  1
  O  O30  1  0.28141100  0.92942100  0.02503400  1
  O  O31  1  0.68782300  0.93653200  0.68782300  1
  O  O32  1  0.92942100  0.76413400  0.02503400  1
  O  O33  1  0.22496600  0.96858900  0.32057900  1
  O  O34  1  0.02503400  0.92942100  0.76413400  1
  O  O35  1  0.48586600  0.96858900  0.22496600  1
  O  O36  1  0.28141100  0.76413400  0.92942100  1
  O  O37  1  0.32057900  0.22496600  0.96858900  1
  O  O38  1  0.32057900  0.96858900  0.48586600  1
  O  O39  1  0.76413400  0.02503400  0.92942100  1
  O  O40  1  0.76413400  0.92942100  0.28141100  1
  O  O41  1  0.96858900  0.22496600  0.48586600  1
  O  O42  1  0.28141100  0.02503400  0.76413400  1
  O  O43  1  0.48586600  0.32057900  0.96858900  1
  O  O44  1  0.48586600  0.22496600  0.32057900  1
  O  O45  1  0.92942100  0.28141100  0.76413400  1
  O  O46  1  0.92942100  0.02503400  0.28141100  1
  O  O47  1  0.96858900  0.48586600  0.32057900  1
  O  O48  1  0.76413400  0.28141100  0.02503400  1
  O  O49  1  0.22496600  0.32057900  0.48586600  1
  O  O50  1  0.02503400  0.28141100  0.92942100  1
  O  O51  1  0.32057900  0.48586600  0.22496600  1
  O  O52  1  0.56217700  0.31346800  0.56217700  1
  O  O53  1  0.96858900  0.32057900  0.22496600  1
  O  O54  1  0.31346800  0.56217700  0.56217700  1
  O  O55  1  0.56217700  0.56217700  0.31346800  1
  O  O56  1  0.22496600  0.48586600  0.96858900  1
  O  O57  1  0.56217700  0.56217700  0.56217700  1
