# generated using pymatgen
data_Li5InO4
_symmetry_space_group_name_H-M   'P 1'
_cell_length_a   9.42133900
_cell_length_b   9.50534900
_cell_length_c   9.61009400
_cell_angle_alpha   90.00000000
_cell_angle_beta   90.00000000
_cell_angle_gamma   90.00000000
_symmetry_Int_Tables_number   1
_chemical_formula_structural   Li5InO4
_chemical_formula_sum   'Li40 In8 O32'
_cell_volume   860.61385547
_cell_formula_units_Z   8
loop_
 _symmetry_equiv_pos_site_id
 _symmetry_equiv_pos_as_xyz
  1  'x, y, z'
loop_
 _atom_site_type_symbol
 _atom_site_label
 _atom_site_symmetry_multiplicity
 _atom_site_fract_x
 _atom_site_fract_y
 _atom_site_fract_z
 _atom_site_occupancy
  Li  Li0  1  0.11166500  0.60015000  0.13892100  1
  Li  Li1  1  0.11166500  0.89985000  0.63892100  1
  Li  Li2  1  0.12484600  0.10824500  0.83575800  1
  Li  Li3  1  0.12484600  0.39175500  0.33575800  1
  Li  Li4  1  0.12430000  0.86042900  0.38456600  1
  Li  Li5  1  0.12430000  0.63957100  0.88456600  1
  Li  Li6  1  0.14649000  0.86590800  0.11812100  1
  Li  Li7  1  0.14649000  0.63409200  0.61812100  1
  Li  Li8  1  0.15671800  0.11883800  0.39817700  1
  Li  Li9  1  0.15671800  0.38116200  0.89817700  1
  Li  Li10  1  0.34328200  0.88116200  0.89817700  1
  Li  Li11  1  0.34328200  0.61883800  0.39817700  1
  Li  Li12  1  0.35351000  0.36590800  0.11812100  1
  Li  Li13  1  0.35351000  0.13409200  0.61812100  1
  Li  Li14  1  0.37570000  0.36042900  0.38456600  1
  Li  Li15  1  0.37570000  0.13957100  0.88456600  1
  Li  Li16  1  0.37515400  0.89175500  0.33575800  1
  Li  Li17  1  0.37515400  0.60824500  0.83575800  1
  Li  Li18  1  0.38833500  0.10015000  0.13892100  1
  Li  Li19  1  0.38833500  0.39985000  0.63892100  1
  Li  Li20  1  0.61166500  0.60015000  0.36107900  1
  Li  Li21  1  0.61166500  0.89985000  0.86107900  1
  Li  Li22  1  0.62484600  0.10824500  0.66424200  1
  Li  Li23  1  0.62484600  0.39175500  0.16424200  1
  Li  Li24  1  0.62430000  0.63957100  0.61543400  1
  Li  Li25  1  0.62430000  0.86042900  0.11543400  1
  Li  Li26  1  0.64649000  0.63409200  0.88187900  1
  Li  Li27  1  0.64649000  0.86590800  0.38187900  1
  Li  Li28  1  0.65671800  0.11883800  0.10182300  1
  Li  Li29  1  0.65671800  0.38116200  0.60182300  1
  Li  Li30  1  0.84328200  0.61883800  0.10182300  1
  Li  Li31  1  0.84328200  0.88116200  0.60182300  1
  Li  Li32  1  0.85351000  0.36590800  0.38187900  1
  Li  Li33  1  0.85351000  0.13409200  0.88187900  1
  Li  Li34  1  0.87570000  0.13957100  0.61543400  1
  Li  Li35  1  0.87570000  0.36042900  0.11543400  1
  Li  Li36  1  0.87515400  0.60824500  0.66424200  1
  Li  Li37  1  0.87515400  0.89175500  0.16424200  1
  Li  Li38  1  0.88833500  0.10015000  0.36107900  1
  Li  Li39  1  0.88833500  0.39985000  0.86107900  1
  In  In40  1  0.10161800  0.14875000  0.12129700  1
  In  In41  1  0.10161800  0.35125000  0.62129700  1
  In  In42  1  0.39838200  0.64875000  0.12129700  1
  In  In43  1  0.39838200  0.85125000  0.62129700  1
  In  In44  1  0.60161800  0.14875000  0.37870300  1
  In  In45  1  0.60161800  0.35125000  0.87870300  1
  In  In46  1  0.89838200  0.64875000  0.37870300  1
  In  In47  1  0.89838200  0.85125000  0.87870300  1
  O  O48  1  0.99555900  0.23966700  0.47132500  1
  O  O49  1  0.99555900  0.26033300  0.97132500  1
  O  O50  1  0.02651700  0.99358200  0.25627100  1
  O  O51  1  0.02651700  0.50641800  0.75627100  1
  O  O52  1  0.24066600  0.02306700  0.99992200  1
  O  O53  1  0.24066600  0.47693300  0.49992200  1
  O  O54  1  0.25068600  0.24731800  0.25215600  1
  O  O55  1  0.25068600  0.25268200  0.75215600  1
  O  O56  1  0.24931400  0.74731800  0.25215600  1
  O  O57  1  0.24931400  0.75268200  0.75215600  1
  O  O58  1  0.25933400  0.52306700  0.99992200  1
  O  O59  1  0.25933400  0.97693300  0.49992200  1
  O  O60  1  0.47348300  0.49358200  0.25627100  1
  O  O61  1  0.47348300  0.00641800  0.75627100  1
  O  O62  1  0.50444100  0.73966700  0.47132500  1
  O  O63  1  0.50444100  0.76033300  0.97132500  1
  O  O64  1  0.49555900  0.23966700  0.02867500  1
  O  O65  1  0.49555900  0.26033300  0.52867500  1
  O  O66  1  0.52651700  0.99358200  0.24372900  1
  O  O67  1  0.52651700  0.50641800  0.74372900  1
  O  O68  1  0.74066600  0.02306700  0.50007800  1
  O  O69  1  0.74066600  0.47693300  0.00007800  1
  O  O70  1  0.75068600  0.24731800  0.24784400  1
  O  O71  1  0.75068600  0.25268200  0.74784400  1
  O  O72  1  0.74931400  0.74731800  0.24784400  1
  O  O73  1  0.74931400  0.75268200  0.74784400  1
  O  O74  1  0.75933400  0.52306700  0.50007800  1
  O  O75  1  0.75933400  0.97693300  0.00007800  1
  O  O76  1  0.97348300  0.49358200  0.24372900  1
  O  O77  1  0.97348300  0.00641800  0.74372900  1
  O  O78  1  0.00444100  0.73966700  0.02867500  1
  O  O79  1  0.00444100  0.76033300  0.52867500  1
