# generated using pymatgen
data_LiCu5F12
_symmetry_space_group_name_H-M   'P 1'
_cell_length_a   4.72961393
_cell_length_b   4.72961393
_cell_length_c   9.10812800
_cell_angle_alpha   90.00000000
_cell_angle_beta   90.00000000
_cell_angle_gamma   90.93187946
_symmetry_Int_Tables_number   1
_chemical_formula_structural   LiCu5F12
_chemical_formula_sum   'Li1 Cu5 F12'
_cell_volume   203.71502630
_cell_formula_units_Z   1
loop_
 _symmetry_equiv_pos_site_id
 _symmetry_equiv_pos_as_xyz
  1  'x, y, z'
loop_
 _atom_site_type_symbol
 _atom_site_label
 _atom_site_symmetry_multiplicity
 _atom_site_fract_x
 _atom_site_fract_y
 _atom_site_fract_z
 _atom_site_occupancy
  Li  Li0  1  0.00000000  0.00000000  0.00000000  1
  Cu  Cu1  1  0.00000000  0.00000000  0.32759900  1
  Cu  Cu2  1  0.00000000  0.00000000  0.67240100  1
  Cu  Cu3  1  0.50000000  0.50000000  0.16355200  1
  Cu  Cu4  1  0.50000000  0.50000000  0.50000000  1
  Cu  Cu5  1  0.50000000  0.50000000  0.83644800  1
  F  F6  1  0.19165500  0.19165500  0.50000000  1
  F  F7  1  0.19808600  0.19808600  0.17102300  1
  F  F8  1  0.19808600  0.19808600  0.82897700  1
  F  F9  1  0.69201200  0.30798800  0.33212200  1
  F  F10  1  0.69201200  0.30798800  0.66787800  1
  F  F11  1  0.68997300  0.31002700  0.00000000  1
  F  F12  1  0.31002700  0.68997300  0.00000000  1
  F  F13  1  0.30798800  0.69201200  0.33212200  1
  F  F14  1  0.30798800  0.69201200  0.66787800  1
  F  F15  1  0.80191400  0.80191400  0.17102300  1
  F  F16  1  0.80191400  0.80191400  0.82897700  1
  F  F17  1  0.80834500  0.80834500  0.50000000  1
