# generated using pymatgen
data_SmH2ClO2
_symmetry_space_group_name_H-M   'P 1'
_cell_length_a   3.78642600
_cell_length_b   6.33068600
_cell_length_c   12.81033600
_cell_angle_alpha   90.00000000
_cell_angle_beta   90.00000000
_cell_angle_gamma   90.00000000
_symmetry_Int_Tables_number   1
_chemical_formula_structural   SmH2ClO2
_chemical_formula_sum   'Sm4 H8 Cl4 O8'
_cell_volume   307.07238896
_cell_formula_units_Z   4
loop_
 _symmetry_equiv_pos_site_id
 _symmetry_equiv_pos_as_xyz
  1  'x, y, z'
loop_
 _atom_site_type_symbol
 _atom_site_label
 _atom_site_symmetry_multiplicity
 _atom_site_fract_x
 _atom_site_fract_y
 _atom_site_fract_z
 _atom_site_occupancy
  Sm  Sm0  1  0.75000000  0.24845200  0.06127000  1
  Sm  Sm1  1  0.25000000  0.74845200  0.43873000  1
  Sm  Sm2  1  0.75000000  0.25154800  0.56127000  1
  Sm  Sm3  1  0.25000000  0.75154800  0.93873000  1
  H  H4  1  0.75000000  0.69330600  0.11226100  1
  H  H5  1  0.25000000  0.94125000  0.15033700  1
  H  H6  1  0.75000000  0.44125000  0.34966300  1
  H  H7  1  0.25000000  0.19330600  0.38773900  1
  H  H8  1  0.75000000  0.80669400  0.61226100  1
  H  H9  1  0.25000000  0.55875000  0.65033700  1
  H  H10  1  0.75000000  0.05875000  0.84966300  1
  H  H11  1  0.25000000  0.30669400  0.88773900  1
  Cl  Cl12  1  0.25000000  0.41096600  0.21910400  1
  Cl  Cl13  1  0.75000000  0.91096600  0.28089600  1
  Cl  Cl14  1  0.25000000  0.08903400  0.71910400  1
  Cl  Cl15  1  0.75000000  0.58903400  0.78089600  1
  O  O16  1  0.75000000  0.63158800  0.04254500  1
  O  O17  1  0.25000000  0.00184500  0.08010000  1
  O  O18  1  0.75000000  0.50184500  0.41990000  1
  O  O19  1  0.25000000  0.13158800  0.45745500  1
  O  O20  1  0.75000000  0.86841200  0.54254500  1
  O  O21  1  0.25000000  0.49815500  0.58010000  1
  O  O22  1  0.75000000  0.99815500  0.91990000  1
  O  O23  1  0.25000000  0.36841200  0.95745500  1
