# generated using pymatgen
data_P2H16N4O7
_symmetry_space_group_name_H-M   'P 1'
_cell_length_a   6.76780115
_cell_length_b   6.76780115
_cell_length_c   13.78735854
_cell_angle_alpha   76.95208550
_cell_angle_beta   76.95208550
_cell_angle_gamma   57.56682566
_symmetry_Int_Tables_number   1
_chemical_formula_structural   P2H16N4O7
_chemical_formula_sum   'P4 H32 N8 O14'
_cell_volume   515.01382149
_cell_formula_units_Z   2
loop_
 _symmetry_equiv_pos_site_id
 _symmetry_equiv_pos_as_xyz
  1  'x, y, z'
loop_
 _atom_site_type_symbol
 _atom_site_label
 _atom_site_symmetry_multiplicity
 _atom_site_fract_x
 _atom_site_fract_y
 _atom_site_fract_z
 _atom_site_occupancy
  P  P0  1  0.73919200  0.44777600  0.15241300  1
  P  P1  1  0.55222400  0.26080800  0.34758700  1
  P  P2  1  0.26080800  0.55222400  0.84758700  1
  P  P3  1  0.44777600  0.73919200  0.65241300  1
  H  H4  1  0.47227800  0.95645700  0.11292900  1
  H  H5  1  0.04354300  0.52772200  0.38707100  1
  H  H6  1  0.52772200  0.04354300  0.88707100  1
  H  H7  1  0.95645700  0.47227800  0.61292900  1
  H  H8  1  0.49597000  0.14534900  0.16490900  1
  H  H9  1  0.85465100  0.50403000  0.33509100  1
  H  H10  1  0.50403000  0.85465100  0.83509100  1
  H  H11  1  0.14534900  0.49597000  0.66490900  1
  H  H12  1  0.22466800  0.22182000  0.14830300  1
  H  H13  1  0.77818000  0.77533200  0.35169700  1
  H  H14  1  0.77533200  0.77818000  0.85169700  1
  H  H15  1  0.22182000  0.22466800  0.64830300  1
  H  H16  1  0.41445600  0.22218600  0.04490600  1
  H  H17  1  0.77781400  0.58554400  0.45509400  1
  H  H18  1  0.58554400  0.77781400  0.95509400  1
  H  H19  1  0.22218600  0.41445600  0.54490600  1
  H  H20  1  0.04508300  0.64116900  0.14927400  1
  H  H21  1  0.35883100  0.95491700  0.35072600  1
  H  H22  1  0.95491700  0.35883100  0.85072600  1
  H  H23  1  0.64116900  0.04508300  0.64927400  1
  H  H24  1  0.99226400  0.92879000  0.11879800  1
  H  H25  1  0.07121000  0.00773600  0.38120200  1
  H  H26  1  0.00773600  0.07121000  0.88120200  1
  H  H27  1  0.92879000  0.99226400  0.61879800  1
  H  H28  1  0.11192400  0.74493500  0.02934900  1
  H  H29  1  0.25506500  0.88807600  0.47065100  1
  H  H30  1  0.88807600  0.25506500  0.97065100  1
  H  H31  1  0.74493500  0.11192400  0.52934900  1
  H  H32  1  0.27573900  0.70080300  0.11406700  1
  H  H33  1  0.29919700  0.72426100  0.38593300  1
  H  H34  1  0.72426100  0.29919700  0.88593300  1
  H  H35  1  0.70080300  0.27573900  0.61406700  1
  N  N36  1  0.40272900  0.13658600  0.11761200  1
  N  N37  1  0.86341400  0.59727100  0.38238800  1
  N  N38  1  0.59727100  0.86341400  0.88238800  1
  N  N39  1  0.13658600  0.40272900  0.61761200  1
  N  N40  1  0.10533100  0.75149000  0.10549700  1
  N  N41  1  0.24851000  0.89466900  0.39450300  1
  N  N42  1  0.89466900  0.24851000  0.89450300  1
  N  N43  1  0.75149000  0.10533100  0.60549700  1
  O  O44  1  0.54514700  0.45485300  0.25000000  1
  O  O45  1  0.45485300  0.54514700  0.75000000  1
  O  O46  1  0.82990800  0.22821600  0.10295000  1
  O  O47  1  0.77178400  0.17009200  0.39705000  1
  O  O48  1  0.17009200  0.77178400  0.89705000  1
  O  O49  1  0.22821600  0.82990800  0.60295000  1
  O  O50  1  0.58398900  0.67763100  0.08729900  1
  O  O51  1  0.32236900  0.41601100  0.41270100  1
  O  O52  1  0.41601100  0.32236900  0.91270100  1
  O  O53  1  0.67763100  0.58398900  0.58729900  1
  O  O54  1  0.93396900  0.44709600  0.19251000  1
  O  O55  1  0.55290400  0.06603100  0.30749000  1
  O  O56  1  0.06603100  0.55290400  0.80749000  1
  O  O57  1  0.44709600  0.93396900  0.69251000  1
