# generated using pymatgen
data_Ti2Cu
_symmetry_space_group_name_H-M   'P 1'
_cell_length_a   5.76111501
_cell_length_b   5.76111501
_cell_length_c   5.76111501
_cell_angle_alpha   150.51135571
_cell_angle_beta   150.51135571
_cell_angle_gamma   42.19130300
_symmetry_Int_Tables_number   1
_chemical_formula_structural   Ti2Cu
_chemical_formula_sum   'Ti2 Cu1'
_cell_volume   46.22200730
_cell_formula_units_Z   1
loop_
 _symmetry_equiv_pos_site_id
 _symmetry_equiv_pos_as_xyz
  1  'x, y, z'
loop_
 _atom_site_type_symbol
 _atom_site_label
 _atom_site_symmetry_multiplicity
 _atom_site_fract_x
 _atom_site_fract_y
 _atom_site_fract_z
 _atom_site_occupancy
  Ti  Ti0  1  0.66225400  0.66225400  0.00000000  1
  Ti  Ti1  1  0.33774600  0.33774600  0.00000000  1
  Cu  Cu2  1  0.00000000  0.00000000  0.00000000  1
