# generated using pymatgen
data_KAgF4
_symmetry_space_group_name_H-M   'P 1'
_cell_length_a   7.26948593
_cell_length_b   7.26948593
_cell_length_c   7.26948593
_cell_angle_alpha   130.77750194
_cell_angle_beta   130.77750194
_cell_angle_gamma   72.16682096
_symmetry_Int_Tables_number   1
_chemical_formula_structural   KAgF4
_chemical_formula_sum   'K2 Ag2 F8'
_cell_volume   215.38418297
_cell_formula_units_Z   2
loop_
 _symmetry_equiv_pos_site_id
 _symmetry_equiv_pos_as_xyz
  1  'x, y, z'
loop_
 _atom_site_type_symbol
 _atom_site_label
 _atom_site_symmetry_multiplicity
 _atom_site_fract_x
 _atom_site_fract_y
 _atom_site_fract_z
 _atom_site_occupancy
  K  K0  1  0.25000000  0.25000000  0.00000000  1
  K  K1  1  0.75000000  0.75000000  0.00000000  1
  Ag  Ag2  1  0.50000000  0.00000000  0.50000000  1
  Ag  Ag3  1  0.00000000  0.50000000  0.50000000  1
  F  F4  1  0.45189400  0.95189400  0.17132200  1
  F  F5  1  0.21942700  0.71942700  0.17132200  1
  F  F6  1  0.54810600  0.04810600  0.82867800  1
  F  F7  1  0.04810600  0.21942700  0.50000000  1
  F  F8  1  0.78057300  0.28057300  0.82867800  1
  F  F9  1  0.28057300  0.45189400  0.50000000  1
  F  F10  1  0.95189400  0.78057300  0.50000000  1
  F  F11  1  0.71942700  0.54810600  0.50000000  1
