# generated using pymatgen
data_YSeO3
_symmetry_space_group_name_H-M   'P 1'
_cell_length_a   12.49396000
_cell_length_b   6.03688400
_cell_length_c   8.87688846
_cell_angle_alpha   73.69350421
_cell_angle_beta   90.00000000
_cell_angle_gamma   90.00000000
_symmetry_Int_Tables_number   1
_chemical_formula_structural   YSeO3
_chemical_formula_sum   'Y8 Se8 O24'
_cell_volume   642.60254905
_cell_formula_units_Z   8
loop_
 _symmetry_equiv_pos_site_id
 _symmetry_equiv_pos_as_xyz
  1  'x, y, z'
loop_
 _atom_site_type_symbol
 _atom_site_label
 _atom_site_symmetry_multiplicity
 _atom_site_fract_x
 _atom_site_fract_y
 _atom_site_fract_z
 _atom_site_occupancy
  Y  Y0  1  0.55907600  0.76136800  0.91250000  1
  Y  Y1  1  0.94092400  0.76136800  0.41250000  1
  Y  Y2  1  0.24078300  0.63555000  0.85687700  1
  Y  Y3  1  0.25921700  0.63555000  0.35687700  1
  Y  Y4  1  0.74078300  0.36445000  0.64312300  1
  Y  Y5  1  0.75921700  0.36445000  0.14312300  1
  Y  Y6  1  0.05907600  0.23863200  0.58750000  1
  Y  Y7  1  0.44092400  0.23863200  0.08750000  1
  Se  Se8  1  0.84023400  0.95634700  0.00181500  1
  Se  Se9  1  0.65976600  0.95634700  0.50181500  1
  Se  Se10  1  0.98484600  0.62623800  0.82444300  1
  Se  Se11  1  0.51515400  0.62623800  0.32444300  1
  Se  Se12  1  0.48484600  0.37376200  0.67555700  1
  Se  Se13  1  0.01515400  0.37376200  0.17555700  1
  Se  Se14  1  0.34023400  0.04365300  0.49818500  1
  Se  Se15  1  0.15976600  0.04365300  0.99818500  1
  O  O16  1  0.17111500  0.01466000  0.81024300  1
  O  O17  1  0.32888500  0.01466000  0.31024300  1
  O  O18  1  0.98145600  0.86508700  0.64846200  1
  O  O19  1  0.27077400  0.78748900  0.58742000  1
  O  O20  1  0.75562100  0.75107700  0.49877700  1
  O  O21  1  0.51854400  0.86508700  0.14846200  1
  O  O22  1  0.40455100  0.59192500  0.92039900  1
  O  O23  1  0.22922600  0.78748900  0.08742000  1
  O  O24  1  0.74437900  0.75107700  0.99877700  1
  O  O25  1  0.59193400  0.55164700  0.71740000  1
  O  O26  1  0.09544900  0.59192500  0.42039900  1
  O  O27  1  0.09193400  0.44835300  0.78260000  1
  O  O28  1  0.90806600  0.55164700  0.21740000  1
  O  O29  1  0.90455100  0.40807500  0.57960100  1
  O  O30  1  0.40806600  0.44835300  0.28260000  1
  O  O31  1  0.25562100  0.24892300  0.00122300  1
  O  O32  1  0.77077400  0.21251100  0.91258000  1
  O  O33  1  0.59544900  0.40807500  0.07960100  1
  O  O34  1  0.48145600  0.13491300  0.85153800  1
  O  O35  1  0.24437900  0.24892300  0.50122300  1
  O  O36  1  0.72922600  0.21251100  0.41258000  1
  O  O37  1  0.01854400  0.13491300  0.35153800  1
  O  O38  1  0.67111500  0.98534000  0.68975700  1
  O  O39  1  0.82888500  0.98534000  0.18975700  1
