# generated using pymatgen
data_FeP3(HO5)2
_symmetry_space_group_name_H-M   'P 1'
_cell_length_a   8.93217500
_cell_length_b   7.47995800
_cell_length_c   12.58991980
_cell_angle_alpha   67.60552509
_cell_angle_beta   90.00000000
_cell_angle_gamma   90.00000000
_symmetry_Int_Tables_number   1
_chemical_formula_structural   FeP3(HO5)2
_chemical_formula_sum   'Fe4 P12 H8 O40'
_cell_volume   777.72336200
_cell_formula_units_Z   4
loop_
 _symmetry_equiv_pos_site_id
 _symmetry_equiv_pos_as_xyz
  1  'x, y, z'
loop_
 _atom_site_type_symbol
 _atom_site_label
 _atom_site_symmetry_multiplicity
 _atom_site_fract_x
 _atom_site_fract_y
 _atom_site_fract_z
 _atom_site_occupancy
  Fe  Fe0  1  0.57313200  0.74549100  0.79538200  1
  Fe  Fe1  1  0.07313200  0.25450900  0.70461800  1
  Fe  Fe2  1  0.42686800  0.25450900  0.20461800  1
  Fe  Fe3  1  0.92686800  0.74549100  0.29538200  1
  P  P4  1  0.60315600  0.85369500  0.36455000  1
  P  P5  1  0.10315600  0.14630500  0.13545000  1
  P  P6  1  0.39684400  0.14630500  0.63545000  1
  P  P7  1  0.89684400  0.85369500  0.86455000  1
  P  P8  1  0.60336800  0.64554600  0.20652600  1
  P  P9  1  0.10336800  0.35445400  0.29347400  1
  P  P10  1  0.39663200  0.35445400  0.79347400  1
  P  P11  1  0.89663200  0.64554600  0.70652600  1
  P  P12  1  0.62165400  0.28849000  0.97828500  1
  P  P13  1  0.12165400  0.71151000  0.52171500  1
  P  P14  1  0.37834600  0.71151000  0.02171500  1
  P  P15  1  0.87834600  0.28849000  0.47828500  1
  H  H16  1  0.64348100  0.71695300  0.55285700  1
  H  H17  1  0.14348100  0.28304700  0.94714300  1
  H  H18  1  0.35651900  0.28304700  0.44714300  1
  H  H19  1  0.85651900  0.71695300  0.05285700  1
  H  H20  1  0.81922000  0.21736300  0.89769800  1
  H  H21  1  0.31922000  0.78263700  0.60230200  1
  H  H22  1  0.18078000  0.78263700  0.10230200  1
  H  H23  1  0.68078000  0.21736300  0.39769800  1
  O  O24  1  0.53289400  0.73322800  0.29299000  1
  O  O25  1  0.03289400  0.26677200  0.20701000  1
  O  O26  1  0.46710600  0.26677200  0.70701000  1
  O  O27  1  0.96710600  0.73322800  0.79299000  1
  O  O28  1  0.57688500  0.71017100  0.49088900  1
  O  O29  1  0.07688500  0.28982900  0.00911100  1
  O  O30  1  0.42311500  0.28982900  0.50911100  1
  O  O31  1  0.92311500  0.71017100  0.99088900  1
  O  O32  1  0.98452300  0.76191700  0.59079800  1
  O  O33  1  0.48452300  0.23808300  0.90920200  1
  O  O34  1  0.01547700  0.23808300  0.40920200  1
  O  O35  1  0.51547700  0.76191700  0.09079800  1
  O  O36  1  0.49142400  0.96584900  0.66311600  1
  O  O37  1  0.99142400  0.03415100  0.83688400  1
  O  O38  1  0.50857600  0.03415100  0.33688400  1
  O  O39  1  0.00857600  0.96584900  0.16311600  1
  O  O40  1  0.73213200  0.89280900  0.83474600  1
  O  O41  1  0.23213200  0.10719100  0.66525400  1
  O  O42  1  0.26786800  0.10719100  0.16525400  1
  O  O43  1  0.76786800  0.89280900  0.33474600  1
  O  O44  1  0.84971500  0.50364300  0.42396800  1
  O  O45  1  0.34971500  0.49635700  0.07603200  1
  O  O46  1  0.15028500  0.49635700  0.57603200  1
  O  O47  1  0.65028500  0.50364300  0.92396800  1
  O  O48  1  0.73264700  0.69928300  0.68354700  1
  O  O49  1  0.23264700  0.30071700  0.81645300  1
  O  O50  1  0.26735300  0.30071700  0.31645300  1
  O  O51  1  0.76735300  0.69928300  0.18354700  1
  O  O52  1  0.93255000  0.43158900  0.75022200  1
  O  O53  1  0.43255000  0.56841100  0.74977800  1
  O  O54  1  0.06745000  0.56841100  0.24977800  1
  O  O55  1  0.56745000  0.43158900  0.25022200  1
  O  O56  1  0.92208500  0.20478500  0.60329500  1
  O  O57  1  0.42208500  0.79521500  0.89670500  1
  O  O58  1  0.07791500  0.79521500  0.39670500  1
  O  O59  1  0.57791500  0.20478500  0.10329500  1
  O  O60  1  0.75764100  0.16359400  0.96720500  1
  O  O61  1  0.25764100  0.83640600  0.53279500  1
  O  O62  1  0.24235900  0.83640600  0.03279500  1
  O  O63  1  0.74235900  0.16359400  0.46720500  1
