# generated using pymatgen
data_Hg2SO4
_symmetry_space_group_name_H-M   'P 1'
_cell_length_a   4.65612600
_cell_length_b   6.34795900
_cell_length_c   8.68497486
_cell_angle_alpha   87.23873123
_cell_angle_beta   90.00000000
_cell_angle_gamma   90.00000000
_symmetry_Int_Tables_number   1
_chemical_formula_structural   Hg2SO4
_chemical_formula_sum   'Hg4 S2 O8'
_cell_volume   256.40285931
_cell_formula_units_Z   2
loop_
 _symmetry_equiv_pos_site_id
 _symmetry_equiv_pos_as_xyz
  1  'x, y, z'
loop_
 _atom_site_type_symbol
 _atom_site_label
 _atom_site_symmetry_multiplicity
 _atom_site_fract_x
 _atom_site_fract_y
 _atom_site_fract_z
 _atom_site_occupancy
  Hg  Hg0  1  0.07127100  0.19128300  0.52680400  1
  Hg  Hg1  1  0.07127100  0.80871700  0.97319600  1
  Hg  Hg2  1  0.92872900  0.80871700  0.47319600  1
  Hg  Hg3  1  0.92872900  0.19128300  0.02680400  1
  S  S4  1  0.42813600  0.50000000  0.75000000  1
  S  S5  1  0.57186400  0.50000000  0.25000000  1
  O  O6  1  0.76831100  0.50544400  0.39158600  1
  O  O7  1  0.76831100  0.49455600  0.10841400  1
  O  O8  1  0.23168900  0.49455600  0.60841400  1
  O  O9  1  0.23168900  0.50544400  0.89158600  1
  O  O10  1  0.40497200  0.69618300  0.23622300  1
  O  O11  1  0.40497200  0.30381700  0.26377700  1
  O  O12  1  0.59502800  0.69618300  0.73622300  1
  O  O13  1  0.59502800  0.30381700  0.76377700  1
