# generated using pymatgen
data_CsFeBP2HO9
_symmetry_space_group_name_H-M   'P 1'
_cell_length_a   8.72368100
_cell_length_b   9.48155900
_cell_length_c   9.93674968
_cell_angle_alpha   77.15235432
_cell_angle_beta   90.00000000
_cell_angle_gamma   90.00000000
_symmetry_Int_Tables_number   1
_chemical_formula_structural   CsFeBP2HO9
_chemical_formula_sum   'Cs4 Fe4 B4 P8 H4 O36'
_cell_volume   801.33259144
_cell_formula_units_Z   4
loop_
 _symmetry_equiv_pos_site_id
 _symmetry_equiv_pos_as_xyz
  1  'x, y, z'
loop_
 _atom_site_type_symbol
 _atom_site_label
 _atom_site_symmetry_multiplicity
 _atom_site_fract_x
 _atom_site_fract_y
 _atom_site_fract_z
 _atom_site_occupancy
  Cs  Cs0  1  0.39104200  0.80620900  0.55453300  1
  Cs  Cs1  1  0.10895800  0.80620900  0.05453300  1
  Cs  Cs2  1  0.89104200  0.19379100  0.94546700  1
  Cs  Cs3  1  0.60895800  0.19379100  0.44546700  1
  Fe  Fe4  1  0.65361100  0.79419200  0.92901600  1
  Fe  Fe5  1  0.84638900  0.79419200  0.42901600  1
  Fe  Fe6  1  0.15361100  0.20580800  0.57098400  1
  Fe  Fe7  1  0.34638900  0.20580800  0.07098400  1
  B  B8  1  0.04365800  0.65900000  0.69738700  1
  B  B9  1  0.45634200  0.65900000  0.19738700  1
  B  B10  1  0.54365800  0.34100000  0.80261300  1
  B  B11  1  0.95634200  0.34100000  0.30261300  1
  P  P12  1  0.92786000  0.92506100  0.70213200  1
  P  P13  1  0.57214000  0.92506100  0.20213200  1
  P  P14  1  0.73314300  0.58157300  0.71380600  1
  P  P15  1  0.76685700  0.58157300  0.21380600  1
  P  P16  1  0.23314300  0.41842700  0.78619400  1
  P  P17  1  0.26685700  0.41842700  0.28619400  1
  P  P18  1  0.42786000  0.07493900  0.79786800  1
  P  P19  1  0.07214000  0.07493900  0.29786800  1
  H  H20  1  0.08595400  0.60150000  0.50973800  1
  H  H21  1  0.41404600  0.60150000  0.00973800  1
  H  H22  1  0.58595400  0.39850000  0.99026200  1
  H  H23  1  0.91404600  0.39850000  0.49026200  1
  O  O24  1  0.50430600  0.92682800  0.81302200  1
  O  O25  1  0.83112800  0.90039700  0.83547000  1
  O  O26  1  0.83434000  0.91218600  0.57441100  1
  O  O27  1  0.99569400  0.92682800  0.31302200  1
  O  O28  1  0.66887200  0.90039700  0.33547000  1
  O  O29  1  0.05729100  0.80377200  0.72824900  1
  O  O30  1  0.66566000  0.91218600  0.07441100  1
  O  O31  1  0.44270900  0.80377200  0.22824900  1
  O  O32  1  0.63156000  0.66009900  0.79971900  1
  O  O33  1  0.04107000  0.68176000  0.54360400  1
  O  O34  1  0.71872700  0.64062800  0.55811100  1
  O  O35  1  0.18500100  0.58269900  0.75355700  1
  O  O36  1  0.90532700  0.57886400  0.76150400  1
  O  O37  1  0.86844000  0.66009900  0.29971900  1
  O  O38  1  0.45893000  0.68176000  0.04360400  1
  O  O39  1  0.78127300  0.64062800  0.05811100  1
  O  O40  1  0.31499900  0.58269900  0.25355700  1
  O  O41  1  0.59467300  0.57886400  0.26150400  1
  O  O42  1  0.40532700  0.42113600  0.73849600  1
  O  O43  1  0.68500100  0.41730100  0.74644300  1
  O  O44  1  0.21872700  0.35937200  0.94188900  1
  O  O45  1  0.54107000  0.31824000  0.95639600  1
  O  O46  1  0.13156000  0.33990100  0.70028100  1
  O  O47  1  0.09467300  0.42113600  0.23849600  1
  O  O48  1  0.81499900  0.41730100  0.24644300  1
  O  O49  1  0.28127300  0.35937200  0.44188900  1
  O  O50  1  0.95893000  0.31824000  0.45639600  1
  O  O51  1  0.36844000  0.33990100  0.20028100  1
  O  O52  1  0.55729100  0.19622800  0.77175100  1
  O  O53  1  0.33434000  0.08781400  0.92558900  1
  O  O54  1  0.94270900  0.19622800  0.27175100  1
  O  O55  1  0.33112800  0.09960300  0.66453000  1
  O  O56  1  0.00430600  0.07317200  0.68697800  1
  O  O57  1  0.16566000  0.08781400  0.42558900  1
  O  O58  1  0.16887200  0.09960300  0.16453000  1
  O  O59  1  0.49569400  0.07317200  0.18697800  1
