# generated using pymatgen
data_Na2Ca17V2(PO4)14
_symmetry_space_group_name_H-M   'P 1'
_cell_length_a   10.44062600
_cell_length_b   13.86182171
_cell_length_c   18.08228590
_cell_angle_alpha   102.57720951
_cell_angle_beta   90.01648947
_cell_angle_gamma   112.05207944
_symmetry_Int_Tables_number   1
_chemical_formula_structural   Na2Ca17V2(PO4)14
_chemical_formula_sum   'Na4 Ca34 V4 P28 O112'
_cell_volume   2357.56734094
_cell_formula_units_Z   2
loop_
 _symmetry_equiv_pos_site_id
 _symmetry_equiv_pos_as_xyz
  1  'x, y, z'
loop_
 _atom_site_type_symbol
 _atom_site_label
 _atom_site_symmetry_multiplicity
 _atom_site_fract_x
 _atom_site_fract_y
 _atom_site_fract_z
 _atom_site_occupancy
  Na  Na0  1  0.85002800  0.71982800  0.08889400  1
  Na  Na1  1  0.81441800  0.62952800  0.26918900  1
  Na  Na2  1  0.40119800  0.21971400  0.14035800  1
  Na  Na3  1  0.06761600  0.12938300  0.02284300  1
  Ca  Ca4  1  0.27921400  0.00030700  0.89892200  1
  Ca  Ca5  1  0.51562400  0.00212100  0.68859000  1
  Ca  Ca6  1  0.70483700  0.99946800  0.91324100  1
  Ca  Ca7  1  0.34973900  0.72003100  0.59097300  1
  Ca  Ca8  1  0.07093000  0.71845700  0.89126600  1
  Ca  Ca9  1  0.97615400  0.50163000  0.64927200  1
  Ca  Ca10  1  0.65837300  0.71891200  0.88076800  1
  Ca  Ca11  1  0.19319000  0.39839900  0.53836300  1
  Ca  Ca12  1  0.91054700  0.39979200  0.83396800  1
  Ca  Ca13  1  0.23747300  0.50376300  0.93891700  1
  Ca  Ca14  1  0.54027000  0.50158600  0.66394400  1
  Ca  Ca15  1  0.89901300  0.22013000  0.63972000  1
  Ca  Ca16  1  0.49488900  0.39964000  0.82813100  1
  Ca  Ca17  1  0.31102900  0.22022800  0.62948200  1
  Ca  Ca18  1  0.77546200  0.00225400  0.39834000  1
  Ca  Ca19  1  0.12151500  0.22212000  0.83745900  1
  Ca  Ca20  1  0.01514200  0.99735900  0.18913900  1
  Ca  Ca21  1  0.21331100  0.00299800  0.41289500  1
  Ca  Ca22  1  0.73787700  0.89904100  0.58388500  1
  Ca  Ca23  1  0.56600200  0.72188600  0.39089000  1
  Ca  Ca24  1  0.15523100  0.89936800  0.57782600  1
  Ca  Ca25  1  0.95572000  0.89836000  0.78853100  1
  Ca  Ca26  1  0.47220900  0.49795600  0.14620300  1
  Ca  Ca27  1  0.16570400  0.72164000  0.38114400  1
  Ca  Ca28  1  0.69250600  0.39994800  0.03899600  1
  Ca  Ca29  1  0.40881900  0.39626200  0.33173900  1
  Ca  Ca30  1  0.73378200  0.49866000  0.44020200  1
  Ca  Ca31  1  0.04261600  0.50095300  0.16147100  1
  Ca  Ca32  1  0.99507900  0.39773900  0.32685000  1
  Ca  Ca33  1  0.80443400  0.22000000  0.13106700  1
  Ca  Ca34  1  0.61801400  0.21844800  0.33982800  1
  Ca  Ca35  1  0.23821700  0.89918500  0.08376500  1
  Ca  Ca36  1  0.65369900  0.89662700  0.07756900  1
  Ca  Ca37  1  0.45531600  0.89901500  0.28767200  1
  V  V38  1  0.59600900  0.19292700  0.86572900  1
  V  V39  1  0.09699800  0.19316900  0.36517700  1
  V  V40  1  0.84672200  0.69352900  0.61637900  1
  V  V41  1  0.34680000  0.69270600  0.11487200  1
  P  P42  1  0.94612600  0.89180300  0.98174200  1
  P  P43  1  0.37015400  0.28901600  0.96143400  1
  P  P44  1  0.66116500  0.28780200  0.70486400  1
  P  P45  1  0.90077400  0.28826800  0.97839600  1
  P  P46  1  0.44686400  0.89377700  0.48249200  1
  P  P47  1  0.16748000  0.78793400  0.71100300  1
  P  P48  1  0.37671400  0.78786400  0.95483000  1
  P  P49  1  0.63770700  0.78791400  0.72837500  1
  P  P50  1  0.87059500  0.28782800  0.46090900  1
  P  P51  1  0.16148900  0.28812200  0.20421300  1
  P  P52  1  0.19675900  0.39352400  0.73220200  1
  P  P53  1  0.39981800  0.28810600  0.47825700  1
  P  P54  1  0.03227300  0.10285600  0.52227800  1
  P  P55  1  0.81946300  0.10316600  0.77444400  1
  P  P56  1  0.66859400  0.78793300  0.21131100  1
  P  P57  1  0.30306100  0.10284500  0.75490400  1
  P  P58  1  0.87698300  0.78854900  0.45467100  1
  P  P59  1  0.13751600  0.78905300  0.22870100  1
  P  P60  1  0.53408500  0.60308800  0.52388800  1
  P  P61  1  0.04968300  0.60332400  0.50463300  1
  P  P62  1  0.82082000  0.60316300  0.77228200  1
  P  P63  1  0.69626100  0.39205100  0.23206000  1
  P  P64  1  0.53167200  0.10434000  0.02342700  1
  P  P65  1  0.31949300  0.10352900  0.27354700  1
  P  P66  1  0.80415100  0.10319800  0.25472500  1
  P  P67  1  0.03268100  0.60436100  0.02471600  1
  P  P68  1  0.55134400  0.60360800  0.00500600  1
  P  P69  1  0.32114200  0.60284000  0.27246700  1
  O  O70  1  0.88479500  0.76901900  0.95903000  1
  O  O71  1  0.51229800  0.29486000  0.92469200  1
  O  O72  1  0.65169100  0.29661800  0.79508800  1
  O  O73  1  0.25805300  0.17373400  0.93992700  1
  O  O74  1  0.78011900  0.29576200  0.92882400  1
  O  O75  1  0.63487700  0.17290800  0.66273700  1
  O  O76  1  0.41784500  0.08335400  0.79932800  1
  O  O77  1  0.53305600  0.08513600  0.93266600  1
  O  O78  1  0.67528100  0.08392900  0.80948900  1
  O  O79  1  0.04212300  0.93589700  0.91996400  1
  O  O80  1  0.86895200  0.17313500  0.98681500  1
  O  O81  1  0.53233900  0.93163400  0.56109100  1
  O  O82  1  0.28899500  0.85879600  0.67187600  1
  O  O83  1  0.17464700  0.83295700  0.79732800  1
  O  O84  1  0.38457300  0.76904500  0.46169500  1
  O  O85  1  0.29264400  0.85837800  0.94824900  1
  O  O86  1  0.54949000  0.83288400  0.68856400  1
  O  O87  1  0.15994700  0.67303700  0.68755100  1
  O  O88  1  0.70646600  0.85900100  0.80844300  1
  O  O89  1  0.52497000  0.83295500  0.93005600  1
  O  O90  1  0.82706400  0.93520400  0.98624600  1
  O  O91  1  0.93544400  0.56462800  0.79156800  1
  O  O92  1  0.12928900  0.54171200  0.53165400  1
  O  O93  1  0.28885700  0.67296800  0.91237500  1
  O  O94  1  0.56135500  0.67295900  0.73579200  1
  O  O95  1  0.40955700  0.56501300  0.57163700  1
  O  O96  1  0.00425500  0.54151300  0.94051000  1
  O  O97  1  0.81581000  0.35863800  0.69893300  1
  O  O98  1  0.90818400  0.33285500  0.54727500  1
  O  O99  1  0.14051200  0.43162000  0.66902700  1
  O  O100  1  0.01499100  0.29651000  0.42501000  1
  O  O101  1  0.15106400  0.29542000  0.29382700  1
  O  O102  1  0.50189600  0.56415500  0.91877100  1
  O  O103  1  0.14899700  0.43133500  0.81105000  1
  O  O104  1  0.35757600  0.43148500  0.73564100  1
  O  O105  1  0.67882800  0.54156300  0.79847000  1
  O  O106  1  0.76302300  0.17302500  0.43788400  1
  O  O107  1  0.27924500  0.29718500  0.42861800  1
  O  O108  1  0.12780400  0.17256500  0.15948100  1
  O  O109  1  0.40245800  0.35900300  0.55863500  1
  O  O110  1  0.03483000  0.33193700  0.93905500  1
  O  O111  1  0.10547100  0.22300600  0.55933000  1
  O  O112  1  0.89781300  0.22331800  0.77923200  1
  O  O113  1  0.13450800  0.26893200  0.71139600  1
  O  O114  1  0.91865700  0.08408200  0.29975900  1
  O  O115  1  0.31850500  0.35796700  0.92055800  1
  O  O116  1  0.55768800  0.33260100  0.68031600  1
  O  O117  1  0.03178700  0.08371800  0.43301800  1
  O  O118  1  0.17550300  0.08551700  0.31015900  1
  O  O119  1  0.87942600  0.06464100  0.54187500  1
  O  O120  1  0.54102800  0.93133600  0.41910300  1
  O  O121  1  0.36188100  0.17316600  0.48626100  1
  O  O122  1  0.33158100  0.22314200  0.77315100  1
  O  O123  1  0.03530800  0.93709800  0.05973600  1
  O  O124  1  0.78793100  0.04168400  0.69041700  1
  O  O125  1  0.78730100  0.86017700  0.17315400  1
  O  O126  1  0.90604600  0.06538300  0.82240700  1
  O  O127  1  0.11260600  0.04127800  0.54868600  1
  O  O128  1  0.67491100  0.83234200  0.29807500  1
  O  O129  1  0.79200600  0.85842800  0.44875400  1
  O  O130  1  0.31224000  0.06474300  0.66877300  1
  O  O131  1  0.16195100  0.04190300  0.78210200  1
  O  O132  1  0.05029100  0.83427300  0.19057000  1
  O  O133  1  0.66078800  0.67233900  0.19272900  1
  O  O134  1  0.20740100  0.85781300  0.30942700  1
  O  O135  1  0.02465000  0.83204000  0.42904500  1
  O  O136  1  0.32364100  0.93137200  0.48571200  1
  O  O137  1  0.57587300  0.72326400  0.52904500  1
  O  O138  1  0.89447200  0.79575200  0.54350700  1
  O  O139  1  0.76820100  0.79694000  0.67817800  1
  O  O140  1  0.43633000  0.56567600  0.29238500  1
  O  O141  1  0.62464500  0.53865800  0.03178500  1
  O  O142  1  0.79019900  0.67335700  0.40886800  1
  O  O143  1  0.03212000  0.79705300  0.67495600  1
  O  O144  1  0.05590500  0.67373800  0.23810400  1
  O  O145  1  0.91114000  0.56296200  0.07270900  1
  O  O146  1  0.50494500  0.54182500  0.43980600  1
  O  O147  1  0.14158600  0.72328400  0.52303800  1
  O  O148  1  0.86759100  0.72331800  0.80870600  1
  O  O149  1  0.65897200  0.58411600  0.55951900  1
  O  O150  1  0.31448200  0.36046800  0.19973500  1
  O  O151  1  0.40663900  0.33433100  0.04683900  1
  O  O152  1  0.64636300  0.43719300  0.17104300  1
  O  O153  1  0.91510900  0.58425600  0.54958400  1
  O  O154  1  0.80173400  0.58356100  0.68291700  1
  O  O155  1  0.00185500  0.56544500  0.41848900  1
  O  O156  1  0.65174900  0.43524800  0.31094400  1
  O  O157  1  0.85886600  0.43574800  0.23683500  1
  O  O158  1  0.17922400  0.54203700  0.29890500  1
  O  O159  1  0.90280400  0.35780600  0.05887300  1
  O  O160  1  0.53388800  0.33308200  0.43909300  1
  O  O161  1  0.61010200  0.22397300  0.05824400  1
  O  O162  1  0.39929000  0.22370800  0.28135000  1
  O  O163  1  0.63805800  0.26921300  0.21265500  1
  O  O164  1  0.82001300  0.35896700  0.42193900  1
  O  O165  1  0.05659000  0.33285400  0.17970900  1
  O  O166  1  0.37846700  0.06338300  0.03973000  1
  O  O167  1  0.83178500  0.22327200  0.27343600  1
  O  O168  1  0.28408200  0.03870800  0.19120000  1
  O  O169  1  0.40482300  0.06410200  0.32195700  1
  O  O170  1  0.61327500  0.04192900  0.04838900  1
  O  O171  1  0.81281200  0.06548800  0.16853700  1
  O  O172  1  0.66273900  0.04163200  0.28198000  1
  O  O173  1  0.07899100  0.72368300  0.02784500  1
  O  O174  1  0.39537000  0.79721400  0.04447100  1
  O  O175  1  0.26655900  0.79460400  0.17896600  1
  O  O176  1  0.53097100  0.79456700  0.17495500  1
  O  O177  1  0.63940000  0.72355800  0.02163800  1
  O  O178  1  0.36741100  0.72311900  0.30943100  1
  O  O179  1  0.16004900  0.58511400  0.05990600  1
  O  O180  1  0.41537600  0.58485500  0.04995700  1
  O  O181  1  0.30156400  0.58364700  0.18302100  1
