# generated using pymatgen
data_Ta2PbO6
_symmetry_space_group_name_H-M   'P 1'
_cell_length_a   5.74436500
_cell_length_b   7.73606400
_cell_length_c   11.19548200
_cell_angle_alpha   90.00000000
_cell_angle_beta   90.00000000
_cell_angle_gamma   90.00000000
_symmetry_Int_Tables_number   1
_chemical_formula_structural   Ta2PbO6
_chemical_formula_sum   'Ta8 Pb4 O24'
_cell_volume   497.51350874
_cell_formula_units_Z   4
loop_
 _symmetry_equiv_pos_site_id
 _symmetry_equiv_pos_as_xyz
  1  'x, y, z'
loop_
 _atom_site_type_symbol
 _atom_site_label
 _atom_site_symmetry_multiplicity
 _atom_site_fract_x
 _atom_site_fract_y
 _atom_site_fract_z
 _atom_site_occupancy
  Ta  Ta0  1  0.03837300  0.50314300  0.14251700  1
  Ta  Ta1  1  0.03837300  0.99685700  0.14251700  1
  Ta  Ta2  1  0.53837300  0.00314300  0.35748300  1
  Ta  Ta3  1  0.53837300  0.49685700  0.35748300  1
  Ta  Ta4  1  0.46162700  0.50314300  0.64251700  1
  Ta  Ta5  1  0.46162700  0.99685700  0.64251700  1
  Ta  Ta6  1  0.96162700  0.00314300  0.85748300  1
  Ta  Ta7  1  0.96162700  0.49685700  0.85748300  1
  Pb  Pb8  1  0.53998100  0.25000000  0.03812300  1
  Pb  Pb9  1  0.03998100  0.75000000  0.46187700  1
  Pb  Pb10  1  0.96001900  0.25000000  0.53812300  1
  Pb  Pb11  1  0.46001900  0.75000000  0.96187700  1
  O  O12  1  0.78581400  0.53439800  0.02320500  1
  O  O13  1  0.78581400  0.96560200  0.02320500  1
  O  O14  1  0.13488200  0.75000000  0.13075200  1
  O  O15  1  0.97372200  0.25000000  0.14643400  1
  O  O16  1  0.35385700  0.04585700  0.21673200  1
  O  O17  1  0.35385700  0.45414300  0.21673200  1
  O  O18  1  0.85385700  0.95414300  0.28326800  1
  O  O19  1  0.85385700  0.54585700  0.28326800  1
  O  O20  1  0.47372200  0.75000000  0.35356600  1
  O  O21  1  0.63488200  0.25000000  0.36924800  1
  O  O22  1  0.28581400  0.03439800  0.47679500  1
  O  O23  1  0.28581400  0.46560200  0.47679500  1
  O  O24  1  0.71418600  0.53439800  0.52320500  1
  O  O25  1  0.71418600  0.96560200  0.52320500  1
  O  O26  1  0.36511800  0.75000000  0.63075200  1
  O  O27  1  0.52627800  0.25000000  0.64643400  1
  O  O28  1  0.14614300  0.04585700  0.71673200  1
  O  O29  1  0.14614300  0.45414300  0.71673200  1
  O  O30  1  0.64614300  0.54585700  0.78326800  1
  O  O31  1  0.64614300  0.95414300  0.78326800  1
  O  O32  1  0.02627800  0.75000000  0.85356600  1
  O  O33  1  0.86511800  0.25000000  0.86924800  1
  O  O34  1  0.21418600  0.03439800  0.97679500  1
  O  O35  1  0.21418600  0.46560200  0.97679500  1
