# generated using pymatgen
data_ZrTlCuS3
_symmetry_space_group_name_H-M   'P 1'
_cell_length_a   7.43763867
_cell_length_b   7.43763867
_cell_length_c   9.82592600
_cell_angle_alpha   90.00000000
_cell_angle_beta   90.00000000
_cell_angle_gamma   150.86797472
_symmetry_Int_Tables_number   1
_chemical_formula_structural   ZrTlCuS3
_chemical_formula_sum   'Zr2 Tl2 Cu2 S6'
_cell_volume   264.61554346
_cell_formula_units_Z   2
loop_
 _symmetry_equiv_pos_site_id
 _symmetry_equiv_pos_as_xyz
  1  'x, y, z'
loop_
 _atom_site_type_symbol
 _atom_site_label
 _atom_site_symmetry_multiplicity
 _atom_site_fract_x
 _atom_site_fract_y
 _atom_site_fract_z
 _atom_site_occupancy
  Zr  Zr0  1  0.00000000  0.00000000  0.50000000  1
  Zr  Zr1  1  0.00000000  0.00000000  0.00000000  1
  Tl  Tl2  1  0.74552600  0.25447400  0.25000000  1
  Tl  Tl3  1  0.25447400  0.74552600  0.75000000  1
  Cu  Cu4  1  0.53570200  0.46429800  0.75000000  1
  Cu  Cu5  1  0.46429800  0.53570200  0.25000000  1
  S  S6  1  0.62082800  0.37917200  0.55238300  1
  S  S7  1  0.37917200  0.62082800  0.44761700  1
  S  S8  1  0.37917200  0.62082800  0.05238300  1
  S  S9  1  0.93748700  0.06251300  0.75000000  1
  S  S10  1  0.06251300  0.93748700  0.25000000  1
  S  S11  1  0.62082800  0.37917200  0.94761700  1
