# generated using pymatgen
data_Gd2P4O13
_symmetry_space_group_name_H-M   'P 1'
_cell_length_a   9.58099350
_cell_length_b   9.58099350
_cell_length_c   8.70883200
_cell_angle_alpha   90.00000000
_cell_angle_beta   90.00000000
_cell_angle_gamma   136.22533548
_symmetry_Int_Tables_number   1
_chemical_formula_structural   Gd2P4O13
_chemical_formula_sum   'Gd4 P8 O26'
_cell_volume   553.06553833
_cell_formula_units_Z   2
loop_
 _symmetry_equiv_pos_site_id
 _symmetry_equiv_pos_as_xyz
  1  'x, y, z'
loop_
 _atom_site_type_symbol
 _atom_site_label
 _atom_site_symmetry_multiplicity
 _atom_site_fract_x
 _atom_site_fract_y
 _atom_site_fract_z
 _atom_site_occupancy
  Gd  Gd0  1  0.89398300  0.60026100  0.35408600  1
  Gd  Gd1  1  0.39973900  0.10601700  0.14591400  1
  Gd  Gd2  1  0.60026100  0.89398300  0.64591400  1
  Gd  Gd3  1  0.10601700  0.39973900  0.85408600  1
  P  P4  1  0.83870600  0.72186200  0.72796100  1
  P  P5  1  0.27813800  0.16129400  0.77203900  1
  P  P6  1  0.41484500  0.09634100  0.50366900  1
  P  P7  1  0.90365900  0.58515500  0.99633100  1
  P  P8  1  0.09634100  0.41484500  0.49633100  1
  P  P9  1  0.58515500  0.90365900  0.00366900  1
  P  P10  1  0.16129400  0.27813800  0.22796100  1
  P  P11  1  0.72186200  0.83870600  0.27203900  1
  O  O12  1  0.29984200  0.25607200  0.20649900  1
  O  O13  1  0.74392800  0.70015800  0.29350100  1
  O  O14  1  0.06203000  0.93797000  0.75000000  1
  O  O15  1  0.38019400  0.21030700  0.60787200  1
  O  O16  1  0.78969300  0.61980600  0.89212800  1
  O  O17  1  0.38527400  0.15769000  0.89482100  1
  O  O18  1  0.84231000  0.61472600  0.60517900  1
  O  O19  1  0.22485800  0.93439000  0.40365800  1
  O  O20  1  0.06561000  0.77514200  0.09634200  1
  O  O21  1  0.74021900  0.41948500  0.11046700  1
  O  O22  1  0.58051500  0.25978100  0.38953300  1
  O  O23  1  0.98221700  0.52942200  0.89086800  1
  O  O24  1  0.47057800  0.01778300  0.60913200  1
  O  O25  1  0.01778300  0.47057800  0.39086800  1
  O  O26  1  0.52942200  0.98221700  0.10913200  1
  O  O27  1  0.25978100  0.58051500  0.61046700  1
  O  O28  1  0.41948500  0.74021900  0.88953300  1
  O  O29  1  0.77514200  0.06561000  0.90365800  1
  O  O30  1  0.93439000  0.22485800  0.59634200  1
  O  O31  1  0.61472600  0.84231000  0.39482100  1
  O  O32  1  0.15769000  0.38527400  0.10517900  1
  O  O33  1  0.21030700  0.38019400  0.39212800  1
  O  O34  1  0.61980600  0.78969300  0.10787200  1
  O  O35  1  0.93797000  0.06203000  0.25000000  1
  O  O36  1  0.25607200  0.29984200  0.79350100  1
  O  O37  1  0.70015800  0.74392800  0.70649900  1
