# generated using pymatgen
data_KP
_symmetry_space_group_name_H-M   'P 1'
_cell_length_a   6.10428100
_cell_length_b   6.61684600
_cell_length_c   11.43207400
_cell_angle_alpha   90.00000000
_cell_angle_beta   90.00000000
_cell_angle_gamma   90.00000000
_symmetry_Int_Tables_number   1
_chemical_formula_structural   KP
_chemical_formula_sum   'K8 P8'
_cell_volume   461.75389916
_cell_formula_units_Z   8
loop_
 _symmetry_equiv_pos_site_id
 _symmetry_equiv_pos_as_xyz
  1  'x, y, z'
loop_
 _atom_site_type_symbol
 _atom_site_label
 _atom_site_symmetry_multiplicity
 _atom_site_fract_x
 _atom_site_fract_y
 _atom_site_fract_z
 _atom_site_occupancy
  K  K0  1  0.39679200  0.38349000  0.91692900  1
  K  K1  1  0.89679200  0.11651000  0.08307100  1
  K  K2  1  0.60320800  0.88349000  0.58307100  1
  K  K3  1  0.10320800  0.61651000  0.41692900  1
  K  K4  1  0.66488600  0.64523300  0.21609300  1
  K  K5  1  0.16488600  0.85476700  0.78390700  1
  K  K6  1  0.33511400  0.14523300  0.28390700  1
  K  K7  1  0.83511400  0.35476700  0.71609300  1
  P  P8  1  0.16551000  0.68894600  0.10063900  1
  P  P9  1  0.66551000  0.81105400  0.89936100  1
  P  P10  1  0.83449000  0.18894600  0.39936100  1
  P  P11  1  0.33449000  0.31105400  0.60063900  1
  P  P12  1  0.90600300  0.58220100  0.97060400  1
  P  P13  1  0.40600300  0.91779900  0.02939600  1
  P  P14  1  0.09399700  0.08220100  0.52939600  1
  P  P15  1  0.59399700  0.41779900  0.47060400  1
