# generated using pymatgen
data_BaSiO3
_symmetry_space_group_name_H-M   'P 1'
_cell_length_a   7.58036937
_cell_length_b   7.58036937
_cell_length_c   11.47821306
_cell_angle_alpha   71.25146189
_cell_angle_beta   71.25146189
_cell_angle_gamma   60.14189946
_symmetry_Int_Tables_number   1
_chemical_formula_structural   BaSiO3
_chemical_formula_sum   'Ba6 Si6 O18'
_cell_volume   531.09636467
_cell_formula_units_Z   6
loop_
 _symmetry_equiv_pos_site_id
 _symmetry_equiv_pos_as_xyz
  1  'x, y, z'
loop_
 _atom_site_type_symbol
 _atom_site_label
 _atom_site_symmetry_multiplicity
 _atom_site_fract_x
 _atom_site_fract_y
 _atom_site_fract_z
 _atom_site_occupancy
  Ba  Ba0  1  0.00000000  0.50000000  0.50000000  1
  Ba  Ba1  1  0.32562400  0.85005900  0.50095700  1
  Ba  Ba2  1  0.14994100  0.67437600  0.99904300  1
  Ba  Ba3  1  0.85005900  0.32562400  0.00095700  1
  Ba  Ba4  1  0.67437600  0.14994100  0.49904300  1
  Ba  Ba5  1  0.50000000  0.00000000  0.00000000  1
  Si  Si6  1  0.58175400  0.65573800  0.75355400  1
  Si  Si7  1  0.82071000  0.17929000  0.75000000  1
  Si  Si8  1  0.65573800  0.58175400  0.25355400  1
  Si  Si9  1  0.34426200  0.41824600  0.74644600  1
  Si  Si10  1  0.17929000  0.82071000  0.25000000  1
  Si  Si11  1  0.41824600  0.34426200  0.24644600  1
  O  O12  1  0.62618800  0.80301100  0.62178200  1
  O  O13  1  0.53743200  0.71211300  0.88722700  1
  O  O14  1  0.78552500  0.41715700  0.75168000  1
  O  O15  1  0.80301100  0.62618800  0.12178200  1
  O  O16  1  0.71211300  0.53743200  0.38722700  1
  O  O17  1  0.96822700  0.12082500  0.61764500  1
  O  O18  1  0.37936300  0.62063700  0.75000000  1
  O  O19  1  0.87917500  0.03177300  0.88235500  1
  O  O20  1  0.41715700  0.78552500  0.25168000  1
  O  O21  1  0.58284300  0.21447500  0.74832000  1
  O  O22  1  0.12082500  0.96822700  0.11764500  1
  O  O23  1  0.62063700  0.37936300  0.25000000  1
  O  O24  1  0.03177300  0.87917500  0.38235500  1
  O  O25  1  0.28788700  0.46256800  0.61277300  1
  O  O26  1  0.19698900  0.37381200  0.87821800  1
  O  O27  1  0.21447500  0.58284300  0.24832000  1
  O  O28  1  0.46256800  0.28788700  0.11277300  1
  O  O29  1  0.37381200  0.19698900  0.37821800  1
