# generated using pymatgen
data_Li2VCr(P2O7)2
_symmetry_space_group_name_H-M   'P 1'
_cell_length_a   8.22140500
_cell_length_b   7.15127700
_cell_length_c   9.74233807
_cell_angle_alpha   68.53644736
_cell_angle_beta   90.00000000
_cell_angle_gamma   90.00000000
_symmetry_Int_Tables_number   1
_chemical_formula_structural   Li2VCr(P2O7)2
_chemical_formula_sum   'Li4 V2 Cr2 P8 O28'
_cell_volume   533.06413530
_cell_formula_units_Z   2
loop_
 _symmetry_equiv_pos_site_id
 _symmetry_equiv_pos_as_xyz
  1  'x, y, z'
loop_
 _atom_site_type_symbol
 _atom_site_label
 _atom_site_symmetry_multiplicity
 _atom_site_fract_x
 _atom_site_fract_y
 _atom_site_fract_z
 _atom_site_occupancy
  Li  Li0  1  0.63699100  0.67649700  0.75028600  1
  Li  Li1  1  0.13720100  0.32333900  0.75003200  1
  Li  Li2  1  0.63720100  0.67666100  0.24996800  1
  Li  Li3  1  0.13699100  0.32350300  0.24971400  1
  V  V4  1  0.00036500  0.72930600  0.74349700  1
  V  V5  1  0.50036500  0.27069400  0.25650300  1
  Cr  Cr6  1  0.49991700  0.27216600  0.75675700  1
  Cr  Cr7  1  0.99991700  0.72783400  0.24324300  1
  P  P8  1  0.21721300  0.91422600  0.93720700  1
  P  P9  1  0.32025100  0.52154900  0.93871400  1
  P  P10  1  0.81941300  0.47711400  0.56089800  1
  P  P11  1  0.21508700  0.91396100  0.43590100  1
  P  P12  1  0.71508700  0.08603900  0.56409900  1
  P  P13  1  0.31941300  0.52288600  0.43910200  1
  P  P14  1  0.82025100  0.47845100  0.06128600  1
  P  P15  1  0.71721300  0.08577400  0.06279300  1
  O  O16  1  0.34843500  0.75290200  0.92057900  1
  O  O17  1  0.06670700  0.91957700  0.84213000  1
  O  O18  1  0.82176000  0.60583200  0.89572300  1
  O  O19  1  0.15576100  0.50477300  0.87104800  1
  O  O20  1  0.46321200  0.48133100  0.85234300  1
  O  O21  1  0.67680900  0.14548100  0.90041400  1
  O  O22  1  0.30746500  0.11536200  0.87638300  1
  O  O23  1  0.80255600  0.88444400  0.62277000  1
  O  O24  1  0.17643700  0.85100500  0.59939900  1
  O  O25  1  0.96146700  0.51750800  0.64825600  1
  O  O26  1  0.65377500  0.49011200  0.63025700  1
  O  O27  1  0.32021900  0.39345800  0.60366200  1
  O  O28  1  0.56506200  0.08428000  0.65804800  1
  O  O29  1  0.84831600  0.24609000  0.57932300  1
  O  O30  1  0.34831600  0.75391000  0.42067700  1
  O  O31  1  0.06506200  0.91572000  0.34195200  1
  O  O32  1  0.82021900  0.60654200  0.39633800  1
  O  O33  1  0.15377500  0.50988800  0.36974300  1
  O  O34  1  0.46146700  0.48249200  0.35174400  1
  O  O35  1  0.67643700  0.14899500  0.40060100  1
  O  O36  1  0.30255600  0.11555600  0.37723000  1
  O  O37  1  0.80746500  0.88463800  0.12361700  1
  O  O38  1  0.17680900  0.85451900  0.09958600  1
  O  O39  1  0.96321200  0.51866900  0.14765700  1
  O  O40  1  0.65576100  0.49522700  0.12895200  1
  O  O41  1  0.32176000  0.39416800  0.10427700  1
  O  O42  1  0.56670700  0.08042300  0.15787000  1
  O  O43  1  0.84843500  0.24709800  0.07942100  1
