# generated using pymatgen
data_RbCr5S8
_symmetry_space_group_name_H-M   'P 1'
_cell_length_a   9.20749983
_cell_length_b   9.20749983
_cell_length_c   8.78669581
_cell_angle_alpha   74.79326347
_cell_angle_beta   74.79326347
_cell_angle_gamma   21.97984433
_symmetry_Int_Tables_number   1
_chemical_formula_structural   RbCr5S8
_chemical_formula_sum   'Rb1 Cr5 S8'
_cell_volume   268.67116797
_cell_formula_units_Z   1
loop_
 _symmetry_equiv_pos_site_id
 _symmetry_equiv_pos_as_xyz
  1  'x, y, z'
loop_
 _atom_site_type_symbol
 _atom_site_label
 _atom_site_symmetry_multiplicity
 _atom_site_fract_x
 _atom_site_fract_y
 _atom_site_fract_z
 _atom_site_occupancy
  Rb  Rb0  1  0.50000000  0.50000000  0.50000000  1
  Cr  Cr1  1  0.29553400  0.29553400  0.33398300  1
  Cr  Cr2  1  0.70446600  0.70446600  0.66601700  1
  Cr  Cr3  1  0.34112200  0.34112200  0.97442100  1
  Cr  Cr4  1  0.65887800  0.65887800  0.02557900  1
  Cr  Cr5  1  0.00000000  0.00000000  0.00000000  1
  S  S6  1  0.23837300  0.23837300  0.84401800  1
  S  S7  1  0.76162700  0.76162700  0.15598200  1
  S  S8  1  0.17245400  0.17245400  0.51540100  1
  S  S9  1  0.82754600  0.82754600  0.48459900  1
  S  S10  1  0.08573000  0.08573000  0.16829600  1
  S  S11  1  0.91427000  0.91427000  0.83170400  1
  S  S12  1  0.42276600  0.42276600  0.14685900  1
  S  S13  1  0.57723400  0.57723400  0.85314100  1
