# generated using pymatgen
data_TiMnCr(PO4)3
_symmetry_space_group_name_H-M   'P 1'
_cell_length_a   8.64397316
_cell_length_b   8.64397316
_cell_length_c   8.64397291
_cell_angle_alpha   59.80551785
_cell_angle_beta   59.80551785
_cell_angle_gamma   59.80551078
_symmetry_Int_Tables_number   1
_chemical_formula_structural   TiMnCr(PO4)3
_chemical_formula_sum   'Ti2 Mn2 Cr2 P6 O24'
_cell_volume   454.67768929
_cell_formula_units_Z   2
loop_
 _symmetry_equiv_pos_site_id
 _symmetry_equiv_pos_as_xyz
  1  'x, y, z'
loop_
 _atom_site_type_symbol
 _atom_site_label
 _atom_site_symmetry_multiplicity
 _atom_site_fract_x
 _atom_site_fract_y
 _atom_site_fract_z
 _atom_site_occupancy
  Ti  Ti0  1  0.85510400  0.85510400  0.85510400  1
  Ti  Ti1  1  0.35510400  0.35510400  0.35510400  1
  Mn  Mn2  1  0.00120300  0.00120300  0.00120300  1
  Mn  Mn3  1  0.50120300  0.50120300  0.50120300  1
  Cr  Cr4  1  0.64294900  0.64294900  0.64294900  1
  Cr  Cr5  1  0.14294900  0.14294900  0.14294900  1
  P  P6  1  0.25036800  0.54009800  0.95733400  1
  P  P7  1  0.95733400  0.25036800  0.54009800  1
  P  P8  1  0.54009800  0.95733400  0.25036800  1
  P  P9  1  0.45733400  0.04009800  0.75036800  1
  P  P10  1  0.04009800  0.75036800  0.45733400  1
  P  P11  1  0.75036800  0.45733400  0.04009800  1
  O  O12  1  0.69361200  0.49385200  0.88283600  1
  O  O13  1  0.49385200  0.88283600  0.69361200  1
  O  O14  1  0.08520900  0.73565500  0.94330000  1
  O  O15  1  0.88283600  0.69361200  0.49385200  1
  O  O16  1  0.19361200  0.38283600  0.99385200  1
  O  O17  1  0.41494600  0.55875300  0.76468600  1
  O  O18  1  0.94330000  0.08520900  0.73565500  1
  O  O19  1  0.76468600  0.41494600  0.55875300  1
  O  O20  1  0.62254900  0.00059400  0.80695200  1
  O  O21  1  0.55875300  0.76468600  0.41494600  1
  O  O22  1  0.26468600  0.05875300  0.91494600  1
  O  O23  1  0.00059400  0.80695200  0.62254900  1
  O  O24  1  0.99385200  0.19361200  0.38283600  1
  O  O25  1  0.73565500  0.94330000  0.08520900  1
  O  O26  1  0.44330000  0.23565500  0.58520900  1
  O  O27  1  0.38283600  0.99385200  0.19361200  1
  O  O28  1  0.23565500  0.58520900  0.44330000  1
  O  O29  1  0.05875300  0.91494600  0.26468600  1
  O  O30  1  0.58520900  0.44330000  0.23565500  1
  O  O31  1  0.80695200  0.62254900  0.00059400  1
  O  O32  1  0.12254900  0.30695200  0.50059400  1
  O  O33  1  0.91494600  0.26468600  0.05875300  1
  O  O34  1  0.50059400  0.12254900  0.30695200  1
  O  O35  1  0.30695200  0.50059400  0.12254900  1
