# generated using pymatgen
data_Mo3P5Pb3O23
_symmetry_space_group_name_H-M   'P 1'
_cell_length_a   8.28060900
_cell_length_b   14.57787900
_cell_length_c   15.93083700
_cell_angle_alpha   90.00000000
_cell_angle_beta   90.00000000
_cell_angle_gamma   90.00000000
_symmetry_Int_Tables_number   1
_chemical_formula_structural   Mo3P5Pb3O23
_chemical_formula_sum   'Mo12 P20 Pb12 O92'
_cell_volume   1923.07053403
_cell_formula_units_Z   4
loop_
 _symmetry_equiv_pos_site_id
 _symmetry_equiv_pos_as_xyz
  1  'x, y, z'
loop_
 _atom_site_type_symbol
 _atom_site_label
 _atom_site_symmetry_multiplicity
 _atom_site_fract_x
 _atom_site_fract_y
 _atom_site_fract_z
 _atom_site_occupancy
  Mo  Mo0  1  0.94369800  0.65319600  0.75000000  1
  Mo  Mo1  1  0.44369800  0.84680400  0.25000000  1
  Mo  Mo2  1  0.50466400  0.15175600  0.41699200  1
  Mo  Mo3  1  0.99533600  0.65175600  0.08300800  1
  Mo  Mo4  1  0.50466400  0.15175600  0.08300800  1
  Mo  Mo5  1  0.05630200  0.34680400  0.25000000  1
  Mo  Mo6  1  0.55630200  0.15319600  0.75000000  1
  Mo  Mo7  1  0.49533600  0.84824400  0.58300800  1
  Mo  Mo8  1  0.99533600  0.65175600  0.41699200  1
  Mo  Mo9  1  0.00466400  0.34824400  0.58300800  1
  Mo  Mo10  1  0.00466400  0.34824400  0.91699200  1
  Mo  Mo11  1  0.49533600  0.84824400  0.91699200  1
  P  P12  1  0.71418900  0.64517200  0.92798200  1
  P  P13  1  0.82039900  0.43768800  0.40541600  1
  P  P14  1  0.17960100  0.56231200  0.59458400  1
  P  P15  1  0.28581100  0.35482800  0.07201800  1
  P  P16  1  0.21418900  0.85482800  0.07201800  1
  P  P17  1  0.78581100  0.14517200  0.92798200  1
  P  P18  1  0.67960100  0.93768800  0.40541600  1
  P  P19  1  0.79869700  0.43299400  0.75000000  1
  P  P20  1  0.78581100  0.14517200  0.57201800  1
  P  P21  1  0.17960100  0.56231200  0.90541600  1
  P  P22  1  0.67960100  0.93768800  0.09458400  1
  P  P23  1  0.71418900  0.64517200  0.57201800  1
  P  P24  1  0.29869700  0.06700600  0.25000000  1
  P  P25  1  0.70130300  0.93299400  0.75000000  1
  P  P26  1  0.28581100  0.35482800  0.42798200  1
  P  P27  1  0.21418900  0.85482800  0.42798200  1
  P  P28  1  0.32039900  0.06231200  0.90541600  1
  P  P29  1  0.20130300  0.56700600  0.25000000  1
  P  P30  1  0.32039900  0.06231200  0.59458400  1
  P  P31  1  0.82039900  0.43768800  0.09458400  1
  Pb  Pb32  1  0.95680300  0.90342200  0.91514600  1
  Pb  Pb33  1  0.54528300  0.39024700  0.25000000  1
  Pb  Pb34  1  0.45471700  0.60975300  0.75000000  1
  Pb  Pb35  1  0.95680300  0.90342200  0.58485400  1
  Pb  Pb36  1  0.04319700  0.09657800  0.41514600  1
  Pb  Pb37  1  0.04528300  0.10975300  0.75000000  1
  Pb  Pb38  1  0.54319700  0.40342200  0.91514600  1
  Pb  Pb39  1  0.95471700  0.89024700  0.25000000  1
  Pb  Pb40  1  0.54319700  0.40342200  0.58485400  1
  Pb  Pb41  1  0.04319700  0.09657800  0.08485400  1
  Pb  Pb42  1  0.45680300  0.59657800  0.08485400  1
  Pb  Pb43  1  0.45680300  0.59657800  0.41514600  1
  O  O44  1  0.91777000  0.21852400  0.94423300  1
  O  O45  1  0.24971300  0.35676900  0.16744700  1
  O  O46  1  0.55708600  0.01703700  0.08423600  1
  O  O47  1  0.31881500  0.12894900  0.16956800  1
  O  O48  1  0.37014900  0.82746000  0.02531200  1
  O  O49  1  0.57269300  0.00771000  0.75000000  1
  O  O50  1  0.79999800  0.38817300  0.00867400  1
  O  O51  1  0.46479900  0.72892300  0.25000000  1
  O  O52  1  0.35729200  0.44628400  0.04145300  1
  O  O53  1  0.84230200  0.97330600  0.36894100  1
  O  O54  1  0.08223000  0.78147600  0.44423300  1
  O  O55  1  0.87014900  0.67254000  0.52531200  1
  O  O56  1  0.74971300  0.14323100  0.66744700  1
  O  O57  1  0.07269300  0.49229000  0.25000000  1
  O  O58  1  0.65769800  0.47330600  0.36894100  1
  O  O59  1  0.38475900  0.13279300  0.84025700  1
  O  O60  1  0.11524100  0.63279300  0.65974300  1
  O  O61  1  0.58223000  0.71852400  0.55576700  1
  O  O62  1  0.18118500  0.62894900  0.33043200  1
  O  O63  1  0.85729200  0.05371600  0.95854700  1
  O  O64  1  0.12985100  0.32746000  0.02531200  1
  O  O65  1  0.35729200  0.44628400  0.45854700  1
  O  O66  1  0.87014900  0.67254000  0.97468800  1
  O  O67  1  0.87871000  0.96734400  0.75000000  1
  O  O68  1  0.20000200  0.61182700  0.50867400  1
  O  O69  1  0.29999800  0.11182700  0.50867400  1
  O  O70  1  0.29999800  0.11182700  0.99132600  1
  O  O71  1  0.31881500  0.12894900  0.33043200  1
  O  O72  1  0.20000200  0.61182700  0.99132600  1
  O  O73  1  0.65769800  0.47330600  0.13105900  1
  O  O74  1  0.79999800  0.38817300  0.49132600  1
  O  O75  1  0.70000200  0.88817300  0.00867400  1
  O  O76  1  0.58223000  0.71852400  0.94423300  1
  O  O77  1  0.14270800  0.94628400  0.45854700  1
  O  O78  1  0.38475900  0.13279300  0.65974300  1
  O  O79  1  0.74971300  0.14323100  0.83255300  1
  O  O80  1  0.70000200  0.88817300  0.49132600  1
  O  O81  1  0.14270800  0.94628400  0.04145300  1
  O  O82  1  0.25028700  0.85676900  0.33255300  1
  O  O83  1  0.88475900  0.36720700  0.15974300  1
  O  O84  1  0.85729200  0.05371600  0.54145300  1
  O  O85  1  0.11524100  0.63279300  0.84025700  1
  O  O86  1  0.03520100  0.22892300  0.25000000  1
  O  O87  1  0.61524100  0.86720700  0.34025700  1
  O  O88  1  0.44291400  0.98296300  0.58423600  1
  O  O89  1  0.64270800  0.55371600  0.54145300  1
  O  O90  1  0.37871000  0.53265600  0.25000000  1
  O  O91  1  0.05708600  0.48296300  0.58423600  1
  O  O92  1  0.08223000  0.78147600  0.05576700  1
  O  O93  1  0.68118500  0.87105100  0.83043200  1
  O  O94  1  0.34230200  0.52669400  0.63105900  1
  O  O95  1  0.62985100  0.17254000  0.52531200  1
  O  O96  1  0.41777000  0.28147600  0.05576700  1
  O  O97  1  0.75028700  0.64323100  0.83255300  1
  O  O98  1  0.62129000  0.46734400  0.75000000  1
  O  O99  1  0.42730700  0.99229000  0.25000000  1
  O  O100  1  0.64769100  0.18866100  0.15298100  1
  O  O101  1  0.14769100  0.31133900  0.84701900  1
  O  O102  1  0.15769800  0.02669400  0.63105900  1
  O  O103  1  0.18118500  0.62894900  0.16956800  1
  O  O104  1  0.53520100  0.27107700  0.75000000  1
  O  O105  1  0.81881500  0.37105100  0.83043200  1
  O  O106  1  0.92730700  0.50771000  0.75000000  1
  O  O107  1  0.64769100  0.18866100  0.34701900  1
  O  O108  1  0.24971300  0.35676900  0.33255300  1
  O  O109  1  0.81881500  0.37105100  0.66956800  1
  O  O110  1  0.88475900  0.36720700  0.34025700  1
  O  O111  1  0.25028700  0.85676900  0.16744700  1
  O  O112  1  0.61524100  0.86720700  0.15974300  1
  O  O113  1  0.37014900  0.82746000  0.47468800  1
  O  O114  1  0.96479900  0.77107700  0.75000000  1
  O  O115  1  0.15769800  0.02669400  0.86894100  1
  O  O116  1  0.35230900  0.81133900  0.65298100  1
  O  O117  1  0.14769100  0.31133900  0.65298100  1
  O  O118  1  0.12129000  0.03265600  0.25000000  1
  O  O119  1  0.94291400  0.51703700  0.41576400  1
  O  O120  1  0.75028700  0.64323100  0.66744700  1
  O  O121  1  0.85230900  0.68866100  0.34701900  1
  O  O122  1  0.62985100  0.17254000  0.97468800  1
  O  O123  1  0.34230200  0.52669400  0.86894100  1
  O  O124  1  0.94291400  0.51703700  0.08423600  1
  O  O125  1  0.41777000  0.28147600  0.44423300  1
  O  O126  1  0.68118500  0.87105100  0.66956800  1
  O  O127  1  0.12985100  0.32746000  0.47468800  1
  O  O128  1  0.84230200  0.97330600  0.13105900  1
  O  O129  1  0.05708600  0.48296300  0.91576400  1
  O  O130  1  0.35230900  0.81133900  0.84701900  1
  O  O131  1  0.85230900  0.68866100  0.15298100  1
  O  O132  1  0.64270800  0.55371600  0.95854700  1
  O  O133  1  0.44291400  0.98296300  0.91576400  1
  O  O134  1  0.55708600  0.01703700  0.41576400  1
  O  O135  1  0.91777000  0.21852400  0.55576700  1
