# generated using pymatgen
data_Na4SiO4
_symmetry_space_group_name_H-M   'P 1'
_cell_length_a   5.63726800
_cell_length_b   5.64373423
_cell_length_c   8.52366080
_cell_angle_alpha   81.05126300
_cell_angle_beta   71.76873488
_cell_angle_gamma   67.59975763
_symmetry_Int_Tables_number   1
_chemical_formula_structural   Na4SiO4
_chemical_formula_sum   'Na8 Si2 O8'
_cell_volume   237.93044421
_cell_formula_units_Z   2
loop_
 _symmetry_equiv_pos_site_id
 _symmetry_equiv_pos_as_xyz
  1  'x, y, z'
loop_
 _atom_site_type_symbol
 _atom_site_label
 _atom_site_symmetry_multiplicity
 _atom_site_fract_x
 _atom_site_fract_y
 _atom_site_fract_z
 _atom_site_occupancy
  Na  Na0  1  0.98092400  0.23378000  0.06324200  1
  Na  Na1  1  0.45195900  0.73642100  0.10788700  1
  Na  Na2  1  0.89888100  0.76521100  0.32957100  1
  Na  Na3  1  0.26404200  0.74342800  0.51705400  1
  Na  Na4  1  0.73595800  0.25657200  0.48294600  1
  Na  Na5  1  0.54804100  0.26357900  0.89211300  1
  Na  Na6  1  0.01907600  0.76622000  0.93675800  1
  Na  Na7  1  0.10111900  0.23478900  0.67042900  1
  Si  Si8  1  0.34330000  0.22457800  0.25302000  1
  Si  Si9  1  0.65670000  0.77542200  0.74698000  1
  O  O10  1  0.35043900  0.95645700  0.85160200  1
  O  O11  1  0.79074800  0.53696300  0.87236400  1
  O  O12  1  0.20925200  0.46303700  0.12763600  1
  O  O13  1  0.84575400  0.95740500  0.69384000  1
  O  O14  1  0.15424600  0.04259500  0.30616000  1
  O  O15  1  0.65182300  0.64855800  0.58644000  1
  O  O16  1  0.64956100  0.04354300  0.14839800  1
  O  O17  1  0.34817700  0.35144200  0.41356000  1
