# generated using pymatgen
data_Ba2Sc2O5
_symmetry_space_group_name_H-M   'P 1'
_cell_length_a   4.07803600
_cell_length_b   6.00058400
_cell_length_c   11.81679500
_cell_angle_alpha   90.00000000
_cell_angle_beta   90.00000000
_cell_angle_gamma   90.00000000
_symmetry_Int_Tables_number   1
_chemical_formula_structural   Ba2Sc2O5
_chemical_formula_sum   'Ba4 Sc4 O10'
_cell_volume   289.16403505
_cell_formula_units_Z   2
loop_
 _symmetry_equiv_pos_site_id
 _symmetry_equiv_pos_as_xyz
  1  'x, y, z'
loop_
 _atom_site_type_symbol
 _atom_site_label
 _atom_site_symmetry_multiplicity
 _atom_site_fract_x
 _atom_site_fract_y
 _atom_site_fract_z
 _atom_site_occupancy
  Ba  Ba0  1  0.50000000  0.22723400  0.87374100  1
  Ba  Ba1  1  0.50000000  0.27276600  0.37374100  1
  Ba  Ba2  1  0.50000000  0.72723400  0.62625900  1
  Ba  Ba3  1  0.50000000  0.77276600  0.12625900  1
  Sc  Sc4  1  0.00000000  0.25784100  0.63328500  1
  Sc  Sc5  1  0.00000000  0.24215900  0.13328500  1
  Sc  Sc6  1  0.00000000  0.75784100  0.86671500  1
  Sc  Sc7  1  0.00000000  0.74215900  0.36671500  1
  O  O8  1  0.00000000  0.00000000  0.00000000  1
  O  O9  1  0.00000000  0.03538400  0.26251600  1
  O  O10  1  0.50000000  0.19460400  0.60159100  1
  O  O11  1  0.50000000  0.30539600  0.10159100  1
  O  O12  1  0.00000000  0.46461600  0.76251600  1
  O  O13  1  0.00000000  0.50000000  0.50000000  1
  O  O14  1  0.00000000  0.53538400  0.23748400  1
  O  O15  1  0.50000000  0.69460400  0.89840900  1
  O  O16  1  0.50000000  0.80539600  0.39840900  1
  O  O17  1  0.00000000  0.96461600  0.73748400  1
