# generated using pymatgen
data_Nd2Zr3(MoO4)9
_symmetry_space_group_name_H-M   'P 1'
_cell_length_a   20.68522442
_cell_length_b   20.68522442
_cell_length_c   20.68522475
_cell_angle_alpha   27.93523593
_cell_angle_beta   27.93523593
_cell_angle_gamma   27.93523344
_symmetry_Int_Tables_number   1
_chemical_formula_structural   Nd2Zr3(MoO4)9
_chemical_formula_sum   'Nd4 Zr6 Mo18 O72'
_cell_volume   1715.50047582
_cell_formula_units_Z   2
loop_
 _symmetry_equiv_pos_site_id
 _symmetry_equiv_pos_as_xyz
  1  'x, y, z'
loop_
 _atom_site_type_symbol
 _atom_site_label
 _atom_site_symmetry_multiplicity
 _atom_site_fract_x
 _atom_site_fract_y
 _atom_site_fract_z
 _atom_site_occupancy
  Nd  Nd0  1  0.30411500  0.30411500  0.30411500  1
  Nd  Nd1  1  0.19588500  0.19588500  0.19588500  1
  Nd  Nd2  1  0.69588500  0.69588500  0.69588500  1
  Nd  Nd3  1  0.80411500  0.80411500  0.80411500  1
  Zr  Zr4  1  0.40471400  0.40471400  0.40471400  1
  Zr  Zr5  1  0.09528600  0.09528600  0.09528600  1
  Zr  Zr6  1  0.59528600  0.59528600  0.59528600  1
  Zr  Zr7  1  0.00000000  0.00000000  0.00000000  1
  Zr  Zr8  1  0.50000000  0.50000000  0.50000000  1
  Zr  Zr9  1  0.90471400  0.90471400  0.90471400  1
  Mo  Mo10  1  0.62067000  0.80031000  0.15373500  1
  Mo  Mo11  1  0.65373500  0.30031000  0.12067000  1
  Mo  Mo12  1  0.87933000  0.34626500  0.69969000  1
  Mo  Mo13  1  0.25000000  0.97098800  0.52901200  1
  Mo  Mo14  1  0.97098800  0.52901200  0.25000000  1
  Mo  Mo15  1  0.19969000  0.84626500  0.37933000  1
  Mo  Mo16  1  0.02901200  0.47098800  0.75000000  1
  Mo  Mo17  1  0.12067000  0.65373500  0.30031000  1
  Mo  Mo18  1  0.84626500  0.37933000  0.19969000  1
  Mo  Mo19  1  0.15373500  0.62067000  0.80031000  1
  Mo  Mo20  1  0.52901200  0.25000000  0.97098800  1
  Mo  Mo21  1  0.47098800  0.75000000  0.02901200  1
  Mo  Mo22  1  0.75000000  0.02901200  0.47098800  1
  Mo  Mo23  1  0.30031000  0.12067000  0.65373500  1
  Mo  Mo24  1  0.34626500  0.69969000  0.87933000  1
  Mo  Mo25  1  0.37933000  0.19969000  0.84626500  1
  Mo  Mo26  1  0.80031000  0.15373500  0.62067000  1
  Mo  Mo27  1  0.69969000  0.87933000  0.34626500  1
  O  O28  1  0.84229300  0.00438800  0.65828500  1
  O  O29  1  0.31445000  0.25873600  0.57492600  1
  O  O30  1  0.15828500  0.50438800  0.34229300  1
  O  O31  1  0.42507400  0.68555000  0.74126400  1
  O  O32  1  0.07070500  0.27561600  0.56404000  1
  O  O33  1  0.81551600  0.10228500  0.13992500  1
  O  O34  1  0.56520500  0.69614400  0.91826700  1
  O  O35  1  0.25873600  0.57492600  0.31445000  1
  O  O36  1  0.43479500  0.30385600  0.08173300  1
  O  O37  1  0.10228500  0.13992500  0.81551600  1
  O  O38  1  0.03819500  0.27646800  0.91910300  1
  O  O39  1  0.75873600  0.81445000  0.07492600  1
  O  O40  1  0.07492600  0.75873600  0.81445000  1
  O  O41  1  0.41826700  0.19614400  0.06520500  1
  O  O42  1  0.72353200  0.08089700  0.96180500  1
  O  O43  1  0.24126400  0.18555000  0.92507400  1
  O  O44  1  0.91910300  0.03819500  0.27646800  1
  O  O45  1  0.58173300  0.80385600  0.93479500  1
  O  O46  1  0.63992500  0.60228500  0.31551600  1
  O  O47  1  0.13992500  0.81551600  0.10228500  1
  O  O48  1  0.74126400  0.42507400  0.68555000  1
  O  O49  1  0.22353200  0.46180500  0.58089700  1
  O  O50  1  0.81445000  0.07492600  0.75873600  1
  O  O51  1  0.41910300  0.77646800  0.53819500  1
  O  O52  1  0.60228500  0.31551600  0.63992500  1
  O  O53  1  0.06404000  0.77561600  0.57070500  1
  O  O54  1  0.08089700  0.96180500  0.72353200  1
  O  O55  1  0.30385600  0.08173300  0.43479500  1
  O  O56  1  0.34171500  0.15770700  0.99561200  1
  O  O57  1  0.58089700  0.22353200  0.46180500  1
  O  O58  1  0.89771500  0.86007500  0.18448400  1
  O  O59  1  0.86007500  0.18448400  0.89771500  1
  O  O60  1  0.18448400  0.89771500  0.86007500  1
  O  O61  1  0.18555000  0.92507400  0.24126400  1
  O  O62  1  0.27646800  0.91910300  0.03819500  1
  O  O63  1  0.08173300  0.43479500  0.30385600  1
  O  O64  1  0.99561200  0.34171500  0.15770700  1
  O  O65  1  0.46180500  0.58089700  0.22353200  1
  O  O66  1  0.27561600  0.56404000  0.07070500  1
  O  O67  1  0.00438800  0.65828500  0.84229300  1
  O  O68  1  0.93479500  0.58173300  0.80385600  1
  O  O69  1  0.15770700  0.99561200  0.34171500  1
  O  O70  1  0.65828500  0.84229300  0.00438800  1
  O  O71  1  0.91826700  0.56520500  0.69614400  1
  O  O72  1  0.68555000  0.74126400  0.42507400  1
  O  O73  1  0.19614400  0.06520500  0.41826700  1
  O  O74  1  0.68448400  0.36007500  0.39771500  1
  O  O75  1  0.22438400  0.42929500  0.93596000  1
  O  O76  1  0.56404000  0.07070500  0.27561600  1
  O  O77  1  0.06520500  0.41826700  0.19614400  1
  O  O78  1  0.92929500  0.72438400  0.43596000  1
  O  O79  1  0.36007500  0.39771500  0.68448400  1
  O  O80  1  0.57070500  0.06404000  0.77561600  1
  O  O81  1  0.69614400  0.91826700  0.56520500  1
  O  O82  1  0.96180500  0.72353200  0.08089700  1
  O  O83  1  0.31551600  0.63992500  0.60228500  1
  O  O84  1  0.42929500  0.93596000  0.22438400  1
  O  O85  1  0.80385600  0.93479500  0.58173300  1
  O  O86  1  0.53819500  0.41910300  0.77646800  1
  O  O87  1  0.72438400  0.43596000  0.92929500  1
  O  O88  1  0.92507400  0.24126400  0.18555000  1
  O  O89  1  0.34229300  0.15828500  0.50438800  1
  O  O90  1  0.43596000  0.92929500  0.72438400  1
  O  O91  1  0.65770700  0.84171500  0.49561200  1
  O  O92  1  0.77561600  0.57070500  0.06404000  1
  O  O93  1  0.57492600  0.31445000  0.25873600  1
  O  O94  1  0.93596000  0.22438400  0.42929500  1
  O  O95  1  0.84171500  0.49561200  0.65770700  1
  O  O96  1  0.39771500  0.68448400  0.36007500  1
  O  O97  1  0.77646800  0.53819500  0.41910300  1
  O  O98  1  0.50438800  0.34229300  0.15828500  1
  O  O99  1  0.49561200  0.65770700  0.84171500  1
