# generated using pymatgen
data_Sr2CrCO3F5
_symmetry_space_group_name_H-M   'P 1'
_cell_length_a   8.97886500
_cell_length_b   5.59325500
_cell_length_c   13.85508264
_cell_angle_alpha   74.51555067
_cell_angle_beta   90.00000000
_cell_angle_gamma   90.00000000
_symmetry_Int_Tables_number   1
_chemical_formula_structural   Sr2CrCO3F5
_chemical_formula_sum   'Sr8 Cr4 C4 O12 F20'
_cell_volume   670.56112161
_cell_formula_units_Z   4
loop_
 _symmetry_equiv_pos_site_id
 _symmetry_equiv_pos_as_xyz
  1  'x, y, z'
loop_
 _atom_site_type_symbol
 _atom_site_label
 _atom_site_symmetry_multiplicity
 _atom_site_fract_x
 _atom_site_fract_y
 _atom_site_fract_z
 _atom_site_occupancy
  Sr  Sr0  1  0.89183900  0.69146600  0.09721300  1
  Sr  Sr1  1  0.35810100  0.69349000  0.08785900  1
  Sr  Sr2  1  0.85810100  0.30651000  0.41214100  1
  Sr  Sr3  1  0.39183900  0.30853400  0.40278700  1
  Sr  Sr4  1  0.60816100  0.69146600  0.59721300  1
  Sr  Sr5  1  0.14189900  0.69349000  0.58785900  1
  Sr  Sr6  1  0.64189900  0.30651000  0.91214100  1
  Sr  Sr7  1  0.10816100  0.30853400  0.90278700  1
  Cr  Cr8  1  0.87176400  0.19678900  0.66977000  1
  Cr  Cr9  1  0.37176400  0.80321100  0.83023000  1
  Cr  Cr10  1  0.62823600  0.19678900  0.16977000  1
  Cr  Cr11  1  0.12823600  0.80321100  0.33023000  1
  C  C12  1  0.37559900  0.17860900  0.63702400  1
  C  C13  1  0.87559900  0.82139100  0.86297600  1
  C  C14  1  0.12440100  0.17860900  0.13702400  1
  C  C15  1  0.62440100  0.82139100  0.36297600  1
  O  O16  1  0.37917800  0.41057600  0.58515400  1
  O  O17  1  0.37073000  0.13206800  0.73374100  1
  O  O18  1  0.87703900  0.99446300  0.90931000  1
  O  O19  1  0.12082200  0.41057600  0.08515400  1
  O  O20  1  0.37703900  0.00553700  0.59069000  1
  O  O21  1  0.87073000  0.86793200  0.76625900  1
  O  O22  1  0.12927000  0.13206800  0.23374100  1
  O  O23  1  0.62296100  0.99446300  0.40931000  1
  O  O24  1  0.87917800  0.58942400  0.91484600  1
  O  O25  1  0.12296100  0.00553700  0.09069000  1
  O  O26  1  0.62927000  0.86793200  0.26625900  1
  O  O27  1  0.62082200  0.58942400  0.41484600  1
  F  F28  1  0.96442300  0.66900600  0.27114200  1
  F  F29  1  0.28091900  0.66431000  0.26294300  1
  F  F30  1  0.12916000  0.47715200  0.43341500  1
  F  F31  1  0.62916000  0.52284800  0.06658500  1
  F  F32  1  0.51243000  0.91807300  0.91500600  1
  F  F33  1  0.71720400  0.10393700  0.58664800  1
  F  F34  1  0.78091900  0.33569000  0.23705700  1
  F  F35  1  0.46442300  0.33099400  0.22885800  1
  F  F36  1  0.21720400  0.89606300  0.91335200  1
  F  F37  1  0.01243000  0.08192700  0.58499400  1
  F  F38  1  0.98757000  0.91807300  0.41500600  1
  F  F39  1  0.78279600  0.10393700  0.08664800  1
  F  F40  1  0.53557700  0.66900600  0.77114200  1
  F  F41  1  0.21908100  0.66431000  0.76294300  1
  F  F42  1  0.28279600  0.89606300  0.41335200  1
  F  F43  1  0.48757000  0.08192700  0.08499400  1
  F  F44  1  0.37084000  0.47715200  0.93341500  1
  F  F45  1  0.87084000  0.52284800  0.56658500  1
  F  F46  1  0.71908100  0.33569000  0.73705700  1
  F  F47  1  0.03557700  0.33099400  0.72885800  1
