# generated using pymatgen
data_Cs4GeO4
_symmetry_space_group_name_H-M   'P 1'
_cell_length_a   7.24124600
_cell_length_b   11.54442600
_cell_length_c   11.71162778
_cell_angle_alpha   68.15325012
_cell_angle_beta   90.00000000
_cell_angle_gamma   90.00000000
_symmetry_Int_Tables_number   1
_chemical_formula_structural   Cs4GeO4
_chemical_formula_sum   'Cs16 Ge4 O16'
_cell_volume   908.73296953
_cell_formula_units_Z   4
loop_
 _symmetry_equiv_pos_site_id
 _symmetry_equiv_pos_as_xyz
  1  'x, y, z'
loop_
 _atom_site_type_symbol
 _atom_site_label
 _atom_site_symmetry_multiplicity
 _atom_site_fract_x
 _atom_site_fract_y
 _atom_site_fract_z
 _atom_site_occupancy
  Cs  Cs0  1  0.58974000  0.29709300  0.06370600  1
  Cs  Cs1  1  0.11640500  0.41696000  0.15398000  1
  Cs  Cs2  1  0.91026000  0.79709300  0.06370600  1
  Cs  Cs3  1  0.33775400  0.10753100  0.36872000  1
  Cs  Cs4  1  0.38359500  0.91696000  0.15398000  1
  Cs  Cs5  1  0.82787800  0.20775200  0.42331200  1
  Cs  Cs6  1  0.16224600  0.60753100  0.36872000  1
  Cs  Cs7  1  0.32787800  0.29224800  0.57668800  1
  Cs  Cs8  1  0.67212200  0.70775200  0.42331200  1
  Cs  Cs9  1  0.83775400  0.39246900  0.63128000  1
  Cs  Cs10  1  0.17212200  0.79224800  0.57668800  1
  Cs  Cs11  1  0.61640500  0.08304000  0.84602000  1
  Cs  Cs12  1  0.66224600  0.89246900  0.63128000  1
  Cs  Cs13  1  0.08974000  0.20290700  0.93629400  1
  Cs  Cs14  1  0.88359500  0.58304000  0.84602000  1
  Cs  Cs15  1  0.41026000  0.70290700  0.93629400  1
  Ge  Ge16  1  0.87434600  0.00862900  0.24208100  1
  Ge  Ge17  1  0.62565400  0.50862900  0.24208100  1
  Ge  Ge18  1  0.37434600  0.49137100  0.75791900  1
  Ge  Ge19  1  0.12565400  0.99137100  0.75791900  1
  O  O20  1  0.77184800  0.02359000  0.09617400  1
  O  O21  1  0.00440400  0.15000700  0.21784200  1
  O  O22  1  0.72815200  0.52359000  0.09617400  1
  O  O23  1  0.47894900  0.37179400  0.30062400  1
  O  O24  1  0.49559600  0.65000700  0.21784200  1
  O  O25  1  0.80912100  0.49164500  0.35282300  1
  O  O26  1  0.02105100  0.87179400  0.30062400  1
  O  O27  1  0.30912100  0.00835500  0.64717700  1
  O  O28  1  0.69087900  0.99164500  0.35282300  1
  O  O29  1  0.97894900  0.12820600  0.69937600  1
  O  O30  1  0.19087900  0.50835500  0.64717700  1
  O  O31  1  0.50440400  0.34999300  0.78215800  1
  O  O32  1  0.52105100  0.62820600  0.69937600  1
  O  O33  1  0.27184800  0.47641000  0.90382600  1
  O  O34  1  0.99559600  0.84999300  0.78215800  1
  O  O35  1  0.22815200  0.97641000  0.90382600  1
