# generated using pymatgen
data_Rb6Co2O7
_symmetry_space_group_name_H-M   'P 1'
_cell_length_a   9.54205400
_cell_length_b   6.91467500
_cell_length_c   11.70852291
_cell_angle_alpha   55.70041852
_cell_angle_beta   90.00000000
_cell_angle_gamma   90.00000000
_symmetry_Int_Tables_number   1
_chemical_formula_structural   Rb6Co2O7
_chemical_formula_sum   'Rb12 Co4 O14'
_cell_volume   638.18948140
_cell_formula_units_Z   2
loop_
 _symmetry_equiv_pos_site_id
 _symmetry_equiv_pos_as_xyz
  1  'x, y, z'
loop_
 _atom_site_type_symbol
 _atom_site_label
 _atom_site_symmetry_multiplicity
 _atom_site_fract_x
 _atom_site_fract_y
 _atom_site_fract_z
 _atom_site_occupancy
  Rb  Rb0  1  0.79092100  0.59050100  0.28396000  1
  Rb  Rb1  1  0.64650700  0.95258900  0.91911200  1
  Rb  Rb2  1  0.52952400  0.20016000  0.55193200  1
  Rb  Rb3  1  0.02952400  0.79984000  0.94806800  1
  Rb  Rb4  1  0.29092100  0.40949900  0.21604000  1
  Rb  Rb5  1  0.14650700  0.04741100  0.58088800  1
  Rb  Rb6  1  0.85349300  0.95258900  0.41911200  1
  Rb  Rb7  1  0.70907900  0.59050100  0.78396000  1
  Rb  Rb8  1  0.97047600  0.20016000  0.05193200  1
  Rb  Rb9  1  0.47047600  0.79984000  0.44806800  1
  Rb  Rb10  1  0.35349300  0.04741100  0.08088800  1
  Rb  Rb11  1  0.20907900  0.40949900  0.71604000  1
  Co  Co12  1  0.86068900  0.32075700  0.62983300  1
  Co  Co13  1  0.36068900  0.67924300  0.87016700  1
  Co  Co14  1  0.63931100  0.32075700  0.12983300  1
  Co  Co15  1  0.13931100  0.67924300  0.37016700  1
  O  O16  1  0.00000000  0.50000000  0.50000000  1
  O  O17  1  0.09036700  0.74804800  0.20237700  1
  O  O18  1  0.29381000  0.49705900  0.42921600  1
  O  O19  1  0.33305500  0.94361000  0.86440800  1
  O  O20  1  0.83305500  0.05639000  0.63559200  1
  O  O21  1  0.79381000  0.50294100  0.07078400  1
  O  O22  1  0.59036700  0.25195200  0.29762300  1
  O  O23  1  0.50000000  0.50000000  0.00000000  1
  O  O24  1  0.40963300  0.74804800  0.70237700  1
  O  O25  1  0.20619000  0.49705900  0.92921600  1
  O  O26  1  0.16694500  0.94361000  0.36440800  1
  O  O27  1  0.66694500  0.05639000  0.13559200  1
  O  O28  1  0.70619000  0.50294100  0.57078400  1
  O  O29  1  0.90963300  0.25195200  0.79762300  1
