# generated using pymatgen
data_NaCa9TaTi9(SiO5)10
_symmetry_space_group_name_H-M   'P 1'
_cell_length_a   5.50915800
_cell_length_b   7.51564520
_cell_length_c   24.42952346
_cell_angle_alpha   98.04068908
_cell_angle_beta   88.05964485
_cell_angle_gamma   107.51118246
_symmetry_Int_Tables_number   1
_chemical_formula_structural   NaCa9TaTi9(SiO5)10
_chemical_formula_sum   'Na1 Ca9 Ta1 Ti9 Si10 O50'
_cell_volume   955.10713385
_cell_formula_units_Z   1
loop_
 _symmetry_equiv_pos_site_id
 _symmetry_equiv_pos_as_xyz
  1  'x, y, z'
loop_
 _atom_site_type_symbol
 _atom_site_label
 _atom_site_symmetry_multiplicity
 _atom_site_fract_x
 _atom_site_fract_y
 _atom_site_fract_z
 _atom_site_occupancy
  Na  Na0  1  0.21684400  0.39399500  0.81502200  1
  Ca  Ca1  1  0.81246600  0.98443700  0.61423000  1
  Ca  Ca2  1  0.40965400  0.58122900  0.41559000  1
  Ca  Ca3  1  0.38723900  0.21542900  0.98492500  1
  Ca  Ca4  1  0.01043600  0.18165600  0.21572900  1
  Ca  Ca5  1  0.97803600  0.80233400  0.78772300  1
  Ca  Ca6  1  0.61023400  0.78155500  0.01594700  1
  Ca  Ca7  1  0.59041600  0.41929100  0.58380000  1
  Ca  Ca8  1  0.19006200  0.01857500  0.38397400  1
  Ca  Ca9  1  0.79066800  0.61890400  0.18411400  1
  Ta  Ta10  1  0.60222300  0.10593700  0.80069500  1
  Ti  Ti11  1  0.29633800  0.79152300  0.90083100  1
  Ti  Ti12  1  0.20289500  0.70373500  0.59873700  1
  Ti  Ti13  1  0.90896600  0.40628300  0.69843000  1
  Ti  Ti14  1  0.80177300  0.30118700  0.39950400  1
  Ti  Ti15  1  0.50058700  0.00138200  0.49890200  1
  Ti  Ti16  1  0.40032800  0.90002000  0.20012200  1
  Ti  Ti17  1  0.09991900  0.60031400  0.29968100  1
  Ti  Ti18  1  0.99764400  0.49609200  0.00066400  1
  Ti  Ti19  1  0.69893700  0.19905200  0.10049900  1
  Si  Si20  1  0.89346500  0.07335300  0.91578200  1
  Si  Si21  1  0.49812900  0.67789300  0.71251400  1
  Si  Si22  1  0.70316200  0.52676200  0.88771400  1
  Si  Si23  1  0.09767500  0.27842800  0.51338600  1
  Si  Si24  1  0.30591600  0.12308700  0.68467200  1
  Si  Si25  1  0.69674200  0.87745400  0.31383200  1
  Si  Si26  1  0.90322300  0.72272500  0.48545500  1
  Si  Si27  1  0.29616500  0.47684300  0.11435300  1
  Si  Si28  1  0.50287900  0.32215600  0.28615400  1
  Si  Si29  1  0.10208400  0.92114300  0.08654700  1
  O  O30  1  0.52680300  0.65078500  0.87020100  1
  O  O31  1  0.24471600  0.67441900  0.96441000  1
  O  O32  1  0.12635300  0.24748600  0.66815500  1
  O  O33  1  0.03750700  0.29020000  0.94447000  1
  O  O34  1  0.87539700  0.06360300  0.84758300  1
  O  O35  1  0.98867900  0.61112700  0.86203200  1
  O  O36  1  0.85215300  0.28069200  0.76290800  1
  O  O37  1  0.72191500  0.84482100  0.46787200  1
  O  O38  1  0.64876800  0.89140000  0.74381300  1
  O  O39  1  0.60461800  0.99349700  0.94101400  1
  O  O40  1  0.49371200  0.68143600  0.64502800  1
  O  O41  1  0.70974100  0.52337300  0.95510600  1
  O  O42  1  0.59446800  0.20545400  0.65970500  1
  O  O43  1  0.56528000  0.30886500  0.85850100  1
  O  O44  1  0.44801800  0.87742800  0.56268600  1
  O  O45  1  0.32131400  0.44432000  0.26868800  1
  O  O46  1  0.34434700  0.92154600  0.83704100  1
  O  O47  1  0.24483200  0.49426900  0.54226400  1
  O  O48  1  0.20689000  0.60362300  0.73629400  1
  O  O49  1  0.08867700  0.27596400  0.44558400  1
  O  O50  1  0.31688100  0.11703100  0.75214600  1
  O  O51  1  0.19137700  0.80598200  0.46003600  1
  O  O52  1  0.15720100  0.90884400  0.65472200  1
  O  O53  1  0.04634500  0.47750500  0.36373300  1
  O  O54  1  0.92134600  0.04431600  0.06922100  1
  O  O55  1  0.07704100  0.95408900  0.93335600  1
  O  O56  1  0.95548200  0.52185300  0.63463600  1
  O  O57  1  0.84298300  0.09337700  0.34295400  1
  O  O58  1  0.80908900  0.19508000  0.53865700  1
  O  O59  1  0.68815600  0.87556300  0.24607000  1
  O  O60  1  0.91261000  0.72481700  0.55318400  1
  O  O61  1  0.79110000  0.40534300  0.26074900  1
  O  O62  1  0.75688300  0.50648800  0.45658400  1
  O  O63  1  0.64606600  0.07702900  0.16426300  1
  O  O64  1  0.67679500  0.55355600  0.72949200  1
  O  O65  1  0.55311600  0.12278900  0.43585600  1
  O  O66  1  0.44234100  0.69303000  0.14337800  1
  O  O67  1  0.40844800  0.79429400  0.33921700  1
  O  O68  1  0.28660500  0.47437000  0.04660500  1
  O  O69  1  0.51167500  0.32409600  0.35391800  1
  O  O70  1  0.39071400  0.00463900  0.06137300  1
  O  O71  1  0.35640500  0.10618000  0.25709600  1
  O  O72  1  0.27794900  0.15547100  0.53107300  1
  O  O73  1  0.15302200  0.72210500  0.23637600  1
  O  O74  1  0.00793000  0.39382400  0.13982100  1
  O  O75  1  0.11108000  0.92343100  0.15438700  1
  O  O76  1  0.95581000  0.70558400  0.05747300  1
  O  O77  1  0.87812200  0.75527600  0.33140600  1
  O  O78  1  0.75075600  0.32212100  0.03721200  1
  O  O79  1  0.47737400  0.35483700  0.13211800  1
