# generated using pymatgen
data_Sr20Fe9Co(MoO6)10
_symmetry_space_group_name_H-M   'P 1'
_cell_length_a   5.64195397
_cell_length_b   56.31137429
_cell_length_c   11.33611485
_cell_angle_alpha   119.92377545
_cell_angle_beta   119.78062686
_cell_angle_gamma   90.05235885
_symmetry_Int_Tables_number   1
_chemical_formula_structural   Sr20Fe9Co(MoO6)10
_chemical_formula_sum   'Sr40 Fe18 Co2 Mo20 O120'
_cell_volume   2556.86484069
_cell_formula_units_Z   2
loop_
 _symmetry_equiv_pos_site_id
 _symmetry_equiv_pos_as_xyz
  1  'x, y, z'
loop_
 _atom_site_type_symbol
 _atom_site_label
 _atom_site_symmetry_multiplicity
 _atom_site_fract_x
 _atom_site_fract_y
 _atom_site_fract_z
 _atom_site_occupancy
  Sr  Sr0  1  0.25073241  0.07507347  0.75038757  1
  Sr  Sr1  1  0.25076815  0.27500857  0.75071585  1
  Sr  Sr2  1  0.24976694  0.17483535  0.74940507  1
  Sr  Sr3  1  0.24993667  0.37501929  0.74946873  1
  Sr  Sr4  1  0.25156986  0.47510870  0.75049329  1
  Sr  Sr5  1  0.25194289  0.57479981  0.75115468  1
  Sr  Sr6  1  0.24945522  0.67463384  0.74887915  1
  Sr  Sr7  1  0.25705166  0.77544076  0.75631391  1
  Sr  Sr8  1  0.25684086  0.87604015  0.75644895  1
  Sr  Sr9  1  0.25055456  0.97501666  0.75035068  1
  Sr  Sr10  1  0.25035711  0.07480587  0.24883995  1
  Sr  Sr11  1  0.25078735  0.17474540  0.25055949  1
  Sr  Sr12  1  0.25071890  0.27496079  0.24924065  1
  Sr  Sr13  1  0.25071911  0.37497141  0.24875015  1
  Sr  Sr14  1  0.25045386  0.47497087  0.25028561  1
  Sr  Sr15  1  0.25020659  0.57510217  0.24921502  1
  Sr  Sr16  1  0.24456724  0.67356041  0.24543763  1
  Sr  Sr17  1  0.24481861  0.77439620  0.24352155  1
  Sr  Sr18  1  0.24685269  0.87558547  0.24736729  1
  Sr  Sr19  1  0.24874029  0.97477810  0.24805026  1
  Sr  Sr20  1  0.74979341  0.02489783  0.75078498  1
  Sr  Sr21  1  0.74954614  0.12502913  0.74971439  1
  Sr  Sr22  1  0.74928089  0.22502859  0.75124985  1
  Sr  Sr23  1  0.74928110  0.32503921  0.75075935  1
  Sr  Sr24  1  0.74921265  0.42525460  0.74944051  1
  Sr  Sr25  1  0.74964289  0.52519413  0.75116005  1
  Sr  Sr26  1  0.75125971  0.62522190  0.75194974  1
  Sr  Sr27  1  0.75314731  0.72441453  0.75263271  1
  Sr  Sr28  1  0.75518139  0.82560380  0.75647845  1
  Sr  Sr29  1  0.75543276  0.92643959  0.75456237  1
  Sr  Sr30  1  0.74805711  0.02520019  0.24884532  1
  Sr  Sr31  1  0.74843014  0.12489130  0.24950671  1
  Sr  Sr32  1  0.75006333  0.22498071  0.25053127  1
  Sr  Sr33  1  0.74923185  0.32499143  0.24928415  1
  Sr  Sr34  1  0.75023306  0.42516465  0.25059493  1
  Sr  Sr35  1  0.74926759  0.52492653  0.24961243  1
  Sr  Sr36  1  0.74944544  0.62498334  0.24964932  1
  Sr  Sr37  1  0.74315914  0.72395985  0.24355105  1
  Sr  Sr38  1  0.74294834  0.82455924  0.24368609  1
  Sr  Sr39  1  0.75054478  0.92536616  0.25112085  1
  Fe  Fe40  1  0.00053937  0.00020268  0.50264805  1
  Fe  Fe41  1  0.00186942  0.10007805  0.50113020  1
  Fe  Fe42  1  0.99954409  0.20010823  0.49873868  1
  Fe  Fe43  1  0.00000000  0.30000000  0.50000000  1
  Fe  Fe44  1  0.00045591  0.39989177  0.50126132  1
  Fe  Fe45  1  0.99813058  0.49992195  0.49886980  1
  Fe  Fe46  1  -0.00053937  0.59979732  0.49735195  1
  Fe  Fe47  1  0.00000000  0.80000000  0.50000000  1
  Fe  Fe48  1  0.00423914  0.99990960  0.00138514  1
  Fe  Fe49  1  0.99892029  0.09967100  0.99947446  1
  Fe  Fe50  1  0.99854696  0.20012502  0.99989810  1
  Fe  Fe51  1  0.00000000  0.30000000  0.00000000  1
  Fe  Fe52  1  0.00145304  0.39987498  0.00010190  1
  Fe  Fe53  1  0.99576086  0.60009040  -0.00138514  1
  Fe  Fe54  1  0.00000000  0.80000000  0.00000000  1
  Fe  Fe55  1  0.00526200  0.90077499  0.00518697  1
  Fe  Fe56  1  0.00107971  0.50032900  0.00052554  1
  Fe  Fe57  1  0.99473800  0.69922501  0.99481303  1
  Co  Co58  1  -0.00127444  0.69947675  0.49862256  1
  Co  Co59  1  0.00127444  0.90052325  0.50137744  1
  Mo  Mo60  1  0.50004971  0.04989029  0.49980164  1
  Mo  Mo61  1  0.49886683  0.14987111  0.49885529  1
  Mo  Mo62  1  0.49987981  0.25000781  0.49986330  1
  Mo  Mo63  1  0.50012019  0.34999219  0.50013670  1
  Mo  Mo64  1  0.50113317  0.45012889  0.50114471  1
  Mo  Mo65  1  0.49995029  0.55010971  0.50019836  1
  Mo  Mo66  1  0.49861668  0.64990599  0.49864543  1
  Mo  Mo67  1  0.49964480  0.74943150  0.49875851  1
  Mo  Mo68  1  0.50138332  0.95009401  0.50135457  1
  Mo  Mo69  1  0.50035520  0.85056850  0.50124149  1
  Mo  Mo70  1  0.50076932  0.04999473  0.00007129  1
  Mo  Mo71  1  0.50002397  0.14998235  -0.00012211  1
  Mo  Mo72  1  0.49919150  0.24988746  0.99952785  1
  Mo  Mo73  1  0.50080850  0.35011254  0.00047215  1
  Mo  Mo74  1  0.49997603  0.45001765  0.00012211  1
  Mo  Mo75  1  0.49923068  0.55000527  -0.00007129  1
  Mo  Mo76  1  0.49892468  0.64977298  -0.00055888  1
  Mo  Mo77  1  0.49854067  0.74950835  0.99818325  1
  Mo  Mo78  1  0.50107532  0.95022702  0.00055888  1
  Mo  Mo79  1  0.50145933  0.85049165  0.00181675  1
  O  O80  1  0.24774988  0.12487937  0.74918575  1
  O  O81  1  0.25005197  0.02530365  0.75048063  1
  O  O82  1  0.24893279  0.22550727  0.75309336  1
  O  O83  1  0.24973747  0.32544650  0.75322775  1
  O  O84  1  0.24909889  0.42498588  0.74931894  1
  O  O85  1  0.24744354  0.52527604  0.75009452  1
  O  O86  1  0.25578496  0.62607487  0.75778690  1
  O  O87  1  0.26016872  0.72648866  0.76132443  1
  O  O88  1  0.25376864  0.82512460  0.75337133  1
  O  O89  1  0.25894801  0.92569398  0.75958731  1
  O  O90  1  0.21422516  0.07148821  0.49999528  1
  O  O91  1  0.21306552  0.17142954  0.50090526  1
  O  O92  1  0.21360537  0.27134969  0.49945389  1
  O  O93  1  0.21361658  0.37138097  0.49804050  1
  O  O94  1  0.21408693  0.47171079  0.50091795  1
  O  O95  1  0.21461296  0.57174717  0.50139104  1
  O  O96  1  0.21798931  0.67068700  0.50076701  1
  O  O97  1  0.22135002  0.77114669  0.50100759  1
  O  O98  1  0.22428621  0.87026532  0.49953398  1
  O  O99  1  0.21549274  0.97157113  0.49937221  1
  O  O100  1  0.28953249  0.02232431  0.49957574  1
  O  O101  1  0.29138096  0.12234675  0.50002326  1
  O  O102  1  0.29367299  0.22232452  0.50412562  1
  O  O103  1  0.29138039  0.32232718  0.50321621  1
  O  O104  1  0.29042060  0.42259085  0.50016320  1
  O  O105  1  0.29317165  0.52279173  0.50244043  1
  O  O106  1  0.28890370  0.62221159  0.50206720  1
  O  O107  1  0.29547299  0.72266858  0.50066368  1
  O  O108  1  0.29068653  0.82188373  0.49988519  1
  O  O109  1  0.28789656  0.92246790  0.49948330  1
  O  O110  1  0.24896190  0.02512747  0.25026920  1
  O  O111  1  0.24830185  0.12497313  0.24862742  1
  O  O112  1  0.25484426  0.22543695  0.25350240  1
  O  O113  1  0.25316304  0.32527434  0.25279713  1
  O  O114  1  0.24849033  0.42507298  0.24956602  1
  O  O115  1  0.25079300  0.52514018  0.25044252  1
  O  O116  1  0.25094933  0.62483940  0.24940733  1
  O  O117  1  0.25830458  0.72612771  0.25934124  1
  O  O118  1  0.25752300  0.82557687  0.25783071  1
  O  O119  1  0.24896960  0.92478665  0.24985613  1
  O  O120  1  0.74920700  0.07485982  0.74955748  1
  O  O121  1  0.75150967  0.17492702  0.75043398  1
  O  O122  1  0.74683696  0.27472566  0.74720287  1
  O  O123  1  0.74515574  0.37456305  0.74649760  1
  O  O124  1  0.75169815  0.47502687  0.75137258  1
  O  O125  1  0.75103810  0.57487253  0.74973080  1
  O  O126  1  0.75103040  0.67521335  0.75014387  1
  O  O127  1  0.74247700  0.77442313  0.74216929  1
  O  O128  1  0.74169542  0.87387229  0.74065876  1
  O  O129  1  0.74905067  0.97516060  0.75059267  1
  O  O130  1  0.70682835  0.07720827  0.49755957  1
  O  O131  1  0.70957940  0.17740915  0.49983680  1
  O  O132  1  0.70861961  0.27767282  0.49678379  1
  O  O133  1  0.70632701  0.37767548  0.49587438  1
  O  O134  1  0.70861904  0.47765325  0.49997674  1
  O  O135  1  0.71046751  0.57767569  0.50042426  1
  O  O136  1  0.71210344  0.67753210  0.50051670  1
  O  O137  1  0.70452701  0.87733142  0.49933632  1
  O  O138  1  0.70931347  0.77811627  0.50011481  1
  O  O139  1  0.71109630  0.97778841  0.49793280  1
  O  O140  1  0.22138375  0.07061799  0.99800743  1
  O  O141  1  0.22515559  0.17080850  0.00135309  1
  O  O142  1  0.21829614  0.27084684  0.99825203  1
  O  O143  1  0.21777338  0.37082172  0.99766777  1
  O  O144  1  0.22497509  0.47064211  0.00098763  1
  O  O145  1  0.22124510  0.57050593  0.99852889  1
  O  O146  1  0.21666554  0.67174999  0.00384339  1
  O  O147  1  0.21311072  0.77161042  0.00059548  1
  O  O148  1  0.20863767  0.87072324  0.99574077  1
  O  O149  1  0.21621518  0.97126508  0.00102685  1
  O  O150  1  0.78538704  0.02825283  0.49860896  1
  O  O151  1  0.78591307  0.12828921  0.49908205  1
  O  O152  1  0.78638342  0.22861903  0.50195950  1
  O  O153  1  0.78639463  0.32865031  0.50054611  1
  O  O154  1  0.78577484  0.52851179  0.50000472  1
  O  O155  1  0.78693448  0.42857046  0.49909474  1
  O  O156  1  0.78450726  0.62842887  0.50062779  1
  O  O157  1  0.77571379  0.72973468  0.50046602  1
  O  O158  1  0.77864998  0.82885331  0.49899241  1
  O  O159  1  0.78201069  0.92931300  0.49923299  1
  O  O160  1  0.28387192  0.02163888  -0.00032261  1
  O  O161  1  0.28206681  0.12156736  -0.00002543  1
  O  O162  1  0.28615648  0.22151739  0.00178721  1
  O  O163  1  0.28444505  0.32170476  0.00137412  1
  O  O164  1  0.28107905  0.42153292  -0.00049076  1
  O  O165  1  0.28502161  0.52132943  0.00038376  1
  O  O166  1  0.28638749  0.62125720  0.99974619  1
  O  O167  1  0.29080378  0.72177854  0.00432659  1
  O  O168  1  0.28358841  0.82108148  -0.00088438  1
  O  O169  1  0.28548855  0.92105968  0.99875177  1
  O  O170  1  0.75255646  0.07472396  0.24990548  1
  O  O171  1  0.75090111  0.17501412  0.25068106  1
  O  O172  1  0.75026253  0.27455350  0.24677225  1
  O  O173  1  0.75106721  0.37449273  0.24690664  1
  O  O174  1  0.75225012  0.47512063  0.25081425  1
  O  O175  1  0.74994803  0.57469635  0.24951937  1
  O  O176  1  0.74105199  0.67430602  0.24041269  1
  O  O177  1  0.73983128  0.87351134  0.23867557  1
  O  O178  1  0.74623136  0.77487540  0.24662867  1
  O  O179  1  0.74421504  0.97392513  0.24221310  1
  O  O180  1  0.71497839  0.07867057  0.99961624  1
  O  O181  1  0.71555495  0.27829524  0.99862588  1
  O  O182  1  0.71892095  0.17846708  0.00049076  1
  O  O183  1  0.71384352  0.37848261  0.99821279  1
  O  O184  1  0.71793319  0.47843264  0.00002543  1
  O  O185  1  0.71612808  0.57836112  0.00032261  1
  O  O186  1  0.71641159  0.77891852  0.00088438  1
  O  O187  1  0.71451145  0.67894032  0.00124823  1
  O  O188  1  0.70919622  0.87822146  0.99567341  1
  O  O189  1  0.71361251  0.97874280  0.00025381  1
  O  O190  1  0.77875490  0.02949407  0.00147111  1
  O  O191  1  0.77502491  0.12935789  0.99901237  1
  O  O192  1  0.78222662  0.22917828  0.00233223  1
  O  O193  1  0.78170386  0.32915316  0.00174797  1
  O  O194  1  0.77484441  0.42919150  0.99864691  1
  O  O195  1  0.77861625  0.52938201  0.00199257  1
  O  O196  1  0.78378482  0.62873492  0.99897315  1
  O  O197  1  0.79136233  0.72927676  0.00425923  1
  O  O198  1  0.78688928  0.82838958  -0.00059548  1
  O  O199  1  0.78333446  0.92825001  0.99615661  1
