# generated using pymatgen
data_ZrFeP3PbO12
_symmetry_space_group_name_H-M   'P 1'
_cell_length_a   9.35135724
_cell_length_b   9.35135724
_cell_length_c   9.35135669
_cell_angle_alpha   56.01506746
_cell_angle_beta   56.01506746
_cell_angle_gamma   56.01506844
_symmetry_Int_Tables_number   1
_chemical_formula_structural   ZrFeP3PbO12
_chemical_formula_sum   'Zr2 Fe2 P6 Pb2 O24'
_cell_volume   524.86194747
_cell_formula_units_Z   2
loop_
 _symmetry_equiv_pos_site_id
 _symmetry_equiv_pos_as_xyz
  1  'x, y, z'
loop_
 _atom_site_type_symbol
 _atom_site_label
 _atom_site_symmetry_multiplicity
 _atom_site_fract_x
 _atom_site_fract_y
 _atom_site_fract_z
 _atom_site_occupancy
  Zr  Zr0  1  0.85392600  0.85392600  0.85392600  1
  Zr  Zr1  1  0.35392600  0.35392600  0.35392600  1
  Fe  Fe2  1  0.65345700  0.65345700  0.65345700  1
  Fe  Fe3  1  0.15345700  0.15345700  0.15345700  1
  P  P4  1  0.95607200  0.26341400  0.52587900  1
  P  P5  1  0.52587900  0.95607200  0.26341400  1
  P  P6  1  0.26341400  0.52587900  0.95607200  1
  P  P7  1  0.76341400  0.45607200  0.02587900  1
  P  P8  1  0.45607200  0.02587900  0.76341400  1
  P  P9  1  0.02587900  0.76341400  0.45607200  1
  Pb  Pb10  1  0.01252500  0.01252500  0.01252500  1
  Pb  Pb11  1  0.51252500  0.51252500  0.51252500  1
  O  O12  1  0.85905400  0.74388500  0.48378900  1
  O  O13  1  0.74388500  0.48378900  0.85905400  1
  O  O14  1  0.48378900  0.85905400  0.74388500  1
  O  O15  1  0.92170400  0.09322200  0.70435900  1
  O  O16  1  0.78175200  0.44032900  0.54919500  1
  O  O17  1  0.98378900  0.24388500  0.35905400  1
  O  O18  1  0.70435900  0.92170400  0.09322200  1
  O  O19  1  0.54919500  0.78175200  0.44032900  1
  O  O20  1  0.44032900  0.54919500  0.78175200  1
  O  O21  1  0.78214000  0.62135400  0.00394500  1
  O  O22  1  0.94032900  0.28175200  0.04919500  1
  O  O23  1  0.62135400  0.00394500  0.78214000  1
  O  O24  1  0.35905400  0.98378900  0.24388500  1
  O  O25  1  0.09322200  0.70435900  0.92170400  1
  O  O26  1  0.24388500  0.35905400  0.98378900  1
  O  O27  1  0.59322200  0.42170400  0.20435900  1
  O  O28  1  0.42170400  0.20435900  0.59322200  1
  O  O29  1  0.28175200  0.04919500  0.94032900  1
  O  O30  1  0.00394500  0.78214000  0.62135400  1
  O  O31  1  0.20435900  0.59322200  0.42170400  1
  O  O32  1  0.04919500  0.94032900  0.28175200  1
  O  O33  1  0.50394500  0.12135400  0.28214000  1
  O  O34  1  0.28214000  0.50394500  0.12135400  1
  O  O35  1  0.12135400  0.28214000  0.50394500  1
