# generated using pymatgen
data_K4LiH3(SO4)4
_symmetry_space_group_name_H-M   'P 1'
_cell_length_a   7.50842200
_cell_length_b   7.50842200
_cell_length_c   29.06765500
_cell_angle_alpha   90.00000000
_cell_angle_beta   90.00000000
_cell_angle_gamma   90.00000000
_symmetry_Int_Tables_number   1
_chemical_formula_structural   K4LiH3(SO4)4
_chemical_formula_sum   'K16 Li4 H12 S16 O64'
_cell_volume   1638.72977238
_cell_formula_units_Z   4
loop_
 _symmetry_equiv_pos_site_id
 _symmetry_equiv_pos_as_xyz
  1  'x, y, z'
loop_
 _atom_site_type_symbol
 _atom_site_label
 _atom_site_symmetry_multiplicity
 _atom_site_fract_x
 _atom_site_fract_y
 _atom_site_fract_z
 _atom_site_occupancy
  K  K0  1  0.01413500  0.49038700  0.77395200  1
  K  K1  1  0.98586500  0.50961300  0.27395200  1
  K  K2  1  0.49038700  0.98586500  0.52395200  1
  K  K3  1  0.50961300  0.01413500  0.02395200  1
  K  K4  1  0.40014900  0.37428000  0.64781600  1
  K  K5  1  0.59985100  0.62572000  0.14781600  1
  K  K6  1  0.37428000  0.59985100  0.39781600  1
  K  K7  1  0.62572000  0.40014900  0.89781600  1
  K  K8  1  0.92020300  0.90313600  0.88407600  1
  K  K9  1  0.07979700  0.09686400  0.38407600  1
  K  K10  1  0.90313600  0.07979700  0.63407600  1
  K  K11  1  0.09686400  0.92020300  0.13407600  1
  K  K12  1  0.50661300  0.78712500  0.78356900  1
  K  K13  1  0.49338700  0.21287500  0.28356900  1
  K  K14  1  0.78712500  0.49338700  0.53356900  1
  K  K15  1  0.21287500  0.50661300  0.03356900  1
  Li  Li16  1  0.26432000  0.14847700  0.83457300  1
  Li  Li17  1  0.73568000  0.85152300  0.33457300  1
  Li  Li18  1  0.14847700  0.73568000  0.58457300  1
  Li  Li19  1  0.85152300  0.26432000  0.08457300  1
  H  H20  1  0.70463900  0.69417600  0.69115300  1
  H  H21  1  0.29536100  0.30582400  0.19115300  1
  H  H22  1  0.69417600  0.29536100  0.44115300  1
  H  H23  1  0.30582400  0.70463900  0.94115300  1
  H  H24  1  0.21541000  0.94213900  0.70643700  1
  H  H25  1  0.78459000  0.05786100  0.20643700  1
  H  H26  1  0.94213900  0.78459000  0.45643700  1
  H  H27  1  0.05786100  0.21541000  0.95643700  1
  H  H28  1  0.72228200  0.18483700  0.72994800  1
  H  H29  1  0.27771800  0.81516300  0.22994800  1
  H  H30  1  0.18483700  0.27771800  0.47994800  1
  H  H31  1  0.81516300  0.72228200  0.97994800  1
  S  S32  1  0.89501300  0.54383500  0.64987900  1
  S  S33  1  0.10498700  0.45616500  0.14987900  1
  S  S34  1  0.54383500  0.10498700  0.39987900  1
  S  S35  1  0.45616500  0.89501300  0.89987900  1
  S  S36  1  0.42866100  0.89009800  0.65118800  1
  S  S37  1  0.57133900  0.10990200  0.15118800  1
  S  S38  1  0.89009800  0.57133900  0.40118800  1
  S  S39  1  0.10990200  0.42866100  0.90118800  1
  S  S40  1  0.99051000  0.98068800  0.76691200  1
  S  S41  1  0.00949000  0.01931200  0.26691200  1
  S  S42  1  0.98068800  0.00949000  0.51691200  1
  S  S43  1  0.01931200  0.99051000  0.01691200  1
  S  S44  1  0.52397000  0.32525700  0.77192500  1
  S  S45  1  0.47603000  0.67474300  0.27192500  1
  S  S46  1  0.32525700  0.47603000  0.52192500  1
  S  S47  1  0.67474300  0.52397000  0.02192500  1
  O  O48  1  0.81704900  0.62031500  0.69664000  1
  O  O49  1  0.18295100  0.37968500  0.19664000  1
  O  O50  1  0.62031500  0.18295100  0.44664000  1
  O  O51  1  0.37968500  0.81704900  0.94664000  1
  O  O52  1  0.75735900  0.43119900  0.62873300  1
  O  O53  1  0.24264100  0.56880100  0.12873300  1
  O  O54  1  0.43119900  0.24264100  0.37873300  1
  O  O55  1  0.56880100  0.75735900  0.87873300  1
  O  O56  1  0.05133700  0.44321500  0.66422600  1
  O  O57  1  0.94866300  0.55678500  0.16422600  1
  O  O58  1  0.44321500  0.94866300  0.41422600  1
  O  O59  1  0.55678500  0.05133700  0.91422600  1
  O  O60  1  0.93549600  0.69972400  0.62076600  1
  O  O61  1  0.06450400  0.30027600  0.12076600  1
  O  O62  1  0.69972400  0.06450400  0.37076600  1
  O  O63  1  0.30027600  0.93549600  0.87076600  1
  O  O64  1  0.26478300  0.98943500  0.67189900  1
  O  O65  1  0.73521700  0.01056500  0.17189900  1
  O  O66  1  0.98943500  0.73521700  0.42189900  1
  O  O67  1  0.01056500  0.26478300  0.92189900  1
  O  O68  1  0.36395900  0.74834400  0.62020400  1
  O  O69  1  0.63604100  0.25165600  0.12020400  1
  O  O70  1  0.74834400  0.63604100  0.37020400  1
  O  O71  1  0.25165600  0.36395900  0.87020400  1
  O  O72  1  0.52816600  0.81236500  0.69034800  1
  O  O73  1  0.47183400  0.18763500  0.19034800  1
  O  O74  1  0.81236500  0.47183400  0.44034800  1
  O  O75  1  0.18763500  0.52816600  0.94034800  1
  O  O76  1  0.53016700  0.02521700  0.62575800  1
  O  O77  1  0.46983300  0.97478300  0.12575800  1
  O  O78  1  0.02521700  0.46983300  0.37575800  1
  O  O79  1  0.97478300  0.53016700  0.87575800  1
  O  O80  1  0.04562300  0.11474700  0.80182100  1
  O  O81  1  0.95437700  0.88525300  0.30182100  1
  O  O82  1  0.11474700  0.95437700  0.55182100  1
  O  O83  1  0.88525300  0.04562300  0.05182100  1
  O  O84  1  0.87905400  0.84317200  0.78878800  1
  O  O85  1  0.12094600  0.15682800  0.28878800  1
  O  O86  1  0.84317200  0.12094600  0.53878800  1
  O  O87  1  0.15682800  0.87905400  0.03878800  1
  O  O88  1  0.89721400  0.07241400  0.72823600  1
  O  O89  1  0.10278600  0.92758600  0.22823600  1
  O  O90  1  0.07241400  0.10278600  0.47823600  1
  O  O91  1  0.92758600  0.89721400  0.97823600  1
  O  O92  1  0.15496100  0.88980800  0.74713500  1
  O  O93  1  0.84503900  0.11019200  0.24713500  1
  O  O94  1  0.88980800  0.84503900  0.49713500  1
  O  O95  1  0.11019200  0.15496100  0.99713500  1
  O  O96  1  0.65754500  0.43420500  0.79589900  1
  O  O97  1  0.34245500  0.56579500  0.29589900  1
  O  O98  1  0.43420500  0.34245500  0.54589900  1
  O  O99  1  0.56579500  0.65754500  0.04589900  1
  O  O100  1  0.60856300  0.25886300  0.72491900  1
  O  O101  1  0.39143700  0.74113700  0.22491900  1
  O  O102  1  0.25886300  0.39143700  0.47491900  1
  O  O103  1  0.74113700  0.60856300  0.97491900  1
  O  O104  1  0.47851000  0.16386700  0.79831000  1
  O  O105  1  0.52149000  0.83613300  0.29831000  1
  O  O106  1  0.16386700  0.52149000  0.54831000  1
  O  O107  1  0.83613300  0.47851000  0.04831000  1
  O  O108  1  0.36885200  0.42837200  0.75719200  1
  O  O109  1  0.63114800  0.57162800  0.25719200  1
  O  O110  1  0.42837200  0.63114800  0.50719200  1
  O  O111  1  0.57162800  0.36885200  0.00719200  1
