# generated using pymatgen
data_RbGdS2
_symmetry_space_group_name_H-M   'P 1'
_cell_length_a   8.04341412
_cell_length_b   8.04341412
_cell_length_c   8.04341362
_cell_angle_alpha   29.78076596
_cell_angle_beta   29.78076596
_cell_angle_gamma   29.78076847
_symmetry_Int_Tables_number   1
_chemical_formula_structural   RbGdS2
_chemical_formula_sum   'Rb1 Gd1 S2'
_cell_volume   113.67511296
_cell_formula_units_Z   1
loop_
 _symmetry_equiv_pos_site_id
 _symmetry_equiv_pos_as_xyz
  1  'x, y, z'
loop_
 _atom_site_type_symbol
 _atom_site_label
 _atom_site_symmetry_multiplicity
 _atom_site_fract_x
 _atom_site_fract_y
 _atom_site_fract_z
 _atom_site_occupancy
  Rb  Rb0  1  0.00000000  0.00000000  0.00000000  1
  Gd  Gd1  1  0.50000000  0.50000000  0.50000000  1
  S  S2  1  0.76909700  0.76909700  0.76909700  1
  S  S3  1  0.23090300  0.23090300  0.23090300  1
