# generated using pymatgen
data_YbOF
_symmetry_space_group_name_H-M   'P 1'
_cell_length_a   3.70436432
_cell_length_b   3.70436432
_cell_length_c   5.64232925
_cell_angle_alpha   84.60518903
_cell_angle_beta   84.60518903
_cell_angle_gamma   82.73695684
_symmetry_Int_Tables_number   1
_chemical_formula_structural   YbOF
_chemical_formula_sum   'Yb2 O2 F2'
_cell_volume   76.19947641
_cell_formula_units_Z   2
loop_
 _symmetry_equiv_pos_site_id
 _symmetry_equiv_pos_as_xyz
  1  'x, y, z'
loop_
 _atom_site_type_symbol
 _atom_site_label
 _atom_site_symmetry_multiplicity
 _atom_site_fract_x
 _atom_site_fract_y
 _atom_site_fract_z
 _atom_site_occupancy
  Yb  Yb0  1  0.76818600  0.76818600  0.75854500  1
  Yb  Yb1  1  0.23181400  0.23181400  0.24145500  1
  O  O2  1  0.34497500  0.65502500  0.50000000  1
  O  O3  1  0.65502500  0.34497500  0.50000000  1
  F  F4  1  0.24696700  0.75303300  0.00000000  1
  F  F5  1  0.75303300  0.24696700  0.00000000  1
