# generated using pymatgen
data_RbB2P2HO9
_symmetry_space_group_name_H-M   'P 1'
_cell_length_a   12.30746800
_cell_length_b   6.86357300
_cell_length_c   8.94739336
_cell_angle_alpha   82.39045111
_cell_angle_beta   90.00000000
_cell_angle_gamma   90.00000000
_symmetry_Int_Tables_number   1
_chemical_formula_structural   RbB2P2HO9
_chemical_formula_sum   'Rb4 B8 P8 H4 O36'
_cell_volume   749.15889748
_cell_formula_units_Z   4
loop_
 _symmetry_equiv_pos_site_id
 _symmetry_equiv_pos_as_xyz
  1  'x, y, z'
loop_
 _atom_site_type_symbol
 _atom_site_label
 _atom_site_symmetry_multiplicity
 _atom_site_fract_x
 _atom_site_fract_y
 _atom_site_fract_z
 _atom_site_occupancy
  Rb  Rb0  1  0.37954600  0.72752900  0.81033200  1
  Rb  Rb1  1  0.12045400  0.72752900  0.31033200  1
  Rb  Rb2  1  0.87954600  0.27247100  0.68966800  1
  Rb  Rb3  1  0.62045400  0.27247100  0.18966800  1
  B  B4  1  0.63786500  0.93185900  0.63958400  1
  B  B5  1  0.86213500  0.93185900  0.13958400  1
  B  B6  1  0.63557800  0.61638200  0.53082000  1
  B  B7  1  0.86442200  0.61638200  0.03082000  1
  B  B8  1  0.13557800  0.38361800  0.96918000  1
  B  B9  1  0.36442200  0.38361800  0.46918000  1
  B  B10  1  0.13786500  0.06814100  0.86041600  1
  B  B11  1  0.36213500  0.06814100  0.36041600  1
  P  P12  1  0.70806500  0.87259100  0.94252500  1
  P  P13  1  0.79193500  0.87259100  0.44252500  1
  P  P14  1  0.03817500  0.71024000  0.82284700  1
  P  P15  1  0.46182500  0.71024000  0.32284700  1
  P  P16  1  0.53817500  0.28976000  0.67715300  1
  P  P17  1  0.96182500  0.28976000  0.17715300  1
  P  P18  1  0.20806500  0.12740900  0.55747500  1
  P  P19  1  0.29193500  0.12740900  0.05747500  1
  H  H20  1  0.98012700  0.77777300  0.58855800  1
  H  H21  1  0.51987300  0.77777300  0.08855800  1
  H  H22  1  0.48012700  0.22222700  0.91144200  1
  H  H23  1  0.01987300  0.22222700  0.41144200  1
  O  O24  1  0.20475000  0.99064500  0.99548700  1
  O  O25  1  0.29525000  0.99064500  0.49548700  1
  O  O26  1  0.04586400  0.92828800  0.84750900  1
  O  O27  1  0.71531400  0.93775100  0.76953700  1
  O  O28  1  0.45413600  0.92828800  0.34750900  1
  O  O29  1  0.90485100  0.89507500  0.50311500  1
  O  O30  1  0.78468600  0.93775100  0.26953700  1
  O  O31  1  0.59514900  0.89507500  0.00311500  1
  O  O32  1  0.59320200  0.74262900  0.62988800  1
  O  O33  1  0.74959000  0.65599000  0.98511900  1
  O  O34  1  0.04089700  0.68879400  0.65171600  1
  O  O35  1  0.92835000  0.62373900  0.88329700  1
  O  O36  1  0.90679800  0.74262900  0.12988800  1
  O  O37  1  0.13623900  0.59568900  0.89994300  1
  O  O38  1  0.75041000  0.65599000  0.48511900  1
  O  O39  1  0.45910300  0.68879400  0.15171600  1
  O  O40  1  0.57165000  0.62373900  0.38329700  1
  O  O41  1  0.36376100  0.59568900  0.39994300  1
  O  O42  1  0.63623900  0.40431100  0.60005700  1
  O  O43  1  0.42835000  0.37626100  0.61670300  1
  O  O44  1  0.54089700  0.31120600  0.84828400  1
  O  O45  1  0.24959000  0.34401000  0.51488100  1
  O  O46  1  0.86376100  0.40431100  0.10005700  1
  O  O47  1  0.09320200  0.25737100  0.87011200  1
  O  O48  1  0.07165000  0.37626100  0.11670300  1
  O  O49  1  0.95910300  0.31120600  0.34828400  1
  O  O50  1  0.25041000  0.34401000  0.01488100  1
  O  O51  1  0.40679800  0.25737100  0.37011200  1
  O  O52  1  0.40485100  0.10492500  0.99688500  1
  O  O53  1  0.21531400  0.06224900  0.73046300  1
  O  O54  1  0.09514900  0.10492500  0.49688500  1
  O  O55  1  0.54586400  0.07171200  0.65249100  1
  O  O56  1  0.28468600  0.06224900  0.23046300  1
  O  O57  1  0.95413600  0.07171200  0.15249100  1
  O  O58  1  0.70475000  0.00935500  0.50451300  1
  O  O59  1  0.79525000  0.00935500  0.00451300  1
