# generated using pymatgen
data_Ta2Pb2O7
_symmetry_space_group_name_H-M   'P 1'
_cell_length_a   13.95186089
_cell_length_b   13.95186089
_cell_length_c   5.90993100
_cell_angle_alpha   90.00000000
_cell_angle_beta   90.00000000
_cell_angle_gamma   163.58208435
_symmetry_Int_Tables_number   1
_chemical_formula_structural   Ta2Pb2O7
_chemical_formula_sum   'Ta4 Pb4 O14'
_cell_volume   325.14903781
_cell_formula_units_Z   2
loop_
 _symmetry_equiv_pos_site_id
 _symmetry_equiv_pos_as_xyz
  1  'x, y, z'
loop_
 _atom_site_type_symbol
 _atom_site_label
 _atom_site_symmetry_multiplicity
 _atom_site_fract_x
 _atom_site_fract_y
 _atom_site_fract_z
 _atom_site_occupancy
  Ta  Ta0  1  0.84112800  0.15887200  0.74996200  1
  Ta  Ta1  1  0.94346000  0.05654000  0.25139000  1
  Ta  Ta2  1  0.15887200  0.84112800  0.24996200  1
  Ta  Ta3  1  0.05654000  0.94346000  0.75139000  1
  Pb  Pb4  1  0.71515200  0.28484800  0.76141400  1
  Pb  Pb5  1  0.55345200  0.44654800  0.27722200  1
  Pb  Pb6  1  0.28484800  0.71515200  0.26141400  1
  Pb  Pb7  1  0.44654800  0.55345200  0.77722200  1
  O  O8  1  0.90213900  0.09786100  0.96583400  1
  O  O9  1  0.99862500  0.00137500  0.46017200  1
  O  O10  1  0.79517700  0.20482300  0.98522600  1
  O  O11  1  0.89596200  0.10403800  0.47303400  1
  O  O12  1  0.79030300  0.20969700  0.52734800  1
  O  O13  1  0.64873000  0.35127000  0.23714600  1
  O  O14  1  0.54985500  0.45014500  0.70759100  1
  O  O15  1  0.20969700  0.79030300  0.02734800  1
  O  O16  1  0.45014500  0.54985500  0.20759100  1
  O  O17  1  0.35127000  0.64873000  0.73714600  1
  O  O18  1  0.09786100  0.90213900  0.46583400  1
  O  O19  1  0.10403800  0.89596200  0.97303400  1
  O  O20  1  0.00137500  0.99862500  0.96017200  1
  O  O21  1  0.20482300  0.79517700  0.48522600  1
