# generated using pymatgen
data_NaAgF4
_symmetry_space_group_name_H-M   'P 1'
_cell_length_a   6.68873956
_cell_length_b   6.68873956
_cell_length_c   6.68873956
_cell_angle_alpha   129.86506080
_cell_angle_beta   129.86506080
_cell_angle_gamma   73.62257941
_symmetry_Int_Tables_number   1
_chemical_formula_structural   NaAgF4
_chemical_formula_sum   'Na2 Ag2 F8'
_cell_volume   172.02923667
_cell_formula_units_Z   2
loop_
 _symmetry_equiv_pos_site_id
 _symmetry_equiv_pos_as_xyz
  1  'x, y, z'
loop_
 _atom_site_type_symbol
 _atom_site_label
 _atom_site_symmetry_multiplicity
 _atom_site_fract_x
 _atom_site_fract_y
 _atom_site_fract_z
 _atom_site_occupancy
  Na  Na0  1  0.25000000  0.25000000  0.00000000  1
  Na  Na1  1  0.75000000  0.75000000  0.00000000  1
  Ag  Ag2  1  0.50000000  0.00000000  0.50000000  1
  Ag  Ag3  1  0.00000000  0.50000000  0.50000000  1
  F  F4  1  0.44968700  0.94968700  0.14527700  1
  F  F5  1  0.19559000  0.69559000  0.14527700  1
  F  F6  1  0.55031300  0.05031300  0.85472300  1
  F  F7  1  0.05031300  0.19559000  0.50000000  1
  F  F8  1  0.80441000  0.30441000  0.85472300  1
  F  F9  1  0.30441000  0.44968700  0.50000000  1
  F  F10  1  0.94968700  0.80441000  0.50000000  1
  F  F11  1  0.69559000  0.55031300  0.50000000  1
