# generated using pymatgen
data_Gd3TaO7
_symmetry_space_group_name_H-M   'P 1'
_cell_length_a   6.46040900
_cell_length_b   6.56814145
_cell_length_c   7.67081644
_cell_angle_alpha   106.79125441
_cell_angle_beta   89.77637547
_cell_angle_gamma   97.23871199
_symmetry_Int_Tables_number   1
_chemical_formula_structural   Gd3TaO7
_chemical_formula_sum   'Gd6 Ta2 O14'
_cell_volume   308.95222946
_cell_formula_units_Z   2
loop_
 _symmetry_equiv_pos_site_id
 _symmetry_equiv_pos_as_xyz
  1  'x, y, z'
loop_
 _atom_site_type_symbol
 _atom_site_label
 _atom_site_symmetry_multiplicity
 _atom_site_fract_x
 _atom_site_fract_y
 _atom_site_fract_z
 _atom_site_occupancy
  Gd  Gd0  1  0.74017900  0.46443000  0.11568800  1
  Gd  Gd1  1  0.73620100  0.45657700  0.60932000  1
  Gd  Gd2  1  0.54523700  0.99203000  0.74994000  1
  Gd  Gd3  1  0.45476300  0.00797000  0.25006000  1
  Gd  Gd4  1  0.26379900  0.54342300  0.39068000  1
  Gd  Gd5  1  0.25982100  0.53557000  0.88431200  1
  Ta  Ta6  1  0.00000000  0.00000000  0.00000000  1
  Ta  Ta7  1  0.00000000  0.00000000  0.50000000  1
  O  O8  1  0.71116700  0.06746000  0.48321400  1
  O  O9  1  0.92375500  0.68202100  0.95166300  1
  O  O10  1  0.71055800  0.06898200  0.04946900  1
  O  O11  1  0.92795600  0.67451000  0.39250900  1
  O  O12  1  0.91639900  0.95399000  0.73797100  1
  O  O13  1  0.55909300  0.34906700  0.83433300  1
  O  O14  1  0.54396800  0.36309300  0.34182400  1
  O  O15  1  0.45603200  0.63690700  0.65817600  1
  O  O16  1  0.44090700  0.65093300  0.16566700  1
  O  O17  1  0.08360100  0.04601000  0.26202900  1
  O  O18  1  0.07204400  0.32549000  0.60749100  1
  O  O19  1  0.28944200  0.93101800  0.95053100  1
  O  O20  1  0.07624500  0.31797900  0.04833700  1
  O  O21  1  0.28883300  0.93254000  0.51678600  1
