# generated using pymatgen
data_TeH9SN2O5F3
_symmetry_space_group_name_H-M   'P 1'
_cell_length_a   7.12313200
_cell_length_b   7.60776336
_cell_length_c   8.82136462
_cell_angle_alpha   101.54478883
_cell_angle_beta   86.99054019
_cell_angle_gamma   107.52602498
_symmetry_Int_Tables_number   1
_chemical_formula_structural   TeH9SN2O5F3
_chemical_formula_sum   'Te2 H18 S2 N4 O10 F6'
_cell_volume   446.61109175
_cell_formula_units_Z   2
loop_
 _symmetry_equiv_pos_site_id
 _symmetry_equiv_pos_as_xyz
  1  'x, y, z'
loop_
 _atom_site_type_symbol
 _atom_site_label
 _atom_site_symmetry_multiplicity
 _atom_site_fract_x
 _atom_site_fract_y
 _atom_site_fract_z
 _atom_site_occupancy
  Te  Te0  1  0.99636100  0.00001500  0.01153400  1
  Te  Te1  1  0.36307900  0.39196700  0.51025200  1
  H  H2  1  0.85223000  0.48274600  0.15476600  1
  H  H3  1  0.96991300  0.62398500  0.31520700  1
  H  H4  1  0.40438000  0.77789200  0.19825500  1
  H  H5  1  0.52087300  0.92581200  0.35746100  1
  H  H6  1  0.78830600  0.43633000  0.83268100  1
  H  H7  1  0.57704900  0.93141800  0.85163800  1
  H  H8  1  0.28308400  0.91006300  0.31867200  1
  H  H9  1  0.70556800  0.70946100  0.00857600  1
  H  H10  1  0.09555100  0.50953200  0.18256200  1
  H  H11  1  0.92729800  0.35021500  0.68580800  1
  H  H12  1  0.34101200  0.38937400  0.79429200  1
  H  H13  1  0.40721100  0.79022600  0.71970000  1
  H  H14  1  0.81206600  0.50775800  0.66119400  1
  H  H15  1  0.92366200  0.38418300  0.28772600  1
  H  H16  1  0.46803700  0.01643300  0.21133200  1
  H  H17  1  0.56944800  0.98140000  0.67387000  1
  H  H18  1  0.39243600  0.00781100  0.80317500  1
  H  H19  1  0.00464400  0.57331000  0.78554700  1
  S  S20  1  0.92217300  0.04529800  0.42351600  1
  S  S21  1  0.45912400  0.37792900  0.06998600  1
  N  N22  1  0.96012000  0.50089200  0.23582800  1
  N  N23  1  0.41885900  0.90704800  0.27082000  1
  N  N24  1  0.48546700  0.92781800  0.76329600  1
  N  N25  1  0.88260300  0.46596200  0.74069000  1
  O  O26  1  0.72793400  0.96161800  0.48668200  1
  O  O27  1  0.34523500  0.25104900  0.92935300  1
  O  O28  1  0.65978400  0.48403700  0.01695200  1
  O  O29  1  0.04251200  0.19897900  0.55222500  1
  O  O30  1  0.48279400  0.26230300  0.17982700  1
  O  O31  1  0.35417900  0.51457100  0.14068500  1
  O  O32  1  0.90063300  0.13724500  0.29184800  1
  O  O33  1  0.02741700  0.90445300  0.36787100  1
  O  O34  1  0.72574500  0.84376000  0.99679000  1
  O  O35  1  0.33938300  0.48294600  0.72827400  1
  F  F36  1  0.08000600  0.76571600  0.01275100  1
  F  F37  1  0.47330900  0.20375800  0.57153200  1
  F  F38  1  0.27912700  0.62316700  0.50510400  1
  F  F39  1  0.87844600  0.18080800  0.94965500  1
  F  F40  1  0.64243100  0.54854700  0.51892300  1
  F  F41  1  0.03809100  0.92642500  0.79244000  1
