# generated using pymatgen
data_Na2IrO3
_symmetry_space_group_name_H-M   'P 1'
_cell_length_a   5.53675484
_cell_length_b   5.53675484
_cell_length_c   5.63974194
_cell_angle_alpha   80.41750727
_cell_angle_beta   80.41750727
_cell_angle_gamma   119.92576811
_symmetry_Int_Tables_number   1
_chemical_formula_structural   Na2IrO3
_chemical_formula_sum   'Na4 Ir2 O6'
_cell_volume   141.31036724
_cell_formula_units_Z   2
loop_
 _symmetry_equiv_pos_site_id
 _symmetry_equiv_pos_as_xyz
  1  'x, y, z'
loop_
 _atom_site_type_symbol
 _atom_site_label
 _atom_site_symmetry_multiplicity
 _atom_site_fract_x
 _atom_site_fract_y
 _atom_site_fract_z
 _atom_site_occupancy
  Na  Na0  1  0.00000000  0.00000000  0.00000000  1
  Na  Na1  1  0.50000000  0.50000000  0.50000000  1
  Na  Na2  1  0.16130400  0.83869600  0.50000000  1
  Na  Na3  1  0.83869600  0.16130400  0.50000000  1
  Ir  Ir4  1  0.33313000  0.66687000  0.00000000  1
  Ir  Ir5  1  0.66687000  0.33313000  0.00000000  1
  O  O6  1  0.56001100  0.93097800  0.20397600  1
  O  O7  1  0.93097800  0.56001100  0.20397600  1
  O  O8  1  0.43998900  0.06902200  0.79602400  1
  O  O9  1  0.06902200  0.43998900  0.79602400  1
  O  O10  1  0.70051100  0.70051100  0.79375900  1
  O  O11  1  0.29948900  0.29948900  0.20624100  1
