# generated using pymatgen
data_K2MgO2
_symmetry_space_group_name_H-M   'P 1'
_cell_length_a   5.57047800
_cell_length_b   6.11355900
_cell_length_c   10.45099000
_cell_angle_alpha   90.00000000
_cell_angle_beta   90.00000000
_cell_angle_gamma   90.00000000
_symmetry_Int_Tables_number   1
_chemical_formula_structural   K2MgO2
_chemical_formula_sum   'K8 Mg4 O8'
_cell_volume   355.91312466
_cell_formula_units_Z   4
loop_
 _symmetry_equiv_pos_site_id
 _symmetry_equiv_pos_as_xyz
  1  'x, y, z'
loop_
 _atom_site_type_symbol
 _atom_site_label
 _atom_site_symmetry_multiplicity
 _atom_site_fract_x
 _atom_site_fract_y
 _atom_site_fract_z
 _atom_site_occupancy
  K  K0  1  0.94295600  0.37704700  0.15576200  1
  K  K1  1  0.44295600  0.62295300  0.15576200  1
  K  K2  1  0.44295600  0.12295300  0.34423800  1
  K  K3  1  0.94295600  0.87704700  0.34423800  1
  K  K4  1  0.05704400  0.12295300  0.65576200  1
  K  K5  1  0.55704400  0.87704700  0.65576200  1
  K  K6  1  0.55704400  0.37704700  0.84423800  1
  K  K7  1  0.05704400  0.62295300  0.84423800  1
  Mg  Mg8  1  0.25000000  0.01206200  0.00000000  1
  Mg  Mg9  1  0.75000000  0.98793800  0.00000000  1
  Mg  Mg10  1  0.75000000  0.48793800  0.50000000  1
  Mg  Mg11  1  0.25000000  0.51206200  0.50000000  1
  O  O12  1  0.00665900  0.82062800  0.09358100  1
  O  O13  1  0.50665900  0.17937200  0.09358100  1
  O  O14  1  0.00665900  0.32062800  0.40641900  1
  O  O15  1  0.50665900  0.67937200  0.40641900  1
  O  O16  1  0.49334100  0.32062800  0.59358100  1
  O  O17  1  0.99334100  0.67937200  0.59358100  1
  O  O18  1  0.99334100  0.17937200  0.90641900  1
  O  O19  1  0.49334100  0.82062800  0.90641900  1
