# generated using pymatgen
data_Li2GeF6
_symmetry_space_group_name_H-M   'P 1'
_cell_length_a   4.66459700
_cell_length_b   4.66459700
_cell_length_c   8.96727600
_cell_angle_alpha   90.00000000
_cell_angle_beta   90.00000000
_cell_angle_gamma   90.00000000
_symmetry_Int_Tables_number   1
_chemical_formula_structural   Li2GeF6
_chemical_formula_sum   'Li4 Ge2 F12'
_cell_volume   195.11416254
_cell_formula_units_Z   2
loop_
 _symmetry_equiv_pos_site_id
 _symmetry_equiv_pos_as_xyz
  1  'x, y, z'
loop_
 _atom_site_type_symbol
 _atom_site_label
 _atom_site_symmetry_multiplicity
 _atom_site_fract_x
 _atom_site_fract_y
 _atom_site_fract_z
 _atom_site_occupancy
  Li  Li0  1  0.00000000  0.00000000  0.33812900  1
  Li  Li1  1  0.50000000  0.50000000  0.83812900  1
  Li  Li2  1  0.50000000  0.50000000  0.16187100  1
  Li  Li3  1  0.00000000  0.00000000  0.66187100  1
  Ge  Ge4  1  0.00000000  0.00000000  0.00000000  1
  Ge  Ge5  1  0.50000000  0.50000000  0.50000000  1
  F  F6  1  0.22088300  0.77911700  0.50000000  1
  F  F7  1  0.68894500  0.68894500  0.64983800  1
  F  F8  1  0.27911700  0.27911700  0.00000000  1
  F  F9  1  0.72088300  0.72088300  0.00000000  1
  F  F10  1  0.77911700  0.22088300  0.50000000  1
  F  F11  1  0.18894500  0.81105500  0.85016200  1
  F  F12  1  0.31105500  0.31105500  0.35016200  1
  F  F13  1  0.68894500  0.68894500  0.35016200  1
  F  F14  1  0.81105500  0.18894500  0.85016200  1
  F  F15  1  0.81105500  0.18894500  0.14983800  1
  F  F16  1  0.18894500  0.81105500  0.14983800  1
  F  F17  1  0.31105500  0.31105500  0.64983800  1
