# generated using pymatgen
data_NaMn2V3(PbO6)2
_symmetry_space_group_name_H-M   'P 1'
_cell_length_a   11.32151967
_cell_length_b   11.32151967
_cell_length_c   11.32151967
_cell_angle_alpha   109.14120876
_cell_angle_beta   109.14120876
_cell_angle_gamma   110.13327986
_symmetry_Int_Tables_number   1
_chemical_formula_structural   NaMn2V3(PbO6)2
_chemical_formula_sum   'Na4 Mn8 V12 Pb8 O48'
_cell_volume   1116.98858372
_cell_formula_units_Z   4
loop_
 _symmetry_equiv_pos_site_id
 _symmetry_equiv_pos_as_xyz
  1  'x, y, z'
loop_
 _atom_site_type_symbol
 _atom_site_label
 _atom_site_symmetry_multiplicity
 _atom_site_fract_x
 _atom_site_fract_y
 _atom_site_fract_z
 _atom_site_occupancy
  Na  Na0  1  0.50000000  0.00000000  0.50000000  1
  Na  Na1  1  0.00000000  0.50000000  0.50000000  1
  Na  Na2  1  0.25000000  0.25000000  0.00000000  1
  Na  Na3  1  0.75000000  0.75000000  0.00000000  1
  Mn  Mn4  1  0.12500000  0.87500000  0.25000000  1
  Mn  Mn5  1  0.62500000  0.37500000  0.75000000  1
  Mn  Mn6  1  0.62500000  0.37500000  0.25000000  1
  Mn  Mn7  1  0.12500000  0.37500000  0.75000000  1
  Mn  Mn8  1  0.12500000  0.37500000  0.25000000  1
  Mn  Mn9  1  0.62500000  0.87500000  0.75000000  1
  Mn  Mn10  1  0.62500000  0.87500000  0.25000000  1
  Mn  Mn11  1  0.12500000  0.87500000  0.75000000  1
  V  V12  1  0.24975800  0.12500000  0.62475800  1
  V  V13  1  0.50000000  0.50000000  0.00000000  1
  V  V14  1  0.87500000  0.49975800  0.12475800  1
  V  V15  1  0.87500000  0.99975800  0.62475800  1
  V  V16  1  0.25000000  0.75000000  0.50000000  1
  V  V17  1  0.50024200  0.62500000  0.37524200  1
  V  V18  1  0.74975800  0.12500000  0.12475800  1
  V  V19  1  0.37500000  0.25024200  0.37524200  1
  V  V20  1  0.00000000  0.00000000  0.00000000  1
  V  V21  1  0.37500000  0.75024200  0.87524200  1
  V  V22  1  0.75000000  0.25000000  0.50000000  1
  V  V23  1  0.00024200  0.62500000  0.87524200  1
  Pb  Pb24  1  0.87500000  0.74728000  0.37228000  1
  Pb  Pb25  1  0.25272000  0.62500000  0.12772000  1
  Pb  Pb26  1  0.87500000  0.24728000  0.87228000  1
  Pb  Pb27  1  0.49728000  0.12500000  0.87228000  1
  Pb  Pb28  1  0.37500000  0.50272000  0.62772000  1
  Pb  Pb29  1  0.75272000  0.62500000  0.62772000  1
  Pb  Pb30  1  0.99728000  0.12500000  0.37228000  1
  Pb  Pb31  1  0.37500000  0.00272000  0.12772000  1
  O  O32  1  0.82843400  0.96343500  0.44695600  1
  O  O33  1  0.71439000  0.26201300  0.64227700  1
  O  O34  1  0.42700200  0.17264100  0.66083400  1
  O  O35  1  0.11852200  0.98352000  0.44695600  1
  O  O36  1  0.63026400  0.67788600  0.14227700  1
  O  O37  1  0.92264100  0.67700200  0.16083400  1
  O  O38  1  0.23798700  0.78561000  0.35772300  1
  O  O39  1  0.11973600  0.76201300  0.54762300  1
  O  O40  1  0.73383200  0.98819300  0.66083400  1
  O  O41  1  0.42788600  0.88026400  0.64227700  1
  O  O42  1  0.51201300  0.36973600  0.04762300  1
  O  O43  1  0.03656500  0.48352000  0.86499900  1
  O  O44  1  0.51180700  0.76616800  0.33916600  1
  O  O45  1  0.73352000  0.36852200  0.94695600  1
  O  O46  1  0.82735900  0.48819300  0.25436100  1
  O  O47  1  0.01648000  0.46343500  0.13500100  1
  O  O48  1  0.23819300  0.07735900  0.75436100  1
  O  O49  1  0.32211400  0.46439000  0.95237700  1
  O  O50  1  0.21439000  0.57211400  0.45237700  1
  O  O51  1  0.92156600  0.86852200  0.63500100  1
  O  O52  1  0.53656500  0.67156600  0.55304400  1
  O  O53  1  0.32299800  0.48383200  0.24563900  1
  O  O54  1  0.23383200  0.57299800  0.74563900  1
  O  O55  1  0.63147800  0.57843400  0.36499900  1
  O  O56  1  0.61852200  0.17156600  0.13500100  1
  O  O57  1  0.01616800  0.17700200  0.75436100  1
  O  O58  1  0.92700200  0.26616800  0.25436100  1
  O  O59  1  0.71343500  0.07843400  0.94695600  1
  O  O60  1  0.32843400  0.88147800  0.86499900  1
  O  O61  1  0.03561000  0.17788600  0.04762300  1
  O  O62  1  0.92788600  0.28561000  0.54762300  1
  O  O63  1  0.01180700  0.67264100  0.74563900  1
  O  O64  1  0.23352000  0.28656500  0.36499900  1
  O  O65  1  0.42264100  0.26180700  0.24563900  1
  O  O66  1  0.51648000  0.38147800  0.55304400  1
  O  O67  1  0.73819300  0.98383200  0.16083400  1
  O  O68  1  0.21343500  0.26648000  0.63500100  1
  O  O69  1  0.73798700  0.38026400  0.45237700  1
  O  O70  1  0.82211400  0.86973600  0.85772300  1
  O  O71  1  0.51616800  0.76180700  0.83916600  1
  O  O72  1  0.13026400  0.98798700  0.95237700  1
  O  O73  1  0.01201300  0.96439000  0.14227700  1
  O  O74  1  0.32735900  0.07299800  0.33916600  1
  O  O75  1  0.61973600  0.07211400  0.35772300  1
  O  O76  1  0.13147800  0.76648000  0.05304400  1
  O  O77  1  0.82299800  0.57735900  0.83916600  1
  O  O78  1  0.53561000  0.48798700  0.85772300  1
  O  O79  1  0.42156600  0.78656500  0.05304400  1
