# generated using pymatgen
data_P3H30N7O12
_symmetry_space_group_name_H-M   'P 1'
_cell_length_a   6.33037600
_cell_length_b   10.48459700
_cell_length_c   14.03418304
_cell_angle_alpha   75.96563489
_cell_angle_beta   90.00000000
_cell_angle_gamma   90.00000000
_symmetry_Int_Tables_number   1
_chemical_formula_structural   P3H30N7O12
_chemical_formula_sum   'P6 H60 N14 O24'
_cell_volume   903.66502611
_cell_formula_units_Z   2
loop_
 _symmetry_equiv_pos_site_id
 _symmetry_equiv_pos_as_xyz
  1  'x, y, z'
loop_
 _atom_site_type_symbol
 _atom_site_label
 _atom_site_symmetry_multiplicity
 _atom_site_fract_x
 _atom_site_fract_y
 _atom_site_fract_z
 _atom_site_occupancy
  P  P0  1  0.29449600  0.93740300  0.69947400  1
  P  P1  1  0.19745600  0.73545100  0.02458400  1
  P  P2  1  0.79805100  0.49809300  0.66041200  1
  P  P3  1  0.29805100  0.50190700  0.33958800  1
  P  P4  1  0.69745600  0.26454900  0.97541600  1
  P  P5  1  0.79449600  0.06259700  0.30052600  1
  H  H6  1  0.77486500  0.94020800  0.51156700  1
  H  H7  1  0.70252000  0.89840900  0.63364300  1
  H  H8  1  0.96337600  0.89716100  0.59748500  1
  H  H9  1  0.13344800  0.80794100  0.83321600  1
  H  H10  1  0.62442500  0.79134800  0.81208100  1
  H  H11  1  0.16927300  0.94239200  0.25073900  1
  H  H12  1  0.81517000  0.72390400  0.89655800  1
  H  H13  1  0.77771500  0.99742500  0.02919200  1
  H  H14  1  0.43329300  0.91117100  0.25461800  1
  H  H15  1  0.79186500  0.77798700  0.58129200  1
  H  H16  1  0.73992900  0.92405300  0.15154800  1
  H  H17  1  0.55440200  0.67675900  0.91551800  1
  H  H18  1  0.27920100  0.77476600  0.56475600  1
  H  H19  1  0.28603700  0.86998100  0.16471600  1
  H  H20  1  0.69355100  0.63213000  0.82457900  1
  H  H21  1  0.59111900  0.87604300  0.06491900  1
  H  H22  1  0.26294900  0.78191500  0.28430400  1
  H  H23  1  0.85356900  0.83663900  0.07798200  1
  H  H24  1  0.76592900  0.77945600  0.34360700  1
  H  H25  1  0.45515600  0.64927700  0.57581800  1
  H  H26  1  0.27190800  0.66946900  0.48585300  1
  H  H27  1  0.22819400  0.55565200  0.91044500  1
  H  H28  1  0.19216600  0.61547300  0.60578500  1
  H  H29  1  0.77228900  0.65649700  0.45241400  1
  H  H30  1  0.95513500  0.65826200  0.36403800  1
  H  H31  1  0.13934500  0.51433000  0.80277000  1
  H  H32  1  0.69431400  0.62004200  0.34618200  1
  H  H33  1  0.04814000  0.43487900  0.91617200  1
  H  H34  1  0.30813000  0.41669400  0.88338700  1
  H  H35  1  0.62837300  0.41851900  0.81267000  1
  H  H36  1  0.12837300  0.58148100  0.18733000  1
  H  H37  1  0.80813000  0.58330600  0.11661300  1
  H  H38  1  0.54814000  0.56512100  0.08382800  1
  H  H39  1  0.19431400  0.37995800  0.65381800  1
  H  H40  1  0.63934500  0.48567000  0.19723000  1
  H  H41  1  0.45513500  0.34173800  0.63596200  1
  H  H42  1  0.27228900  0.34350300  0.54758600  1
  H  H43  1  0.69216600  0.38452700  0.39421500  1
  H  H44  1  0.72819400  0.44434800  0.08955500  1
  H  H45  1  0.77190800  0.33053100  0.51414700  1
  H  H46  1  0.95515600  0.35072300  0.42418200  1
  H  H47  1  0.26592900  0.22054400  0.65639300  1
  H  H48  1  0.35356900  0.16336100  0.92201800  1
  H  H49  1  0.76294900  0.21808500  0.71569600  1
  H  H50  1  0.09111900  0.12395700  0.93508100  1
  H  H51  1  0.19355100  0.36787000  0.17542100  1
  H  H52  1  0.78603700  0.13001900  0.83528400  1
  H  H53  1  0.77920100  0.22523400  0.43524400  1
  H  H54  1  0.05440200  0.32324100  0.08448200  1
  H  H55  1  0.23992900  0.07594700  0.84845200  1
  H  H56  1  0.29186500  0.22201300  0.41870800  1
  H  H57  1  0.93329300  0.08882900  0.74538200  1
  H  H58  1  0.27771500  0.00257500  0.97080800  1
  H  H59  1  0.31517000  0.27609600  0.10344200  1
  H  H60  1  0.66927300  0.05760800  0.74926100  1
  H  H61  1  0.12442500  0.20865200  0.18791900  1
  H  H62  1  0.63344800  0.19205900  0.16678400  1
  H  H63  1  0.46337600  0.10283900  0.40251500  1
  H  H64  1  0.20252000  0.10159100  0.36635700  1
  H  H65  1  0.27486500  0.05979200  0.48843300  1
  N  N66  1  0.80786600  0.87824700  0.58100700  1
  N  N67  1  0.67399900  0.70523800  0.86280300  1
  N  N68  1  0.28533600  0.87643600  0.23854300  1
  N  N69  1  0.74243500  0.90803000  0.08042600  1
  N  N70  1  0.29796900  0.67819700  0.55768300  1
  N  N71  1  0.79687600  0.67975800  0.37590900  1
  N  N72  1  0.18063400  0.48169200  0.87680300  1
  N  N73  1  0.68063400  0.51830800  0.12319700  1
  N  N74  1  0.29687600  0.32024200  0.62409100  1
  N  N75  1  0.79796900  0.32180300  0.44231700  1
  N  N76  1  0.24243500  0.09197000  0.91957400  1
  N  N77  1  0.78533600  0.12356400  0.76145700  1
  N  N78  1  0.17399900  0.29476200  0.13719700  1
  N  N79  1  0.30786600  0.12175300  0.41899300  1
  O  O80  1  0.53348200  0.92580600  0.72327000  1
  O  O81  1  0.24978000  0.93514200  0.59143100  1
  O  O82  1  0.04692800  0.78753900  0.93663500  1
  O  O83  1  0.17565300  0.80965400  0.76137300  1
  O  O84  1  0.70236400  0.93897000  0.27397500  1
  O  O85  1  0.32756900  0.85081300  0.04799500  1
  O  O86  1  0.73240500  0.61953000  0.57881100  1
  O  O87  1  0.23202100  0.63165400  0.36646200  1
  O  O88  1  0.66995100  0.50904400  0.75559900  1
  O  O89  1  0.05216100  0.67662100  0.11577300  1
  O  O90  1  0.03718900  0.50026600  0.68272900  1
  O  O91  1  0.85033400  0.37046600  0.99642800  1
  O  O92  1  0.35033400  0.62953400  0.00357200  1
  O  O93  1  0.53718900  0.49973400  0.31727100  1
  O  O94  1  0.55216100  0.32337900  0.88422700  1
  O  O95  1  0.16995100  0.49095600  0.24440100  1
  O  O96  1  0.73202100  0.36834600  0.63353800  1
  O  O97  1  0.23240500  0.38047000  0.42118900  1
  O  O98  1  0.82756900  0.14918700  0.95200500  1
  O  O99  1  0.20236400  0.06103000  0.72602500  1
  O  O100  1  0.67565300  0.19034600  0.23862700  1
  O  O101  1  0.54692800  0.21246100  0.06336500  1
  O  O102  1  0.74978000  0.06485800  0.40856900  1
  O  O103  1  0.03348200  0.07419400  0.27673000  1
