# generated using pymatgen
data_Al2Si3H8(NO5)2
_symmetry_space_group_name_H-M   'P 1'
_cell_length_a   6.59844400
_cell_length_b   12.99586600
_cell_length_c   13.00639039
_cell_angle_alpha   89.25706826
_cell_angle_beta   90.00000000
_cell_angle_gamma   90.00000000
_symmetry_Int_Tables_number   1
_chemical_formula_structural   Al2Si3H8(NO5)2
_chemical_formula_sum   'Al8 Si12 H32 N8 O40'
_cell_volume   1115.23665338
_cell_formula_units_Z   4
loop_
 _symmetry_equiv_pos_site_id
 _symmetry_equiv_pos_as_xyz
  1  'x, y, z'
loop_
 _atom_site_type_symbol
 _atom_site_label
 _atom_site_symmetry_multiplicity
 _atom_site_fract_x
 _atom_site_fract_y
 _atom_site_fract_z
 _atom_site_occupancy
  Al  Al0  1  0.88205900  0.61778000  0.68838600  1
  Al  Al1  1  0.38205900  0.38222000  0.31161400  1
  Al  Al2  1  0.88025400  0.87737800  0.80835900  1
  Al  Al3  1  0.38025400  0.12262200  0.19164100  1
  Al  Al4  1  0.13307800  0.68685500  0.11767600  1
  Al  Al5  1  0.63307800  0.31314500  0.88232400  1
  Al  Al6  1  0.13284500  0.80941100  0.37751000  1
  Al  Al7  1  0.63284500  0.19058900  0.62249000  1
  Si  Si8  1  0.49646000  0.74230600  0.73989500  1
  Si  Si9  1  0.99646000  0.25769400  0.26010500  1
  Si  Si10  1  0.74739300  0.75714300  0.24052000  1
  Si  Si11  1  0.24739300  0.24285700  0.75948000  1
  Si  Si12  1  0.87319300  0.38197600  0.69188900  1
  Si  Si13  1  0.37319300  0.61802400  0.30811100  1
  Si  Si14  1  0.87492300  0.11459000  0.81366900  1
  Si  Si15  1  0.37492300  0.88541000  0.18633100  1
  Si  Si16  1  0.12177400  0.68856300  0.88018900  1
  Si  Si17  1  0.62177400  0.31143700  0.11981100  1
  Si  Si18  1  0.12503300  0.81329400  0.61466300  1
  Si  Si19  1  0.62503300  0.18670600  0.38533700  1
  H  H20  1  0.27575000  0.46858400  0.61172400  1
  H  H21  1  0.77575000  0.53141600  0.38827600  1
  H  H22  1  0.48023000  0.54785000  0.61982600  1
  H  H23  1  0.98023000  0.45215000  0.38017400  1
  H  H24  1  0.40959200  0.49801500  0.50325600  1
  H  H25  1  0.90959200  0.50198500  0.49674400  1
  H  H26  1  0.51261400  0.41974100  0.59497900  1
  H  H27  1  0.01261400  0.58025900  0.40502100  1
  H  H28  1  0.73020900  0.09508500  0.08580200  1
  H  H29  1  0.23020900  0.90491500  0.91419800  1
  H  H30  1  0.97001400  0.06255300  0.11611200  1
  H  H31  1  0.47001400  0.93744700  0.88388800  1
  H  H32  1  0.78521000  0.97136800  0.12152200  1
  H  H33  1  0.28521000  0.02863200  0.87847800  1
  H  H34  1  0.86203300  0.01743500  0.00467500  1
  H  H35  1  0.36203300  0.98256500  0.99532500  1
  H  H36  1  0.72991900  0.88483900  0.43181700  1
  H  H37  1  0.22991900  0.11516100  0.56818300  1
  H  H38  1  0.48773500  0.91571400  0.41050000  1
  H  H39  1  0.98773500  0.08428600  0.58950000  1
  H  H40  1  0.62950000  0.99591800  0.48378900  1
  H  H41  1  0.12950000  0.00408200  0.51621100  1
  H  H42  1  0.55984200  0.87779800  0.53053000  1
  H  H43  1  0.05984200  0.12220200  0.46947000  1
  H  H44  1  0.72323000  0.62276100  0.05559500  1
  H  H45  1  0.22323000  0.37723900  0.94440500  1
  H  H46  1  0.74500300  0.59970100  0.92706800  1
  H  H47  1  0.24500300  0.40029900  0.07293200  1
  H  H48  1  0.51263800  0.61383500  0.98075700  1
  H  H49  1  0.01263800  0.38616500  0.01924300  1
  H  H50  1  0.65048300  0.50591100  0.00525900  1
  H  H51  1  0.15048300  0.49408900  0.99474100  1
  N  N52  1  0.41821900  0.48369100  0.58282700  1
  N  N53  1  0.91821900  0.51630900  0.41717300  1
  N  N54  1  0.83896200  0.03560100  0.08218700  1
  N  N55  1  0.33896200  0.96439900  0.91781300  1
  N  N56  1  0.60375400  0.91848700  0.46559500  1
  N  N57  1  0.10375400  0.08151300  0.53440500  1
  N  N58  1  0.65705500  0.58593300  0.99260700  1
  N  N59  1  0.15705500  0.41406700  0.00739300  1
  O  O60  1  0.63750400  0.82197000  0.80377000  1
  O  O61  1  0.13750400  0.17803000  0.19623000  1
  O  O62  1  0.62246700  0.65248100  0.68049100  1
  O  O63  1  0.12246700  0.34751900  0.31950900  1
  O  O64  1  0.87415500  0.69152500  0.15556700  1
  O  O65  1  0.37415500  0.30847500  0.84443300  1
  O  O66  1  0.88660400  0.81360800  0.32637700  1
  O  O67  1  0.38660400  0.18639200  0.67362300  1
  O  O68  1  0.91682100  0.49378600  0.63583000  1
  O  O69  1  0.41682100  0.50621400  0.36417000  1
  O  O70  1  0.86431700  0.99950000  0.86618300  1
  O  O71  1  0.36431700  0.00050000  0.13381700  1
  O  O72  1  0.15212500  0.63324400  0.99324700  1
  O  O73  1  0.65212500  0.36675600  0.00675300  1
  O  O74  1  0.13185000  0.86644800  0.49955200  1
  O  O75  1  0.63185000  0.13355200  0.50044800  1
  O  O76  1  0.95057200  0.62293200  0.81938100  1
  O  O77  1  0.45057200  0.37706800  0.18061900  1
  O  O78  1  0.99403300  0.88861600  0.68753500  1
  O  O79  1  0.49403300  0.11138400  0.31246500  1
  O  O80  1  0.73562500  0.18968500  0.88155000  1
  O  O81  1  0.23562500  0.81031500  0.11845000  1
  O  O82  1  0.71423400  0.31987200  0.61871500  1
  O  O83  1  0.21423400  0.68012800  0.38128500  1
  O  O84  1  0.77786600  0.39697100  0.80553100  1
  O  O85  1  0.27786600  0.60302900  0.19446900  1
  O  O86  1  0.80797200  0.11489800  0.69265100  1
  O  O87  1  0.30797200  0.88510200  0.30734900  1
  O  O88  1  0.04983100  0.80845800  0.89037800  1
  O  O89  1  0.54983100  0.19154200  0.10962200  1
  O  O90  1  0.03444400  0.69756900  0.61225200  1
  O  O91  1  0.53444400  0.30243100  0.38774800  1
  O  O92  1  0.09321600  0.32138200  0.69735300  1
  O  O93  1  0.59321600  0.67861800  0.30264700  1
  O  O94  1  0.11750200  0.15121200  0.82025200  1
  O  O95  1  0.61750200  0.84878800  0.17974800  1
  O  O96  1  0.36599300  0.80946900  0.65398800  1
  O  O97  1  0.86599300  0.19053100  0.34601200  1
  O  O98  1  0.34346600  0.68325000  0.82194900  1
  O  O99  1  0.84346600  0.31675000  0.17805100  1
