# generated using pymatgen
data_BiBr3
_symmetry_space_group_name_H-M   'P 1'
_cell_length_a   12.72940600
_cell_length_b   7.42147900
_cell_length_c   7.53138013
_cell_angle_alpha   71.36296648
_cell_angle_beta   90.00000000
_cell_angle_gamma   90.00000000
_symmetry_Int_Tables_number   1
_chemical_formula_structural   BiBr3
_chemical_formula_sum   'Bi4 Br12'
_cell_volume   674.18770577
_cell_formula_units_Z   4
loop_
 _symmetry_equiv_pos_site_id
 _symmetry_equiv_pos_as_xyz
  1  'x, y, z'
loop_
 _atom_site_type_symbol
 _atom_site_label
 _atom_site_symmetry_multiplicity
 _atom_site_fract_x
 _atom_site_fract_y
 _atom_site_fract_z
 _atom_site_occupancy
  Bi  Bi0  1  0.33278000  0.48047800  0.00888500  1
  Bi  Bi1  1  0.83278000  0.01952200  0.99111500  1
  Bi  Bi2  1  0.16722000  0.98047800  0.00888500  1
  Bi  Bi3  1  0.66722000  0.51952200  0.99111500  1
  Br  Br4  1  0.18439700  0.21691600  0.24909300  1
  Br  Br5  1  0.50787700  0.28645300  0.23607000  1
  Br  Br6  1  0.32742800  0.22901600  0.78221600  1
  Br  Br7  1  0.82742800  0.27098400  0.21778400  1
  Br  Br8  1  0.00787700  0.21354700  0.76393000  1
  Br  Br9  1  0.31560300  0.71691600  0.24909300  1
  Br  Br10  1  0.68439700  0.28308400  0.75090700  1
  Br  Br11  1  0.99212300  0.78645300  0.23607000  1
  Br  Br12  1  0.17257200  0.72901600  0.78221600  1
  Br  Br13  1  0.67257200  0.77098400  0.21778400  1
  Br  Br14  1  0.49212300  0.71354700  0.76393000  1
  Br  Br15  1  0.81560300  0.78308400  0.75090700  1
