# generated using pymatgen
data_Dy(ClO4)3
_symmetry_space_group_name_H-M   'P 1'
_cell_length_a   9.49029570
_cell_length_b   9.49029570
_cell_length_c   9.49029629
_cell_angle_alpha   51.71795363
_cell_angle_beta   51.71795363
_cell_angle_gamma   51.71795873
_symmetry_Int_Tables_number   1
_chemical_formula_structural   Dy(ClO4)3
_chemical_formula_sum   'Dy2 Cl6 O24'
_cell_volume   486.61964495
_cell_formula_units_Z   2
loop_
 _symmetry_equiv_pos_site_id
 _symmetry_equiv_pos_as_xyz
  1  'x, y, z'
loop_
 _atom_site_type_symbol
 _atom_site_label
 _atom_site_symmetry_multiplicity
 _atom_site_fract_x
 _atom_site_fract_y
 _atom_site_fract_z
 _atom_site_occupancy
  Dy  Dy0  1  0.94172600  0.94172600  0.94172600  1
  Dy  Dy1  1  0.44172600  0.44172600  0.44172600  1
  Cl  Cl2  1  0.03395200  0.31024900  0.65505700  1
  Cl  Cl3  1  0.15505700  0.81024900  0.53395200  1
  Cl  Cl4  1  0.53395200  0.15505700  0.81024900  1
  Cl  Cl5  1  0.31024900  0.65505700  0.03395200  1
  Cl  Cl6  1  0.65505700  0.03395200  0.31024900  1
  Cl  Cl7  1  0.81024900  0.53395200  0.15505700  1
  O  O8  1  0.24724400  0.86837300  0.92399400  1
  O  O9  1  0.11460500  0.79765800  0.71760000  1
  O  O10  1  0.42604100  0.05236600  0.99978500  1
  O  O11  1  0.08159100  0.15979900  0.60745200  1
  O  O12  1  0.10745200  0.65979900  0.58159100  1
  O  O13  1  0.49978500  0.55236600  0.92604100  1
  O  O14  1  0.21760000  0.29765800  0.61460500  1
  O  O15  1  0.05236600  0.99978500  0.42604100  1
  O  O16  1  0.42399400  0.36837300  0.74724400  1
  O  O17  1  0.71760000  0.11460500  0.79765800  1
  O  O18  1  0.58159100  0.10745200  0.65979900  1
  O  O19  1  0.36837300  0.74724400  0.42399400  1
  O  O20  1  0.55236600  0.92604100  0.49978500  1
  O  O21  1  0.92399400  0.24724400  0.86837300  1
  O  O22  1  0.15979900  0.60745200  0.08159100  1
  O  O23  1  0.29765800  0.61460500  0.21760000  1
  O  O24  1  0.61460500  0.21760000  0.29765800  1
  O  O25  1  0.92604100  0.49978500  0.55236600  1
  O  O26  1  0.74724400  0.42399400  0.36837300  1
  O  O27  1  0.60745200  0.08159100  0.15979900  1
  O  O28  1  0.65979900  0.58159100  0.10745200  1
  O  O29  1  0.86837300  0.92399400  0.24724400  1
  O  O30  1  0.79765800  0.71760000  0.11460500  1
  O  O31  1  0.99978500  0.42604100  0.05236600  1
