# generated using pymatgen
data_NaSb5O13
_symmetry_space_group_name_H-M   'P 1'
_cell_length_a   5.62216552
_cell_length_b   5.62216552
_cell_length_c   16.78283300
_cell_angle_alpha   90.00000000
_cell_angle_beta   90.00000000
_cell_angle_gamma   107.09087646
_symmetry_Int_Tables_number   1
_chemical_formula_structural   NaSb5O13
_chemical_formula_sum   'Na2 Sb10 O26'
_cell_volume   507.05801066
_cell_formula_units_Z   2
loop_
 _symmetry_equiv_pos_site_id
 _symmetry_equiv_pos_as_xyz
  1  'x, y, z'
loop_
 _atom_site_type_symbol
 _atom_site_label
 _atom_site_symmetry_multiplicity
 _atom_site_fract_x
 _atom_site_fract_y
 _atom_site_fract_z
 _atom_site_occupancy
  Na  Na0  1  0.89841700  0.15089700  0.75000000  1
  Na  Na1  1  0.15089700  0.89841700  0.25000000  1
  Sb  Sb2  1  0.38562600  0.61466500  0.07964400  1
  Sb  Sb3  1  0.61466500  0.38562600  0.92035600  1
  Sb  Sb4  1  0.00022800  0.00022800  0.00000000  1
  Sb  Sb5  1  0.38562600  0.61466500  0.42035600  1
  Sb  Sb6  1  0.61466500  0.38562600  0.57964400  1
  Sb  Sb7  1  0.00022800  0.00022800  0.50000000  1
  Sb  Sb8  1  0.76911200  0.23258100  0.36098200  1
  Sb  Sb9  1  0.76911200  0.23258100  0.13901800  1
  Sb  Sb10  1  0.23258100  0.76911200  0.86098200  1
  Sb  Sb11  1  0.23258100  0.76911200  0.63901800  1
  O  O12  1  0.53031200  0.06882300  0.86362400  1
  O  O13  1  0.06882300  0.53031200  0.36362400  1
  O  O14  1  0.06882300  0.53031200  0.13637600  1
  O  O15  1  0.53031200  0.06882300  0.63637600  1
  O  O16  1  0.31104900  0.31104900  0.00000000  1
  O  O17  1  0.31104900  0.31104900  0.50000000  1
  O  O18  1  0.01373800  0.98660900  0.61510700  1
  O  O19  1  0.17113700  0.82861400  0.75000000  1
  O  O20  1  0.22567800  0.77441100  0.98965600  1
  O  O21  1  0.22567800  0.77441100  0.51034400  1
  O  O22  1  0.44570900  0.55271000  0.65399000  1
  O  O23  1  0.55271000  0.44570900  0.15399000  1
  O  O24  1  0.77441100  0.22567800  0.48965600  1
  O  O25  1  0.98660900  0.01373800  0.38489300  1
  O  O26  1  0.55271000  0.44570900  0.34601000  1
  O  O27  1  0.98660900  0.01373800  0.11510700  1
  O  O28  1  0.82861400  0.17113700  0.25000000  1
  O  O29  1  0.77441100  0.22567800  0.01034400  1
  O  O30  1  0.01373800  0.98660900  0.88489300  1
  O  O31  1  0.44570900  0.55271000  0.84601000  1
  O  O32  1  0.68916000  0.68916000  0.50000000  1
  O  O33  1  0.68916000  0.68916000  0.00000000  1
  O  O34  1  0.47050600  0.93207400  0.36350600  1
  O  O35  1  0.93207400  0.47050600  0.63649400  1
  O  O36  1  0.93207400  0.47050600  0.86350600  1
  O  O37  1  0.47050600  0.93207400  0.13649400  1
