# generated using pymatgen
data_Ti3VSn2(PO4)6
_symmetry_space_group_name_H-M   'P 1'
_cell_length_a   9.16174287
_cell_length_b   9.16174287
_cell_length_c   9.16174292
_cell_angle_alpha   56.11997847
_cell_angle_beta   56.11997847
_cell_angle_gamma   56.11997851
_symmetry_Int_Tables_number   1
_chemical_formula_structural   Ti3VSn2(PO4)6
_chemical_formula_sum   'Ti3 V1 Sn2 P6 O24'
_cell_volume   494.92246990
_cell_formula_units_Z   1
loop_
 _symmetry_equiv_pos_site_id
 _symmetry_equiv_pos_as_xyz
  1  'x, y, z'
loop_
 _atom_site_type_symbol
 _atom_site_label
 _atom_site_symmetry_multiplicity
 _atom_site_fract_x
 _atom_site_fract_y
 _atom_site_fract_z
 _atom_site_occupancy
  Ti  Ti0  1  0.64683000  0.64683000  0.64683000  1
  Ti  Ti1  1  0.85481700  0.85481700  0.85481700  1
  Ti  Ti2  1  0.34471300  0.34471300  0.34471300  1
  V  V3  1  0.14990300  0.14990300  0.14990300  1
  Sn  Sn4  1  0.01451800  0.01451800  0.01451800  1
  Sn  Sn5  1  0.48633900  0.48633900  0.48633900  1
  P  P6  1  0.95687500  0.25050800  0.53944800  1
  P  P7  1  0.53944800  0.95687500  0.25050800  1
  P  P8  1  0.25050800  0.53944800  0.95687500  1
  P  P9  1  0.74384600  0.46994300  0.03604600  1
  P  P10  1  0.46994300  0.03604600  0.74384600  1
  P  P11  1  0.03604600  0.74384600  0.46994300  1
  O  O12  1  0.50551700  0.13386100  0.27265900  1
  O  O13  1  0.27265900  0.50551700  0.13386100  1
  O  O14  1  0.13386100  0.27265900  0.50551700  1
  O  O15  1  0.94147300  0.06694300  0.71304900  1
  O  O16  1  0.97018100  0.24875100  0.36899700  1
  O  O17  1  0.78043400  0.41676500  0.59411200  1
  O  O18  1  0.71304900  0.94147300  0.06694300  1
  O  O19  1  0.59411200  0.78043400  0.41676500  1
  O  O20  1  0.78011300  0.63141800  0.00584500  1
  O  O21  1  0.41676500  0.59411200  0.78043400  1
  O  O22  1  0.91696500  0.28439900  0.05498900  1
  O  O23  1  0.63141800  0.00584500  0.78011300  1
  O  O24  1  0.36899700  0.97018100  0.24875100  1
  O  O25  1  0.06694300  0.71304900  0.94147300  1
  O  O26  1  0.56899200  0.44265000  0.22331000  1
  O  O27  1  0.24875100  0.36899700  0.97018100  1
  O  O28  1  0.44265000  0.22331000  0.56899200  1
  O  O29  1  0.28439900  0.05498900  0.91696500  1
  O  O30  1  0.22331000  0.56899200  0.44265000  1
  O  O31  1  0.00584500  0.78011300  0.63141800  1
  O  O32  1  0.05498900  0.91696500  0.28439900  1
  O  O33  1  0.87851700  0.69708800  0.50919600  1
  O  O34  1  0.69708800  0.50919600  0.87851700  1
  O  O35  1  0.50919600  0.87851700  0.69708800  1
