# generated using pymatgen
data_Na3MnAsCO7
_symmetry_space_group_name_H-M   'P 1'
_cell_length_a   5.27860282
_cell_length_b   11.60382384
_cell_length_c   11.60407325
_cell_angle_alpha   105.35914166
_cell_angle_beta   90.20896054
_cell_angle_gamma   89.79798146
_symmetry_Int_Tables_number   1
_chemical_formula_structural   Na3MnAsCO7
_chemical_formula_sum   'Na12 Mn4 As4 C4 O28'
_cell_volume   685.37988652
_cell_formula_units_Z   4
loop_
 _symmetry_equiv_pos_site_id
 _symmetry_equiv_pos_as_xyz
  1  'x, y, z'
loop_
 _atom_site_type_symbol
 _atom_site_label
 _atom_site_symmetry_multiplicity
 _atom_site_fract_x
 _atom_site_fract_y
 _atom_site_fract_z
 _atom_site_occupancy
  Na  Na0  1  0.75937300  0.16490300  0.08511900  1
  Na  Na1  1  0.75937900  0.66491300  0.58511300  1
  Na  Na2  1  0.24062000  0.83509400  0.91487800  1
  Na  Na3  1  0.24061300  0.33509800  0.41488300  1
  Na  Na4  1  0.24639500  0.12857200  0.87460400  1
  Na  Na5  1  0.24638800  0.62855700  0.37460000  1
  Na  Na6  1  0.24637100  0.37534100  0.12143200  1
  Na  Na7  1  0.24638800  0.87534600  0.62143100  1
  Na  Na8  1  0.75361800  0.62465600  0.87857200  1
  Na  Na9  1  0.75362800  0.12465900  0.37856100  1
  Na  Na10  1  0.75360100  0.87143900  0.12539800  1
  Na  Na11  1  0.75360000  0.37143400  0.62539500  1
  Mn  Mn12  1  0.77817600  0.05126800  0.69874500  1
  Mn  Mn13  1  0.22182800  0.94872900  0.30125000  1
  Mn  Mn14  1  0.77821300  0.55127100  0.19876300  1
  Mn  Mn15  1  0.22180500  0.44871400  0.80123400  1
  As  As16  1  0.70138500  0.33133600  0.91872000  1
  As  As17  1  0.70139300  0.83134200  0.41871600  1
  As  As18  1  0.29860800  0.66866300  0.08127900  1
  As  As19  1  0.29861700  0.16866000  0.58128400  1
  C  C20  1  0.73380700  0.40400900  0.34598000  1
  C  C21  1  0.73381100  0.90400100  0.84597100  1
  C  C22  1  0.26618800  0.59599200  0.65402200  1
  C  C23  1  0.26618700  0.09599700  0.15402800  1
  O  O24  1  0.28911600  0.16595200  0.08407400  1
  O  O25  1  0.28909900  0.66595600  0.58407000  1
  O  O26  1  0.71089200  0.83404600  0.91592600  1
  O  O27  1  0.71089700  0.33404600  0.41593200  1
  O  O28  1  0.95732600  0.43373200  0.31621700  1
  O  O29  1  0.95732200  0.93372600  0.81621700  1
  O  O30  1  0.04267300  0.56627100  0.68378300  1
  O  O31  1  0.04267600  0.06626900  0.18378500  1
  O  O32  1  0.53294900  0.44553100  0.30441000  1
  O  O33  1  0.53294800  0.94552700  0.80441200  1
  O  O34  1  0.46704700  0.55446900  0.69559200  1
  O  O35  1  0.46704800  0.05447400  0.19559100  1
  O  O36  1  0.37481400  0.34115600  0.90890100  1
  O  O37  1  0.37482200  0.84116200  0.40889700  1
  O  O38  1  0.62518300  0.65884700  0.09109600  1
  O  O39  1  0.62518500  0.15883700  0.59110600  1
  O  O40  1  0.17321500  0.58295600  0.16700200  1
  O  O41  1  0.17320600  0.08295700  0.66700700  1
  O  O42  1  0.82678100  0.41704400  0.83299900  1
  O  O43  1  0.82680900  0.91704400  0.33299800  1
  O  O44  1  0.78710300  0.18259400  0.87403700  1
  O  O45  1  0.78710200  0.68259900  0.37402800  1
  O  O46  1  0.78719900  0.37595400  0.06747800  1
  O  O47  1  0.78719600  0.87594700  0.56747800  1
  O  O48  1  0.21279500  0.62404600  0.93252200  1
  O  O49  1  0.21280800  0.12405900  0.43252500  1
  O  O50  1  0.21290000  0.81740400  0.12596600  1
  O  O51  1  0.21289400  0.31740100  0.62597300  1
