# generated using pymatgen
data_SnP4O11
_symmetry_space_group_name_H-M   'P 1'
_cell_length_a   13.00193100
_cell_length_b   8.92998300
_cell_length_c   12.77244115
_cell_angle_alpha   46.28866231
_cell_angle_beta   90.00000000
_cell_angle_gamma   90.00000000
_symmetry_Int_Tables_number   1
_chemical_formula_structural   SnP4O11
_chemical_formula_sum   'Sn4 P16 O44'
_cell_volume   1071.93591153
_cell_formula_units_Z   4
loop_
 _symmetry_equiv_pos_site_id
 _symmetry_equiv_pos_as_xyz
  1  'x, y, z'
loop_
 _atom_site_type_symbol
 _atom_site_label
 _atom_site_symmetry_multiplicity
 _atom_site_fract_x
 _atom_site_fract_y
 _atom_site_fract_z
 _atom_site_occupancy
  Sn  Sn0  1  0.46790000  0.49303900  0.72991600  1
  Sn  Sn1  1  0.96790000  0.50696100  0.77008400  1
  Sn  Sn2  1  0.03210000  0.49303900  0.22991600  1
  Sn  Sn3  1  0.53210000  0.50696100  0.27008400  1
  P  P4  1  0.20804600  0.50121600  0.58814700  1
  P  P5  1  0.16707700  0.84769400  0.27402400  1
  P  P6  1  0.49624400  0.86845000  0.32771800  1
  P  P7  1  0.84380900  0.84749300  0.39376900  1
  P  P8  1  0.34380900  0.15250700  0.10623100  1
  P  P9  1  0.99624400  0.13155000  0.17228200  1
  P  P10  1  0.70804600  0.49878400  0.91185300  1
  P  P11  1  0.66707700  0.15230600  0.22597600  1
  P  P12  1  0.33292300  0.84769400  0.77402400  1
  P  P13  1  0.29195400  0.50121600  0.08814700  1
  P  P14  1  0.00375600  0.86845000  0.82771800  1
  P  P15  1  0.65619100  0.84749300  0.89376900  1
  P  P16  1  0.15619100  0.15250700  0.60623100  1
  P  P17  1  0.50375600  0.13155000  0.67228200  1
  P  P18  1  0.83292300  0.15230600  0.72597600  1
  P  P19  1  0.79195400  0.49878400  0.41185300  1
  O  O20  1  0.88724600  0.26832200  0.75206200  1
  O  O21  1  0.46932900  0.73319600  0.30265500  1
  O  O22  1  0.78252000  0.66443200  0.43003000  1
  O  O23  1  0.10145100  0.50354100  0.62784700  1
  O  O24  1  0.29994000  0.46824700  0.67127100  1
  O  O25  1  0.40261500  0.20314200  0.98686300  1
  O  O26  1  0.23125300  0.71732400  0.41887200  1
  O  O27  1  0.25368700  0.99285900  0.15472900  1
  O  O28  1  0.90714700  0.94817000  0.25182900  1
  O  O29  1  0.59734800  0.00778700  0.22447300  1
  O  O30  1  0.51415100  0.79008300  0.47371800  1
  O  O31  1  0.01415100  0.20991700  0.02628200  1
  O  O32  1  0.09734800  0.99221300  0.27552700  1
  O  O33  1  0.90261500  0.79685800  0.51313700  1
  O  O34  1  0.79994000  0.53175300  0.82872900  1
  O  O35  1  0.40714700  0.05183000  0.24817100  1
  O  O36  1  0.60145100  0.49645900  0.87215300  1
  O  O37  1  0.75368700  0.00714100  0.34527100  1
  O  O38  1  0.73125300  0.28267600  0.08112800  1
  O  O39  1  0.28252000  0.33556800  0.06997000  1
  O  O40  1  0.38724600  0.73167800  0.74793800  1
  O  O41  1  0.03067100  0.73319600  0.80265500  1
  O  O42  1  0.96932900  0.26680400  0.19734500  1
  O  O43  1  0.61275400  0.26832200  0.25206200  1
  O  O44  1  0.71748000  0.66443200  0.93003000  1
  O  O45  1  0.26874700  0.71732400  0.91887200  1
  O  O46  1  0.24631300  0.99285900  0.65472900  1
  O  O47  1  0.39854900  0.50354100  0.12784700  1
  O  O48  1  0.59285300  0.94817000  0.75182900  1
  O  O49  1  0.20006000  0.46824700  0.17127100  1
  O  O50  1  0.09738500  0.20314200  0.48686300  1
  O  O51  1  0.90265200  0.00778700  0.72447300  1
  O  O52  1  0.98584900  0.79008300  0.97371800  1
  O  O53  1  0.48584900  0.20991700  0.52628200  1
  O  O54  1  0.40265200  0.99221300  0.77552700  1
  O  O55  1  0.09285300  0.05183000  0.74817100  1
  O  O56  1  0.74631300  0.00714100  0.84527100  1
  O  O57  1  0.76874700  0.28267600  0.58112800  1
  O  O58  1  0.59738500  0.79685800  0.01313700  1
  O  O59  1  0.70006000  0.53175300  0.32872900  1
  O  O60  1  0.89854900  0.49645900  0.37215300  1
  O  O61  1  0.21748000  0.33556800  0.56997000  1
  O  O62  1  0.53067100  0.26680400  0.69734500  1
  O  O63  1  0.11275400  0.73167800  0.24793800  1
