# generated using pymatgen
data_Li6MnS4
_symmetry_space_group_name_H-M   'P 1'
_cell_length_a   8.04711200
_cell_length_b   8.04711200
_cell_length_c   5.80386000
_cell_angle_alpha   90.00000000
_cell_angle_beta   90.00000000
_cell_angle_gamma   90.00000000
_symmetry_Int_Tables_number   1
_chemical_formula_structural   Li6MnS4
_chemical_formula_sum   'Li12 Mn2 S8'
_cell_volume   375.83482514
_cell_formula_units_Z   2
loop_
 _symmetry_equiv_pos_site_id
 _symmetry_equiv_pos_as_xyz
  1  'x, y, z'
loop_
 _atom_site_type_symbol
 _atom_site_label
 _atom_site_symmetry_multiplicity
 _atom_site_fract_x
 _atom_site_fract_y
 _atom_site_fract_z
 _atom_site_occupancy
  Li  Li0  1  0.27432200  0.27432200  0.50000000  1
  Li  Li1  1  0.72567800  0.27432200  0.50000000  1
  Li  Li2  1  0.00000000  0.50000000  0.46234700  1
  Li  Li3  1  0.00000000  0.50000000  0.96234700  1
  Li  Li4  1  0.27432200  0.72567800  0.50000000  1
  Li  Li5  1  0.72567800  0.72567800  0.50000000  1
  Li  Li6  1  0.77432200  0.77432200  0.00000000  1
  Li  Li7  1  0.22567800  0.77432200  0.00000000  1
  Li  Li8  1  0.50000000  0.00000000  0.03765300  1
  Li  Li9  1  0.50000000  0.00000000  0.53765300  1
  Li  Li10  1  0.77432200  0.22567800  0.00000000  1
  Li  Li11  1  0.22567800  0.22567800  0.00000000  1
  Mn  Mn12  1  0.50000000  0.50000000  0.00000000  1
  Mn  Mn13  1  0.00000000  0.00000000  0.50000000  1
  S  S14  1  0.00000000  0.25691700  0.71570300  1
  S  S15  1  0.75691700  0.50000000  0.21570300  1
  S  S16  1  0.24308300  0.50000000  0.21570300  1
  S  S17  1  0.00000000  0.74308300  0.71570300  1
  S  S18  1  0.50000000  0.75691700  0.78429700  1
  S  S19  1  0.74308300  0.00000000  0.28429700  1
  S  S20  1  0.25691700  0.00000000  0.28429700  1
  S  S21  1  0.50000000  0.24308300  0.78429700  1
