# generated using pymatgen
data_Lu2TiO5
_symmetry_space_group_name_H-M   'P 1'
_cell_length_a   3.63521700
_cell_length_b   10.29169500
_cell_length_c   11.09708900
_cell_angle_alpha   90.00000000
_cell_angle_beta   90.00000000
_cell_angle_gamma   90.00000000
_symmetry_Int_Tables_number   1
_chemical_formula_structural   Lu2TiO5
_chemical_formula_sum   'Lu8 Ti4 O20'
_cell_volume   415.17033740
_cell_formula_units_Z   4
loop_
 _symmetry_equiv_pos_site_id
 _symmetry_equiv_pos_as_xyz
  1  'x, y, z'
loop_
 _atom_site_type_symbol
 _atom_site_label
 _atom_site_symmetry_multiplicity
 _atom_site_fract_x
 _atom_site_fract_y
 _atom_site_fract_z
 _atom_site_occupancy
  Lu  Lu0  1  0.25000000  0.11499400  0.27567700  1
  Lu  Lu1  1  0.25000000  0.13467000  0.94291900  1
  Lu  Lu2  1  0.75000000  0.36533000  0.44291900  1
  Lu  Lu3  1  0.75000000  0.38500600  0.77567700  1
  Lu  Lu4  1  0.25000000  0.61499400  0.22432300  1
  Lu  Lu5  1  0.25000000  0.63467000  0.55708100  1
  Lu  Lu6  1  0.75000000  0.86533000  0.05708100  1
  Lu  Lu7  1  0.75000000  0.88500600  0.72432300  1
  Ti  Ti8  1  0.25000000  0.17606200  0.61956100  1
  Ti  Ti9  1  0.75000000  0.32393800  0.11956100  1
  Ti  Ti10  1  0.25000000  0.67606200  0.88043900  1
  Ti  Ti11  1  0.75000000  0.82393800  0.38043900  1
  O  O12  1  0.75000000  0.00742100  0.89550200  1
  O  O13  1  0.25000000  0.00710300  0.65884600  1
  O  O14  1  0.25000000  0.22593000  0.45414200  1
  O  O15  1  0.75000000  0.24443100  0.61596100  1
  O  O16  1  0.75000000  0.24005100  0.27324000  1
  O  O17  1  0.25000000  0.25994900  0.77324000  1
  O  O18  1  0.25000000  0.25556900  0.11596100  1
  O  O19  1  0.75000000  0.27407000  0.95414200  1
  O  O20  1  0.75000000  0.49289700  0.15884600  1
  O  O21  1  0.25000000  0.49257900  0.39550200  1
  O  O22  1  0.75000000  0.50742100  0.60449800  1
  O  O23  1  0.25000000  0.50710300  0.84115400  1
  O  O24  1  0.25000000  0.72593000  0.04585800  1
  O  O25  1  0.75000000  0.74443100  0.88403900  1
  O  O26  1  0.75000000  0.74005100  0.22676000  1
  O  O27  1  0.25000000  0.75994900  0.72676000  1
  O  O28  1  0.25000000  0.75556900  0.38403900  1
  O  O29  1  0.75000000  0.77407000  0.54585800  1
  O  O30  1  0.75000000  0.99289700  0.34115400  1
  O  O31  1  0.25000000  0.99257900  0.10449800  1
