# generated using pymatgen
data_ZnCrH15N5Cl4F
_symmetry_space_group_name_H-M   'P 1'
_cell_length_a   9.64013194
_cell_length_b   9.64013194
_cell_length_c   9.17435000
_cell_angle_alpha   90.00000000
_cell_angle_beta   90.00000000
_cell_angle_gamma   130.78024200
_symmetry_Int_Tables_number   1
_chemical_formula_structural   ZnCrH15N5Cl4F
_chemical_formula_sum   'Zn2 Cr2 H30 N10 Cl8 F2'
_cell_volume   645.60001255
_cell_formula_units_Z   2
loop_
 _symmetry_equiv_pos_site_id
 _symmetry_equiv_pos_as_xyz
  1  'x, y, z'
loop_
 _atom_site_type_symbol
 _atom_site_label
 _atom_site_symmetry_multiplicity
 _atom_site_fract_x
 _atom_site_fract_y
 _atom_site_fract_z
 _atom_site_occupancy
  Zn  Zn0  1  0.11112300  0.88887700  0.47777900  1
  Zn  Zn1  1  0.88887700  0.11112300  0.97777900  1
  Cr  Cr2  1  0.39940600  0.60059400  0.57921300  1
  Cr  Cr3  1  0.60059400  0.39940600  0.07921300  1
  H  H4  1  0.72056800  0.70369600  0.63671700  1
  H  H5  1  0.29630400  0.27943200  0.63671700  1
  H  H6  1  0.27943200  0.29630400  0.13671700  1
  H  H7  1  0.70369600  0.72056800  0.13671700  1
  H  H8  1  0.61756200  0.66287400  0.79431100  1
  H  H9  1  0.33712600  0.38243800  0.79431100  1
  H  H10  1  0.38243800  0.33712600  0.29431100  1
  H  H11  1  0.66287400  0.61756200  0.29431100  1
  H  H12  1  0.72024200  0.86057000  0.70742600  1
  H  H13  1  0.13943000  0.27975800  0.70742600  1
  H  H14  1  0.27975800  0.13943000  0.20742600  1
  H  H15  1  0.86057000  0.72024200  0.20742600  1
  H  H16  1  0.21750300  0.57822500  0.81420300  1
  H  H17  1  0.42177500  0.78249700  0.81420300  1
  H  H18  1  0.78249700  0.42177500  0.31420300  1
  H  H19  1  0.57822500  0.21750300  0.31420300  1
  H  H20  1  0.26015200  0.73984800  0.70688600  1
  H  H21  1  0.73984800  0.26015200  0.20688600  1
  H  H22  1  0.14260400  0.41886900  0.37172300  1
  H  H23  1  0.58113100  0.85739600  0.37172300  1
  H  H24  1  0.85739600  0.58113100  0.87172300  1
  H  H25  1  0.41886900  0.14260400  0.87172300  1
  H  H26  1  0.13071500  0.56664500  0.44615600  1
  H  H27  1  0.43335500  0.86928500  0.44615600  1
  H  H28  1  0.86928500  0.43335500  0.94615600  1
  H  H29  1  0.56664500  0.13071500  0.94615600  1
  H  H30  1  0.03873600  0.37332200  0.53055600  1
  H  H31  1  0.62667800  0.96126400  0.53055600  1
  H  H32  1  0.96126400  0.62667800  0.03055600  1
  H  H33  1  0.37332200  0.03873600  0.03055600  1
  N  N34  1  0.64179700  0.72218400  0.69342800  1
  N  N35  1  0.27781600  0.35820300  0.69342800  1
  N  N36  1  0.35820300  0.27781600  0.19342800  1
  N  N37  1  0.72218400  0.64179700  0.19342800  1
  N  N38  1  0.31472100  0.68527900  0.74783200  1
  N  N39  1  0.68527900  0.31472100  0.24783200  1
  N  N40  1  0.14910200  0.47507900  0.46874700  1
  N  N41  1  0.52492100  0.85089800  0.46874700  1
  N  N42  1  0.85089800  0.52492100  0.96874700  1
  N  N43  1  0.47507900  0.14910200  0.96874700  1
  Cl  Cl44  1  0.17931100  0.82068900  0.25560300  1
  Cl  Cl45  1  0.82068900  0.17931100  0.75560300  1
  Cl  Cl46  1  0.98435400  0.01564600  0.43510800  1
  Cl  Cl47  1  0.01564600  0.98435400  0.93510800  1
  Cl  Cl48  1  0.91302500  0.60876600  0.58842000  1
  Cl  Cl49  1  0.39123400  0.08697500  0.58842000  1
  Cl  Cl50  1  0.08697500  0.39123400  0.08842000  1
  Cl  Cl51  1  0.60876600  0.91302500  0.08842000  1
  F  F52  1  0.47595200  0.52404800  0.42930400  1
  F  F53  1  0.52404800  0.47595200  0.92930400  1
