# generated using pymatgen
data_YTa3O9
_symmetry_space_group_name_H-M   'P 1'
_cell_length_a   7.54442300
_cell_length_b   5.31756700
_cell_length_c   8.31815948
_cell_angle_alpha   87.37935283
_cell_angle_beta   90.00000000
_cell_angle_gamma   90.00000000
_symmetry_Int_Tables_number   1
_chemical_formula_structural   YTa3O9
_chemical_formula_sum   'Y2 Ta6 O18'
_cell_volume   333.35870671
_cell_formula_units_Z   2
loop_
 _symmetry_equiv_pos_site_id
 _symmetry_equiv_pos_as_xyz
  1  'x, y, z'
loop_
 _atom_site_type_symbol
 _atom_site_label
 _atom_site_symmetry_multiplicity
 _atom_site_fract_x
 _atom_site_fract_y
 _atom_site_fract_z
 _atom_site_occupancy
  Y  Y0  1  0.25000000  0.96318200  0.43534400  1
  Y  Y1  1  0.75000000  0.03681800  0.56465600  1
  Ta  Ta2  1  0.00000000  0.00000000  0.00000000  1
  Ta  Ta3  1  0.50000000  0.00000000  0.00000000  1
  Ta  Ta4  1  0.49392700  0.53016600  0.69548500  1
  Ta  Ta5  1  0.00607300  0.53016600  0.69548500  1
  Ta  Ta6  1  0.99392700  0.46983400  0.30451500  1
  Ta  Ta7  1  0.50607300  0.46983400  0.30451500  1
  O  O8  1  0.25000000  0.90931900  0.97875500  1
  O  O9  1  0.93632700  0.85095500  0.78488100  1
  O  O10  1  0.56367300  0.85095500  0.78488100  1
  O  O11  1  0.95866000  0.74231800  0.46800100  1
  O  O12  1  0.54134000  0.74231800  0.46800100  1
  O  O13  1  0.25000000  0.65940100  0.65611700  1
  O  O14  1  0.94974400  0.67544400  0.12147500  1
  O  O15  1  0.55025600  0.67544400  0.12147500  1
  O  O16  1  0.25000000  0.57680000  0.31569500  1
  O  O17  1  0.75000000  0.42320000  0.68430500  1
  O  O18  1  0.05025600  0.32455600  0.87852500  1
  O  O19  1  0.44974400  0.32455600  0.87852500  1
  O  O20  1  0.75000000  0.34059900  0.34388300  1
  O  O21  1  0.04134000  0.25768200  0.53199900  1
  O  O22  1  0.45866000  0.25768200  0.53199900  1
  O  O23  1  0.06367300  0.14904500  0.21511900  1
  O  O24  1  0.43632700  0.14904500  0.21511900  1
  O  O25  1  0.75000000  0.09068100  0.02124500  1
