# generated using pymatgen
data_BeH14(I2O9)2
_symmetry_space_group_name_H-M   'P 1'
_cell_length_a   7.88794000
_cell_length_b   8.65521700
_cell_length_c   24.87492600
_cell_angle_alpha   90.00000000
_cell_angle_beta   90.00000000
_cell_angle_gamma   90.00000000
_symmetry_Int_Tables_number   1
_chemical_formula_structural   BeH14(I2O9)2
_chemical_formula_sum   'Be4 H56 I16 O72'
_cell_volume   1698.25677841
_cell_formula_units_Z   4
loop_
 _symmetry_equiv_pos_site_id
 _symmetry_equiv_pos_as_xyz
  1  'x, y, z'
loop_
 _atom_site_type_symbol
 _atom_site_label
 _atom_site_symmetry_multiplicity
 _atom_site_fract_x
 _atom_site_fract_y
 _atom_site_fract_z
 _atom_site_occupancy
  Be  Be0  1  0.29805900  0.88130200  0.75000000  1
  Be  Be1  1  0.79805900  0.61869800  0.75000000  1
  Be  Be2  1  0.70194100  0.11869800  0.25000000  1
  Be  Be3  1  0.20194100  0.38130200  0.25000000  1
  H  H4  1  0.85164900  0.10949600  0.83202700  1
  H  H5  1  0.35164900  0.39050400  0.66797300  1
  H  H6  1  0.14835100  0.89050400  0.33202700  1
  H  H7  1  0.64835100  0.60949600  0.16797300  1
  H  H8  1  0.14835100  0.89050400  0.16797300  1
  H  H9  1  0.64835100  0.60949600  0.33202700  1
  H  H10  1  0.85164900  0.10949600  0.66797300  1
  H  H11  1  0.35164900  0.39050400  0.83202700  1
  H  H12  1  0.09098900  0.05277400  0.71737600  1
  H  H13  1  0.59098900  0.44722600  0.78262400  1
  H  H14  1  0.90901100  0.94722600  0.21737600  1
  H  H15  1  0.40901100  0.55277400  0.28262400  1
  H  H16  1  0.90901100  0.94722600  0.28262400  1
  H  H17  1  0.40901100  0.55277400  0.21737600  1
  H  H18  1  0.09098900  0.05277400  0.78262400  1
  H  H19  1  0.59098900  0.44722600  0.71737600  1
  H  H20  1  0.54162300  0.99945900  0.78269500  1
  H  H21  1  0.04162300  0.50054100  0.71730500  1
  H  H22  1  0.45837700  0.00054100  0.28269500  1
  H  H23  1  0.95837700  0.49945900  0.21730500  1
  H  H24  1  0.45837700  0.00054100  0.21730500  1
  H  H25  1  0.95837700  0.49945900  0.28269500  1
  H  H26  1  0.54162300  0.99945900  0.71730500  1
  H  H27  1  0.04162300  0.50054100  0.78269500  1
  H  H28  1  0.17556400  0.78819100  0.67124500  1
  H  H29  1  0.67556400  0.71180900  0.82875500  1
  H  H30  1  0.82443600  0.21180900  0.17124500  1
  H  H31  1  0.32443600  0.28819100  0.32875500  1
  H  H32  1  0.82443600  0.21180900  0.32875500  1
  H  H33  1  0.32443600  0.28819100  0.17124500  1
  H  H34  1  0.17556400  0.78819100  0.82875500  1
  H  H35  1  0.67556400  0.71180900  0.67124500  1
  H  H36  1  0.37593400  0.77180800  0.66645400  1
  H  H37  1  0.87593400  0.72819200  0.83354600  1
  H  H38  1  0.62406600  0.22819200  0.16645400  1
  H  H39  1  0.12406600  0.27180800  0.33354600  1
  H  H40  1  0.62406600  0.22819200  0.33354600  1
  H  H41  1  0.12406600  0.27180800  0.16645400  1
  H  H42  1  0.37593400  0.77180800  0.83354600  1
  H  H43  1  0.87593400  0.72819200  0.66645400  1
  H  H44  1  0.48887600  0.64608500  0.59921800  1
  H  H45  1  0.98887600  0.85391500  0.90078200  1
  H  H46  1  0.51112400  0.35391500  0.09921800  1
  H  H47  1  0.01112400  0.14608500  0.40078200  1
  H  H48  1  0.51112400  0.35391500  0.40078200  1
  H  H49  1  0.01112400  0.14608500  0.09921800  1
  H  H50  1  0.48887600  0.64608500  0.90078200  1
  H  H51  1  0.98887600  0.85391500  0.59921800  1
  H  H52  1  0.54232200  0.82380900  0.59729900  1
  H  H53  1  0.04232200  0.67619100  0.90270100  1
  H  H54  1  0.45767800  0.17619100  0.09729900  1
  H  H55  1  0.95767800  0.32380900  0.40270100  1
  H  H56  1  0.45767800  0.17619100  0.40270100  1
  H  H57  1  0.95767800  0.32380900  0.09729900  1
  H  H58  1  0.54232200  0.82380900  0.90270100  1
  H  H59  1  0.04232200  0.67619100  0.59729900  1
  I  I60  1  0.03476700  0.29159300  0.88344600  1
  I  I61  1  0.53476700  0.20840700  0.61655400  1
  I  I62  1  0.96523300  0.70840700  0.38344600  1
  I  I63  1  0.46523300  0.79159300  0.11655400  1
  I  I64  1  0.96523300  0.70840700  0.11655400  1
  I  I65  1  0.46523300  0.79159300  0.38344600  1
  I  I66  1  0.03476700  0.29159300  0.61655400  1
  I  I67  1  0.53476700  0.20840700  0.88344600  1
  I  I68  1  0.26516800  0.52018500  0.99243500  1
  I  I69  1  0.76516800  0.97981500  0.50756500  1
  I  I70  1  0.73483200  0.47981500  0.49243500  1
  I  I71  1  0.23483200  0.02018500  0.00756500  1
  I  I72  1  0.73483200  0.47981500  0.00756500  1
  I  I73  1  0.23483200  0.02018500  0.49243500  1
  I  I74  1  0.26516800  0.52018500  0.50756500  1
  I  I75  1  0.76516800  0.97981500  0.99243500  1
  O  O76  1  0.82150600  0.37131500  0.88318000  1
  O  O77  1  0.32150600  0.12868500  0.61682000  1
  O  O78  1  0.17849400  0.62868500  0.38318000  1
  O  O79  1  0.67849400  0.87131500  0.11682000  1
  O  O80  1  0.17849400  0.62868500  0.11682000  1
  O  O81  1  0.67849400  0.87131500  0.38318000  1
  O  O82  1  0.82150600  0.37131500  0.61682000  1
  O  O83  1  0.32150600  0.12868500  0.88318000  1
  O  O84  1  0.13925200  0.41336400  0.83343800  1
  O  O85  1  0.63925200  0.08663600  0.66656200  1
  O  O86  1  0.86074800  0.58663600  0.33343800  1
  O  O87  1  0.36074800  0.91336400  0.16656200  1
  O  O88  1  0.86074800  0.58663600  0.16656200  1
  O  O89  1  0.36074800  0.91336400  0.33343800  1
  O  O90  1  0.13925200  0.41336400  0.66656200  1
  O  O91  1  0.63925200  0.08663600  0.83343800  1
  O  O92  1  0.97844800  0.12834400  0.83090200  1
  O  O93  1  0.47844800  0.37165600  0.66909800  1
  O  O94  1  0.02155200  0.87165600  0.33090200  1
  O  O95  1  0.52155200  0.62834400  0.16909800  1
  O  O96  1  0.02155200  0.87165600  0.16909800  1
  O  O97  1  0.52155200  0.62834400  0.33090200  1
  O  O98  1  0.97844800  0.12834400  0.66909800  1
  O  O99  1  0.47844800  0.37165600  0.83090200  1
  O  O100  1  0.27715700  0.72983300  0.99353100  1
  O  O101  1  0.77715700  0.77016700  0.50646900  1
  O  O102  1  0.72284300  0.27016700  0.49353100  1
  O  O103  1  0.22284300  0.22983300  0.00646900  1
  O  O104  1  0.72284300  0.27016700  0.00646900  1
  O  O105  1  0.22284300  0.22983300  0.49353100  1
  O  O106  1  0.27715700  0.72983300  0.50646900  1
  O  O107  1  0.77715700  0.77016700  0.99353100  1
  O  O108  1  0.43742300  0.47980900  0.94399300  1
  O  O109  1  0.93742300  0.02019100  0.55600700  1
  O  O110  1  0.56257700  0.52019100  0.44399300  1
  O  O111  1  0.06257700  0.97980900  0.05600700  1
  O  O112  1  0.56257700  0.52019100  0.05600700  1
  O  O113  1  0.06257700  0.97980900  0.44399300  1
  O  O114  1  0.43742300  0.47980900  0.55600700  1
  O  O115  1  0.93742300  0.02019100  0.94399300  1
  O  O116  1  0.08271800  0.50333500  0.94433800  1
  O  O117  1  0.58271800  0.99666500  0.55566200  1
  O  O118  1  0.91728200  0.49666500  0.44433800  1
  O  O119  1  0.41728200  0.00333500  0.05566200  1
  O  O120  1  0.91728200  0.49666500  0.05566200  1
  O  O121  1  0.41728200  0.00333500  0.44433800  1
  O  O122  1  0.08271800  0.50333500  0.55566200  1
  O  O123  1  0.58271800  0.99666500  0.94433800  1
  O  O124  1  0.14032700  0.00190900  0.75000000  1
  O  O125  1  0.64032700  0.49809100  0.75000000  1
  O  O126  1  0.85967300  0.99809100  0.25000000  1
  O  O127  1  0.35967300  0.50190900  0.25000000  1
  O  O128  1  0.49108700  0.94905800  0.75000000  1
  O  O129  1  0.99108700  0.55094200  0.75000000  1
  O  O130  1  0.50891300  0.05094200  0.25000000  1
  O  O131  1  0.00891300  0.44905800  0.25000000  1
  O  O132  1  0.28129800  0.78682000  0.69340500  1
  O  O133  1  0.78129800  0.71318000  0.80659500  1
  O  O134  1  0.71870200  0.21318000  0.19340500  1
  O  O135  1  0.21870200  0.28682000  0.30659500  1
  O  O136  1  0.71870200  0.21318000  0.30659500  1
  O  O137  1  0.21870200  0.28682000  0.19340500  1
  O  O138  1  0.28129800  0.78682000  0.80659500  1
  O  O139  1  0.78129800  0.71318000  0.69340500  1
  O  O140  1  0.52015900  0.73590400  0.62213100  1
  O  O141  1  0.02015900  0.76409600  0.87786900  1
  O  O142  1  0.47984100  0.26409600  0.12213100  1
  O  O143  1  0.97984100  0.23590400  0.37786900  1
  O  O144  1  0.47984100  0.26409600  0.37786900  1
  O  O145  1  0.97984100  0.23590400  0.12213100  1
  O  O146  1  0.52015900  0.73590400  0.87786900  1
  O  O147  1  0.02015900  0.76409600  0.62213100  1
