# generated using pymatgen
data_K9(WO3)20
_symmetry_space_group_name_H-M   'P 1'
_cell_length_a   7.84079409
_cell_length_b   13.14579826
_cell_length_c   13.13321431
_cell_angle_alpha   84.72033081
_cell_angle_beta   107.38314068
_cell_angle_gamma   107.34161826
_symmetry_Int_Tables_number   1
_chemical_formula_structural   K9(WO3)20
_chemical_formula_sum   'K9 W20 O60'
_cell_volume   1233.13246864
_cell_formula_units_Z   1
loop_
 _symmetry_equiv_pos_site_id
 _symmetry_equiv_pos_as_xyz
  1  'x, y, z'
loop_
 _atom_site_type_symbol
 _atom_site_label
 _atom_site_symmetry_multiplicity
 _atom_site_fract_x
 _atom_site_fract_y
 _atom_site_fract_z
 _atom_site_occupancy
  K  K0  1  0.75058800  0.67417500  0.82700300  1
  K  K1  1  0.25090000  0.67411300  0.82733100  1
  K  K2  1  0.42308400  0.17256100  0.67379200  1
  K  K3  1  0.92301500  0.17223000  0.67374400  1
  K  K4  1  0.50000000  0.50000000  0.50000000  1
  K  K5  1  0.57691600  0.82743900  0.32620800  1
  K  K6  1  0.07698500  0.82777000  0.32625600  1
  K  K7  1  0.74910000  0.32588700  0.17266900  1
  K  K8  1  0.24941200  0.32582500  0.17299700  1
  W  W9  1  0.31583500  0.20657300  0.92508600  1
  W  W10  1  0.81614200  0.20635200  0.92588500  1
  W  W11  1  0.60830000  0.92408800  0.79254600  1
  W  W12  1  0.10986100  0.92625700  0.79343800  1
  W  W13  1  0.81848500  0.42453000  0.70852300  1
  W  W14  1  0.31493300  0.42412700  0.70873400  1
  W  W15  1  0.89607000  0.71139400  0.57689800  1
  W  W16  1  0.39073500  0.70869200  0.57582600  1
  W  W17  1  0.00000000  0.00000000  0.50000000  1
  W  W18  1  0.50000000  0.00000000  0.50000000  1
  W  W19  1  0.10393000  0.28860600  0.42310200  1
  W  W20  1  0.60926500  0.29130800  0.42417400  1
  W  W21  1  0.68506700  0.57587300  0.29126600  1
  W  W22  1  0.18151500  0.57547000  0.29147700  1
  W  W23  1  0.89013900  0.07374300  0.20656200  1
  W  W24  1  0.39170000  0.07591200  0.20745400  1
  W  W25  1  0.68416500  0.79342700  0.07491400  1
  W  W26  1  0.18385800  0.79364800  0.07411500  1
  W  W27  1  0.50000000  0.50000000  0.00000000  1
  W  W28  1  0.00000000  0.50000000  0.00000000  1
  O  O29  1  0.14301200  0.85586300  0.93020100  1
  O  O30  1  0.64294300  0.85562600  0.93023500  1
  O  O31  1  0.56796900  0.20788200  0.92568400  1
  O  O32  1  0.06558100  0.20782000  0.92574700  1
  O  O33  1  0.71398900  0.07209100  0.85592200  1
  O  O34  1  0.21531000  0.07312900  0.85750400  1
  O  O35  1  0.42218800  0.50082300  0.84429000  1
  O  O36  1  0.92368200  0.50125400  0.84536500  1
  O  O37  1  0.78919700  0.28797400  0.79022400  1
  O  O38  1  0.28808400  0.28500800  0.79170600  1
  O  O39  1  0.36514400  0.92576400  0.79298900  1
  O  O40  1  0.85350200  0.92569700  0.79291300  1
  O  O41  1  0.06069700  0.42372100  0.70980100  1
  O  O42  1  0.57258000  0.42466700  0.70849200  1
  O  O43  1  0.99887700  0.78707300  0.71052200  1
  O  O44  1  0.50290700  0.79118800  0.71506400  1
  O  O45  1  0.07744500  0.00043100  0.65443900  1
  O  O46  1  0.57803300  0.00124100  0.65476500  1
  O  O47  1  0.85641200  0.57002400  0.64399200  1
  O  O48  1  0.35840000  0.57339200  0.64268400  1
  O  O49  1  0.13601300  0.70852600  0.57621400  1
  O  O50  1  0.64772500  0.70717500  0.57524300  1
  O  O51  1  0.21494200  0.35725500  0.57189100  1
  O  O52  1  0.71479400  0.35718900  0.57371700  1
  O  O53  1  0.74329500  0.99980500  0.49997700  1
  O  O54  1  0.07976500  0.15863400  0.50160500  1
  O  O55  1  0.25670500  0.00019500  0.50002300  1
  O  O56  1  0.57882100  0.15578700  0.50114900  1
  O  O57  1  0.42117900  0.84421300  0.49885100  1
  O  O58  1  0.92023500  0.84136600  0.49839500  1
  O  O59  1  0.78505800  0.64274500  0.42810900  1
  O  O60  1  0.28520600  0.64281100  0.42628300  1
  O  O61  1  0.35227500  0.29282500  0.42475700  1
  O  O62  1  0.86398700  0.29147400  0.42378600  1
  O  O63  1  0.64160000  0.42660800  0.35731600  1
  O  O64  1  0.14358800  0.42997600  0.35600800  1
  O  O65  1  0.92255500  0.99956900  0.34556100  1
  O  O66  1  0.42196700  0.99875900  0.34523500  1
  O  O67  1  0.00112300  0.21292700  0.28947700  1
  O  O68  1  0.49709300  0.20881200  0.28493600  1
  O  O69  1  0.42742000  0.57533300  0.29150800  1
  O  O70  1  0.93930300  0.57627900  0.29019900  1
  O  O71  1  0.14649800  0.07430300  0.20708800  1
  O  O72  1  0.63485600  0.07423600  0.20701100  1
  O  O73  1  0.71191600  0.71499200  0.20829400  1
  O  O74  1  0.21080300  0.71202600  0.20977600  1
  O  O75  1  0.57781200  0.49917700  0.15571000  1
  O  O76  1  0.07631800  0.49874600  0.15463500  1
  O  O77  1  0.78469000  0.92687100  0.14249600  1
  O  O78  1  0.28601100  0.92790900  0.14407800  1
  O  O79  1  0.43203100  0.79211800  0.07431600  1
  O  O80  1  0.93441900  0.79218000  0.07425300  1
  O  O81  1  0.35705700  0.14437400  0.06976500  1
  O  O82  1  0.85698800  0.14413700  0.06979900  1
  O  O83  1  0.42288600  0.34497700  0.00069700  1
  O  O84  1  0.92254100  0.34483900  0.00030500  1
  O  O85  1  0.24985700  0.49998400  0.00019800  1
  O  O86  1  0.75014300  0.50001600  0.99980200  1
  O  O87  1  0.57711400  0.65502300  0.99930300  1
  O  O88  1  0.07745900  0.65516100  0.99969500  1
