# generated using pymatgen
data_SrFe3P4HO16
_symmetry_space_group_name_H-M   'P 1'
_cell_length_a   7.39179300
_cell_length_b   8.60538300
_cell_length_c   19.80375540
_cell_angle_alpha   85.13171982
_cell_angle_beta   90.00000000
_cell_angle_gamma   90.00000000
_symmetry_Int_Tables_number   1
_chemical_formula_structural   SrFe3P4HO16
_chemical_formula_sum   'Sr4 Fe12 P16 H4 O64'
_cell_volume   1255.15677428
_cell_formula_units_Z   4
loop_
 _symmetry_equiv_pos_site_id
 _symmetry_equiv_pos_as_xyz
  1  'x, y, z'
loop_
 _atom_site_type_symbol
 _atom_site_label
 _atom_site_symmetry_multiplicity
 _atom_site_fract_x
 _atom_site_fract_y
 _atom_site_fract_z
 _atom_site_occupancy
  Sr  Sr0  1  0.56202900  0.29824100  0.06241800  1
  Sr  Sr1  1  0.06202900  0.70175900  0.43758200  1
  Sr  Sr2  1  0.43797100  0.70175900  0.93758200  1
  Sr  Sr3  1  0.93797100  0.29824100  0.56241800  1
  Fe  Fe4  1  0.93492400  0.71740600  0.91836700  1
  Fe  Fe5  1  0.43492400  0.28259400  0.58163300  1
  Fe  Fe6  1  0.06507600  0.28259400  0.08163300  1
  Fe  Fe7  1  0.56507600  0.71740600  0.41836700  1
  Fe  Fe8  1  0.49302500  0.77064100  0.71422100  1
  Fe  Fe9  1  0.99302500  0.22935900  0.78577900  1
  Fe  Fe10  1  0.50697500  0.22935900  0.28577900  1
  Fe  Fe11  1  0.00697500  0.77064100  0.21422100  1
  Fe  Fe12  1  0.39787000  0.23578600  0.80920600  1
  Fe  Fe13  1  0.89787000  0.76421400  0.69079400  1
  Fe  Fe14  1  0.60213000  0.76421400  0.19079400  1
  Fe  Fe15  1  0.10213000  0.23578600  0.30920600  1
  P  P16  1  0.70650800  0.05320500  0.89988600  1
  P  P17  1  0.20650800  0.94679500  0.60011400  1
  P  P18  1  0.29349200  0.94679500  0.10011400  1
  P  P19  1  0.79349200  0.05320500  0.39988600  1
  P  P20  1  0.18233600  0.88466300  0.81042400  1
  P  P21  1  0.68233600  0.11533700  0.68957600  1
  P  P22  1  0.81766400  0.11533700  0.18957600  1
  P  P23  1  0.31766400  0.88466300  0.31042400  1
  P  P24  1  0.70629500  0.51603400  0.81789800  1
  P  P25  1  0.20629500  0.48396600  0.68210200  1
  P  P26  1  0.29370500  0.48396600  0.18210200  1
  P  P27  1  0.79370500  0.51603400  0.31789800  1
  P  P28  1  0.81877400  0.61438100  0.06822600  1
  P  P29  1  0.31877400  0.38561900  0.43177400  1
  P  P30  1  0.18122600  0.38561900  0.93177400  1
  P  P31  1  0.68122600  0.61438100  0.56822600  1
  H  H32  1  0.85871700  0.21660700  0.96220000  1
  H  H33  1  0.35871700  0.78339300  0.53780000  1
  H  H34  1  0.14128300  0.78339300  0.03780000  1
  H  H35  1  0.64128300  0.21660700  0.46220000  1
  O  O36  1  0.11857200  0.55260600  0.90572800  1
  O  O37  1  0.61857200  0.44739400  0.59427200  1
  O  O38  1  0.88142800  0.44739400  0.09427200  1
  O  O39  1  0.38142800  0.55260600  0.40572800  1
  O  O40  1  0.96343300  0.69043700  0.01671900  1
  O  O41  1  0.46343300  0.30956300  0.48328100  1
  O  O42  1  0.03656700  0.30956300  0.98328100  1
  O  O43  1  0.53656700  0.69043700  0.51671900  1
  O  O44  1  0.73371500  0.59746100  0.88479800  1
  O  O45  1  0.23371500  0.40253900  0.61520200  1
  O  O46  1  0.26628500  0.40253900  0.11520200  1
  O  O47  1  0.76628500  0.59746100  0.38479800  1
  O  O48  1  0.13218000  0.86055100  0.88753800  1
  O  O49  1  0.63218000  0.13944900  0.61246200  1
  O  O50  1  0.86782000  0.13944900  0.11246200  1
  O  O51  1  0.36782000  0.86055100  0.38753800  1
  O  O52  1  0.72958900  0.88204900  0.92832900  1
  O  O53  1  0.22958900  0.11795100  0.57167100  1
  O  O54  1  0.27041100  0.11795100  0.07167100  1
  O  O55  1  0.77041100  0.88204900  0.42832900  1
  O  O56  1  0.69933500  0.64652800  0.75834500  1
  O  O57  1  0.19933500  0.35347200  0.74165500  1
  O  O58  1  0.30066500  0.35347200  0.24165500  1
  O  O59  1  0.80066500  0.64652800  0.25834500  1
  O  O60  1  0.68932200  0.72191700  0.62735500  1
  O  O61  1  0.18932200  0.27808300  0.87264500  1
  O  O62  1  0.31067800  0.27808300  0.37264500  1
  O  O63  1  0.81067800  0.72191700  0.12735500  1
  O  O64  1  0.69620800  0.93801200  0.71284200  1
  O  O65  1  0.19620800  0.06198800  0.78715800  1
  O  O66  1  0.30379200  0.06198800  0.28715800  1
  O  O67  1  0.80379200  0.93801200  0.21284200  1
  O  O68  1  0.34526600  0.90789000  0.65608600  1
  O  O69  1  0.84526600  0.09211000  0.84391400  1
  O  O70  1  0.65473400  0.09211000  0.34391400  1
  O  O71  1  0.15473400  0.90789000  0.15608600  1
  O  O72  1  0.36657900  0.58905800  0.69314300  1
  O  O73  1  0.86657900  0.41094200  0.80685700  1
  O  O74  1  0.63342100  0.41094200  0.30685700  1
  O  O75  1  0.13342100  0.58905800  0.19314300  1
  O  O76  1  0.37075100  0.80703500  0.80242700  1
  O  O77  1  0.87075100  0.19296500  0.69757300  1
  O  O78  1  0.62924900  0.19296500  0.19757300  1
  O  O79  1  0.12924900  0.80703500  0.30242700  1
  O  O80  1  0.53454100  0.19274700  0.72902900  1
  O  O81  1  0.03454100  0.80725300  0.77097100  1
  O  O82  1  0.46545900  0.80725300  0.27097100  1
  O  O83  1  0.96545900  0.19274700  0.22902900  1
  O  O84  1  0.50984000  0.08142400  0.87667000  1
  O  O85  1  0.00984000  0.91857600  0.62333000  1
  O  O86  1  0.49016000  0.91857600  0.12333000  1
  O  O87  1  0.99016000  0.08142400  0.37667000  1
  O  O88  1  0.52448000  0.42937700  0.82508200  1
  O  O89  1  0.02448000  0.57062300  0.67491800  1
  O  O90  1  0.47552000  0.57062300  0.17491800  1
  O  O91  1  0.97552000  0.42937700  0.32508200  1
  O  O92  1  0.73528600  0.16570800  0.95980100  1
  O  O93  1  0.23528600  0.83429200  0.54019900  1
  O  O94  1  0.26471400  0.83429200  0.04019900  1
  O  O95  1  0.76471400  0.16570800  0.45980100  1
  O  O96  1  0.63631400  0.59721800  0.03340100  1
  O  O97  1  0.13631400  0.40278200  0.46659900  1
  O  O98  1  0.36368600  0.40278200  0.96659900  1
  O  O99  1  0.86368600  0.59721800  0.53340100  1
