# generated using pymatgen
data_Al2(SeO4)3
_symmetry_space_group_name_H-M   'P 1'
_cell_length_a   8.97245972
_cell_length_b   8.97245972
_cell_length_c   8.97246017
_cell_angle_alpha   56.42057943
_cell_angle_beta   56.42057943
_cell_angle_gamma   56.42058335
_symmetry_Int_Tables_number   1
_chemical_formula_structural   Al2(SeO4)3
_chemical_formula_sum   'Al4 Se6 O24'
_cell_volume   468.49030368
_cell_formula_units_Z   2
loop_
 _symmetry_equiv_pos_site_id
 _symmetry_equiv_pos_as_xyz
  1  'x, y, z'
loop_
 _atom_site_type_symbol
 _atom_site_label
 _atom_site_symmetry_multiplicity
 _atom_site_fract_x
 _atom_site_fract_y
 _atom_site_fract_z
 _atom_site_occupancy
  Al  Al0  1  0.64814600  0.64814600  0.64814600  1
  Al  Al1  1  0.85648300  0.85648300  0.85648300  1
  Al  Al2  1  0.14351700  0.14351700  0.14351700  1
  Al  Al3  1  0.35185400  0.35185400  0.35185400  1
  Se  Se4  1  0.96425200  0.54004100  0.24877500  1
  Se  Se5  1  0.54004100  0.24877500  0.96425200  1
  Se  Se6  1  0.24877500  0.96425200  0.54004100  1
  Se  Se7  1  0.75122500  0.03574800  0.45995900  1
  Se  Se8  1  0.45995900  0.75122500  0.03574800  1
  Se  Se9  1  0.03574800  0.45995900  0.75122500  1
  O  O10  1  0.80474500  0.51724900  0.47025100  1
  O  O11  1  0.88183600  0.75392300  0.09713200  1
  O  O12  1  0.98993600  0.36930300  0.20332400  1
  O  O13  1  0.52147900  0.22145600  0.17371000  1
  O  O14  1  0.75392300  0.09713200  0.88183600  1
  O  O15  1  0.51724900  0.47025100  0.80474500  1
  O  O16  1  0.47025100  0.80474500  0.51724900  1
  O  O17  1  0.22145600  0.17371000  0.52147900  1
  O  O18  1  0.79667600  0.01006400  0.63069700  1
  O  O19  1  0.17371000  0.52147900  0.22145600  1
  O  O20  1  0.90286800  0.11816400  0.24607700  1
  O  O21  1  0.63069700  0.79667600  0.01006400  1
  O  O22  1  0.36930300  0.20332400  0.98993600  1
  O  O23  1  0.09713200  0.88183600  0.75392300  1
  O  O24  1  0.82629000  0.47852100  0.77854400  1
  O  O25  1  0.20332400  0.98993600  0.36930300  1
  O  O26  1  0.77854400  0.82629000  0.47852100  1
  O  O27  1  0.52974900  0.19525500  0.48275100  1
  O  O28  1  0.48275100  0.52974900  0.19525500  1
  O  O29  1  0.24607700  0.90286800  0.11816400  1
  O  O30  1  0.47852100  0.77854400  0.82629000  1
  O  O31  1  0.01006400  0.63069700  0.79667600  1
  O  O32  1  0.11816400  0.24607700  0.90286800  1
  O  O33  1  0.19525500  0.48275100  0.52974900  1
