# generated using pymatgen
data_Ba3SiO
_symmetry_space_group_name_H-M   'P 1'
_cell_length_a   7.53671000
_cell_length_b   7.82170000
_cell_length_c   10.86420900
_cell_angle_alpha   90.00000000
_cell_angle_beta   90.00000000
_cell_angle_gamma   90.00000000
_symmetry_Int_Tables_number   1
_chemical_formula_structural   Ba3SiO
_chemical_formula_sum   'Ba12 Si4 O4'
_cell_volume   640.44386690
_cell_formula_units_Z   4
loop_
 _symmetry_equiv_pos_site_id
 _symmetry_equiv_pos_as_xyz
  1  'x, y, z'
loop_
 _atom_site_type_symbol
 _atom_site_label
 _atom_site_symmetry_multiplicity
 _atom_site_fract_x
 _atom_site_fract_y
 _atom_site_fract_z
 _atom_site_occupancy
  Ba  Ba0  1  0.07964800  0.47974800  0.25000000  1
  Ba  Ba1  1  0.20376900  0.20118400  0.54201600  1
  Ba  Ba2  1  0.20376900  0.20118400  0.95798400  1
  Ba  Ba3  1  0.29623100  0.70118400  0.54201600  1
  Ba  Ba4  1  0.29623100  0.70118400  0.95798400  1
  Ba  Ba5  1  0.42035200  0.97974800  0.25000000  1
  Ba  Ba6  1  0.57964800  0.02025200  0.75000000  1
  Ba  Ba7  1  0.70376900  0.29881600  0.04201600  1
  Ba  Ba8  1  0.70376900  0.29881600  0.45798400  1
  Ba  Ba9  1  0.79623100  0.79881600  0.04201600  1
  Ba  Ba10  1  0.79623100  0.79881600  0.45798400  1
  Ba  Ba11  1  0.92035200  0.52025200  0.75000000  1
  Si  Si12  1  0.01730900  0.94704800  0.75000000  1
  Si  Si13  1  0.48269100  0.44704800  0.75000000  1
  Si  Si14  1  0.51730900  0.55295200  0.25000000  1
  Si  Si15  1  0.98269100  0.05295200  0.25000000  1
  O  O16  1  0.00000000  0.50000000  0.00000000  1
  O  O17  1  0.00000000  0.50000000  0.50000000  1
  O  O18  1  0.50000000  0.00000000  0.00000000  1
  O  O19  1  0.50000000  0.00000000  0.50000000  1
