# generated using pymatgen
data_La2SeO2
_symmetry_space_group_name_H-M   'P 1'
_cell_length_a   4.09875752
_cell_length_b   4.09875752
_cell_length_c   7.18708100
_cell_angle_alpha   90.00000000
_cell_angle_beta   90.00000000
_cell_angle_gamma   119.99999228
_symmetry_Int_Tables_number   1
_chemical_formula_structural   La2SeO2
_chemical_formula_sum   'La2 Se1 O2'
_cell_volume   104.56531698
_cell_formula_units_Z   1
loop_
 _symmetry_equiv_pos_site_id
 _symmetry_equiv_pos_as_xyz
  1  'x, y, z'
loop_
 _atom_site_type_symbol
 _atom_site_label
 _atom_site_symmetry_multiplicity
 _atom_site_fract_x
 _atom_site_fract_y
 _atom_site_fract_z
 _atom_site_occupancy
  La  La0  1  0.66666700  0.33333300  0.71150600  1
  La  La1  1  0.33333300  0.66666700  0.28849400  1
  Se  Se2  1  0.00000000  0.00000000  0.00000000  1
  O  O3  1  0.66666700  0.33333300  0.37611300  1
  O  O4  1  0.33333300  0.66666700  0.62388700  1
