# generated using pymatgen
data_Ho2(SeO4)3
_symmetry_space_group_name_H-M   'P 1'
_cell_length_a   9.91680457
_cell_length_b   9.91680457
_cell_length_c   9.91680509
_cell_angle_alpha   58.06664735
_cell_angle_beta   58.06664735
_cell_angle_gamma   58.06664760
_symmetry_Int_Tables_number   1
_chemical_formula_structural   Ho2(SeO4)3
_chemical_formula_sum   'Ho4 Se6 O24'
_cell_volume   659.03261957
_cell_formula_units_Z   2
loop_
 _symmetry_equiv_pos_site_id
 _symmetry_equiv_pos_as_xyz
  1  'x, y, z'
loop_
 _atom_site_type_symbol
 _atom_site_label
 _atom_site_symmetry_multiplicity
 _atom_site_fract_x
 _atom_site_fract_y
 _atom_site_fract_z
 _atom_site_occupancy
  Ho  Ho0  1  0.64401900  0.64401900  0.64401900  1
  Ho  Ho1  1  0.35598100  0.35598100  0.35598100  1
  Ho  Ho2  1  0.14401900  0.14401900  0.14401900  1
  Ho  Ho3  1  0.85598100  0.85598100  0.85598100  1
  Se  Se4  1  0.75000000  0.03832000  0.46168000  1
  Se  Se5  1  0.96167900  0.53832100  0.25000000  1
  Se  Se6  1  0.53832100  0.25000000  0.96168000  1
  Se  Se7  1  0.46167900  0.75000000  0.03832100  1
  Se  Se8  1  0.03832100  0.46167900  0.75000000  1
  Se  Se9  1  0.25000000  0.96167900  0.53832100  1
  O  O10  1  0.91857500  0.06412900  0.28922400  1
  O  O11  1  0.77376900  0.01064100  0.62977600  1
  O  O12  1  0.98935900  0.37022400  0.22623100  1
  O  O13  1  0.71077600  0.08142500  0.93587100  1
  O  O14  1  0.58142500  0.21077600  0.43587100  1
  O  O15  1  0.87022400  0.48935900  0.72623100  1
  O  O16  1  0.51064100  0.27376900  0.12977600  1
  O  O17  1  0.78922400  0.56412900  0.41857500  1
  O  O18  1  0.93587100  0.71077600  0.08142500  1
  O  O19  1  0.56412900  0.41857500  0.78922400  1
  O  O20  1  0.37022400  0.22623100  0.98935900  1
  O  O21  1  0.27376900  0.12977600  0.51064100  1
  O  O22  1  0.72623100  0.87022400  0.48935900  1
  O  O23  1  0.62977600  0.77376900  0.01064100  1
  O  O24  1  0.43587100  0.58142500  0.21077600  1
  O  O25  1  0.06412900  0.28922400  0.91857500  1
  O  O26  1  0.21077600  0.43587100  0.58142500  1
  O  O27  1  0.48935900  0.72623100  0.87022400  1
  O  O28  1  0.12977600  0.51064100  0.27376900  1
  O  O29  1  0.41857500  0.78922400  0.56412900  1
  O  O30  1  0.28922400  0.91857500  0.06412900  1
  O  O31  1  0.01064100  0.62977600  0.77376900  1
  O  O32  1  0.22623100  0.98935900  0.37022400  1
  O  O33  1  0.08142500  0.93587100  0.71077600  1
