# generated using pymatgen
data_Na2SbPCO7
_symmetry_space_group_name_H-M   'P 1'
_cell_length_a   6.79513100
_cell_length_b   5.43931200
_cell_length_c   9.51084089
_cell_angle_alpha   84.78751472
_cell_angle_beta   90.00000000
_cell_angle_gamma   90.00000000
_symmetry_Int_Tables_number   1
_chemical_formula_structural   Na2SbPCO7
_chemical_formula_sum   'Na4 Sb2 P2 C2 O14'
_cell_volume   350.07494284
_cell_formula_units_Z   2
loop_
 _symmetry_equiv_pos_site_id
 _symmetry_equiv_pos_as_xyz
  1  'x, y, z'
loop_
 _atom_site_type_symbol
 _atom_site_label
 _atom_site_symmetry_multiplicity
 _atom_site_fract_x
 _atom_site_fract_y
 _atom_site_fract_z
 _atom_site_occupancy
  Na  Na0  1  0.48684500  0.24476600  0.78299400  1
  Na  Na1  1  0.01315500  0.24476600  0.78299400  1
  Na  Na2  1  0.51315500  0.75523400  0.21700600  1
  Na  Na3  1  0.98684500  0.75523400  0.21700600  1
  Sb  Sb4  1  0.75000000  0.80239100  0.62576600  1
  Sb  Sb5  1  0.25000000  0.19760900  0.37423400  1
  P  P6  1  0.25000000  0.74604100  0.60511000  1
  P  P7  1  0.75000000  0.25395900  0.39489000  1
  C  C8  1  0.75000000  0.72387700  0.91029500  1
  C  C9  1  0.25000000  0.27612300  0.08970500  1
  O  O10  1  0.25000000  0.27368300  0.95880400  1
  O  O11  1  0.75000000  0.93817400  0.82572100  1
  O  O12  1  0.75000000  0.52723600  0.84046100  1
  O  O13  1  0.06706800  0.87621200  0.66493700  1
  O  O14  1  0.43293200  0.87621200  0.66493700  1
  O  O15  1  0.75000000  0.19017800  0.56242800  1
  O  O16  1  0.25000000  0.46826200  0.64003600  1
  O  O17  1  0.75000000  0.53173800  0.35996400  1
  O  O18  1  0.25000000  0.80982200  0.43757200  1
  O  O19  1  0.56706800  0.12378800  0.33506300  1
  O  O20  1  0.93293200  0.12378800  0.33506300  1
  O  O21  1  0.25000000  0.47276400  0.15953900  1
  O  O22  1  0.25000000  0.06182600  0.17427900  1
  O  O23  1  0.75000000  0.72631700  0.04119600  1
