# generated using pymatgen
data_Ca3WO6
_symmetry_space_group_name_H-M   'P 1'
_cell_length_a   6.61106614
_cell_length_b   6.61106614
_cell_length_c   6.61106675
_cell_angle_alpha   91.52728580
_cell_angle_beta   91.52728580
_cell_angle_gamma   91.52728971
_symmetry_Int_Tables_number   1
_chemical_formula_structural   Ca3WO6
_chemical_formula_sum   'Ca6 W2 O12'
_cell_volume   288.63104278
_cell_formula_units_Z   2
loop_
 _symmetry_equiv_pos_site_id
 _symmetry_equiv_pos_as_xyz
  1  'x, y, z'
loop_
 _atom_site_type_symbol
 _atom_site_label
 _atom_site_symmetry_multiplicity
 _atom_site_fract_x
 _atom_site_fract_y
 _atom_site_fract_z
 _atom_site_occupancy
  Ca  Ca0  1  0.93440900  0.43782000  0.74792900  1
  Ca  Ca1  1  0.74792900  0.93440900  0.43782000  1
  Ca  Ca2  1  0.56218000  0.25207100  0.06559100  1
  Ca  Ca3  1  0.43782000  0.74792900  0.93440900  1
  Ca  Ca4  1  0.25207100  0.06559100  0.56218000  1
  Ca  Ca5  1  0.06559100  0.56218000  0.25207100  1
  W  W6  1  0.00000000  0.00000000  0.00000000  1
  W  W7  1  0.50000000  0.50000000  0.50000000  1
  O  O8  1  0.93764500  0.28324000  0.06781000  1
  O  O9  1  0.93219000  0.06235500  0.71676000  1
  O  O10  1  0.78280400  0.57839500  0.45283100  1
  O  O11  1  0.71676000  0.93219000  0.06235500  1
  O  O12  1  0.57839500  0.45283100  0.78280400  1
  O  O13  1  0.54716900  0.21719600  0.42160500  1
  O  O14  1  0.45283100  0.78280400  0.57839500  1
  O  O15  1  0.42160500  0.54716900  0.21719600  1
  O  O16  1  0.28324000  0.06781000  0.93764500  1
  O  O17  1  0.21719600  0.42160500  0.54716900  1
  O  O18  1  0.06781000  0.93764500  0.28324000  1
  O  O19  1  0.06235500  0.71676000  0.93219000  1
