# generated using pymatgen
data_Ti(SO4)2
_symmetry_space_group_name_H-M   'P 1'
_cell_length_a   8.90781193
_cell_length_b   8.90781193
_cell_length_c   8.90781174
_cell_angle_alpha   56.08480315
_cell_angle_beta   56.08480315
_cell_angle_gamma   56.08480590
_symmetry_Int_Tables_number   1
_chemical_formula_structural   Ti(SO4)2
_chemical_formula_sum   'Ti3 S6 O24'
_cell_volume   454.48571802
_cell_formula_units_Z   3
loop_
 _symmetry_equiv_pos_site_id
 _symmetry_equiv_pos_as_xyz
  1  'x, y, z'
loop_
 _atom_site_type_symbol
 _atom_site_label
 _atom_site_symmetry_multiplicity
 _atom_site_fract_x
 _atom_site_fract_y
 _atom_site_fract_z
 _atom_site_occupancy
  Ti  Ti0  1  0.64272800  0.64272800  0.64272800  1
  Ti  Ti1  1  0.35671500  0.35671500  0.35671500  1
  Ti  Ti2  1  0.14744100  0.14744100  0.14744100  1
  S  S3  1  0.53325200  0.96779400  0.24757500  1
  S  S4  1  0.24757500  0.53325200  0.96779400  1
  S  S5  1  0.96779400  0.24757500  0.53325200  1
  S  S6  1  0.04047800  0.74356900  0.47235300  1
  S  S7  1  0.74356900  0.47235300  0.04047800  1
  S  S8  1  0.47235300  0.04047800  0.74356900  1
  O  O9  1  0.49521800  0.88144700  0.70616300  1
  O  O10  1  0.88144600  0.70616300  0.49521800  1
  O  O11  1  0.66831600  0.99114200  0.05433600  1
  O  O12  1  0.70616300  0.49521800  0.88144600  1
  O  O13  1  0.34082400  0.98316300  0.27592500  1
  O  O14  1  0.60358400  0.77418400  0.39601700  1
  O  O15  1  0.39601700  0.60358400  0.77418400  1
  O  O16  1  0.05433600  0.66831600  0.99114200  1
  O  O17  1  0.77418400  0.39601700  0.60358400  1
  O  O18  1  0.02869100  0.94562000  0.32099000  1
  O  O19  1  0.03301800  0.71442800  0.64976800  1
  O  O20  1  0.71442800  0.64976800  0.03301800  1
  O  O21  1  0.27592500  0.34082400  0.98316300  1
  O  O22  1  0.98316300  0.27592500  0.34082400  1
  O  O23  1  0.99114200  0.05433600  0.66831600  1
  O  O24  1  0.22965900  0.61145400  0.37311500  1
  O  O25  1  0.94562000  0.32099000  0.02869100  1
  O  O26  1  0.61145400  0.37311500  0.22965900  1
  O  O27  1  0.37311500  0.22965900  0.61145400  1
  O  O28  1  0.64976800  0.03301800  0.71442800  1
  O  O29  1  0.31743900  0.48826000  0.11297700  1
  O  O30  1  0.32099000  0.02869100  0.94562000  1
  O  O31  1  0.11297700  0.31743900  0.48826000  1
  O  O32  1  0.48826000  0.11297700  0.31743900  1
