# generated using pymatgen
data_LiCrSnO4
_symmetry_space_group_name_H-M   'P 1'
_cell_length_a   6.04920679
_cell_length_b   6.29556600
_cell_length_c   8.66383788
_cell_angle_alpha   89.99993984
_cell_angle_beta   90.00024013
_cell_angle_gamma   89.99993021
_symmetry_Int_Tables_number   1
_chemical_formula_structural   LiCrSnO4
_chemical_formula_sum   'Li4 Cr4 Sn4 O16'
_cell_volume   329.94650252
_cell_formula_units_Z   4
loop_
 _symmetry_equiv_pos_site_id
 _symmetry_equiv_pos_as_xyz
  1  'x, y, z'
loop_
 _atom_site_type_symbol
 _atom_site_label
 _atom_site_symmetry_multiplicity
 _atom_site_fract_x
 _atom_site_fract_y
 _atom_site_fract_z
 _atom_site_occupancy
  Li  Li0  1  0.00000000  0.25000600  0.12622400  1
  Li  Li1  1  0.50000100  0.75000600  0.62622600  1
  Li  Li2  1  0.00000000  0.75000600  0.87377400  1
  Li  Li3  1  0.50000000  0.25000600  0.37377600  1
  Cr  Cr4  1  0.75002700  0.24998600  0.75000300  1
  Cr  Cr5  1  0.24997100  0.24996000  0.74997300  1
  Cr  Cr6  1  0.24995500  0.74999800  0.24999400  1
  Cr  Cr7  1  0.75004500  0.74991000  0.25002700  1
  Sn  Sn8  1  0.99999900  0.50000700  0.50000000  1
  Sn  Sn9  1  0.50000000  0.00000700  0.00000000  1
  Sn  Sn10  1  0.00000100  0.00000500  0.50000000  1
  Sn  Sn11  1  0.49999800  0.50000600  0.00000000  1
  O  O12  1  0.00000200  0.53163600  0.26057000  1
  O  O13  1  0.49999700  0.03164200  0.76056700  1
  O  O14  1  0.00000000  0.96837600  0.26056700  1
  O  O15  1  0.49999700  0.46836900  0.76056600  1
  O  O16  1  0.00000100  0.03164000  0.73943300  1
  O  O17  1  0.49999800  0.53163500  0.23943100  1
  O  O18  1  0.00000200  0.46837300  0.73943500  1
  O  O19  1  0.50000200  0.96837500  0.23943200  1
  O  O20  1  0.23303200  0.75000800  0.48697500  1
  O  O21  1  0.73303100  0.25000500  0.98698300  1
  O  O22  1  0.76696700  0.75000700  0.48697600  1
  O  O23  1  0.26696900  0.25000700  0.98698000  1
  O  O24  1  0.76697000  0.25000600  0.51301700  1
  O  O25  1  0.26696700  0.75000700  0.01302500  1
  O  O26  1  0.23303400  0.25000600  0.51301800  1
  O  O27  1  0.73303300  0.75000600  0.01302600  1
