# generated using pymatgen
data_La4Al2O9
_symmetry_space_group_name_H-M   'P 1'
_cell_length_a   11.07716600
_cell_length_b   7.94120400
_cell_length_c   11.63144039
_cell_angle_alpha   70.49577542
_cell_angle_beta   90.00000000
_cell_angle_gamma   90.00000000
_symmetry_Int_Tables_number   1
_chemical_formula_structural   La4Al2O9
_chemical_formula_sum   'La16 Al8 O36'
_cell_volume   964.45890344
_cell_formula_units_Z   4
loop_
 _symmetry_equiv_pos_site_id
 _symmetry_equiv_pos_as_xyz
  1  'x, y, z'
loop_
 _atom_site_type_symbol
 _atom_site_label
 _atom_site_symmetry_multiplicity
 _atom_site_fract_x
 _atom_site_fract_y
 _atom_site_fract_z
 _atom_site_occupancy
  La  La0  1  0.62991200  0.91036400  0.93367200  1
  La  La1  1  0.87008800  0.91036400  0.43367200  1
  La  La2  1  0.41164200  0.77708200  0.69061700  1
  La  La3  1  0.90054900  0.72850000  0.79528000  1
  La  La4  1  0.08835800  0.77708200  0.19061700  1
  La  La5  1  0.12131200  0.58446000  0.58475300  1
  La  La6  1  0.59945100  0.72850000  0.29528000  1
  La  La7  1  0.62131200  0.41554000  0.91524700  1
  La  La8  1  0.37868800  0.58446000  0.08475300  1
  La  La9  1  0.40054900  0.27150000  0.70472000  1
  La  La10  1  0.87868800  0.41554000  0.41524700  1
  La  La11  1  0.91164200  0.22291800  0.80938300  1
  La  La12  1  0.09945100  0.27150000  0.20472000  1
  La  La13  1  0.58835800  0.22291800  0.30938300  1
  La  La14  1  0.12991200  0.08963600  0.56632800  1
  La  La15  1  0.37008800  0.08963600  0.06632800  1
  Al  Al16  1  0.18222800  0.96421700  0.87494800  1
  Al  Al17  1  0.31777200  0.96421700  0.37494800  1
  Al  Al18  1  0.68738700  0.59755500  0.62090700  1
  Al  Al19  1  0.18738700  0.40244500  0.87909300  1
  Al  Al20  1  0.81261300  0.59755500  0.12090700  1
  Al  Al21  1  0.31261300  0.40244500  0.37909300  1
  Al  Al22  1  0.68222800  0.03578300  0.62505200  1
  Al  Al23  1  0.81777200  0.03578300  0.12505200  1
  O  O24  1  0.02610200  0.93951100  0.85083700  1
  O  O25  1  0.26637600  0.97495300  0.74097700  1
  O  O26  1  0.00052200  0.83031000  0.60697100  1
  O  O27  1  0.71733400  0.82011700  0.61722300  1
  O  O28  1  0.49878600  0.68735200  0.89390000  1
  O  O29  1  0.47389800  0.93951100  0.35083700  1
  O  O30  1  0.23362400  0.97495300  0.24097700  1
  O  O31  1  0.76405800  0.61499700  0.97158000  1
  O  O32  1  0.26380700  0.82749200  0.51910500  1
  O  O33  1  0.27983500  0.52262600  0.75342600  1
  O  O34  1  0.49947800  0.83031000  0.10697100  1
  O  O35  1  0.78266600  0.82011700  0.11722300  1
  O  O36  1  0.03760200  0.47028500  0.83029900  1
  O  O37  1  0.00121400  0.68735200  0.39390000  1
  O  O38  1  0.53760200  0.52971500  0.66970100  1
  O  O39  1  0.73594200  0.61499700  0.47158000  1
  O  O40  1  0.77983500  0.47737400  0.74657400  1
  O  O41  1  0.23619300  0.82749200  0.01910500  1
  O  O42  1  0.76380700  0.17250800  0.98089500  1
  O  O43  1  0.22016500  0.52262600  0.25342600  1
  O  O44  1  0.26405800  0.38500300  0.52842000  1
  O  O45  1  0.46239800  0.47028500  0.33029900  1
  O  O46  1  0.99878600  0.31264800  0.60610000  1
  O  O47  1  0.96239800  0.52971500  0.16970100  1
  O  O48  1  0.21733400  0.17988300  0.88277700  1
  O  O49  1  0.50052200  0.16969000  0.89302900  1
  O  O50  1  0.72016500  0.47737400  0.24657400  1
  O  O51  1  0.73619300  0.17250800  0.48089500  1
  O  O52  1  0.23594200  0.38500300  0.02842000  1
  O  O53  1  0.76637600  0.02504700  0.75902300  1
  O  O54  1  0.52610200  0.06048900  0.64916300  1
  O  O55  1  0.50121400  0.31264800  0.10610000  1
  O  O56  1  0.28266600  0.17988300  0.38277700  1
  O  O57  1  0.99947800  0.16969000  0.39302900  1
  O  O58  1  0.73362400  0.02504700  0.25902300  1
  O  O59  1  0.97389800  0.06048900  0.14916300  1
