# generated using pymatgen
data_SnGeO3
_symmetry_space_group_name_H-M   'P 1'
_cell_length_a   7.25551100
_cell_length_b   11.73844600
_cell_length_c   13.42094672
_cell_angle_alpha   61.10888989
_cell_angle_beta   90.00000000
_cell_angle_gamma   90.00000000
_symmetry_Int_Tables_number   1
_chemical_formula_structural   SnGeO3
_chemical_formula_sum   'Sn12 Ge12 O36'
_cell_volume   1000.77744373
_cell_formula_units_Z   12
loop_
 _symmetry_equiv_pos_site_id
 _symmetry_equiv_pos_as_xyz
  1  'x, y, z'
loop_
 _atom_site_type_symbol
 _atom_site_label
 _atom_site_symmetry_multiplicity
 _atom_site_fract_x
 _atom_site_fract_y
 _atom_site_fract_z
 _atom_site_occupancy
  Sn  Sn0  1  0.69496200  0.79109100  0.90034300  1
  Sn  Sn1  1  0.03888000  0.86870400  0.68158900  1
  Sn  Sn2  1  0.30503800  0.79109100  0.40034300  1
  Sn  Sn3  1  0.96112000  0.86870400  0.18158900  1
  Sn  Sn4  1  0.38807000  0.58326700  0.83576000  1
  Sn  Sn5  1  0.61193000  0.58326700  0.33576000  1
  Sn  Sn6  1  0.38807000  0.41673300  0.66424000  1
  Sn  Sn7  1  0.61193000  0.41673300  0.16424000  1
  Sn  Sn8  1  0.03888000  0.13129600  0.81841100  1
  Sn  Sn9  1  0.69496200  0.20890900  0.59965700  1
  Sn  Sn10  1  0.96112000  0.13129600  0.31841100  1
  Sn  Sn11  1  0.30503800  0.20890900  0.09965700  1
  Ge  Ge12  1  0.17429100  0.74787800  0.96014100  1
  Ge  Ge13  1  0.59490500  0.85774600  0.61285900  1
  Ge  Ge14  1  0.82570900  0.74787800  0.46014100  1
  Ge  Ge15  1  0.88192200  0.54494300  0.84585100  1
  Ge  Ge16  1  0.40509500  0.85774600  0.11285900  1
  Ge  Ge17  1  0.88192200  0.45505700  0.65414900  1
  Ge  Ge18  1  0.11807800  0.54494300  0.34585100  1
  Ge  Ge19  1  0.59490500  0.14225400  0.88714100  1
  Ge  Ge20  1  0.11807800  0.45505700  0.15414900  1
  Ge  Ge21  1  0.17429100  0.25212200  0.53985900  1
  Ge  Ge22  1  0.40509500  0.14225400  0.38714100  1
  Ge  Ge23  1  0.82570900  0.25212200  0.03985900  1
  O  O24  1  0.02575800  0.85645200  0.85118400  1
  O  O25  1  0.50000000  0.00000000  0.50000000  1
  O  O26  1  0.72691000  0.88942900  0.70958500  1
  O  O27  1  0.38068600  0.71957600  0.90684800  1
  O  O28  1  0.78848400  0.81098500  0.55624900  1
  O  O29  1  0.41761200  0.74708300  0.67272100  1
  O  O30  1  0.97424200  0.85645200  0.35118400  1
  O  O31  1  0.50000000  0.00000000  0.00000000  1
  O  O32  1  0.69722500  0.61496700  0.88360000  1
  O  O33  1  0.06735000  0.65327700  0.78519900  1
  O  O34  1  0.27309000  0.88942900  0.20958500  1
  O  O35  1  0.61931400  0.71957600  0.40684800  1
  O  O36  1  0.96219100  0.60361900  0.53631900  1
  O  O37  1  0.21151600  0.81098500  0.05624900  1
  O  O38  1  0.77297200  0.50000000  0.75000000  1
  O  O39  1  0.58238800  0.74708300  0.17272100  1
  O  O40  1  0.96219100  0.39638100  0.96368100  1
  O  O41  1  0.30277500  0.61496700  0.38360000  1
  O  O42  1  0.93265000  0.65327700  0.28519900  1
  O  O43  1  0.06735000  0.34672300  0.71480100  1
  O  O44  1  0.69722500  0.38503300  0.61640000  1
  O  O45  1  0.03780900  0.60361900  0.03631900  1
  O  O46  1  0.41761200  0.25291700  0.82727900  1
  O  O47  1  0.22702800  0.50000000  0.25000000  1
  O  O48  1  0.78848400  0.18901500  0.94375100  1
  O  O49  1  0.03780900  0.39638100  0.46368100  1
  O  O50  1  0.38068600  0.28042400  0.59315200  1
  O  O51  1  0.72691000  0.11057100  0.79041500  1
  O  O52  1  0.93265000  0.34672300  0.21480100  1
  O  O53  1  0.30277500  0.38503300  0.11640000  1
  O  O54  1  0.02575800  0.14354800  0.64881600  1
  O  O55  1  0.58238800  0.25291700  0.32727900  1
  O  O56  1  0.21151600  0.18901500  0.44375100  1
  O  O57  1  0.61931400  0.28042400  0.09315200  1
  O  O58  1  0.27309000  0.11057100  0.29041500  1
  O  O59  1  0.97424200  0.14354800  0.14881600  1
