# generated using pymatgen
data_Rb2S3
_symmetry_space_group_name_H-M   'P 1'
_cell_length_a   6.54443744
_cell_length_b   6.54443744
_cell_length_c   7.95987700
_cell_angle_alpha   90.00000000
_cell_angle_beta   90.00000000
_cell_angle_gamma   109.41744311
_symmetry_Int_Tables_number   1
_chemical_formula_structural   Rb2S3
_chemical_formula_sum   'Rb4 S6'
_cell_volume   321.52788211
_cell_formula_units_Z   2
loop_
 _symmetry_equiv_pos_site_id
 _symmetry_equiv_pos_as_xyz
  1  'x, y, z'
loop_
 _atom_site_type_symbol
 _atom_site_label
 _atom_site_symmetry_multiplicity
 _atom_site_fract_x
 _atom_site_fract_y
 _atom_site_fract_z
 _atom_site_occupancy
  Rb  Rb0  1  0.57992800  0.42007200  0.19092900  1
  Rb  Rb1  1  0.42007200  0.57992800  0.69092900  1
  Rb  Rb2  1  0.10615000  0.89385000  0.46192600  1
  Rb  Rb3  1  0.89385000  0.10615000  0.96192600  1
  S  S4  1  0.06622500  0.38205900  0.34829100  1
  S  S5  1  0.93377500  0.61794100  0.84829100  1
  S  S6  1  0.61794100  0.93377500  0.34829100  1
  S  S7  1  0.38205900  0.06622500  0.84829100  1
  S  S8  1  0.19964600  0.80035400  0.99316300  1
  S  S9  1  0.80035400  0.19964600  0.49316300  1
