# generated using pymatgen
data_Cs3TmO3
_symmetry_space_group_name_H-M   'P 1'
_cell_length_a   7.59865400
_cell_length_b   8.34533700
_cell_length_c   12.17406800
_cell_angle_alpha   84.17586036
_cell_angle_beta   90.00000000
_cell_angle_gamma   90.00000000
_symmetry_Int_Tables_number   1
_chemical_formula_structural   Cs3TmO3
_chemical_formula_sum   'Cs12 Tm4 O12'
_cell_volume   768.01315138
_cell_formula_units_Z   4
loop_
 _symmetry_equiv_pos_site_id
 _symmetry_equiv_pos_as_xyz
  1  'x, y, z'
loop_
 _atom_site_type_symbol
 _atom_site_label
 _atom_site_symmetry_multiplicity
 _atom_site_fract_x
 _atom_site_fract_y
 _atom_site_fract_z
 _atom_site_occupancy
  Cs  Cs0  1  0.33826900  0.34849500  0.07534500  1
  Cs  Cs1  1  0.61853700  0.94588300  0.15547400  1
  Cs  Cs2  1  0.82095600  0.38034200  0.19435900  1
  Cs  Cs3  1  0.32095600  0.61965800  0.30564100  1
  Cs  Cs4  1  0.11853700  0.05411700  0.34452600  1
  Cs  Cs5  1  0.83826900  0.65150500  0.42465500  1
  Cs  Cs6  1  0.16173100  0.34849500  0.57534500  1
  Cs  Cs7  1  0.88146300  0.94588300  0.65547400  1
  Cs  Cs8  1  0.67904400  0.38034200  0.69435900  1
  Cs  Cs9  1  0.17904400  0.61965800  0.80564100  1
  Cs  Cs10  1  0.38146300  0.05411700  0.84452600  1
  Cs  Cs11  1  0.66173100  0.65150500  0.92465500  1
  Tm  Tm12  1  0.08430900  0.84416000  0.06685500  1
  Tm  Tm13  1  0.58430900  0.15584000  0.43314500  1
  Tm  Tm14  1  0.41569100  0.84416000  0.56685500  1
  Tm  Tm15  1  0.91569100  0.15584000  0.93314500  1
  O  O16  1  0.33948300  0.75648000  0.04322300  1
  O  O17  1  0.05661700  0.09948900  0.08683600  1
  O  O18  1  0.94484500  0.70442400  0.18986000  1
  O  O19  1  0.44484500  0.29557600  0.31014000  1
  O  O20  1  0.55661700  0.90051100  0.41316400  1
  O  O21  1  0.83948300  0.24352000  0.45677700  1
  O  O22  1  0.16051700  0.75648000  0.54322300  1
  O  O23  1  0.44338300  0.09948900  0.58683600  1
  O  O24  1  0.55515500  0.70442400  0.68986000  1
  O  O25  1  0.05515500  0.29557600  0.81014000  1
  O  O26  1  0.94338300  0.90051100  0.91316400  1
  O  O27  1  0.66051700  0.24352000  0.95677700  1
