# generated using pymatgen
data_Er2TiO5
_symmetry_space_group_name_H-M   'P 1'
_cell_length_a   3.69492300
_cell_length_b   10.44028200
_cell_length_c   11.18869500
_cell_angle_alpha   90.00000000
_cell_angle_beta   90.00000000
_cell_angle_gamma   90.00000000
_symmetry_Int_Tables_number   1
_chemical_formula_structural   Er2TiO5
_chemical_formula_sum   'Er8 Ti4 O20'
_cell_volume   431.61552448
_cell_formula_units_Z   4
loop_
 _symmetry_equiv_pos_site_id
 _symmetry_equiv_pos_as_xyz
  1  'x, y, z'
loop_
 _atom_site_type_symbol
 _atom_site_label
 _atom_site_symmetry_multiplicity
 _atom_site_fract_x
 _atom_site_fract_y
 _atom_site_fract_z
 _atom_site_occupancy
  Er  Er0  1  0.25000000  0.11081400  0.27730700  1
  Er  Er1  1  0.25000000  0.13522600  0.94330900  1
  Er  Er2  1  0.75000000  0.36477400  0.44330900  1
  Er  Er3  1  0.75000000  0.38918600  0.77730700  1
  Er  Er4  1  0.25000000  0.61081400  0.22269300  1
  Er  Er5  1  0.25000000  0.63522600  0.55669100  1
  Er  Er6  1  0.75000000  0.86477400  0.05669100  1
  Er  Er7  1  0.75000000  0.88918600  0.72269300  1
  Ti  Ti8  1  0.25000000  0.18032000  0.62207100  1
  Ti  Ti9  1  0.75000000  0.31968000  0.12207100  1
  Ti  Ti10  1  0.25000000  0.68032000  0.87792900  1
  Ti  Ti11  1  0.75000000  0.81968000  0.37792900  1
  O  O12  1  0.75000000  0.00815000  0.89570500  1
  O  O13  1  0.25000000  0.01375900  0.66057500  1
  O  O14  1  0.25000000  0.22609900  0.45728500  1
  O  O15  1  0.75000000  0.23514700  0.27396600  1
  O  O16  1  0.75000000  0.24447500  0.61845900  1
  O  O17  1  0.25000000  0.25552500  0.11845900  1
  O  O18  1  0.25000000  0.26485300  0.77396600  1
  O  O19  1  0.75000000  0.27390100  0.95728500  1
  O  O20  1  0.75000000  0.48624100  0.16057500  1
  O  O21  1  0.25000000  0.49185000  0.39570500  1
  O  O22  1  0.75000000  0.50815000  0.60429500  1
  O  O23  1  0.25000000  0.51375900  0.83942500  1
  O  O24  1  0.25000000  0.72609900  0.04271500  1
  O  O25  1  0.75000000  0.73514700  0.22603400  1
  O  O26  1  0.75000000  0.74447500  0.88154100  1
  O  O27  1  0.25000000  0.75552500  0.38154100  1
  O  O28  1  0.25000000  0.76485300  0.72603400  1
  O  O29  1  0.75000000  0.77390100  0.54271500  1
  O  O30  1  0.75000000  0.98624100  0.33942500  1
  O  O31  1  0.25000000  0.99185000  0.10429500  1
