# generated using pymatgen
data_TmAsO4
_symmetry_space_group_name_H-M   'P 1'
_cell_length_a   5.90904318
_cell_length_b   5.90904318
_cell_length_c   5.90904318
_cell_angle_alpha   106.54660507
_cell_angle_beta   106.54660507
_cell_angle_gamma   115.49356149
_symmetry_Int_Tables_number   1
_chemical_formula_structural   TmAsO4
_chemical_formula_sum   'Tm2 As2 O8'
_cell_volume   157.49915722
_cell_formula_units_Z   2
loop_
 _symmetry_equiv_pos_site_id
 _symmetry_equiv_pos_as_xyz
  1  'x, y, z'
loop_
 _atom_site_type_symbol
 _atom_site_label
 _atom_site_symmetry_multiplicity
 _atom_site_fract_x
 _atom_site_fract_y
 _atom_site_fract_z
 _atom_site_occupancy
  Tm  Tm0  1  0.25000000  0.75000000  0.50000000  1
  Tm  Tm1  1  0.00000000  0.00000000  0.00000000  1
  As  As2  1  0.50000000  0.50000000  0.00000000  1
  As  As3  1  0.75000000  0.25000000  0.50000000  1
  O  O4  1  0.49770000  0.68030600  0.81739400  1
  O  O5  1  0.31969400  0.13708700  0.81739400  1
  O  O6  1  0.31969400  0.50230000  0.18260600  1
  O  O7  1  0.86291300  0.68030600  0.18260600  1
  O  O8  1  0.38708700  0.06969400  0.31739400  1
  O  O9  1  0.93030600  0.24770000  0.31739400  1
  O  O10  1  0.93030600  0.61291300  0.68260600  1
  O  O11  1  0.75230000  0.06969400  0.68260600  1
