# generated using pymatgen
data_LuCrO3
_symmetry_space_group_name_H-M   'P 1'
_cell_length_a   5.21140100
_cell_length_b   5.56340800
_cell_length_c   7.57531300
_cell_angle_alpha   90.00000000
_cell_angle_beta   90.00000000
_cell_angle_gamma   90.00000000
_symmetry_Int_Tables_number   1
_chemical_formula_structural   LuCrO3
_chemical_formula_sum   'Lu4 Cr4 O12'
_cell_volume   219.63218622
_cell_formula_units_Z   4
loop_
 _symmetry_equiv_pos_site_id
 _symmetry_equiv_pos_as_xyz
  1  'x, y, z'
loop_
 _atom_site_type_symbol
 _atom_site_label
 _atom_site_symmetry_multiplicity
 _atom_site_fract_x
 _atom_site_fract_y
 _atom_site_fract_z
 _atom_site_occupancy
  Lu  Lu0  1  0.02273700  0.92729200  0.75000000  1
  Lu  Lu1  1  0.47726300  0.42729200  0.75000000  1
  Lu  Lu2  1  0.52273700  0.57270800  0.25000000  1
  Lu  Lu3  1  0.97726300  0.07270800  0.25000000  1
  Cr  Cr4  1  0.00000000  0.50000000  0.00000000  1
  Cr  Cr5  1  0.00000000  0.50000000  0.50000000  1
  Cr  Cr6  1  0.50000000  0.00000000  0.00000000  1
  Cr  Cr7  1  0.50000000  0.00000000  0.50000000  1
  O  O8  1  0.12580600  0.45034600  0.25000000  1
  O  O9  1  0.18789500  0.19359500  0.56359500  1
  O  O10  1  0.18789500  0.19359500  0.93640500  1
  O  O11  1  0.31210500  0.69359500  0.56359500  1
  O  O12  1  0.31210500  0.69359500  0.93640500  1
  O  O13  1  0.37419400  0.95034600  0.25000000  1
  O  O14  1  0.62580600  0.04965400  0.75000000  1
  O  O15  1  0.68789500  0.30640500  0.06359500  1
  O  O16  1  0.68789500  0.30640500  0.43640500  1
  O  O17  1  0.81210500  0.80640500  0.06359500  1
  O  O18  1  0.81210500  0.80640500  0.43640500  1
  O  O19  1  0.87419400  0.54965400  0.75000000  1
