# generated using pymatgen
data_NiMoP
_symmetry_space_group_name_H-M   'P 1'
_cell_length_a   5.85716416
_cell_length_b   5.85716416
_cell_length_c   3.74992300
_cell_angle_alpha   90.00000000
_cell_angle_beta   90.00000000
_cell_angle_gamma   120.00000178
_symmetry_Int_Tables_number   1
_chemical_formula_structural   NiMoP
_chemical_formula_sum   'Ni3 Mo3 P3'
_cell_volume   111.41092145
_cell_formula_units_Z   3
loop_
 _symmetry_equiv_pos_site_id
 _symmetry_equiv_pos_as_xyz
  1  'x, y, z'
loop_
 _atom_site_type_symbol
 _atom_site_label
 _atom_site_symmetry_multiplicity
 _atom_site_fract_x
 _atom_site_fract_y
 _atom_site_fract_z
 _atom_site_occupancy
  Ni  Ni0  1  0.74903700  0.74903700  0.00000000  1
  Ni  Ni1  1  0.25096300  0.00000000  0.00000000  1
  Ni  Ni2  1  0.00000000  0.25096300  0.00000000  1
  Mo  Mo3  1  0.00000000  0.58617400  0.50000000  1
  Mo  Mo4  1  0.58617400  0.00000000  0.50000000  1
  Mo  Mo5  1  0.41382600  0.41382600  0.50000000  1
  P  P6  1  0.00000000  0.00000000  0.50000000  1
  P  P7  1  0.66666700  0.33333300  0.00000000  1
  P  P8  1  0.33333300  0.66666700  0.00000000  1
