# generated using pymatgen
data_LaAsO4
_symmetry_space_group_name_H-M   'P 1'
_cell_length_a   6.23426497
_cell_length_b   6.23426497
_cell_length_c   6.23426497
_cell_angle_alpha   106.42444150
_cell_angle_beta   106.42444150
_cell_angle_gamma   115.75339844
_symmetry_Int_Tables_number   1
_chemical_formula_structural   LaAsO4
_chemical_formula_sum   'La2 As2 O8'
_cell_volume   184.82373233
_cell_formula_units_Z   2
loop_
 _symmetry_equiv_pos_site_id
 _symmetry_equiv_pos_as_xyz
  1  'x, y, z'
loop_
 _atom_site_type_symbol
 _atom_site_label
 _atom_site_symmetry_multiplicity
 _atom_site_fract_x
 _atom_site_fract_y
 _atom_site_fract_z
 _atom_site_occupancy
  La  La0  1  0.00000000  0.00000000  0.00000000  1
  La  La1  1  0.25000000  0.75000000  0.50000000  1
  As  As2  1  0.50000000  0.50000000  0.00000000  1
  As  As3  1  0.75000000  0.25000000  0.50000000  1
  O  O4  1  0.33426700  0.51194500  0.17767900  1
  O  O5  1  0.84341200  0.66573300  0.17767900  1
  O  O6  1  0.40658800  0.08426700  0.32232100  1
  O  O7  1  0.48805500  0.66573300  0.82232100  1
  O  O8  1  0.91573300  0.59341200  0.67767900  1
  O  O9  1  0.91573300  0.23805500  0.32232100  1
  O  O10  1  0.33426700  0.15658800  0.82232100  1
  O  O11  1  0.76194500  0.08426700  0.67767900  1
