# generated using pymatgen
data_PH3NF5
_symmetry_space_group_name_H-M   'P 1'
_cell_length_a   9.39886600
_cell_length_b   4.86667500
_cell_length_c   9.83667393
_cell_angle_alpha   61.70005375
_cell_angle_beta   90.00000000
_cell_angle_gamma   90.00000000
_symmetry_Int_Tables_number   1
_chemical_formula_structural   PH3NF5
_chemical_formula_sum   'P4 H12 N4 F20'
_cell_volume   396.16352502
_cell_formula_units_Z   4
loop_
 _symmetry_equiv_pos_site_id
 _symmetry_equiv_pos_as_xyz
  1  'x, y, z'
loop_
 _atom_site_type_symbol
 _atom_site_label
 _atom_site_symmetry_multiplicity
 _atom_site_fract_x
 _atom_site_fract_y
 _atom_site_fract_z
 _atom_site_occupancy
  P  P0  1  0.38858000  0.87350000  0.74891200  1
  P  P1  1  0.88858000  0.12650000  0.75108800  1
  P  P2  1  0.11142000  0.87350000  0.24891200  1
  P  P3  1  0.61142000  0.12650000  0.25108800  1
  H  H4  1  0.34205000  0.36639700  0.96908200  1
  H  H5  1  0.22653900  0.62904500  0.96691700  1
  H  H6  1  0.20370000  0.47486200  0.84906900  1
  H  H7  1  0.70369900  0.52513800  0.65093100  1
  H  H8  1  0.84205000  0.63360300  0.53091800  1
  H  H9  1  0.72653900  0.37095500  0.53308300  1
  H  H10  1  0.27346100  0.62904500  0.46691700  1
  H  H11  1  0.15795000  0.36639700  0.46908200  1
  H  H12  1  0.29630000  0.47486200  0.34906900  1
  H  H13  1  0.79630000  0.52513800  0.15093100  1
  H  H14  1  0.77346100  0.37095500  0.03308300  1
  H  H15  1  0.65795000  0.63360300  0.03091800  1
  N  N16  1  0.27878400  0.55241800  0.89909800  1
  N  N17  1  0.77878400  0.44758200  0.60090200  1
  N  N18  1  0.22121600  0.55241800  0.39909800  1
  N  N19  1  0.72121600  0.44758200  0.10090200  1
  F  F20  1  0.78930900  0.14133600  0.88507400  1
  F  F21  1  0.48001100  0.87558800  0.88960900  1
  F  F22  1  0.98239100  0.84687900  0.88000500  1
  F  F23  1  0.27584400  0.12162200  0.75683400  1
  F  F24  1  0.99305200  0.39200000  0.75208900  1
  F  F25  1  0.49305200  0.60800000  0.74791100  1
  F  F26  1  0.77584400  0.87837800  0.74316600  1
  F  F27  1  0.28930900  0.85866400  0.61492600  1
  F  F28  1  0.48239100  0.15312100  0.61999500  1
  F  F29  1  0.98001100  0.12441200  0.61039100  1
  F  F30  1  0.01998900  0.87558800  0.38960900  1
  F  F31  1  0.51760900  0.84687900  0.38000500  1
  F  F32  1  0.71069100  0.14133600  0.38507400  1
  F  F33  1  0.22415600  0.12162200  0.25683400  1
  F  F34  1  0.50694800  0.39200000  0.25208900  1
  F  F35  1  0.00694800  0.60800000  0.24791100  1
  F  F36  1  0.72415600  0.87837800  0.24316600  1
  F  F37  1  0.01760900  0.15312100  0.11999500  1
  F  F38  1  0.51998900  0.12441200  0.11039100  1
  F  F39  1  0.21069100  0.85866400  0.11492600  1
