# generated using pymatgen
data_CsPH4(NO)2
_symmetry_space_group_name_H-M   'P 1'
_cell_length_a   5.65633000
_cell_length_b   5.65633000
_cell_length_c   15.72183200
_cell_angle_alpha   90.00000000
_cell_angle_beta   90.00000000
_cell_angle_gamma   90.00000000
_symmetry_Int_Tables_number   1
_chemical_formula_structural   CsPH4(NO)2
_chemical_formula_sum   'Cs4 P4 H16 N8 O8'
_cell_volume   503.00537890
_cell_formula_units_Z   4
loop_
 _symmetry_equiv_pos_site_id
 _symmetry_equiv_pos_as_xyz
  1  'x, y, z'
loop_
 _atom_site_type_symbol
 _atom_site_label
 _atom_site_symmetry_multiplicity
 _atom_site_fract_x
 _atom_site_fract_y
 _atom_site_fract_z
 _atom_site_occupancy
  Cs  Cs0  1  0.15034200  0.84965800  0.25000000  1
  Cs  Cs1  1  0.34965800  0.34965800  0.50000000  1
  Cs  Cs2  1  0.65034200  0.65034200  0.00000000  1
  Cs  Cs3  1  0.84965800  0.15034200  0.75000000  1
  P  P4  1  0.11073100  0.11073100  0.00000000  1
  P  P5  1  0.38926900  0.61073100  0.75000000  1
  P  P6  1  0.61073100  0.38926900  0.25000000  1
  P  P7  1  0.88926900  0.88926900  0.50000000  1
  H  H8  1  0.99090100  0.36706700  0.31093200  1
  H  H9  1  0.13293300  0.49090100  0.06093200  1
  H  H10  1  0.21255700  0.79134100  0.86407800  1
  H  H11  1  0.20865900  0.78744300  0.63592200  1
  H  H12  1  0.29134100  0.28744300  0.11407800  1
  H  H13  1  0.28744300  0.29134100  0.88592200  1
  H  H14  1  0.36706700  0.99090100  0.68906800  1
  H  H15  1  0.50909900  0.86706700  0.43906800  1
  H  H16  1  0.49090100  0.13293300  0.93906800  1
  H  H17  1  0.63293300  0.00909900  0.18906800  1
  H  H18  1  0.71255700  0.70865900  0.38592200  1
  H  H19  1  0.70865900  0.71255700  0.61407800  1
  H  H20  1  0.79134100  0.21255700  0.13592200  1
  H  H21  1  0.78744300  0.20865900  0.36407800  1
  H  H22  1  0.86706700  0.50909900  0.56093200  1
  H  H23  1  0.00909900  0.63293300  0.81093200  1
  N  N24  1  0.14200700  0.31638700  0.07802100  1
  N  N25  1  0.18361300  0.64200700  0.82802100  1
  N  N26  1  0.31638700  0.14200700  0.92197900  1
  N  N27  1  0.35799300  0.81638700  0.67197900  1
  N  N28  1  0.64200700  0.18361300  0.17197900  1
  N  N29  1  0.68361300  0.85799300  0.42197900  1
  N  N30  1  0.81638700  0.35799300  0.32802100  1
  N  N31  1  0.85799300  0.68361300  0.57802100  1
  O  O32  1  0.12509300  0.84515000  0.45661600  1
  O  O33  1  0.15485000  0.87490700  0.04338400  1
  O  O34  1  0.34515000  0.37490700  0.70661600  1
  O  O35  1  0.37490700  0.34515000  0.29338400  1
  O  O36  1  0.62509300  0.65485000  0.79338400  1
  O  O37  1  0.65485000  0.62509300  0.20661600  1
  O  O38  1  0.84515000  0.12509300  0.54338400  1
  O  O39  1  0.87490700  0.15485000  0.95661600  1
