# generated using pymatgen
data_Ba6Na2P2Ru2O17
_symmetry_space_group_name_H-M   'P 1'
_cell_length_a   5.86927230
_cell_length_b   5.86927230
_cell_length_c   29.62474800
_cell_angle_alpha   90.00000000
_cell_angle_beta   90.00000000
_cell_angle_gamma   120.00000338
_symmetry_Int_Tables_number   1
_chemical_formula_structural   Ba6Na2P2Ru2O17
_chemical_formula_sum   'Ba12 Na4 P4 Ru4 O34'
_cell_volume   883.79959673
_cell_formula_units_Z   2
loop_
 _symmetry_equiv_pos_site_id
 _symmetry_equiv_pos_as_xyz
  1  'x, y, z'
loop_
 _atom_site_type_symbol
 _atom_site_label
 _atom_site_symmetry_multiplicity
 _atom_site_fract_x
 _atom_site_fract_y
 _atom_site_fract_z
 _atom_site_occupancy
  Ba  Ba0  1  0.33333300  0.66666700  0.17767800  1
  Ba  Ba1  1  0.33333300  0.66666700  0.58986600  1
  Ba  Ba2  1  0.00000000  0.00000000  0.00000000  1
  Ba  Ba3  1  0.00000000  0.00000000  0.25000000  1
  Ba  Ba4  1  0.33333300  0.66666700  0.32232200  1
  Ba  Ba5  1  0.00000000  0.00000000  0.50000000  1
  Ba  Ba6  1  0.00000000  0.00000000  0.75000000  1
  Ba  Ba7  1  0.33333300  0.66666700  0.91013400  1
  Ba  Ba8  1  0.66666700  0.33333300  0.08986600  1
  Ba  Ba9  1  0.66666700  0.33333300  0.82232200  1
  Ba  Ba10  1  0.66666700  0.33333300  0.67767800  1
  Ba  Ba11  1  0.66666700  0.33333300  0.41013400  1
  Na  Na12  1  0.00000000  0.00000000  0.12195500  1
  Na  Na13  1  0.00000000  0.00000000  0.37804500  1
  Na  Na14  1  0.00000000  0.00000000  0.62195500  1
  Na  Na15  1  0.00000000  0.00000000  0.87804500  1
  P  P16  1  0.33333300  0.66666700  0.05351300  1
  P  P17  1  0.33333300  0.66666700  0.44648700  1
  P  P18  1  0.66666700  0.33333300  0.55351300  1
  P  P19  1  0.66666700  0.33333300  0.94648700  1
  Ru  Ru20  1  0.33333300  0.66666700  0.70303200  1
  Ru  Ru21  1  0.33333300  0.66666700  0.79696800  1
  Ru  Ru22  1  0.66666700  0.33333300  0.20303200  1
  Ru  Ru23  1  0.66666700  0.33333300  0.29696800  1
  O  O24  1  0.17577500  0.82422500  0.66836400  1
  O  O25  1  0.17577500  0.82422500  0.83163600  1
  O  O26  1  0.97415900  0.48708000  0.25000000  1
  O  O27  1  0.18875200  0.81124800  0.07223600  1
  O  O28  1  0.18875200  0.81124800  0.42776400  1
  O  O29  1  0.51292000  0.02584100  0.25000000  1
  O  O30  1  0.18875200  0.37750400  0.07223600  1
  O  O31  1  0.17577500  0.35155000  0.66836400  1
  O  O32  1  0.33333300  0.66666700  0.49863800  1
  O  O33  1  0.33333300  0.66666700  0.00136200  1
  O  O34  1  0.18875200  0.37750400  0.42776400  1
  O  O35  1  0.17577500  0.35155000  0.83163600  1
  O  O36  1  0.62249600  0.81124800  0.07223600  1
  O  O37  1  0.62249600  0.81124800  0.42776400  1
  O  O38  1  0.35155000  0.17577500  0.16836400  1
  O  O39  1  0.35155000  0.17577500  0.33163600  1
  O  O40  1  0.51292000  0.48708000  0.25000000  1
  O  O41  1  0.48708000  0.51292000  0.75000000  1
  O  O42  1  0.64845000  0.82422500  0.66836400  1
  O  O43  1  0.64845000  0.82422500  0.83163600  1
  O  O44  1  0.37750400  0.18875200  0.57223600  1
  O  O45  1  0.37750400  0.18875200  0.92776400  1
  O  O46  1  0.48708000  0.97415900  0.75000000  1
  O  O47  1  0.66666700  0.33333300  0.50136200  1
  O  O48  1  0.66666700  0.33333300  0.99863800  1
  O  O49  1  0.82422500  0.64845000  0.16836400  1
  O  O50  1  0.82422500  0.64845000  0.33163600  1
  O  O51  1  0.81124800  0.62249600  0.57223600  1
  O  O52  1  0.81124800  0.62249600  0.92776400  1
  O  O53  1  0.81124800  0.18875200  0.57223600  1
  O  O54  1  0.81124800  0.18875200  0.92776400  1
  O  O55  1  0.02584100  0.51292000  0.75000000  1
  O  O56  1  0.82422500  0.17577500  0.16836400  1
  O  O57  1  0.82422500  0.17577500  0.33163600  1
