# generated using pymatgen
data_KB6P(H2O7)2
_symmetry_space_group_name_H-M   'P 1'
_cell_length_a   12.27398100
_cell_length_b   12.27398100
_cell_length_c   7.68284200
_cell_angle_alpha   90.00000000
_cell_angle_beta   90.00000000
_cell_angle_gamma   90.00000000
_symmetry_Int_Tables_number   1
_chemical_formula_structural   KB6P(H2O7)2
_chemical_formula_sum   'K4 B24 P4 H16 O56'
_cell_volume   1157.42483067
_cell_formula_units_Z   4
loop_
 _symmetry_equiv_pos_site_id
 _symmetry_equiv_pos_as_xyz
  1  'x, y, z'
loop_
 _atom_site_type_symbol
 _atom_site_label
 _atom_site_symmetry_multiplicity
 _atom_site_fract_x
 _atom_site_fract_y
 _atom_site_fract_z
 _atom_site_occupancy
  K  K0  1  0.00000000  0.50000000  0.88821700  1
  K  K1  1  0.00000000  0.50000000  0.38821700  1
  K  K2  1  0.50000000  0.00000000  0.11178300  1
  K  K3  1  0.50000000  0.00000000  0.61178300  1
  B  B4  1  0.82132200  0.30385700  0.18507100  1
  B  B5  1  0.17867800  0.30385700  0.68507100  1
  B  B6  1  0.19614300  0.32132200  0.18507100  1
  B  B7  1  0.80385700  0.32132200  0.68507100  1
  B  B8  1  0.38401600  0.38401600  0.25000000  1
  B  B9  1  0.61598400  0.38401600  0.75000000  1
  B  B10  1  0.38401600  0.61598400  0.75000000  1
  B  B11  1  0.61598400  0.61598400  0.25000000  1
  B  B12  1  0.80385700  0.67867800  0.18507100  1
  B  B13  1  0.19614300  0.67867800  0.68507100  1
  B  B14  1  0.82132200  0.69614300  0.68507100  1
  B  B15  1  0.17867800  0.69614300  0.18507100  1
  B  B16  1  0.32132200  0.80385700  0.81492900  1
  B  B17  1  0.67867800  0.80385700  0.31492900  1
  B  B18  1  0.30385700  0.82132200  0.31492900  1
  B  B19  1  0.69614300  0.82132200  0.81492900  1
  B  B20  1  0.88401600  0.88401600  0.75000000  1
  B  B21  1  0.11598400  0.88401600  0.25000000  1
  B  B22  1  0.88401600  0.11598400  0.25000000  1
  B  B23  1  0.11598400  0.11598400  0.75000000  1
  B  B24  1  0.69614300  0.17867800  0.31492900  1
  B  B25  1  0.30385700  0.17867800  0.81492900  1
  B  B26  1  0.67867800  0.19614300  0.81492900  1
  B  B27  1  0.32132200  0.19614300  0.31492900  1
  P  P28  1  0.50000000  0.50000000  0.00000000  1
  P  P29  1  0.50000000  0.50000000  0.50000000  1
  P  P30  1  0.00000000  0.00000000  0.00000000  1
  P  P31  1  0.00000000  0.00000000  0.50000000  1
  H  H32  1  0.04048200  0.28420300  0.13455000  1
  H  H33  1  0.95951800  0.28420300  0.63455000  1
  H  H34  1  0.78420300  0.45951800  0.13455000  1
  H  H35  1  0.21579700  0.45951800  0.63455000  1
  H  H36  1  0.21579700  0.54048200  0.13455000  1
  H  H37  1  0.78420300  0.54048200  0.63455000  1
  H  H38  1  0.95951800  0.71579700  0.13455000  1
  H  H39  1  0.04048200  0.71579700  0.63455000  1
  H  H40  1  0.45951800  0.78420300  0.36545000  1
  H  H41  1  0.54048200  0.78420300  0.86545000  1
  H  H42  1  0.71579700  0.95951800  0.36545000  1
  H  H43  1  0.28420300  0.95951800  0.86545000  1
  H  H44  1  0.28420300  0.04048200  0.36545000  1
  H  H45  1  0.71579700  0.04048200  0.86545000  1
  H  H46  1  0.45951800  0.21579700  0.86545000  1
  H  H47  1  0.54048200  0.21579700  0.36545000  1
  O  O48  1  0.40142300  0.27347800  0.31723400  1
  O  O49  1  0.59857700  0.27347800  0.81723400  1
  O  O50  1  0.28180000  0.28180000  0.75000000  1
  O  O51  1  0.71820000  0.28180000  0.25000000  1
  O  O52  1  0.09338800  0.34458600  0.12333200  1
  O  O53  1  0.90661200  0.34458600  0.62333200  1
  O  O54  1  0.46696300  0.40033700  0.11060600  1
  O  O55  1  0.53303700  0.40033700  0.61060600  1
  O  O56  1  0.27347800  0.40142300  0.18276600  1
  O  O57  1  0.72652200  0.40142300  0.68276600  1
  O  O58  1  0.84458600  0.40661200  0.12333200  1
  O  O59  1  0.15541400  0.40661200  0.62333200  1
  O  O60  1  0.40033700  0.46696300  0.38939400  1
  O  O61  1  0.59966300  0.46696300  0.88939400  1
  O  O62  1  0.59966300  0.53303700  0.38939400  1
  O  O63  1  0.40033700  0.53303700  0.88939400  1
  O  O64  1  0.84458600  0.59338800  0.62333200  1
  O  O65  1  0.15541400  0.59338800  0.12333200  1
  O  O66  1  0.27347800  0.59857700  0.68276600  1
  O  O67  1  0.72652200  0.59857700  0.18276600  1
  O  O68  1  0.46696300  0.59966300  0.61060600  1
  O  O69  1  0.53303700  0.59966300  0.11060600  1
  O  O70  1  0.90661200  0.65541400  0.12333200  1
  O  O71  1  0.09338800  0.65541400  0.62333200  1
  O  O72  1  0.71820000  0.71820000  0.75000000  1
  O  O73  1  0.28180000  0.71820000  0.25000000  1
  O  O74  1  0.40142300  0.72652200  0.81723400  1
  O  O75  1  0.59857700  0.72652200  0.31723400  1
  O  O76  1  0.90142300  0.77347800  0.68276600  1
  O  O77  1  0.09857700  0.77347800  0.18276600  1
  O  O78  1  0.78180000  0.78180000  0.25000000  1
  O  O79  1  0.21820000  0.78180000  0.75000000  1
  O  O80  1  0.40661200  0.84458600  0.37666800  1
  O  O81  1  0.59338800  0.84458600  0.87666800  1
  O  O82  1  0.96696300  0.90033700  0.88939400  1
  O  O83  1  0.03303700  0.90033700  0.38939400  1
  O  O84  1  0.77347800  0.90142300  0.81723400  1
  O  O85  1  0.22652200  0.90142300  0.31723400  1
  O  O86  1  0.34458600  0.90661200  0.87666800  1
  O  O87  1  0.65541400  0.90661200  0.37666800  1
  O  O88  1  0.90033700  0.96696300  0.61060600  1
  O  O89  1  0.09966300  0.96696300  0.11060600  1
  O  O90  1  0.90033700  0.03303700  0.11060600  1
  O  O91  1  0.09966300  0.03303700  0.61060600  1
  O  O92  1  0.34458600  0.09338800  0.37666800  1
  O  O93  1  0.65541400  0.09338800  0.87666800  1
  O  O94  1  0.77347800  0.09857700  0.31723400  1
  O  O95  1  0.22652200  0.09857700  0.81723400  1
  O  O96  1  0.96696300  0.09966300  0.38939400  1
  O  O97  1  0.03303700  0.09966300  0.88939400  1
  O  O98  1  0.40661200  0.15541400  0.87666800  1
  O  O99  1  0.59338800  0.15541400  0.37666800  1
  O  O100  1  0.78180000  0.21820000  0.75000000  1
  O  O101  1  0.21820000  0.21820000  0.25000000  1
  O  O102  1  0.90142300  0.22652200  0.18276600  1
  O  O103  1  0.09857700  0.22652200  0.68276600  1
