# generated using pymatgen
data_Li24Mn11CrO36
_symmetry_space_group_name_H-M   'P 1'
_cell_length_a   8.66430681
_cell_length_b   8.66430681
_cell_length_c   10.16702509
_cell_angle_alpha   73.23249682
_cell_angle_beta   73.23249682
_cell_angle_gamma   59.86259578
_symmetry_Int_Tables_number   1
_chemical_formula_structural   Li24Mn11CrO36
_chemical_formula_sum   'Li24 Mn11 Cr1 O36'
_cell_volume   622.42267822
_cell_formula_units_Z   1
loop_
 _symmetry_equiv_pos_site_id
 _symmetry_equiv_pos_as_xyz
  1  'x, y, z'
loop_
 _atom_site_type_symbol
 _atom_site_label
 _atom_site_symmetry_multiplicity
 _atom_site_fract_x
 _atom_site_fract_y
 _atom_site_fract_z
 _atom_site_occupancy
  Li  Li0  1  0.17127500  0.16287000  0.25056000  1
  Li  Li1  1  0.33321500  0.99970800  0.00043700  1
  Li  Li2  1  0.17017600  0.16170000  0.74963600  1
  Li  Li3  1  0.49594000  0.83883600  0.74990900  1
  Li  Li4  1  0.50013000  0.16664300  0.74983100  1
  Li  Li5  1  0.33344600  0.99985200  0.49996300  1
  Li  Li6  1  0.49523800  0.83656100  0.24892900  1
  Li  Li7  1  0.49971400  0.16642500  0.25015600  1
  Li  Li8  1  0.83357500  0.50028600  0.74984400  1
  Li  Li9  1  0.83335700  0.49987000  0.25016900  1
  Li  Li10  1  0.83830000  0.82982400  0.25036400  1
  Li  Li11  1  0.00029200  0.66678500  0.99956300  1
  Li  Li12  1  0.83713000  0.82872500  0.74944000  1
  Li  Li13  1  0.16343900  0.50476200  0.75107100  1
  Li  Li14  1  0.16666800  0.83300600  0.75009600  1
  Li  Li15  1  0.00014800  0.66655400  0.50003700  1
  Li  Li16  1  0.16116400  0.50406000  0.25009100  1
  Li  Li17  1  0.16699400  0.83333200  0.24990400  1
  Li  Li18  1  0.50464200  0.49691900  0.25102800  1
  Li  Li19  1  0.66758600  0.33241400  0.00000000  1
  Li  Li20  1  0.50308100  0.49535800  0.74897200  1
  Li  Li21  1  0.82980100  0.17105000  0.75038600  1
  Li  Li22  1  0.66682700  0.33317300  0.50000000  1
  Li  Li23  1  0.82895000  0.17019900  0.24961400  1
  Mn  Mn24  1  0.66703600  0.66739500  0.00109100  1
  Mn  Mn25  1  0.66702600  0.99969800  0.00008800  1
  Mn  Mn26  1  0.66619900  0.66710300  0.50000000  1
  Mn  Mn27  1  0.66693900  0.99974700  0.49998700  1
  Mn  Mn28  1  0.00030200  0.33297400  0.99991200  1
  Mn  Mn29  1  0.99959700  0.00040300  0.00000000  1
  Mn  Mn30  1  0.00025300  0.33306100  0.50001300  1
  Mn  Mn31  1  0.99954800  0.00045200  0.50000000  1
  Mn  Mn32  1  0.33260500  0.33296400  0.99890900  1
  Mn  Mn33  1  0.33289700  0.33380100  0.50000000  1
  Mn  Mn34  1  0.33352500  0.66647500  0.50000000  1
  Cr  Cr35  1  0.33708700  0.66291300  0.00000000  1
  O  O36  1  0.42719200  0.09332800  0.11402500  1
  O  O37  1  0.57149600  0.59874700  0.88794600  1
  O  O38  1  0.42690100  0.09366500  0.61405200  1
  O  O39  1  0.59637900  0.90619200  0.88784800  1
  O  O40  1  0.57293700  0.59621800  0.38806800  1
  O  O41  1  0.59631600  0.90621800  0.38796700  1
  O  O42  1  0.73802000  0.76042800  0.11206100  1
  O  O43  1  0.76011000  0.42669400  0.11403100  1
  O  O44  1  0.75983900  0.07097300  0.11211900  1
  O  O45  1  0.73692800  0.76051700  0.61221700  1
  O  O46  1  0.90667200  0.57280800  0.88597500  1
  O  O47  1  0.90608600  0.92979400  0.88791800  1
  O  O48  1  0.76021500  0.42701000  0.61412600  1
  O  O49  1  0.76032900  0.07042400  0.61213000  1
  O  O50  1  0.92902700  0.24016100  0.88788100  1
  O  O51  1  0.90633500  0.57309900  0.38594800  1
  O  O52  1  0.90608200  0.92969200  0.38794300  1
  O  O53  1  0.92957600  0.23967100  0.38787000  1
  O  O54  1  0.07020600  0.09391400  0.11208200  1
  O  O55  1  0.09380800  0.40362100  0.11215200  1
  O  O56  1  0.09359200  0.76151100  0.11421300  1
  O  O57  1  0.07030800  0.09391800  0.61205700  1
  O  O58  1  0.23957200  0.26198000  0.88793900  1
  O  O59  1  0.23848900  0.90640800  0.88578700  1
  O  O60  1  0.09378200  0.40368400  0.61203300  1
  O  O61  1  0.09352600  0.76044900  0.61388600  1
  O  O62  1  0.26268500  0.57016800  0.88657900  1
  O  O63  1  0.23948300  0.26307200  0.38778300  1
  O  O64  1  0.23955100  0.90647400  0.38611400  1
  O  O65  1  0.26296700  0.57290600  0.38780800  1
  O  O66  1  0.40125300  0.42850400  0.11205400  1
  O  O67  1  0.42983200  0.73731500  0.11342100  1
  O  O68  1  0.40378200  0.42706300  0.61193200  1
  O  O69  1  0.57330600  0.23989000  0.88596900  1
  O  O70  1  0.42709400  0.73703300  0.61219200  1
  O  O71  1  0.57299000  0.23978500  0.38587400  1
