# generated using pymatgen
data_SmCuO3
_symmetry_space_group_name_H-M   'P 1'
_cell_length_a   5.36146000
_cell_length_b   6.32976700
_cell_length_c   7.19740900
_cell_angle_alpha   90.00000000
_cell_angle_beta   90.00000000
_cell_angle_gamma   90.00000000
_symmetry_Int_Tables_number   1
_chemical_formula_structural   SmCuO3
_chemical_formula_sum   'Sm4 Cu4 O12'
_cell_volume   244.25697635
_cell_formula_units_Z   4
loop_
 _symmetry_equiv_pos_site_id
 _symmetry_equiv_pos_as_xyz
  1  'x, y, z'
loop_
 _atom_site_type_symbol
 _atom_site_label
 _atom_site_symmetry_multiplicity
 _atom_site_fract_x
 _atom_site_fract_y
 _atom_site_fract_z
 _atom_site_occupancy
  Sm  Sm0  1  0.97466500  0.10249400  0.25000000  1
  Sm  Sm1  1  0.47466500  0.39750600  0.75000000  1
  Sm  Sm2  1  0.52533500  0.60249400  0.25000000  1
  Sm  Sm3  1  0.02533500  0.89750600  0.75000000  1
  Cu  Cu4  1  0.50000000  0.00000000  0.00000000  1
  Cu  Cu5  1  0.50000000  0.00000000  0.50000000  1
  Cu  Cu6  1  0.00000000  0.50000000  0.00000000  1
  Cu  Cu7  1  0.00000000  0.50000000  0.50000000  1
  O  O8  1  0.61163100  0.03403300  0.75000000  1
  O  O9  1  0.21400200  0.15829700  0.54839100  1
  O  O10  1  0.21400200  0.15829700  0.95160900  1
  O  O11  1  0.71400200  0.34170300  0.45160900  1
  O  O12  1  0.71400200  0.34170300  0.04839100  1
  O  O13  1  0.11163100  0.46596700  0.25000000  1
  O  O14  1  0.88836900  0.53403300  0.75000000  1
  O  O15  1  0.28599800  0.65829700  0.95160900  1
  O  O16  1  0.28599800  0.65829700  0.54839100  1
  O  O17  1  0.78599800  0.84170300  0.04839100  1
  O  O18  1  0.78599800  0.84170300  0.45160900  1
  O  O19  1  0.38836900  0.96596700  0.25000000  1
