# generated using pymatgen
data_CaSb2
_symmetry_space_group_name_H-M   'P 1'
_cell_length_a   4.32625500
_cell_length_b   4.68649400
_cell_length_c   8.90161853
_cell_angle_alpha   74.79816611
_cell_angle_beta   90.00000000
_cell_angle_gamma   90.00000000
_symmetry_Int_Tables_number   1
_chemical_formula_structural   CaSb2
_chemical_formula_sum   'Ca2 Sb4'
_cell_volume   174.16469282
_cell_formula_units_Z   2
loop_
 _symmetry_equiv_pos_site_id
 _symmetry_equiv_pos_as_xyz
  1  'x, y, z'
loop_
 _atom_site_type_symbol
 _atom_site_label
 _atom_site_symmetry_multiplicity
 _atom_site_fract_x
 _atom_site_fract_y
 _atom_site_fract_z
 _atom_site_occupancy
  Ca  Ca0  1  0.25000000  0.12247700  0.29444000  1
  Ca  Ca1  1  0.75000000  0.87752300  0.70556000  1
  Sb  Sb2  1  0.25000000  0.77133800  0.01697000  1
  Sb  Sb3  1  0.75000000  0.22866200  0.98303000  1
  Sb  Sb4  1  0.25000000  0.41909900  0.62121900  1
  Sb  Sb5  1  0.75000000  0.58090100  0.37878100  1
