# generated using pymatgen
data_Y9U5O28
_symmetry_space_group_name_H-M   'P 1'
_cell_length_a   6.53110100
_cell_length_b   7.59571730
_cell_length_c   11.88079432
_cell_angle_alpha   73.00406212
_cell_angle_beta   80.17594063
_cell_angle_gamma   73.80645339
_symmetry_Int_Tables_number   1
_chemical_formula_structural   Y9U5O28
_chemical_formula_sum   'Y9 U5 O28'
_cell_volume   538.72964261
_cell_formula_units_Z   1
loop_
 _symmetry_equiv_pos_site_id
 _symmetry_equiv_pos_as_xyz
  1  'x, y, z'
loop_
 _atom_site_type_symbol
 _atom_site_label
 _atom_site_symmetry_multiplicity
 _atom_site_fract_x
 _atom_site_fract_y
 _atom_site_fract_z
 _atom_site_occupancy
  Y  Y0  1  0.78251900  0.21515700  0.93023800  1
  Y  Y1  1  0.21748100  0.78484300  0.06976200  1
  Y  Y2  1  0.64285700  0.85679600  0.21388300  1
  Y  Y3  1  0.06872500  0.43049500  0.35698400  1
  Y  Y4  1  0.64217200  0.35656700  0.21560600  1
  Y  Y5  1  0.50000000  0.00000000  0.50000000  1
  Y  Y6  1  0.93127500  0.56950500  0.64301600  1
  Y  Y7  1  0.35782800  0.64343300  0.78439400  1
  Y  Y8  1  0.35714300  0.14320400  0.78611700  1
  U  U9  1  0.78173000  0.71540500  0.92970400  1
  U  U10  1  0.21827000  0.28459500  0.07029600  1
  U  U11  1  0.07062600  0.92728700  0.35517200  1
  U  U12  1  0.50000000  0.50000000  0.50000000  1
  U  U13  1  0.92937400  0.07271300  0.64482800  1
  O  O14  1  0.14638600  0.11596700  0.97337900  1
  O  O15  1  0.87058700  0.39714400  0.03855200  1
  O  O16  1  0.85361400  0.88403300  0.02662100  1
  O  O17  1  0.12941300  0.60285600  0.96144800  1
  O  O18  1  0.27649200  0.45592500  0.17036900  1
  O  O19  1  0.58061400  0.67362100  0.10112000  1
  O  O20  1  0.00911400  0.23966400  0.24589800  1
  O  O21  1  0.55715000  0.17797000  0.10732400  1
  O  O22  1  0.27822500  0.97188500  0.18231600  1
  O  O23  1  0.00772100  0.75804500  0.25289500  1
  O  O24  1  0.73294600  0.03049900  0.32709000  1
  O  O25  1  0.14094600  0.62324900  0.46053200  1
  O  O26  1  0.42414400  0.32870600  0.40362800  1
  O  O27  1  0.70210700  0.53885200  0.33374900  1
  O  O28  1  0.13037200  0.10234200  0.46023800  1
  O  O29  1  0.85905400  0.37675100  0.53946800  1
  O  O30  1  0.40797300  0.82488900  0.39080300  1
  O  O31  1  0.86962800  0.89765800  0.53976200  1
  O  O32  1  0.26705400  0.96950100  0.67291000  1
  O  O33  1  0.57585600  0.67129400  0.59637200  1
  O  O34  1  0.99227900  0.24195500  0.74710500  1
  O  O35  1  0.59202700  0.17511100  0.60919700  1
  O  O36  1  0.29789300  0.46114800  0.66625100  1
  O  O37  1  0.99088600  0.76033600  0.75410200  1
  O  O38  1  0.44285000  0.82203000  0.89267600  1
  O  O39  1  0.72177500  0.02811500  0.81768400  1
  O  O40  1  0.41938600  0.32637900  0.89888000  1
  O  O41  1  0.72350800  0.54407500  0.82963100  1
