# generated using pymatgen
data_V3HPb5O13
_symmetry_space_group_name_H-M   'P 1'
_cell_length_a   10.36120101
_cell_length_b   10.36120101
_cell_length_c   7.56335400
_cell_angle_alpha   90.00000000
_cell_angle_beta   90.00000000
_cell_angle_gamma   119.99999366
_symmetry_Int_Tables_number   1
_chemical_formula_structural   V3HPb5O13
_chemical_formula_sum   'V6 H2 Pb10 O26'
_cell_volume   703.17801750
_cell_formula_units_Z   2
loop_
 _symmetry_equiv_pos_site_id
 _symmetry_equiv_pos_as_xyz
  1  'x, y, z'
loop_
 _atom_site_type_symbol
 _atom_site_label
 _atom_site_symmetry_multiplicity
 _atom_site_fract_x
 _atom_site_fract_y
 _atom_site_fract_z
 _atom_site_occupancy
  V  V0  1  0.39933900  0.36943400  0.74398000  1
  V  V1  1  0.63056600  0.02990500  0.74398000  1
  V  V2  1  0.97009500  0.60066100  0.74398000  1
  V  V3  1  0.60066100  0.63056600  0.24398000  1
  V  V4  1  0.36943400  0.97009500  0.24398000  1
  V  V5  1  0.02990500  0.39933900  0.24398000  1
  H  H6  1  0.00000000  0.00000000  0.93640900  1
  H  H7  1  0.00000000  0.00000000  0.43640900  1
  Pb  Pb8  1  0.33333300  0.66666700  0.49928800  1
  Pb  Pb9  1  0.66666700  0.33333300  0.48333400  1
  Pb  Pb10  1  0.66666700  0.33333300  0.99928800  1
  Pb  Pb11  1  0.33333300  0.66666700  0.98333400  1
  Pb  Pb12  1  0.25128800  0.00741400  0.75047300  1
  Pb  Pb13  1  0.99258600  0.24387400  0.75047300  1
  Pb  Pb14  1  0.75612600  0.74871200  0.75047300  1
  Pb  Pb15  1  0.74871200  0.99258600  0.25047300  1
  Pb  Pb16  1  0.00741400  0.75612600  0.25047300  1
  Pb  Pb17  1  0.24387400  0.25128800  0.25047300  1
  O  O18  1  0.32723900  0.49070400  0.74714000  1
  O  O19  1  0.50929600  0.83653500  0.74714000  1
  O  O20  1  0.16346500  0.67276100  0.74714000  1
  O  O21  1  0.67276100  0.50929600  0.24714000  1
  O  O22  1  0.49070400  0.16346500  0.24714000  1
  O  O23  1  0.83653500  0.32723900  0.24714000  1
  O  O24  1  0.59512900  0.47027700  0.74083000  1
  O  O25  1  0.52972300  0.12485200  0.74083000  1
  O  O26  1  0.87514800  0.40487100  0.74083000  1
  O  O27  1  0.40487100  0.52972300  0.24083000  1
  O  O28  1  0.47027700  0.87514800  0.24083000  1
  O  O29  1  0.12485200  0.59512900  0.24083000  1
  O  O30  1  0.33692500  0.25000300  0.56193700  1
  O  O31  1  0.74999700  0.08692200  0.56193700  1
  O  O32  1  0.91307800  0.66307500  0.56193700  1
  O  O33  1  0.65388200  0.75031500  0.42552200  1
  O  O34  1  0.24968500  0.90356700  0.42552200  1
  O  O35  1  0.09643300  0.34611800  0.42552200  1
  O  O36  1  0.66307500  0.74999700  0.06193700  1
  O  O37  1  0.25000300  0.91307800  0.06193700  1
  O  O38  1  0.08692200  0.33692500  0.06193700  1
  O  O39  1  0.34611800  0.24968500  0.92552200  1
  O  O40  1  0.75031500  0.09643300  0.92552200  1
  O  O41  1  0.90356700  0.65388200  0.92552200  1
  O  O42  1  0.00000000  0.00000000  0.80741400  1
  O  O43  1  0.00000000  0.00000000  0.30741400  1
