# generated using pymatgen
data_ZrH12C2(NF)6
_symmetry_space_group_name_H-M   'P 1'
_cell_length_a   8.29086900
_cell_length_b   8.39229356
_cell_length_c   10.06212891
_cell_angle_alpha   100.47051986
_cell_angle_beta   102.47003286
_cell_angle_gamma   115.66450585
_symmetry_Int_Tables_number   1
_chemical_formula_structural   ZrH12C2(NF)6
_chemical_formula_sum   'Zr2 H24 C4 N12 F12'
_cell_volume   585.25020872
_cell_formula_units_Z   2
loop_
 _symmetry_equiv_pos_site_id
 _symmetry_equiv_pos_as_xyz
  1  'x, y, z'
loop_
 _atom_site_type_symbol
 _atom_site_label
 _atom_site_symmetry_multiplicity
 _atom_site_fract_x
 _atom_site_fract_y
 _atom_site_fract_z
 _atom_site_occupancy
  Zr  Zr0  1  0.47949700  0.14269100  0.15474500  1
  Zr  Zr1  1  0.52050300  0.85730900  0.84525500  1
  H  H2  1  0.28024000  0.01201100  0.41579500  1
  H  H3  1  0.71976000  0.98798900  0.58420500  1
  H  H4  1  0.24945000  0.92321900  0.56012400  1
  H  H5  1  0.75055000  0.07678100  0.43987600  1
  H  H6  1  0.27771600  0.32097700  0.77604600  1
  H  H7  1  0.72228400  0.67902300  0.22395400  1
  H  H8  1  0.25284800  0.10046200  0.76883600  1
  H  H9  1  0.74715200  0.89953800  0.23116400  1
  H  H10  1  0.34601400  0.66395300  0.11627100  1
  H  H11  1  0.65398600  0.33604700  0.88372900  1
  H  H12  1  0.35535700  0.46041800  0.11588600  1
  H  H13  1  0.64464300  0.53958200  0.88411400  1
  H  H14  1  0.08476900  0.19704300  0.10891100  1
  H  H15  1  0.91523100  0.80295700  0.89108900  1
  H  H16  1  0.92000100  0.23241500  0.17675400  1
  H  H17  1  0.07999900  0.76758500  0.82324600  1
  H  H18  1  0.32753900  0.31013700  0.44136100  1
  H  H19  1  0.67246100  0.68986300  0.55863900  1
  H  H20  1  0.31322500  0.43592300  0.59047300  1
  H  H21  1  0.68677500  0.56407700  0.40952700  1
  H  H22  1  0.09019500  0.48511200  0.81864100  1
  H  H23  1  0.90980500  0.51488800  0.18135900  1
  H  H24  1  0.12547300  0.70862200  0.19631300  1
  H  H25  1  0.87452700  0.29137800  0.80368700  1
  C  C26  1  0.12708900  0.46373200  0.15774300  1
  C  C27  1  0.87291100  0.53626800  0.84225700  1
  C  C28  1  0.26447800  0.17539600  0.58644000  1
  C  C29  1  0.73552200  0.82460400  0.41356000  1
  N  N30  1  0.74188100  0.97766700  0.48722500  1
  N  N31  1  0.25811900  0.02233300  0.51277500  1
  N  N32  1  0.24713500  0.19242100  0.71741400  1
  N  N33  1  0.75286500  0.80757900  0.28258600  1
  N  N34  1  0.70466900  0.45971200  0.86259300  1
  N  N35  1  0.29533100  0.54028800  0.13740700  1
  N  N36  1  0.04228600  0.28533900  0.15260100  1
  N  N37  1  0.95771400  0.71466100  0.84739900  1
  N  N38  1  0.27806400  0.30894600  0.52657400  1
  N  N39  1  0.72193600  0.69105400  0.47342600  1
  N  N40  1  0.94988400  0.42876900  0.81116900  1
  N  N41  1  0.05011600  0.57123100  0.18883100  1
  F  F42  1  0.74616800  0.87004800  0.98494500  1
  F  F43  1  0.25383200  0.12995200  0.01505500  1
  F  F44  1  0.41045600  0.86240000  0.02759700  1
  F  F45  1  0.58954400  0.13760000  0.97240300  1
  F  F46  1  0.46077700  0.29895400  0.32598600  1
  F  F47  1  0.53922300  0.70104600  0.67401400  1
  F  F48  1  0.64803900  0.42148000  0.16463700  1
  F  F49  1  0.35196100  0.57852000  0.83536300  1
  F  F50  1  0.72519300  0.15309600  0.26452600  1
  F  F51  1  0.27480700  0.84690400  0.73547400  1
  F  F52  1  0.31149100  0.94879100  0.23705000  1
  F  F53  1  0.68850900  0.05120900  0.76295000  1
