# generated using pymatgen
data_Ba4(PtO3)3
_symmetry_space_group_name_H-M   'P 1'
_cell_length_a   8.76169600
_cell_length_b   10.19561659
_cell_length_c   10.24043968
_cell_angle_alpha   119.43524625
_cell_angle_beta   89.94473768
_cell_angle_gamma   90.18576342
_symmetry_Int_Tables_number   1
_chemical_formula_structural   Ba4(PtO3)3
_chemical_formula_sum   'Ba12 Pt9 O27'
_cell_volume   796.69481176
_cell_formula_units_Z   3
loop_
 _symmetry_equiv_pos_site_id
 _symmetry_equiv_pos_as_xyz
  1  'x, y, z'
loop_
 _atom_site_type_symbol
 _atom_site_label
 _atom_site_symmetry_multiplicity
 _atom_site_fract_x
 _atom_site_fract_y
 _atom_site_fract_z
 _atom_site_occupancy
  Ba  Ba0  1  0.25222400  0.32211100  0.99606700  1
  Ba  Ba1  1  0.00101900  0.64049100  0.00710200  1
  Ba  Ba2  1  0.50548300  0.65951400  0.00782500  1
  Ba  Ba3  1  0.24973000  0.67836900  0.69746400  1
  Ba  Ba4  1  0.25151900  0.02438300  0.33911400  1
  Ba  Ba5  1  0.75046800  0.70210600  0.67442500  1
  Ba  Ba6  1  0.99979900  0.35411900  0.35684900  1
  Ba  Ba7  1  0.50313000  0.33469500  0.34074500  1
  Ba  Ba8  1  0.49692800  0.00678500  0.67051000  1
  Ba  Ba9  1  0.00210700  0.00664800  0.65946000  1
  Ba  Ba10  1  0.74827200  0.32742100  0.02093100  1
  Ba  Ba11  1  0.74792200  0.99686500  0.33305200  1
  Pt  Pt12  1  0.75425300  0.41144600  0.74125800  1
  Pt  Pt13  1  0.33688600  0.99921400  0.99690000  1
  Pt  Pt14  1  0.65902500  0.99985300  0.99794600  1
  Pt  Pt15  1  0.09312200  0.33461800  0.66336100  1
  Pt  Pt16  1  0.41593900  0.33707100  0.66479700  1
  Pt  Pt17  1  0.24754700  0.73466900  0.40695600  1
  Pt  Pt18  1  0.90827000  0.65634400  0.32956300  1
  Pt  Pt19  1  0.58543100  0.65970200  0.33089800  1
  Pt  Pt20  1  0.99691700  0.99990700  0.07613200  1
  O  O21  1  0.49760500  0.14902100  0.00396400  1
  O  O22  1  0.77176600  0.00926500  0.82750400  1
  O  O23  1  0.57171000  0.33270900  0.80969500  1
  O  O24  1  0.93607000  0.32711100  0.80732800  1
  O  O25  1  0.25587900  0.49000200  0.82960500  1
  O  O26  1  0.25458600  0.18814600  0.66275400  1
  O  O27  1  0.81528300  0.85056100  0.99993900  1
  O  O28  1  0.93955400  0.49242200  0.67388700  1
  O  O29  1  0.49857500  0.85159500  0.85225600  1
  O  O30  1  0.57145300  0.49169400  0.67326700  1
  O  O31  1  0.97793000  0.16606800  0.49011700  1
  O  O32  1  0.22652400  0.00069000  0.82347400  1
  O  O33  1  0.52857300  0.17157300  0.49067800  1
  O  O34  1  0.25478600  0.35017600  0.52190200  1
  O  O35  1  0.43267100  0.66523000  0.48470700  1
  O  O36  1  0.06055500  0.66724000  0.48753300  1
  O  O37  1  0.74419900  0.51462400  0.34367100  1
  O  O38  1  0.74979800  0.82060900  0.48156800  1
  O  O39  1  0.81107800  0.14619500  0.15558400  1
  O  O40  1  0.18296000  0.14854300  0.14833700  1
  O  O41  1  0.02154700  0.47785800  0.16180100  1
  O  O42  1  0.47000200  0.48978700  0.16237600  1
  O  O43  1  0.06652900  0.80164400  0.32537300  1
  O  O44  1  0.42891500  0.80594800  0.32918100  1
  O  O45  1  0.74739500  0.65963600  0.18254500  1
  O  O46  1  0.49948400  0.99436400  0.15079100  1
  O  O47  1  0.17857900  0.85206000  0.00151100  1
