# generated using pymatgen
data_Sr3WO6
_symmetry_space_group_name_H-M   'P 1'
_cell_length_a   6.92741282
_cell_length_b   6.92741282
_cell_length_c   6.92741320
_cell_angle_alpha   91.60935015
_cell_angle_beta   91.60935015
_cell_angle_gamma   91.60935527
_symmetry_Int_Tables_number   1
_chemical_formula_structural   Sr3WO6
_chemical_formula_sum   'Sr6 W2 O12'
_cell_volume   332.03903989
_cell_formula_units_Z   2
loop_
 _symmetry_equiv_pos_site_id
 _symmetry_equiv_pos_as_xyz
  1  'x, y, z'
loop_
 _atom_site_type_symbol
 _atom_site_label
 _atom_site_symmetry_multiplicity
 _atom_site_fract_x
 _atom_site_fract_y
 _atom_site_fract_z
 _atom_site_occupancy
  Sr  Sr0  1  0.06467000  0.25270400  0.56186200  1
  Sr  Sr1  1  0.43813800  0.93533000  0.74729600  1
  Sr  Sr2  1  0.74729600  0.43813800  0.93533000  1
  Sr  Sr3  1  0.25270400  0.56186200  0.06467000  1
  Sr  Sr4  1  0.56186200  0.06467000  0.25270400  1
  Sr  Sr5  1  0.93533000  0.74729600  0.43813800  1
  W  W6  1  0.50000000  0.50000000  0.50000000  1
  W  W7  1  0.00000000  0.00000000  0.00000000  1
  O  O8  1  0.06747700  0.27103800  0.94097200  1
  O  O9  1  0.05902800  0.93252300  0.72896200  1
  O  O10  1  0.45342900  0.57342000  0.77130200  1
  O  O11  1  0.72896200  0.05902800  0.93252300  1
  O  O12  1  0.22869800  0.54657100  0.42658000  1
  O  O13  1  0.42658000  0.22869800  0.54657100  1
  O  O14  1  0.57342000  0.77130200  0.45342900  1
  O  O15  1  0.77130200  0.45342900  0.57342000  1
  O  O16  1  0.27103800  0.94097200  0.06747700  1
  O  O17  1  0.54657100  0.42658000  0.22869800  1
  O  O18  1  0.94097200  0.06747700  0.27103800  1
  O  O19  1  0.93252300  0.72896200  0.05902800  1
