# generated using pymatgen
data_TmClO
_symmetry_space_group_name_H-M   'P 1'
_cell_length_a   9.68006625
_cell_length_b   9.68006625
_cell_length_c   9.68006634
_cell_angle_alpha   22.37066292
_cell_angle_beta   22.37066292
_cell_angle_gamma   22.37065943
_symmetry_Int_Tables_number   1
_chemical_formula_structural   TmClO
_chemical_formula_sum   'Tm2 Cl2 O2'
_cell_volume   115.23281626
_cell_formula_units_Z   2
loop_
 _symmetry_equiv_pos_site_id
 _symmetry_equiv_pos_as_xyz
  1  'x, y, z'
loop_
 _atom_site_type_symbol
 _atom_site_label
 _atom_site_symmetry_multiplicity
 _atom_site_fract_x
 _atom_site_fract_y
 _atom_site_fract_z
 _atom_site_occupancy
  Tm  Tm0  1  0.28340900  0.28340900  0.28340900  1
  Tm  Tm1  1  0.71659100  0.71659100  0.71659100  1
  Cl  Cl2  1  0.11090100  0.11090100  0.11090100  1
  Cl  Cl3  1  0.88909900  0.88909900  0.88909900  1
  O  O4  1  0.36309700  0.36309700  0.36309700  1
  O  O5  1  0.63690300  0.63690300  0.63690300  1
