# generated using pymatgen
data_LiCu3F10
_symmetry_space_group_name_H-M   'P 1'
_cell_length_a   7.22649700
_cell_length_b   3.77875700
_cell_length_c   14.38420902
_cell_angle_alpha   89.76399625
_cell_angle_beta   90.00000000
_cell_angle_gamma   90.00000000
_symmetry_Int_Tables_number   1
_chemical_formula_structural   LiCu3F10
_chemical_formula_sum   'Li2 Cu6 F20'
_cell_volume   392.78879710
_cell_formula_units_Z   2
loop_
 _symmetry_equiv_pos_site_id
 _symmetry_equiv_pos_as_xyz
  1  'x, y, z'
loop_
 _atom_site_type_symbol
 _atom_site_label
 _atom_site_symmetry_multiplicity
 _atom_site_fract_x
 _atom_site_fract_y
 _atom_site_fract_z
 _atom_site_occupancy
  Li  Li0  1  0.41717200  0.03991800  0.42812200  1
  Li  Li1  1  0.58282800  0.03991800  0.92812200  1
  Cu  Cu2  1  0.09552100  0.01856700  0.02821100  1
  Cu  Cu3  1  0.00233600  0.01610800  0.28144400  1
  Cu  Cu4  1  0.59036800  0.02216500  0.12978800  1
  Cu  Cu5  1  0.90447900  0.01856700  0.52821100  1
  Cu  Cu6  1  0.99766400  0.01610800  0.78144400  1
  Cu  Cu7  1  0.40963200  0.02216500  0.62978800  1
  F  F8  1  0.22628100  0.01107900  0.34352200  1
  F  F9  1  0.09646900  0.01665200  0.15479000  1
  F  F10  1  0.77183000  0.01861300  0.22777700  1
  F  F11  1  0.40225700  0.02437600  0.02791600  1
  F  F12  1  0.76361100  0.02445500  0.03349400  1
  F  F13  1  0.42970400  0.02086300  0.22380700  1
  F  F14  1  0.77371900  0.01107900  0.84352200  1
  F  F15  1  0.87320400  0.01839100  0.40114600  1
  F  F16  1  0.90353100  0.01665200  0.65479000  1
  F  F17  1  0.22817000  0.01861300  0.72777700  1
  F  F18  1  0.59774300  0.02437600  0.52791600  1
  F  F19  1  0.23638900  0.02445500  0.53349400  1
  F  F20  1  0.57029600  0.02086300  0.72380700  1
  F  F21  1  0.12679600  0.01839100  0.90114600  1
  F  F22  1  0.07062700  0.51876000  0.02453800  1
  F  F23  1  0.00615400  0.51600900  0.28136700  1
  F  F24  1  0.58924500  0.52220900  0.12464800  1
  F  F25  1  0.92937300  0.51876000  0.52453800  1
  F  F26  1  0.99384600  0.51600900  0.78136700  1
  F  F27  1  0.41075500  0.52220900  0.62464800  1
