# generated using pymatgen
data_Na3Ca18Fe(PO4)14
_symmetry_space_group_name_H-M   'P 1'
_cell_length_a   10.49254700
_cell_length_b   10.49675764
_cell_length_c   13.87098146
_cell_angle_alpha   90.04425688
_cell_angle_beta   112.15516380
_cell_angle_gamma   119.86456957
_symmetry_Int_Tables_number   1
_chemical_formula_structural   Na3Ca18Fe(PO4)14
_chemical_formula_sum   'Na3 Ca18 Fe1 P14 O56'
_cell_volume   1192.73318338
_cell_formula_units_Z   1
loop_
 _symmetry_equiv_pos_site_id
 _symmetry_equiv_pos_as_xyz
  1  'x, y, z'
loop_
 _atom_site_type_symbol
 _atom_site_label
 _atom_site_symmetry_multiplicity
 _atom_site_fract_x
 _atom_site_fract_y
 _atom_site_fract_z
 _atom_site_occupancy
  Na  Na0  1  0.63501700  0.81731800  0.45061500  1
  Na  Na1  1  0.47234100  0.53053500  0.02362700  1
  Na  Na2  1  0.63065300  0.32043700  0.95097700  1
  Ca  Ca3  1  0.85591500  0.91878100  0.20208400  1
  Ca  Ca4  1  0.27042200  0.34616600  0.20179600  1
  Ca  Ca5  1  0.28153700  0.93742200  0.20317700  1
  Ca  Ca6  1  0.49293100  0.93768300  0.02383000  1
  Ca  Ca7  1  0.08818800  0.55345300  0.02499500  1
  Ca  Ca8  1  0.27159500  0.42857200  0.70708300  1
  Ca  Ca9  1  0.27821300  0.84249300  0.70425700  1
  Ca  Ca10  1  0.86164000  0.43518400  0.70448600  1
  Ca  Ca11  1  0.99889100  0.49972400  0.49844000  1
  Ca  Ca12  1  0.15616600  0.56334400  0.30488200  1
  Ca  Ca13  1  0.71225700  0.14912700  0.30486400  1
  Ca  Ca14  1  0.73757900  0.58941900  0.30003300  1
  Ca  Ca15  1  0.71195500  0.06129700  0.80705900  1
  Ca  Ca16  1  0.74283900  0.65006400  0.80756500  1
  Ca  Ca17  1  0.15713800  0.09727300  0.80740900  1
  Ca  Ca18  1  0.49547700  0.05347200  0.52380400  1
  Ca  Ca19  1  0.08156900  0.02848400  0.52405200  1
  Ca  Ca20  1  0.46997800  0.44146200  0.52390100  1
  Fe  Fe21  1  0.99874200  0.00017300  0.99865600  1
  P  P22  1  0.46750200  0.73524300  0.20131000  1
  P  P23  1  0.59574200  0.77743200  0.90965400  1
  P  P24  1  0.08978500  0.31329500  0.90839100  1
  P  P25  1  0.13065700  0.81762700  0.90821900  1
  P  P26  1  0.42718600  0.69379500  0.59964600  1
  P  P27  1  0.86632000  0.17241900  0.59997200  1
  P  P28  1  0.08822000  0.27153300  0.40228000  1
  P  P29  1  0.90671500  0.73399600  0.60053400  1
  P  P30  1  0.13110400  0.81669500  0.40256400  1
  P  P31  1  0.58634100  0.31511900  0.40273600  1
  P  P32  1  0.86571500  0.18953400  0.09361900  1
  P  P33  1  0.90748300  0.67769300  0.09473600  1
  P  P34  1  0.41561700  0.22450000  0.09290100  1
  P  P35  1  0.46703200  0.23323700  0.70025600  1
  O  O36  1  0.63452400  0.74759200  0.24553600  1
  O  O37  1  0.35178100  0.60919200  0.24161000  1
  O  O38  1  0.49802900  0.89069200  0.24422500  1
  O  O39  1  0.38477400  0.69713300  0.07808800  1
  O  O40  1  0.64281500  0.81772700  0.02929700  1
  O  O41  1  0.19488800  0.38858300  0.02831000  1
  O  O42  1  0.52208600  0.60859800  0.86863600  1
  O  O43  1  0.75615400  0.86914700  0.89059400  1
  O  O44  1  0.00064300  0.13438500  0.89108600  1
  O  O45  1  0.19139600  0.35820600  0.84464600  1
  O  O46  1  0.21633900  0.82901200  0.02847800  1
  O  O47  1  0.95539000  0.35112100  0.86888900  1
  O  O48  1  0.48347300  0.83427200  0.84885400  1
  O  O49  1  0.50648200  0.60973600  0.66383600  1
  O  O50  1  0.26364600  0.91038300  0.86953700  1
  O  O51  1  0.01525100  0.64921700  0.84911300  1
  O  O52  1  0.97687800  0.10909500  0.63908300  1
  O  O53  1  0.02220000  0.88753700  0.88907400  1
  O  O54  1  0.76843700  0.15806300  0.66519100  1
  O  O55  1  0.52931500  0.86725100  0.64005100  1
  O  O56  1  0.19427100  0.31384700  0.52511700  1
  O  O57  1  0.26786900  0.63146500  0.61596800  1
  O  O58  1  0.97900800  0.34766500  0.61559600  1
  O  O59  1  0.39265700  0.64885100  0.48124600  1
  O  O60  1  0.98526500  0.63661400  0.61646500  1
  O  O61  1  0.73647300  0.08890600  0.48183200  1
  O  O62  1  0.05533300  0.89656900  0.66575300  1
  O  O63  1  0.95823600  0.09943000  0.36863900  1
  O  O64  1  0.20328500  0.32258300  0.34697300  1
  O  O65  1  0.77324600  0.66220900  0.64077900  1
  O  O66  1  0.21163400  0.88019100  0.52544900  1
  O  O67  1  0.64520000  0.33141800  0.52555500  1
  O  O68  1  0.99590300  0.35555000  0.37198500  1
  O  O69  1  0.26991200  0.85883800  0.36881400  1
  O  O70  1  0.01694400  0.64091600  0.37199400  1
  O  O71  1  0.73167300  0.37617300  0.37213300  1
  O  O72  1  0.83449000  0.74534400  0.48236800  1
  O  O73  1  0.46667400  0.14506600  0.34804000  1
  O  O74  1  0.97162800  0.11853300  0.09784800  1
  O  O75  1  0.77487000  0.10731700  0.16232400  1
  O  O76  1  0.51049400  0.41181700  0.36933500  1
  O  O77  1  0.02662300  0.88248700  0.34807600  1
  O  O78  1  0.98683500  0.36145300  0.13847200  1
  O  O79  1  0.06017300  0.66996200  0.16170500  1
  O  O80  1  0.50878500  0.14517100  0.13899900  1
  O  O81  1  0.73306500  0.15155500  0.97915800  1
  O  O82  1  0.49318600  0.38179500  0.16268000  1
  O  O83  1  0.78621300  0.63091900  0.14338400  1
  O  O84  1  0.98115800  0.85401900  0.09709000  1
  O  O85  1  0.24186500  0.12395900  0.09698600  1
  O  O86  1  0.83018600  0.58251800  0.98023800  1
  O  O87  1  0.39339500  0.23557500  0.97753500  1
  O  O88  1  0.49672600  0.10761600  0.74091200  1
  O  O89  1  0.63284200  0.38841300  0.74113800  1
  O  O90  1  0.35237300  0.24445000  0.74087500  1
  O  O91  1  0.38454900  0.19185800  0.57599200  1
