# generated using pymatgen
data_Li2PdO2
_symmetry_space_group_name_H-M   'P 1'
_cell_length_a   5.25948639
_cell_length_b   5.25948639
_cell_length_c   5.25948639
_cell_angle_alpha   146.47124709
_cell_angle_beta   137.32471175
_cell_angle_gamma   55.33231404
_symmetry_Int_Tables_number   1
_chemical_formula_structural   Li2PdO2
_chemical_formula_sum   'Li2 Pd1 O2'
_cell_volume   54.09404641
_cell_formula_units_Z   1
loop_
 _symmetry_equiv_pos_site_id
 _symmetry_equiv_pos_as_xyz
  1  'x, y, z'
loop_
 _atom_site_type_symbol
 _atom_site_label
 _atom_site_symmetry_multiplicity
 _atom_site_fract_x
 _atom_site_fract_y
 _atom_site_fract_z
 _atom_site_occupancy
  Li  Li0  1  0.69704900  0.69704900  0.00000000  1
  Li  Li1  1  0.30295100  0.30295100  0.00000000  1
  Pd  Pd2  1  0.00000000  0.00000000  0.00000000  1
  O  O3  1  0.15034100  0.65034100  0.50000000  1
  O  O4  1  0.84965900  0.34965900  0.50000000  1
