# generated using pymatgen
data_Sn(PO3)2
_symmetry_space_group_name_H-M   'P 1'
_cell_length_a   7.35476400
_cell_length_b   9.97153000
_cell_length_c   15.19318400
_cell_angle_alpha   90.00000000
_cell_angle_beta   90.00000000
_cell_angle_gamma   90.00000000
_symmetry_Int_Tables_number   1
_chemical_formula_structural   Sn(PO3)2
_chemical_formula_sum   'Sn8 P16 O48'
_cell_volume   1114.24152450
_cell_formula_units_Z   8
loop_
 _symmetry_equiv_pos_site_id
 _symmetry_equiv_pos_as_xyz
  1  'x, y, z'
loop_
 _atom_site_type_symbol
 _atom_site_label
 _atom_site_symmetry_multiplicity
 _atom_site_fract_x
 _atom_site_fract_y
 _atom_site_fract_z
 _atom_site_occupancy
  Sn  Sn0  1  0.44037400  0.00595600  0.69577800  1
  Sn  Sn1  1  0.94037400  0.00595600  0.80422200  1
  Sn  Sn2  1  0.94037400  0.49404400  0.30422200  1
  Sn  Sn3  1  0.44037400  0.49404400  0.19577800  1
  Sn  Sn4  1  0.05962600  0.50595600  0.69577800  1
  Sn  Sn5  1  0.55962600  0.50595600  0.80422200  1
  Sn  Sn6  1  0.05962600  0.99404400  0.19577800  1
  Sn  Sn7  1  0.55962600  0.99404400  0.30422200  1
  P  P8  1  0.58802900  0.20099700  0.91306500  1
  P  P9  1  0.08802900  0.20099700  0.58693500  1
  P  P10  1  0.70046200  0.21719900  0.09918700  1
  P  P11  1  0.20046200  0.21719900  0.40081300  1
  P  P12  1  0.70046200  0.28280100  0.59918700  1
  P  P13  1  0.20046200  0.28280100  0.90081300  1
  P  P14  1  0.08802900  0.29900300  0.08693500  1
  P  P15  1  0.58802900  0.29900300  0.41306500  1
  P  P16  1  0.91197100  0.70099700  0.91306500  1
  P  P17  1  0.41197100  0.70099700  0.58693500  1
  P  P18  1  0.79953800  0.71719900  0.09918700  1
  P  P19  1  0.29953800  0.71719900  0.40081300  1
  P  P20  1  0.29953800  0.78280100  0.90081300  1
  P  P21  1  0.79953800  0.78280100  0.59918700  1
  P  P22  1  0.41197100  0.79900300  0.08693500  1
  P  P23  1  0.91197100  0.79900300  0.41306500  1
  O  O24  1  0.64986200  0.10353200  0.84304700  1
  O  O25  1  0.14986200  0.10353200  0.65695300  1
  O  O26  1  0.25760400  0.11076300  0.33605600  1
  O  O27  1  0.75760400  0.11076300  0.16394400  1
  O  O28  1  0.66094000  0.14384800  0.00585000  1
  O  O29  1  0.16094000  0.14384800  0.49415000  1
  O  O30  1  0.63775700  0.15277500  0.40383400  1
  O  O31  1  0.13775700  0.15277500  0.09616600  1
  O  O32  1  0.37021300  0.18471400  0.92201000  1
  O  O33  1  0.87021300  0.18471400  0.57799000  1
  O  O34  1  0.54066200  0.19478300  0.62162700  1
  O  O35  1  0.04066200  0.19478300  0.87837300  1
  O  O36  1  0.54066200  0.30521700  0.12162700  1
  O  O37  1  0.04066200  0.30521700  0.37837300  1
  O  O38  1  0.87021300  0.31528600  0.07799000  1
  O  O39  1  0.37021300  0.31528600  0.42201000  1
  O  O40  1  0.13775700  0.34722500  0.59616600  1
  O  O41  1  0.63775700  0.34722500  0.90383400  1
  O  O42  1  0.66094000  0.35615200  0.50585000  1
  O  O43  1  0.16094000  0.35615200  0.99415000  1
  O  O44  1  0.75760400  0.38923700  0.66394400  1
  O  O45  1  0.25760400  0.38923700  0.83605600  1
  O  O46  1  0.14986200  0.39646800  0.15695300  1
  O  O47  1  0.64986200  0.39646800  0.34304700  1
  O  O48  1  0.35013800  0.60353200  0.65695300  1
  O  O49  1  0.85013800  0.60353200  0.84304700  1
  O  O50  1  0.74239600  0.61076300  0.16394400  1
  O  O51  1  0.24239600  0.61076300  0.33605600  1
  O  O52  1  0.83906000  0.64384800  0.00585000  1
  O  O53  1  0.33906000  0.64384800  0.49415000  1
  O  O54  1  0.36224300  0.65277500  0.09616600  1
  O  O55  1  0.86224300  0.65277500  0.40383400  1
  O  O56  1  0.12978700  0.68471400  0.92201000  1
  O  O57  1  0.62978700  0.68471400  0.57799000  1
  O  O58  1  0.45933800  0.69478300  0.87837300  1
  O  O59  1  0.95933800  0.69478300  0.62162700  1
  O  O60  1  0.95933800  0.80521700  0.12162700  1
  O  O61  1  0.45933800  0.80521700  0.37837300  1
  O  O62  1  0.62978700  0.81528600  0.07799000  1
  O  O63  1  0.12978700  0.81528600  0.42201000  1
  O  O64  1  0.86224300  0.84722500  0.90383400  1
  O  O65  1  0.36224300  0.84722500  0.59616600  1
  O  O66  1  0.83906000  0.85615200  0.50585000  1
  O  O67  1  0.33906000  0.85615200  0.99415000  1
  O  O68  1  0.74239600  0.88923700  0.66394400  1
  O  O69  1  0.24239600  0.88923700  0.83605600  1
  O  O70  1  0.35013800  0.89646800  0.15695300  1
  O  O71  1  0.85013800  0.89646800  0.34304700  1
