# generated using pymatgen
data_Ca2Cu2O5
_symmetry_space_group_name_H-M   'P 1'
_cell_length_a   3.59777100
_cell_length_b   10.51651800
_cell_length_c   12.76871100
_cell_angle_alpha   90.00000000
_cell_angle_beta   90.00000000
_cell_angle_gamma   90.00000000
_symmetry_Int_Tables_number   1
_chemical_formula_structural   Ca2Cu2O5
_chemical_formula_sum   'Ca8 Cu8 O20'
_cell_volume   483.11724922
_cell_formula_units_Z   4
loop_
 _symmetry_equiv_pos_site_id
 _symmetry_equiv_pos_as_xyz
  1  'x, y, z'
loop_
 _atom_site_type_symbol
 _atom_site_label
 _atom_site_symmetry_multiplicity
 _atom_site_fract_x
 _atom_site_fract_y
 _atom_site_fract_z
 _atom_site_occupancy
  Ca  Ca0  1  0.17682600  0.04772600  0.87073900  1
  Ca  Ca1  1  0.17881000  0.20264200  0.53729700  1
  Ca  Ca2  1  0.67881000  0.29735800  0.03729700  1
  Ca  Ca3  1  0.67682600  0.45227400  0.37073900  1
  Ca  Ca4  1  0.32317400  0.54772600  0.87073900  1
  Ca  Ca5  1  0.32119000  0.70264200  0.53729700  1
  Ca  Ca6  1  0.82119000  0.79735800  0.03729700  1
  Ca  Ca7  1  0.82317400  0.95227400  0.37073900  1
  Cu  Cu8  1  0.36122100  0.01320000  0.15387500  1
  Cu  Cu9  1  0.14438500  0.23899400  0.25048200  1
  Cu  Cu10  1  0.64438500  0.26100600  0.75048200  1
  Cu  Cu11  1  0.86122100  0.48680000  0.65387500  1
  Cu  Cu12  1  0.13877900  0.51320000  0.15387500  1
  Cu  Cu13  1  0.35561500  0.73899400  0.25048200  1
  Cu  Cu14  1  0.85561500  0.76100600  0.75048200  1
  Cu  Cu15  1  0.63877900  0.98680000  0.65387500  1
  O  O16  1  0.34553300  0.08350700  0.28901900  1
  O  O17  1  0.67869100  0.05875200  0.52259800  1
  O  O18  1  0.36706200  0.12401000  0.70330800  1
  O  O19  1  0.16837200  0.16979400  0.11452100  1
  O  O20  1  0.67394100  0.19052200  0.88216200  1
  O  O21  1  0.17394100  0.30947800  0.38216200  1
  O  O22  1  0.66837200  0.33020600  0.61452100  1
  O  O23  1  0.86706200  0.37599000  0.20330800  1
  O  O24  1  0.17869100  0.44124800  0.02259800  1
  O  O25  1  0.84553300  0.41649300  0.78901900  1
  O  O26  1  0.15446700  0.58350700  0.28901900  1
  O  O27  1  0.82130900  0.55875200  0.52259800  1
  O  O28  1  0.13293800  0.62401000  0.70330800  1
  O  O29  1  0.33162800  0.66979400  0.11452100  1
  O  O30  1  0.82605900  0.69052200  0.88216200  1
  O  O31  1  0.32605900  0.80947800  0.38216200  1
  O  O32  1  0.83162800  0.83020600  0.61452100  1
  O  O33  1  0.63293800  0.87599000  0.20330800  1
  O  O34  1  0.32130900  0.94124800  0.02259800  1
  O  O35  1  0.65446700  0.91649300  0.78901900  1
