# generated using pymatgen
data_YIO
_symmetry_space_group_name_H-M   'P 1'
_cell_length_a   3.95316600
_cell_length_b   3.95316600
_cell_length_c   9.58977700
_cell_angle_alpha   90.00000000
_cell_angle_beta   90.00000000
_cell_angle_gamma   90.00000000
_symmetry_Int_Tables_number   1
_chemical_formula_structural   YIO
_chemical_formula_sum   'Y2 I2 O2'
_cell_volume   149.86444551
_cell_formula_units_Z   2
loop_
 _symmetry_equiv_pos_site_id
 _symmetry_equiv_pos_as_xyz
  1  'x, y, z'
loop_
 _atom_site_type_symbol
 _atom_site_label
 _atom_site_symmetry_multiplicity
 _atom_site_fract_x
 _atom_site_fract_y
 _atom_site_fract_z
 _atom_site_occupancy
  Y  Y0  1  0.00000000  0.50000000  0.11432800  1
  Y  Y1  1  0.50000000  0.00000000  0.88567200  1
  I  I2  1  0.00000000  0.50000000  0.68436300  1
  I  I3  1  0.50000000  0.00000000  0.31563700  1
  O  O4  1  0.00000000  0.00000000  0.00000000  1
  O  O5  1  0.50000000  0.50000000  0.00000000  1
