# generated using pymatgen
data_Zn(NO3)2
_symmetry_space_group_name_H-M   'P 1'
_cell_length_a   7.62137700
_cell_length_b   7.62137700
_cell_length_c   7.62137700
_cell_angle_alpha   90.00000000
_cell_angle_beta   90.00000000
_cell_angle_gamma   90.00000000
_symmetry_Int_Tables_number   1
_chemical_formula_structural   Zn(NO3)2
_chemical_formula_sum   'Zn4 N8 O24'
_cell_volume   442.69063538
_cell_formula_units_Z   4
loop_
 _symmetry_equiv_pos_site_id
 _symmetry_equiv_pos_as_xyz
  1  'x, y, z'
loop_
 _atom_site_type_symbol
 _atom_site_label
 _atom_site_symmetry_multiplicity
 _atom_site_fract_x
 _atom_site_fract_y
 _atom_site_fract_z
 _atom_site_occupancy
  Zn  Zn0  1  0.50000000  0.50000000  0.50000000  1
  Zn  Zn1  1  0.50000000  0.00000000  0.00000000  1
  Zn  Zn2  1  0.00000000  0.50000000  0.00000000  1
  Zn  Zn3  1  0.00000000  0.00000000  0.50000000  1
  N  N4  1  0.66572400  0.16572400  0.33427600  1
  N  N5  1  0.66572400  0.33427600  0.83427600  1
  N  N6  1  0.83427600  0.83427600  0.83427600  1
  N  N7  1  0.83427600  0.66572400  0.33427600  1
  N  N8  1  0.16572400  0.16572400  0.16572400  1
  N  N9  1  0.16572400  0.33427600  0.66572400  1
  N  N10  1  0.33427600  0.66572400  0.16572400  1
  N  N11  1  0.33427600  0.83427600  0.66572400  1
  O  O12  1  0.54505300  0.22051600  0.82720200  1
  O  O13  1  0.54505300  0.27948400  0.32720200  1
  O  O14  1  0.67279800  0.45494700  0.72051600  1
  O  O15  1  0.67279800  0.04505300  0.22051600  1
  O  O16  1  0.72051600  0.67279800  0.45494700  1
  O  O17  1  0.72051600  0.82720200  0.95494700  1
  O  O18  1  0.77948400  0.32720200  0.95494700  1
  O  O19  1  0.77948400  0.17279800  0.45494700  1
  O  O20  1  0.82720200  0.95494700  0.72051600  1
  O  O21  1  0.82720200  0.54505300  0.22051600  1
  O  O22  1  0.95494700  0.72051600  0.82720200  1
  O  O23  1  0.95494700  0.77948400  0.32720200  1
  O  O24  1  0.04505300  0.22051600  0.67279800  1
  O  O25  1  0.04505300  0.27948400  0.17279800  1
  O  O26  1  0.17279800  0.45494700  0.77948400  1
  O  O27  1  0.17279800  0.04505300  0.27948400  1
  O  O28  1  0.22051600  0.67279800  0.04505300  1
  O  O29  1  0.22051600  0.82720200  0.54505300  1
  O  O30  1  0.27948400  0.17279800  0.04505300  1
  O  O31  1  0.27948400  0.32720200  0.54505300  1
  O  O32  1  0.32720200  0.54505300  0.27948400  1
  O  O33  1  0.32720200  0.95494700  0.77948400  1
  O  O34  1  0.45494700  0.72051600  0.67279800  1
  O  O35  1  0.45494700  0.77948400  0.17279800  1
