# generated using pymatgen
data_Ni17(As3O16)2
_symmetry_space_group_name_H-M   'P 1'
_cell_length_a   12.00420700
_cell_length_b   9.94289700
_cell_length_c   10.43739947
_cell_angle_alpha   69.57068806
_cell_angle_beta   90.00000000
_cell_angle_gamma   90.00000000
_symmetry_Int_Tables_number   1
_chemical_formula_structural   Ni17(As3O16)2
_chemical_formula_sum   'Ni34 As12 O64'
_cell_volume   1167.41777254
_cell_formula_units_Z   2
loop_
 _symmetry_equiv_pos_site_id
 _symmetry_equiv_pos_as_xyz
  1  'x, y, z'
loop_
 _atom_site_type_symbol
 _atom_site_label
 _atom_site_symmetry_multiplicity
 _atom_site_fract_x
 _atom_site_fract_y
 _atom_site_fract_z
 _atom_site_occupancy
  Ni  Ni0  1  0.62300200  0.00069300  0.24285000  1
  Ni  Ni1  1  0.50046700  0.74226800  0.24763600  1
  Ni  Ni2  1  0.62187800  0.74255900  0.00525500  1
  Ni  Ni3  1  0.49877300  0.26308900  0.24649900  1
  Ni  Ni4  1  0.37699800  0.99930700  0.75715000  1
  Ni  Ni5  1  0.24392700  0.99959800  0.49939900  1
  Ni  Ni6  1  0.50000000  0.00000000  0.50000000  1
  Ni  Ni7  1  0.50122700  0.73691100  0.75350100  1
  Ni  Ni8  1  0.25024500  0.73699300  0.75566300  1
  Ni  Ni9  1  0.37494400  0.73630400  0.50437700  1
  Ni  Ni10  1  0.37812200  0.25744100  0.99474500  1
  Ni  Ni11  1  0.49953300  0.25773200  0.75236400  1
  Ni  Ni12  1  0.24964300  0.26574800  0.74454100  1
  Ni  Ni13  1  0.00000000  0.00000000  0.00000000  1
  Ni  Ni14  1  0.25607300  0.99959800  0.99939900  1
  Ni  Ni15  1  0.24975500  0.73699300  0.25566300  1
  Ni  Ni16  1  0.99877300  0.73691100  0.25350100  1
  Ni  Ni17  1  0.12505600  0.73630400  0.00437700  1
  Ni  Ni18  1  0.12187800  0.25744100  0.49474500  1
  Ni  Ni19  1  0.25035700  0.26574800  0.24454100  1
  Ni  Ni20  1  0.00046700  0.25773200  0.25236400  1
  Ni  Ni21  1  0.75607300  0.00040200  0.50060100  1
  Ni  Ni22  1  0.12300200  0.99930700  0.25715000  1
  Ni  Ni23  1  0.99953300  0.74226800  0.74763600  1
  Ni  Ni24  1  0.74964300  0.73425200  0.75545900  1
  Ni  Ni25  1  0.87812200  0.74255900  0.50525500  1
  Ni  Ni26  1  0.87494400  0.26369600  0.99562300  1
  Ni  Ni27  1  0.00122700  0.26308900  0.74649900  1
  Ni  Ni28  1  0.75024500  0.26300700  0.74433700  1
  Ni  Ni29  1  0.74392700  0.00040200  0.00060100  1
  Ni  Ni30  1  0.87699800  0.00069300  0.74285000  1
  Ni  Ni31  1  0.75035700  0.73425200  0.25545900  1
  Ni  Ni32  1  0.62505600  0.26369600  0.49562300  1
  Ni  Ni33  1  0.74975500  0.26300700  0.24433700  1
  As  As34  1  0.62389900  0.99969800  0.75247600  1
  As  As35  1  0.62508200  0.42287100  0.94281900  1
  As  As36  1  0.37610100  0.00030200  0.24752400  1
  As  As37  1  0.37515100  0.42352900  0.44282800  1
  As  As38  1  0.12389900  0.00030200  0.74752400  1
  As  As39  1  0.12484900  0.42352900  0.94282800  1
  As  As40  1  0.87610100  0.99969800  0.25247600  1
  As  As41  1  0.37491800  0.57712900  0.05718100  1
  As  As42  1  0.87491800  0.42287100  0.44281900  1
  As  As43  1  0.12508200  0.57712900  0.55718100  1
  As  As44  1  0.87515100  0.57647100  0.05717200  1
  As  As45  1  0.62484900  0.57647100  0.55717200  1
  O  O46  1  0.62485500  0.61271700  0.88017500  1
  O  O47  1  0.48427400  0.12004100  0.14468000  1
  O  O48  1  0.63023100  0.12019300  0.85116800  1
  O  O49  1  0.63337900  0.86041100  0.13592600  1
  O  O50  1  0.62370800  0.62857900  0.38271400  1
  O  O51  1  0.37571600  0.61396400  0.37861100  1
  O  O52  1  0.49345000  0.62844400  0.11932400  1
  O  O53  1  0.49376400  0.37081200  0.38091300  1
  O  O54  1  0.23529800  0.11433800  0.63762500  1
  O  O55  1  0.51418400  0.11526600  0.63800500  1
  O  O56  1  0.37405400  0.11256200  0.36146400  1
  O  O57  1  0.37532500  0.86995700  0.62619400  1
  O  O58  1  0.48581600  0.88473400  0.36199500  1
  O  O59  1  0.37534700  0.62892500  0.88230000  1
  O  O60  1  0.12428400  0.61396400  0.87861100  1
  O  O61  1  0.50623600  0.62918800  0.61908700  1
  O  O62  1  0.24378100  0.62909600  0.61929500  1
  O  O63  1  0.50655000  0.37155600  0.88067600  1
  O  O64  1  0.24342000  0.37142100  0.88178700  1
  O  O65  1  0.37629200  0.37142100  0.61728600  1
  O  O66  1  0.26470200  0.11433800  0.13762500  1
  O  O67  1  0.98581600  0.11526600  0.13800500  1
  O  O68  1  0.36662100  0.13958900  0.86407400  1
  O  O69  1  0.12594600  0.11256200  0.86146400  1
  O  O70  1  0.36976900  0.87980700  0.14883200  1
  O  O71  1  0.12467500  0.86995700  0.12619400  1
  O  O72  1  0.51572600  0.87995900  0.85532000  1
  O  O73  1  0.23599000  0.88524000  0.86443100  1
  O  O74  1  0.12465300  0.62892500  0.38230000  1
  O  O75  1  0.87514500  0.61271700  0.38017500  1
  O  O76  1  0.25621900  0.62909600  0.11929500  1
  O  O77  1  0.99376400  0.62918800  0.11908700  1
  O  O78  1  0.25658000  0.37142100  0.38178700  1
  O  O79  1  0.99345000  0.37155600  0.38067600  1
  O  O80  1  0.37514500  0.38728300  0.11982500  1
  O  O81  1  0.12370800  0.37142100  0.11728600  1
  O  O82  1  0.73599000  0.11476000  0.63556900  1
  O  O83  1  0.01572600  0.12004100  0.64468000  1
  O  O84  1  0.13337900  0.13958900  0.36407400  1
  O  O85  1  0.86976900  0.12019300  0.35116800  1
  O  O86  1  0.13023100  0.87980700  0.64883200  1
  O  O87  1  0.86662100  0.86041100  0.63592600  1
  O  O88  1  0.26401000  0.88524000  0.36443100  1
  O  O89  1  0.98427400  0.87995900  0.35532000  1
  O  O90  1  0.87629200  0.62857900  0.88271400  1
  O  O91  1  0.00655000  0.62844400  0.61932400  1
  O  O92  1  0.74342000  0.62857900  0.61821300  1
  O  O93  1  0.00623600  0.37081200  0.88091300  1
  O  O94  1  0.74378100  0.37090400  0.88070500  1
  O  O95  1  0.12485500  0.38728300  0.61982500  1
  O  O96  1  0.87534700  0.37107500  0.61770000  1
  O  O97  1  0.76401000  0.11476000  0.13556900  1
  O  O98  1  0.87532500  0.13004300  0.87380600  1
  O  O99  1  0.87405400  0.88743800  0.13853600  1
  O  O100  1  0.01418400  0.88473400  0.86199500  1
  O  O101  1  0.73529800  0.88566200  0.86237500  1
  O  O102  1  0.75658000  0.62857900  0.11821300  1
  O  O103  1  0.75621900  0.37090400  0.38070500  1
  O  O104  1  0.87571600  0.38603600  0.12138900  1
  O  O105  1  0.62465300  0.37107500  0.11770000  1
  O  O106  1  0.62467500  0.13004300  0.37380600  1
  O  O107  1  0.62594600  0.88743800  0.63853600  1
  O  O108  1  0.76470200  0.88566200  0.36237500  1
  O  O109  1  0.62428400  0.38603600  0.62138900  1
