# generated using pymatgen
data_Na2AsAu
_symmetry_space_group_name_H-M   'P 1'
_cell_length_a   5.71730316
_cell_length_b   5.71730316
_cell_length_c   5.83694800
_cell_angle_alpha   90.00000000
_cell_angle_beta   90.00000000
_cell_angle_gamma   102.64821775
_symmetry_Int_Tables_number   1
_chemical_formula_structural   Na2AsAu
_chemical_formula_sum   'Na4 As2 Au2'
_cell_volume   186.16549415
_cell_formula_units_Z   2
loop_
 _symmetry_equiv_pos_site_id
 _symmetry_equiv_pos_as_xyz
  1  'x, y, z'
loop_
 _atom_site_type_symbol
 _atom_site_label
 _atom_site_symmetry_multiplicity
 _atom_site_fract_x
 _atom_site_fract_y
 _atom_site_fract_z
 _atom_site_occupancy
  Na  Na0  1  0.02731800  0.66598600  0.25000000  1
  Na  Na1  1  0.97268200  0.33401400  0.75000000  1
  Na  Na2  1  0.66598600  0.02731800  0.25000000  1
  Na  Na3  1  0.33401400  0.97268200  0.75000000  1
  As  As4  1  0.79104200  0.79104200  0.75000000  1
  As  As5  1  0.20895800  0.20895800  0.25000000  1
  Au  Au6  1  0.50000000  0.50000000  0.50000000  1
  Au  Au7  1  0.50000000  0.50000000  0.00000000  1
