# generated using pymatgen
data_Cs3GaO3
_symmetry_space_group_name_H-M   'P 1'
_cell_length_a   7.26259800
_cell_length_b   8.10963200
_cell_length_c   11.60671235
_cell_angle_alpha   83.08043167
_cell_angle_beta   90.00000000
_cell_angle_gamma   90.00000000
_symmetry_Int_Tables_number   1
_chemical_formula_structural   Cs3GaO3
_chemical_formula_sum   'Cs12 Ga4 O12'
_cell_volume   678.62133138
_cell_formula_units_Z   4
loop_
 _symmetry_equiv_pos_site_id
 _symmetry_equiv_pos_as_xyz
  1  'x, y, z'
loop_
 _atom_site_type_symbol
 _atom_site_label
 _atom_site_symmetry_multiplicity
 _atom_site_fract_x
 _atom_site_fract_y
 _atom_site_fract_z
 _atom_site_occupancy
  Cs  Cs0  1  0.32884800  0.34342000  0.07270800  1
  Cs  Cs1  1  0.62711700  0.95542100  0.15526300  1
  Cs  Cs2  1  0.82151300  0.37204700  0.19559500  1
  Cs  Cs3  1  0.32151300  0.62795300  0.30440500  1
  Cs  Cs4  1  0.12711700  0.04457900  0.34473700  1
  Cs  Cs5  1  0.82884800  0.65658000  0.42729200  1
  Cs  Cs6  1  0.17115200  0.34342000  0.57270800  1
  Cs  Cs7  1  0.87288300  0.95542100  0.65526300  1
  Cs  Cs8  1  0.67848700  0.37204700  0.69559500  1
  Cs  Cs9  1  0.17848700  0.62795300  0.80440500  1
  Cs  Cs10  1  0.37288300  0.04457900  0.84473700  1
  Cs  Cs11  1  0.67115200  0.65658000  0.92729200  1
  Ga  Ga12  1  0.07757000  0.85190600  0.06336300  1
  Ga  Ga13  1  0.57757000  0.14809400  0.43663700  1
  Ga  Ga14  1  0.42243000  0.85190600  0.56336300  1
  Ga  Ga15  1  0.92243000  0.14809400  0.93663700  1
  O  O16  1  0.31233000  0.76740000  0.03918900  1
  O  O17  1  0.05659600  0.09097100  0.08298800  1
  O  O18  1  0.94958000  0.72074600  0.17995400  1
  O  O19  1  0.44958000  0.27925400  0.32004600  1
  O  O20  1  0.55659600  0.90902900  0.41701200  1
  O  O21  1  0.81233000  0.23260000  0.46081100  1
  O  O22  1  0.18767000  0.76740000  0.53918900  1
  O  O23  1  0.44340400  0.09097100  0.58298800  1
  O  O24  1  0.55042000  0.72074600  0.67995400  1
  O  O25  1  0.05042000  0.27925400  0.82004600  1
  O  O26  1  0.94340400  0.90902900  0.91701200  1
  O  O27  1  0.68767000  0.23260000  0.96081100  1
