# generated using pymatgen
data_CeGa6
_symmetry_space_group_name_H-M   'P 1'
_cell_length_a   6.01463700
_cell_length_b   6.01463700
_cell_length_c   7.72565800
_cell_angle_alpha   90.00000000
_cell_angle_beta   90.00000000
_cell_angle_gamma   90.00000000
_symmetry_Int_Tables_number   1
_chemical_formula_structural   CeGa6
_chemical_formula_sum   'Ce2 Ga12'
_cell_volume   279.48230863
_cell_formula_units_Z   2
loop_
 _symmetry_equiv_pos_site_id
 _symmetry_equiv_pos_as_xyz
  1  'x, y, z'
loop_
 _atom_site_type_symbol
 _atom_site_label
 _atom_site_symmetry_multiplicity
 _atom_site_fract_x
 _atom_site_fract_y
 _atom_site_fract_z
 _atom_site_occupancy
  Ce  Ce0  1  0.00000000  0.50000000  0.00000000  1
  Ce  Ce1  1  0.50000000  0.00000000  0.00000000  1
  Ga  Ga2  1  0.68373300  0.81626700  0.35175400  1
  Ga  Ga3  1  0.31626700  0.18373300  0.35175400  1
  Ga  Ga4  1  0.00000000  0.00000000  0.16120300  1
  Ga  Ga5  1  0.00000000  0.00000000  0.83879700  1
  Ga  Ga6  1  0.50000000  0.50000000  0.83879700  1
  Ga  Ga7  1  0.50000000  0.50000000  0.16120300  1
  Ga  Ga8  1  0.18373300  0.31626700  0.64824600  1
  Ga  Ga9  1  0.68373300  0.18373300  0.64824600  1
  Ga  Ga10  1  0.31626700  0.81626700  0.64824600  1
  Ga  Ga11  1  0.18373300  0.68373300  0.35175400  1
  Ga  Ga12  1  0.81626700  0.31626700  0.35175400  1
  Ga  Ga13  1  0.81626700  0.68373300  0.64824600  1
