# generated using pymatgen
data_AlH3NCl3
_symmetry_space_group_name_H-M   'P 1'
_cell_length_a   10.10941900
_cell_length_b   10.42195600
_cell_length_c   11.73543300
_cell_angle_alpha   90.00000000
_cell_angle_beta   90.00000000
_cell_angle_gamma   90.00000000
_symmetry_Int_Tables_number   1
_chemical_formula_structural   AlH3NCl3
_chemical_formula_sum   'Al8 H24 N8 Cl24'
_cell_volume   1236.44428209
_cell_formula_units_Z   8
loop_
 _symmetry_equiv_pos_site_id
 _symmetry_equiv_pos_as_xyz
  1  'x, y, z'
loop_
 _atom_site_type_symbol
 _atom_site_label
 _atom_site_symmetry_multiplicity
 _atom_site_fract_x
 _atom_site_fract_y
 _atom_site_fract_z
 _atom_site_occupancy
  Al  Al0  1  0.17735700  0.59784000  0.66966800  1
  Al  Al1  1  0.17735700  0.90216000  0.16966800  1
  Al  Al2  1  0.32264300  0.09784000  0.66966800  1
  Al  Al3  1  0.32264300  0.40216000  0.16966800  1
  Al  Al4  1  0.67735700  0.59784000  0.83033200  1
  Al  Al5  1  0.67735700  0.90216000  0.33033200  1
  Al  Al6  1  0.82264300  0.09784000  0.83033200  1
  Al  Al7  1  0.82264300  0.40216000  0.33033200  1
  H  H8  1  0.98654200  0.74887400  0.14410500  1
  H  H9  1  0.98654200  0.75112600  0.64410500  1
  H  H10  1  0.03659500  0.79566400  0.01695600  1
  H  H11  1  0.03659500  0.70433600  0.51695600  1
  H  H12  1  0.11891600  0.68366200  0.08647500  1
  H  H13  1  0.11891600  0.81633800  0.58647500  1
  H  H14  1  0.38108400  0.18366200  0.08647500  1
  H  H15  1  0.38108400  0.31633800  0.58647500  1
  H  H16  1  0.46340500  0.20433600  0.51695600  1
  H  H17  1  0.46340500  0.29566400  0.01695600  1
  H  H18  1  0.51345800  0.24887400  0.14410500  1
  H  H19  1  0.51345800  0.25112600  0.64410500  1
  H  H20  1  0.48654200  0.74887400  0.35589500  1
  H  H21  1  0.48654200  0.75112600  0.85589500  1
  H  H22  1  0.53659500  0.70433600  0.98304400  1
  H  H23  1  0.53659500  0.79566400  0.48304400  1
  H  H24  1  0.61891600  0.68366200  0.41352500  1
  H  H25  1  0.61891600  0.81633800  0.91352500  1
  H  H26  1  0.88108400  0.18366200  0.41352500  1
  H  H27  1  0.88108400  0.31633800  0.91352500  1
  H  H28  1  0.96340500  0.20433600  0.98304400  1
  H  H29  1  0.96340500  0.29566400  0.48304400  1
  H  H30  1  0.01345800  0.25112600  0.85589500  1
  H  H31  1  0.01345800  0.24887400  0.35589500  1
  N  N32  1  0.06943100  0.76952500  0.09658900  1
  N  N33  1  0.06943100  0.73047500  0.59658900  1
  N  N34  1  0.43056900  0.23047500  0.59658900  1
  N  N35  1  0.43056900  0.26952500  0.09658900  1
  N  N36  1  0.56943100  0.76952500  0.40341100  1
  N  N37  1  0.56943100  0.73047500  0.90341100  1
  N  N38  1  0.93056900  0.23047500  0.90341100  1
  N  N39  1  0.93056900  0.26952500  0.40341100  1
  Cl  Cl40  1  0.05382300  0.06952400  0.16871300  1
  Cl  Cl41  1  0.05382300  0.43047600  0.66871300  1
  Cl  Cl42  1  0.15037100  0.42644200  0.06662400  1
  Cl  Cl43  1  0.15037100  0.07355800  0.56662400  1
  Cl  Cl44  1  0.22168000  0.67476600  0.83407400  1
  Cl  Cl45  1  0.22168000  0.82523400  0.33407400  1
  Cl  Cl46  1  0.27832000  0.17476600  0.83407400  1
  Cl  Cl47  1  0.27832000  0.32523400  0.33407400  1
  Cl  Cl48  1  0.34962900  0.57355800  0.56662400  1
  Cl  Cl49  1  0.34962900  0.92644200  0.06662400  1
  Cl  Cl50  1  0.44617700  0.56952400  0.16871300  1
  Cl  Cl51  1  0.44617700  0.93047600  0.66871300  1
  Cl  Cl52  1  0.55382300  0.06952400  0.33128700  1
  Cl  Cl53  1  0.55382300  0.43047600  0.83128700  1
  Cl  Cl54  1  0.65037100  0.42644200  0.43337600  1
  Cl  Cl55  1  0.65037100  0.07355800  0.93337600  1
  Cl  Cl56  1  0.72168000  0.67476600  0.66592600  1
  Cl  Cl57  1  0.72168000  0.82523400  0.16592600  1
  Cl  Cl58  1  0.77832000  0.32523400  0.16592600  1
  Cl  Cl59  1  0.77832000  0.17476600  0.66592600  1
  Cl  Cl60  1  0.84962900  0.57355800  0.93337600  1
  Cl  Cl61  1  0.84962900  0.92644200  0.43337600  1
  Cl  Cl62  1  0.94617700  0.93047600  0.83128700  1
  Cl  Cl63  1  0.94617700  0.56952400  0.33128700  1
