# generated using pymatgen
data_K5Ce2H2S6O25
_symmetry_space_group_name_H-M   'P 1'
_cell_length_a   9.62181218
_cell_length_b   9.62181218
_cell_length_c   19.58826226
_cell_angle_alpha   69.67730127
_cell_angle_beta   69.67730127
_cell_angle_gamma   43.27786002
_symmetry_Int_Tables_number   1
_chemical_formula_structural   K5Ce2H2S6O25
_chemical_formula_sum   'K10 Ce4 H4 S12 O50'
_cell_volume   1153.15922562
_cell_formula_units_Z   2
loop_
 _symmetry_equiv_pos_site_id
 _symmetry_equiv_pos_as_xyz
  1  'x, y, z'
loop_
 _atom_site_type_symbol
 _atom_site_label
 _atom_site_symmetry_multiplicity
 _atom_site_fract_x
 _atom_site_fract_y
 _atom_site_fract_z
 _atom_site_occupancy
  K  K0  1  0.77244500  0.93074300  0.23435400  1
  K  K1  1  0.93074300  0.77244500  0.73435400  1
  K  K2  1  0.70814900  0.43639000  0.19436200  1
  K  K3  1  0.43639000  0.70814900  0.69436200  1
  K  K4  1  0.18627600  0.39077900  0.08382700  1
  K  K5  1  0.39077900  0.18627600  0.58382700  1
  K  K6  1  0.31986500  0.51519200  0.39913000  1
  K  K7  1  0.51519200  0.31986500  0.89913000  1
  K  K8  1  0.27068700  0.99865500  0.27378700  1
  K  K9  1  0.99865500  0.27068700  0.77378700  1
  Ce  Ce10  1  0.92885400  0.07306700  0.49965600  1
  Ce  Ce11  1  0.07306700  0.92885400  0.99965600  1
  Ce  Ce12  1  0.77510300  0.63137100  0.46901900  1
  Ce  Ce13  1  0.63137100  0.77510300  0.96901900  1
  H  H14  1  0.25673300  0.51504500  0.21282700  1
  H  H15  1  0.51504500  0.25673300  0.71282700  1
  H  H16  1  0.17873300  0.40861400  0.24861900  1
  H  H17  1  0.40861400  0.17873300  0.74861900  1
  S  S18  1  0.18627400  0.95909400  0.12615700  1
  S  S19  1  0.95909400  0.18627400  0.62615700  1
  S  S20  1  0.69077600  0.87652400  0.08933600  1
  S  S21  1  0.87652400  0.69077600  0.58933600  1
  S  S22  1  0.56816700  0.40936700  0.06233700  1
  S  S23  1  0.40936700  0.56816700  0.56233700  1
  S  S24  1  0.74830600  0.51785500  0.34145700  1
  S  S25  1  0.51785500  0.74830600  0.84145700  1
  S  S26  1  0.83258100  0.01256800  0.37911500  1
  S  S27  1  0.01256800  0.83258100  0.87911500  1
  S  S28  1  0.29417400  0.13974800  0.40518400  1
  S  S29  1  0.13974800  0.29417400  0.90518400  1
  O  O30  1  0.31370000  0.78522300  0.18105900  1
  O  O31  1  0.78522300  0.31370000  0.68105900  1
  O  O32  1  0.01582500  0.98229500  0.12266800  1
  O  O33  1  0.98229500  0.01582500  0.62266800  1
  O  O34  1  0.30174200  0.92212900  0.04817200  1
  O  O35  1  0.92212900  0.30174200  0.54817200  1
  O  O36  1  0.10449000  0.14952300  0.14030600  1
  O  O37  1  0.14952300  0.10449000  0.64030600  1
  O  O38  1  0.57395800  0.01965100  0.02528300  1
  O  O39  1  0.01965100  0.57395800  0.52528300  1
  O  O40  1  0.75944800  0.67851000  0.08659400  1
  O  O41  1  0.67851000  0.75944800  0.58659400  1
  O  O42  1  0.87723300  0.83696400  0.07965900  1
  O  O43  1  0.83696400  0.87723300  0.57965900  1
  O  O44  1  0.56038300  0.95637500  0.15847700  1
  O  O45  1  0.95637500  0.56038300  0.65847700  1
  O  O46  1  0.35625800  0.56096200  0.04323700  1
  O  O47  1  0.56096200  0.35625800  0.54323700  1
  O  O48  1  0.64772400  0.50881100  0.04263600  1
  O  O49  1  0.50881100  0.64772400  0.54263600  1
  O  O50  1  0.70407500  0.24267000  0.01614600  1
  O  O51  1  0.24267000  0.70407500  0.51614600  1
  O  O52  1  0.56612900  0.33017500  0.14080200  1
  O  O53  1  0.33017500  0.56612900  0.64080200  1
  O  O54  1  0.78865800  0.40130800  0.41915600  1
  O  O55  1  0.40130800  0.78865800  0.91915600  1
  O  O56  1  0.71680700  0.69329800  0.34540100  1
  O  O57  1  0.69329800  0.71680700  0.84540100  1
  O  O58  1  0.92305600  0.39170900  0.28654400  1
  O  O59  1  0.39170900  0.92305600  0.78654400  1
  O  O60  1  0.56047300  0.59456700  0.32694900  1
  O  O61  1  0.59456700  0.56047300  0.82694900  1
  O  O62  1  0.68442500  0.12989400  0.44244300  1
  O  O63  1  0.12989400  0.68442500  0.94244300  1
  O  O64  1  0.03030900  0.93834000  0.38683100  1
  O  O65  1  0.93834000  0.03030900  0.88683100  1
  O  O66  1  0.76410500  0.14294300  0.30875300  1
  O  O67  1  0.14294300  0.76410500  0.80875300  1
  O  O68  1  0.87039300  0.82830500  0.38555400  1
  O  O69  1  0.82830500  0.87039300  0.88555400  1
  O  O70  1  0.13004800  0.35860600  0.41939100  1
  O  O71  1  0.35860600  0.13004800  0.91939100  1
  O  O72  1  0.20728000  0.04786100  0.42489300  1
  O  O73  1  0.04786100  0.20728000  0.92489300  1
  O  O74  1  0.45362500  0.01918800  0.45299800  1
  O  O75  1  0.01918800  0.45362500  0.95299800  1
  O  O76  1  0.37890500  0.13872400  0.32670200  1
  O  O77  1  0.13872400  0.37890500  0.82670200  1
  O  O78  1  0.15041300  0.52300800  0.21178700  1
  O  O79  1  0.52300800  0.15041300  0.71178700  1
