# generated using pymatgen
data_CaAs2HF13
_symmetry_space_group_name_H-M   'P 1'
_cell_length_a   9.48274900
_cell_length_b   9.71793000
_cell_length_c   10.70093268
_cell_angle_alpha   76.20052637
_cell_angle_beta   90.00000000
_cell_angle_gamma   90.00000000
_symmetry_Int_Tables_number   1
_chemical_formula_structural   CaAs2HF13
_chemical_formula_sum   'Ca4 As8 H4 F52'
_cell_volume   957.65684684
_cell_formula_units_Z   4
loop_
 _symmetry_equiv_pos_site_id
 _symmetry_equiv_pos_as_xyz
  1  'x, y, z'
loop_
 _atom_site_type_symbol
 _atom_site_label
 _atom_site_symmetry_multiplicity
 _atom_site_fract_x
 _atom_site_fract_y
 _atom_site_fract_z
 _atom_site_occupancy
  Ca  Ca0  1  0.16826200  0.75280100  0.50045700  1
  Ca  Ca1  1  0.33173800  0.75280100  0.00045700  1
  Ca  Ca2  1  0.66826200  0.24719900  0.99954300  1
  Ca  Ca3  1  0.83173800  0.24719900  0.49954300  1
  As  As4  1  0.65595300  0.99063400  0.81357900  1
  As  As5  1  0.84404700  0.99063400  0.31357900  1
  As  As6  1  0.34472300  0.48943500  0.81416100  1
  As  As7  1  0.84472300  0.51056500  0.68583900  1
  As  As8  1  0.15527700  0.48943500  0.31416100  1
  As  As9  1  0.65527700  0.51056500  0.18583900  1
  As  As10  1  0.15595300  0.00936600  0.68642100  1
  As  As11  1  0.34404700  0.00936600  0.18642100  1
  H  H12  1  0.02412000  0.68890400  0.94905900  1
  H  H13  1  0.47588000  0.68890400  0.44905900  1
  H  H14  1  0.52412000  0.31109600  0.55094100  1
  H  H15  1  0.97588000  0.31109600  0.05094100  1
  F  F16  1  0.53457800  0.88898300  0.92803200  1
  F  F17  1  0.56322800  0.95352600  0.68607700  1
  F  F18  1  0.27614800  0.89669500  0.79583700  1
  F  F19  1  0.24668200  0.96159400  0.55419300  1
  F  F20  1  0.76883500  0.84706500  0.83086400  1
  F  F21  1  0.05216800  0.85479500  0.68962600  1
  F  F22  1  0.96542200  0.88898300  0.42803200  1
  F  F23  1  0.93677200  0.95352600  0.18607700  1
  F  F24  1  0.22385200  0.89669500  0.29583700  1
  F  F25  1  0.25331800  0.96159400  0.05419300  1
  F  F26  1  0.73116500  0.84706500  0.33086400  1
  F  F27  1  0.44783200  0.85479500  0.18962600  1
  F  F28  1  0.42672800  0.74544000  0.49517400  1
  F  F29  1  0.44917200  0.64138100  0.81209400  1
  F  F30  1  0.73395100  0.65501700  0.67050900  1
  F  F31  1  0.22420500  0.60099100  0.70503900  1
  F  F32  1  0.25211700  0.53829200  0.94565300  1
  F  F33  1  0.96566800  0.61374400  0.57290800  1
  F  F34  1  0.93783700  0.54788700  0.81556600  1
  F  F35  1  0.07327200  0.74544000  0.99517400  1
  F  F36  1  0.05082800  0.64138100  0.31209400  1
  F  F37  1  0.76604900  0.65501700  0.17050900  1
  F  F38  1  0.27579500  0.60099100  0.20503900  1
  F  F39  1  0.24788300  0.53829200  0.44565300  1
  F  F40  1  0.43783700  0.45211300  0.68443400  1
  F  F41  1  0.46566800  0.38625600  0.92709200  1
  F  F42  1  0.53433200  0.61374400  0.07290800  1
  F  F43  1  0.56216300  0.54788700  0.31556600  1
  F  F44  1  0.75211700  0.46170800  0.55434700  1
  F  F45  1  0.72420500  0.39900900  0.79496100  1
  F  F46  1  0.23395100  0.34498300  0.82949100  1
  F  F47  1  0.94917200  0.35861900  0.68790600  1
  F  F48  1  0.92672800  0.25456000  0.00482600  1
  F  F49  1  0.06216300  0.45211300  0.18443400  1
  F  F50  1  0.03433200  0.38625600  0.42709200  1
  F  F51  1  0.74788300  0.46170800  0.05434700  1
  F  F52  1  0.77579500  0.39900900  0.29496100  1
  F  F53  1  0.26604900  0.34498300  0.32949100  1
  F  F54  1  0.55082800  0.35861900  0.18790600  1
  F  F55  1  0.57327200  0.25456000  0.50482600  1
  F  F56  1  0.55216800  0.14520500  0.81037400  1
  F  F57  1  0.26883500  0.15293500  0.66913600  1
  F  F58  1  0.74668200  0.03840600  0.94580700  1
  F  F59  1  0.77614800  0.10330500  0.70416300  1
  F  F60  1  0.06322800  0.04647400  0.81392300  1
  F  F61  1  0.03457800  0.11101700  0.57196800  1
  F  F62  1  0.94783200  0.14520500  0.31037400  1
  F  F63  1  0.23116500  0.15293500  0.16913600  1
  F  F64  1  0.75331800  0.03840600  0.44580700  1
  F  F65  1  0.72385200  0.10330500  0.20416300  1
  F  F66  1  0.43677200  0.04647400  0.31392300  1
  F  F67  1  0.46542200  0.11101700  0.07196800  1
