# generated using pymatgen
data_Dy3Sb5O12
_symmetry_space_group_name_H-M   'P 1'
_cell_length_a   9.41818561
_cell_length_b   9.41818561
_cell_length_c   9.41818561
_cell_angle_alpha   109.47122063
_cell_angle_beta   109.47122063
_cell_angle_gamma   109.47122063
_symmetry_Int_Tables_number   1
_chemical_formula_structural   Dy3Sb5O12
_chemical_formula_sum   'Dy6 Sb10 O24'
_cell_volume   643.10197780
_cell_formula_units_Z   2
loop_
 _symmetry_equiv_pos_site_id
 _symmetry_equiv_pos_as_xyz
  1  'x, y, z'
loop_
 _atom_site_type_symbol
 _atom_site_label
 _atom_site_symmetry_multiplicity
 _atom_site_fract_x
 _atom_site_fract_y
 _atom_site_fract_z
 _atom_site_occupancy
  Dy  Dy0  1  0.75000000  0.25000000  0.50000000  1
  Dy  Dy1  1  0.75000000  0.50000000  0.25000000  1
  Dy  Dy2  1  0.50000000  0.25000000  0.75000000  1
  Dy  Dy3  1  0.50000000  0.75000000  0.25000000  1
  Dy  Dy4  1  0.25000000  0.75000000  0.50000000  1
  Dy  Dy5  1  0.25000000  0.50000000  0.75000000  1
  Sb  Sb6  1  0.51474100  0.00000000  0.00000000  1
  Sb  Sb7  1  0.28388700  0.00000000  0.28388700  1
  Sb  Sb8  1  0.28388700  0.28388700  0.00000000  1
  Sb  Sb9  1  0.71611300  0.00000000  0.71611300  1
  Sb  Sb10  1  0.71611300  0.71611300  0.00000000  1
  Sb  Sb11  1  0.00000000  0.51474100  0.00000000  1
  Sb  Sb12  1  0.00000000  0.00000000  0.51474100  1
  Sb  Sb13  1  0.48525900  0.48525900  0.48525900  1
  Sb  Sb14  1  0.00000000  0.28388700  0.28388700  1
  Sb  Sb15  1  0.00000000  0.71611300  0.71611300  1
  O  O16  1  0.47941100  0.00000000  0.20145700  1
  O  O17  1  0.47941100  0.20145700  0.00000000  1
  O  O18  1  0.70362300  0.50192100  0.00000000  1
  O  O19  1  0.70362300  0.00000000  0.50192100  1
  O  O20  1  0.79829700  0.29637700  0.29637700  1
  O  O21  1  0.49807900  0.49807900  0.20170300  1
  O  O22  1  0.49807900  0.20170300  0.49807900  1
  O  O23  1  0.50192100  0.70362300  0.00000000  1
  O  O24  1  0.50192100  0.00000000  0.70362300  1
  O  O25  1  0.72204700  0.52058900  0.52058900  1
  O  O26  1  0.79854300  0.27795300  0.79854300  1
  O  O27  1  0.79854300  0.79854300  0.27795300  1
  O  O28  1  0.20145700  0.47941100  0.00000000  1
  O  O29  1  0.20145700  0.00000000  0.47941100  1
  O  O30  1  0.52058900  0.72204700  0.52058900  1
  O  O31  1  0.52058900  0.52058900  0.72204700  1
  O  O32  1  0.00000000  0.47941100  0.20145700  1
  O  O33  1  0.00000000  0.20145700  0.47941100  1
  O  O34  1  0.29637700  0.79829700  0.29637700  1
  O  O35  1  0.29637700  0.29637700  0.79829700  1
  O  O36  1  0.20170300  0.49807900  0.49807900  1
  O  O37  1  0.00000000  0.70362300  0.50192100  1
  O  O38  1  0.00000000  0.50192100  0.70362300  1
  O  O39  1  0.27795300  0.79854300  0.79854300  1
