# generated using pymatgen
data_NaCa2Mg2V3O12
_symmetry_space_group_name_H-M   'P 1'
_cell_length_a   10.89301121
_cell_length_b   10.89301121
_cell_length_c   10.89301121
_cell_angle_alpha   109.50280852
_cell_angle_beta   109.50280852
_cell_angle_gamma   109.40806332
_symmetry_Int_Tables_number   1
_chemical_formula_structural   NaCa2Mg2V3O12
_chemical_formula_sum   'Na4 Ca8 Mg8 V12 O48'
_cell_volume   994.99652823
_cell_formula_units_Z   4
loop_
 _symmetry_equiv_pos_site_id
 _symmetry_equiv_pos_as_xyz
  1  'x, y, z'
loop_
 _atom_site_type_symbol
 _atom_site_label
 _atom_site_symmetry_multiplicity
 _atom_site_fract_x
 _atom_site_fract_y
 _atom_site_fract_z
 _atom_site_occupancy
  Na  Na0  1  0.00000000  0.50000000  0.50000000  1
  Na  Na1  1  0.25000000  0.25000000  0.00000000  1
  Na  Na2  1  0.50000000  0.00000000  0.50000000  1
  Na  Na3  1  0.75000000  0.75000000  0.00000000  1
  Ca  Ca4  1  0.12500000  0.99807400  0.37307400  1
  Ca  Ca5  1  0.00192600  0.37500000  0.12692600  1
  Ca  Ca6  1  0.50192600  0.37500000  0.62692600  1
  Ca  Ca7  1  0.12500000  0.49807400  0.87307400  1
  Ca  Ca8  1  0.24807400  0.87500000  0.87307400  1
  Ca  Ca9  1  0.62500000  0.75192600  0.62692600  1
  Ca  Ca10  1  0.74807400  0.87500000  0.37307400  1
  Ca  Ca11  1  0.62500000  0.25192600  0.12692600  1
  Mg  Mg12  1  0.87500000  0.62500000  0.25000000  1
  Mg  Mg13  1  0.87500000  0.62500000  0.75000000  1
  Mg  Mg14  1  0.37500000  0.12500000  0.75000000  1
  Mg  Mg15  1  0.37500000  0.62500000  0.75000000  1
  Mg  Mg16  1  0.37500000  0.62500000  0.25000000  1
  Mg  Mg17  1  0.37500000  0.12500000  0.25000000  1
  Mg  Mg18  1  0.87500000  0.12500000  0.25000000  1
  Mg  Mg19  1  0.87500000  0.12500000  0.75000000  1
  V  V20  1  0.00000000  0.00000000  0.00000000  1
  V  V21  1  0.99951000  0.87500000  0.62451000  1
  V  V22  1  0.25049000  0.37500000  0.37549000  1
  V  V23  1  0.12500000  0.74951000  0.12451000  1
  V  V24  1  0.12500000  0.24951000  0.62451000  1
  V  V25  1  0.25000000  0.75000000  0.50000000  1
  V  V26  1  0.50000000  0.50000000  0.00000000  1
  V  V27  1  0.62500000  0.50049000  0.37549000  1
  V  V28  1  0.49951000  0.87500000  0.12451000  1
  V  V29  1  0.62500000  0.00049000  0.87549000  1
  V  V30  1  0.75049000  0.37500000  0.87549000  1
  V  V31  1  0.75000000  0.25000000  0.50000000  1
  O  O32  1  0.98159500  0.74212300  0.16313700  1
  O  O33  1  0.98840900  0.13893200  0.95784800  1
  O  O34  1  0.89156700  0.33193800  0.87016000  1
  O  O35  1  0.96943900  0.01159100  0.15052300  1
  O  O36  1  0.96177800  0.83193800  0.44037100  1
  O  O37  1  0.97859300  0.10843300  0.44037100  1
  O  O38  1  0.06845800  0.32898600  0.33686300  1
  O  O39  1  0.28822200  0.22859300  0.37016000  1
  O  O40  1  0.25787700  0.42101400  0.23947200  1
  O  O41  1  0.16806200  0.60843300  0.12984000  1
  O  O42  1  0.18154200  0.01840500  0.76052800  1
  O  O43  1  0.88893200  0.43108400  0.65052300  1
  O  O44  1  0.06891600  0.61106800  0.34947700  1
  O  O45  1  0.07898600  0.24212300  0.76052800  1
  O  O46  1  0.27140700  0.21177800  0.62984000  1
  O  O47  1  0.18108400  0.03056100  0.04215200  1
  O  O48  1  0.17101400  0.43154200  0.66313700  1
  O  O49  1  0.99212300  0.73159500  0.66313700  1
  O  O50  1  0.26840500  0.93154200  0.26052800  1
  O  O51  1  0.39156700  0.52140700  0.55962900  1
  O  O52  1  0.38893200  0.73840900  0.45784800  1
  O  O53  1  0.26159100  0.71943900  0.65052300  1
  O  O54  1  0.46943900  0.31891600  0.95784800  1
  O  O55  1  0.08193800  0.71177800  0.94037100  1
  O  O56  1  0.66806200  0.53822200  0.55962900  1
  O  O57  1  0.28056100  0.93108400  0.54215200  1
  O  O58  1  0.48840900  0.53056100  0.84947700  1
  O  O59  1  0.36106800  0.51159100  0.04215200  1
  O  O60  1  0.35843300  0.72859300  0.94037100  1
  O  O61  1  0.48159500  0.31845800  0.23947200  1
  O  O62  1  0.75787700  0.51840500  0.83686300  1
  O  O63  1  0.57898600  0.81845800  0.83686300  1
  O  O64  1  0.56891600  0.21943900  0.45784800  1
  O  O65  1  0.47859300  0.03822200  0.87016000  1
  O  O66  1  0.67101400  0.00787700  0.73947200  1
  O  O67  1  0.68108400  0.63893200  0.15052300  1
  O  O68  1  0.86106800  0.81891600  0.84947700  1
  O  O69  1  0.56845800  0.23159500  0.73947200  1
  O  O70  1  0.49212300  0.82898600  0.26052800  1
  O  O71  1  0.58193800  0.64156700  0.37016000  1
  O  O72  1  0.46177800  0.02140700  0.12984000  1
  O  O73  1  0.68154200  0.92101400  0.16313700  1
  O  O74  1  0.77140700  0.14156700  0.05962900  1
  O  O75  1  0.78822200  0.41806200  0.05962900  1
  O  O76  1  0.78056100  0.23840900  0.34947700  1
  O  O77  1  0.85843300  0.91806200  0.62984000  1
  O  O78  1  0.76159100  0.11106800  0.54215200  1
  O  O79  1  0.76840500  0.50787700  0.33686300  1
