# generated using pymatgen
data_Sm2WO6
_symmetry_space_group_name_H-M   'P 1'
_cell_length_a   5.38725800
_cell_length_b   9.31553000
_cell_length_c   10.18690800
_cell_angle_alpha   90.00000000
_cell_angle_beta   90.00000000
_cell_angle_gamma   90.00000000
_symmetry_Int_Tables_number   1
_chemical_formula_structural   Sm2WO6
_chemical_formula_sum   'Sm8 W4 O24'
_cell_volume   511.23164371
_cell_formula_units_Z   4
loop_
 _symmetry_equiv_pos_site_id
 _symmetry_equiv_pos_as_xyz
  1  'x, y, z'
loop_
 _atom_site_type_symbol
 _atom_site_label
 _atom_site_symmetry_multiplicity
 _atom_site_fract_x
 _atom_site_fract_y
 _atom_site_fract_z
 _atom_site_occupancy
  Sm  Sm0  1  0.02069900  0.39648600  0.03502800  1
  Sm  Sm1  1  0.03599600  0.28123200  0.62954700  1
  Sm  Sm2  1  0.46400400  0.71876800  0.12954700  1
  Sm  Sm3  1  0.47930100  0.60351400  0.53502800  1
  Sm  Sm4  1  0.52069900  0.10351400  0.96497200  1
  Sm  Sm5  1  0.53599600  0.21876800  0.37045300  1
  Sm  Sm6  1  0.96400400  0.78123200  0.87045300  1
  Sm  Sm7  1  0.97930100  0.89648600  0.46497200  1
  W  W8  1  0.03998700  0.00391300  0.15140900  1
  W  W9  1  0.46001300  0.99608700  0.65140900  1
  W  W10  1  0.53998700  0.49608700  0.84859100  1
  W  W11  1  0.96001300  0.50391300  0.34859100  1
  O  O12  1  0.08021400  0.65380000  0.46921500  1
  O  O13  1  0.17207600  0.54814100  0.20594600  1
  O  O14  1  0.18684600  0.86338100  0.68045300  1
  O  O15  1  0.18977800  0.86193600  0.26266900  1
  O  O16  1  0.22653100  0.38721200  0.43245500  1
  O  O17  1  0.25197800  0.08946300  0.50912800  1
  O  O18  1  0.24802200  0.91053700  0.00912800  1
  O  O19  1  0.27346900  0.61278800  0.93245500  1
  O  O20  1  0.31022200  0.13806400  0.76266900  1
  O  O21  1  0.31315400  0.13661900  0.18045300  1
  O  O22  1  0.32792400  0.45185900  0.70594600  1
  O  O23  1  0.41978600  0.34620000  0.96921500  1
  O  O24  1  0.58021400  0.84620000  0.53078500  1
  O  O25  1  0.67207600  0.95185900  0.79405400  1
  O  O26  1  0.68684600  0.63661900  0.31954700  1
  O  O27  1  0.68977800  0.63806400  0.73733100  1
  O  O28  1  0.72653100  0.11278800  0.56754500  1
  O  O29  1  0.75197800  0.41053700  0.49087200  1
  O  O30  1  0.74802200  0.58946300  0.99087200  1
  O  O31  1  0.77346900  0.88721200  0.06754500  1
  O  O32  1  0.81022200  0.36193600  0.23733100  1
  O  O33  1  0.81315400  0.36338100  0.81954700  1
  O  O34  1  0.82792400  0.04814100  0.29405400  1
  O  O35  1  0.91978600  0.15380000  0.03078500  1
