# generated using pymatgen
data_Na3SbO4
_symmetry_space_group_name_H-M   'P 1'
_cell_length_a   6.67729000
_cell_length_b   5.51568600
_cell_length_c   5.87887466
_cell_angle_alpha   70.43277875
_cell_angle_beta   90.00000000
_cell_angle_gamma   90.00000000
_symmetry_Int_Tables_number   1
_chemical_formula_structural   Na3SbO4
_chemical_formula_sum   'Na6 Sb2 O8'
_cell_volume   204.01389879
_cell_formula_units_Z   2
loop_
 _symmetry_equiv_pos_site_id
 _symmetry_equiv_pos_as_xyz
  1  'x, y, z'
loop_
 _atom_site_type_symbol
 _atom_site_label
 _atom_site_symmetry_multiplicity
 _atom_site_fract_x
 _atom_site_fract_y
 _atom_site_fract_z
 _atom_site_occupancy
  Na  Na0  1  0.61456100  0.25000000  0.00000000  1
  Na  Na1  1  0.60571000  0.75000000  0.50000000  1
  Na  Na2  1  0.87475900  0.25000000  0.50000000  1
  Na  Na3  1  0.12524100  0.75000000  0.50000000  1
  Na  Na4  1  0.38543900  0.75000000  0.00000000  1
  Na  Na5  1  0.39429000  0.25000000  0.50000000  1
  Sb  Sb6  1  0.13061600  0.25000000  0.00000000  1
  Sb  Sb7  1  0.86938400  0.75000000  0.00000000  1
  O  O8  1  0.33208200  0.04282900  0.22805400  1
  O  O9  1  0.33208200  0.45717100  0.77194600  1
  O  O10  1  0.66791800  0.95717100  0.77194600  1
  O  O11  1  0.66791800  0.54282900  0.22805400  1
  O  O12  1  0.09649700  0.50011100  0.19565200  1
  O  O13  1  0.09649700  0.99988900  0.80434800  1
  O  O14  1  0.90350300  0.00011100  0.19565200  1
  O  O15  1  0.90350300  0.49988900  0.80434800  1
