# generated using pymatgen
data_Na3AlP2H2O9
_symmetry_space_group_name_H-M   'P 1'
_cell_length_a   8.49875331
_cell_length_b   8.49875331
_cell_length_c   7.13941117
_cell_angle_alpha   83.97033247
_cell_angle_beta   83.97033247
_cell_angle_gamma   49.49915625
_symmetry_Int_Tables_number   1
_chemical_formula_structural   Na3AlP2H2O9
_chemical_formula_sum   'Na6 Al2 P4 H4 O18'
_cell_volume   389.48259547
_cell_formula_units_Z   2
loop_
 _symmetry_equiv_pos_site_id
 _symmetry_equiv_pos_as_xyz
  1  'x, y, z'
loop_
 _atom_site_type_symbol
 _atom_site_label
 _atom_site_symmetry_multiplicity
 _atom_site_fract_x
 _atom_site_fract_y
 _atom_site_fract_z
 _atom_site_occupancy
  Na  Na0  1  0.76510500  0.23489500  0.00000000  1
  Na  Na1  1  0.23489500  0.76510500  0.00000000  1
  Na  Na2  1  0.61023500  0.61023500  0.29072700  1
  Na  Na3  1  0.38976500  0.38976500  0.70927300  1
  Na  Na4  1  0.00000000  0.50000000  0.50000000  1
  Na  Na5  1  0.50000000  0.00000000  0.50000000  1
  Al  Al6  1  0.00000000  0.50000000  0.00000000  1
  Al  Al7  1  0.50000000  0.00000000  0.00000000  1
  P  P8  1  0.37711100  0.37711100  0.22583800  1
  P  P9  1  0.62288900  0.62288900  0.77416200  1
  P  P10  1  0.11976800  0.11976800  0.29002800  1
  P  P11  1  0.88023200  0.88023200  0.70997200  1
  H  H12  1  0.06247000  0.06247000  0.59624200  1
  H  H13  1  0.93753000  0.93753000  0.40375800  1
  H  H14  1  0.19318600  0.19318600  0.82478000  1
  H  H15  1  0.80681400  0.80681400  0.17522000  1
  O  O16  1  0.47645100  0.47645100  0.21267800  1
  O  O17  1  0.52354900  0.52354900  0.78732200  1
  O  O18  1  0.33358600  0.33358600  0.43024700  1
  O  O19  1  0.66641400  0.66641400  0.56975300  1
  O  O20  1  0.16830000  0.52761800  0.11918800  1
  O  O21  1  0.52761800  0.16830000  0.11918800  1
  O  O22  1  0.83170000  0.47238200  0.88081200  1
  O  O23  1  0.47238200  0.83170000  0.88081200  1
  O  O24  1  0.99027000  0.35052200  0.22340300  1
  O  O25  1  0.35052200  0.99027000  0.22340300  1
  O  O26  1  0.00973000  0.64947800  0.77659700  1
  O  O27  1  0.64947800  0.00973000  0.77659700  1
  O  O28  1  0.02587400  0.02587400  0.24145100  1
  O  O29  1  0.97412600  0.97412600  0.75854900  1
  O  O30  1  0.12095900  0.12095900  0.51577100  1
  O  O31  1  0.87904100  0.87904100  0.48422900  1
  O  O32  1  0.24343100  0.24343100  0.89507800  1
  O  O33  1  0.75656900  0.75656900  0.10492200  1
