# generated using pymatgen
data_Rb4SbO4
_symmetry_space_group_name_H-M   'P 1'
_cell_length_a   7.18432600
_cell_length_b   11.53130800
_cell_length_c   11.67336746
_cell_angle_alpha   68.58743058
_cell_angle_beta   90.00000000
_cell_angle_gamma   90.00000000
_symmetry_Int_Tables_number   1
_chemical_formula_structural   Rb4SbO4
_chemical_formula_sum   'Rb16 Sb4 O16'
_cell_volume   900.32462216
_cell_formula_units_Z   4
loop_
 _symmetry_equiv_pos_site_id
 _symmetry_equiv_pos_as_xyz
  1  'x, y, z'
loop_
 _atom_site_type_symbol
 _atom_site_label
 _atom_site_symmetry_multiplicity
 _atom_site_fract_x
 _atom_site_fract_y
 _atom_site_fract_z
 _atom_site_occupancy
  Rb  Rb0  1  0.68323000  0.91756900  0.71398100  1
  Rb  Rb1  1  0.17294200  0.87506900  0.60715200  1
  Rb  Rb2  1  0.38679600  0.65560800  0.92298300  1
  Rb  Rb3  1  0.81677000  0.91756900  0.21398100  1
  Rb  Rb4  1  0.32705800  0.87506900  0.10715200  1
  Rb  Rb5  1  0.91652300  0.56588300  0.79759400  1
  Rb  Rb6  1  0.11320400  0.65560800  0.42298300  1
  Rb  Rb7  1  0.41652300  0.43411700  0.70240600  1
  Rb  Rb8  1  0.58347700  0.56588300  0.29759400  1
  Rb  Rb9  1  0.88679600  0.34439200  0.57701700  1
  Rb  Rb10  1  0.08347700  0.43411700  0.20240600  1
  Rb  Rb11  1  0.67294200  0.12493100  0.89284800  1
  Rb  Rb12  1  0.18323000  0.08243100  0.78601900  1
  Rb  Rb13  1  0.61320400  0.34439200  0.07701700  1
  Rb  Rb14  1  0.82705800  0.12493100  0.39284800  1
  Rb  Rb15  1  0.31677000  0.08243100  0.28601900  1
  Sb  Sb16  1  0.61813500  0.74210200  0.51231200  1
  Sb  Sb17  1  0.88186500  0.74210200  0.01231200  1
  Sb  Sb18  1  0.11813500  0.25789800  0.98768800  1
  Sb  Sb19  1  0.38186500  0.25789800  0.48768800  1
  O  O20  1  0.03818800  0.81552300  0.85802900  1
  O  O21  1  0.83338100  0.85501200  0.49797200  1
  O  O22  1  0.48764300  0.70868600  0.67330800  1
  O  O23  1  0.46181200  0.81552300  0.35802900  1
  O  O24  1  0.66661900  0.85501200  0.99797200  1
  O  O25  1  0.73175100  0.58348400  0.52392000  1
  O  O26  1  0.23175100  0.41651600  0.97608000  1
  O  O27  1  0.01235700  0.70868600  0.17330800  1
  O  O28  1  0.98764300  0.29131400  0.82669200  1
  O  O29  1  0.76824900  0.58348400  0.02392000  1
  O  O30  1  0.26824900  0.41651600  0.47608000  1
  O  O31  1  0.33338100  0.14498800  0.00202800  1
  O  O32  1  0.53818800  0.18447700  0.64197100  1
  O  O33  1  0.51235700  0.29131400  0.32669200  1
  O  O34  1  0.16661900  0.14498800  0.50202800  1
  O  O35  1  0.96181200  0.18447700  0.14197100  1
