# generated using pymatgen
data_K2Li3NiO4
_symmetry_space_group_name_H-M   'P 1'
_cell_length_a   8.79584000
_cell_length_b   5.54562000
_cell_length_c   10.96674510
_cell_angle_alpha   68.49955377
_cell_angle_beta   90.00000000
_cell_angle_gamma   90.00000000
_symmetry_Int_Tables_number   1
_chemical_formula_structural   K2Li3NiO4
_chemical_formula_sum   'K8 Li12 Ni4 O16'
_cell_volume   497.71616599
_cell_formula_units_Z   4
loop_
 _symmetry_equiv_pos_site_id
 _symmetry_equiv_pos_as_xyz
  1  'x, y, z'
loop_
 _atom_site_type_symbol
 _atom_site_label
 _atom_site_symmetry_multiplicity
 _atom_site_fract_x
 _atom_site_fract_y
 _atom_site_fract_z
 _atom_site_occupancy
  K  K0  1  0.22785900  0.71977600  0.89160200  1
  K  K1  1  0.49222900  0.70841700  0.63795600  1
  K  K2  1  0.27214100  0.71977600  0.39160200  1
  K  K3  1  0.99222900  0.29158300  0.86204400  1
  K  K4  1  0.00777100  0.70841700  0.13795600  1
  K  K5  1  0.72785900  0.28022400  0.60839800  1
  K  K6  1  0.50777100  0.29158300  0.36204400  1
  K  K7  1  0.77214100  0.28022400  0.10839800  1
  Li  Li8  1  0.96968200  0.90753100  0.70054900  1
  Li  Li9  1  0.73652900  0.62428400  0.80164300  1
  Li  Li10  1  0.53031800  0.90753100  0.20054900  1
  Li  Li11  1  0.50588900  0.36605600  0.93296200  1
  Li  Li12  1  0.00588900  0.63394400  0.56703800  1
  Li  Li13  1  0.23652900  0.37571600  0.69835700  1
  Li  Li14  1  0.76347100  0.62428400  0.30164300  1
  Li  Li15  1  0.99411100  0.36605600  0.43296200  1
  Li  Li16  1  0.49411100  0.63394400  0.06703800  1
  Li  Li17  1  0.46968200  0.09246900  0.79945100  1
  Li  Li18  1  0.26347100  0.37571600  0.19835700  1
  Li  Li19  1  0.03031800  0.09246900  0.29945100  1
  Ni  Ni20  1  0.71416500  0.90020500  0.93776000  1
  Ni  Ni21  1  0.78583500  0.90020500  0.43776000  1
  Ni  Ni22  1  0.21416500  0.09979500  0.56224000  1
  Ni  Ni23  1  0.28583500  0.09979500  0.06224000  1
  O  O24  1  0.89241400  0.78090800  0.88537900  1
  O  O25  1  0.55157400  0.74119400  0.87650500  1
  O  O26  1  0.81074600  0.76574500  0.61976800  1
  O  O27  1  0.17557500  0.74646700  0.64457800  1
  O  O28  1  0.60758600  0.78090800  0.38537900  1
  O  O29  1  0.94842600  0.74119400  0.37650500  1
  O  O30  1  0.67557500  0.25353300  0.85542200  1
  O  O31  1  0.31074600  0.23425500  0.88023200  1
  O  O32  1  0.68925400  0.76574500  0.11976800  1
  O  O33  1  0.32442500  0.74646700  0.14457800  1
  O  O34  1  0.05157400  0.25880600  0.62349500  1
  O  O35  1  0.39241400  0.21909200  0.61462100  1
  O  O36  1  0.82442500  0.25353300  0.35542200  1
  O  O37  1  0.18925400  0.23425500  0.38023200  1
  O  O38  1  0.44842600  0.25880600  0.12349500  1
  O  O39  1  0.10758600  0.21909200  0.11462100  1
