# generated using pymatgen
data_CsGaH24(SO10)2
_symmetry_space_group_name_H-M   'P 1'
_cell_length_a   12.43270400
_cell_length_b   12.43270400
_cell_length_c   12.43270400
_cell_angle_alpha   90.00000000
_cell_angle_beta   90.00000000
_cell_angle_gamma   90.00000000
_symmetry_Int_Tables_number   1
_chemical_formula_structural   CsGaH24(SO10)2
_chemical_formula_sum   'Cs4 Ga4 H96 S8 O80'
_cell_volume   1921.74952342
_cell_formula_units_Z   4
loop_
 _symmetry_equiv_pos_site_id
 _symmetry_equiv_pos_as_xyz
  1  'x, y, z'
loop_
 _atom_site_type_symbol
 _atom_site_label
 _atom_site_symmetry_multiplicity
 _atom_site_fract_x
 _atom_site_fract_y
 _atom_site_fract_z
 _atom_site_occupancy
  Cs  Cs0  1  0.00000000  0.00000000  0.50000000  1
  Cs  Cs1  1  0.00000000  0.50000000  0.00000000  1
  Cs  Cs2  1  0.50000000  0.00000000  0.00000000  1
  Cs  Cs3  1  0.50000000  0.50000000  0.50000000  1
  Ga  Ga4  1  0.50000000  0.50000000  0.00000000  1
  Ga  Ga5  1  0.50000000  0.00000000  0.50000000  1
  Ga  Ga6  1  0.00000000  0.50000000  0.50000000  1
  Ga  Ga7  1  0.00000000  0.00000000  0.00000000  1
  H  H8  1  0.22161900  0.50907700  0.23061300  1
  H  H9  1  0.77838100  0.00907700  0.26938700  1
  H  H10  1  0.27838100  0.49092300  0.73061300  1
  H  H11  1  0.72161900  0.99092300  0.76938700  1
  H  H12  1  0.23061300  0.22161900  0.50907700  1
  H  H13  1  0.26938700  0.77838100  0.00907700  1
  H  H14  1  0.73061300  0.27838100  0.49092300  1
  H  H15  1  0.76938700  0.72161900  0.99092300  1
  H  H16  1  0.50907700  0.23061300  0.22161900  1
  H  H17  1  0.00907700  0.26938700  0.77838100  1
  H  H18  1  0.49092300  0.73061300  0.27838100  1
  H  H19  1  0.99092300  0.76938700  0.72161900  1
  H  H20  1  0.77838100  0.49092300  0.76938700  1
  H  H21  1  0.22161900  0.99092300  0.73061300  1
  H  H22  1  0.72161900  0.50907700  0.26938700  1
  H  H23  1  0.27838100  0.00907700  0.23061300  1
  H  H24  1  0.76938700  0.77838100  0.49092300  1
  H  H25  1  0.73061300  0.22161900  0.99092300  1
  H  H26  1  0.26938700  0.72161900  0.50907700  1
  H  H27  1  0.23061300  0.27838100  0.00907700  1
  H  H28  1  0.49092300  0.76938700  0.77838100  1
  H  H29  1  0.99092300  0.73061300  0.22161900  1
  H  H30  1  0.50907700  0.26938700  0.72161900  1
  H  H31  1  0.00907700  0.23061300  0.27838100  1
  H  H32  1  0.18127700  0.62770500  0.22185200  1
  H  H33  1  0.81872300  0.12770500  0.27814800  1
  H  H34  1  0.31872300  0.37229500  0.72185200  1
  H  H35  1  0.68127700  0.87229500  0.77814800  1
  H  H36  1  0.22185200  0.18127700  0.62770500  1
  H  H37  1  0.27814800  0.81872300  0.12770500  1
  H  H38  1  0.72185200  0.31872300  0.37229500  1
  H  H39  1  0.77814800  0.68127700  0.87229500  1
  H  H40  1  0.62770500  0.22185200  0.18127700  1
  H  H41  1  0.12770500  0.27814800  0.81872300  1
  H  H42  1  0.37229500  0.72185200  0.31872300  1
  H  H43  1  0.87229500  0.77814800  0.68127700  1
  H  H44  1  0.81872300  0.37229500  0.77814800  1
  H  H45  1  0.18127700  0.87229500  0.72185200  1
  H  H46  1  0.68127700  0.62770500  0.27814800  1
  H  H47  1  0.31872300  0.12770500  0.22185200  1
  H  H48  1  0.77814800  0.81872300  0.37229500  1
  H  H49  1  0.72185200  0.18127700  0.87229500  1
  H  H50  1  0.27814800  0.68127700  0.62770500  1
  H  H51  1  0.22185200  0.31872300  0.12770500  1
  H  H52  1  0.37229500  0.77814800  0.81872300  1
  H  H53  1  0.87229500  0.72185200  0.18127700  1
  H  H54  1  0.62770500  0.27814800  0.68127700  1
  H  H55  1  0.12770500  0.22185200  0.31872300  1
  H  H56  1  0.47761100  0.70643400  0.93530300  1
  H  H57  1  0.52238900  0.20643400  0.56469700  1
  H  H58  1  0.02238900  0.29356600  0.43530300  1
  H  H59  1  0.97761100  0.79356600  0.06469700  1
  H  H60  1  0.93530300  0.47761100  0.70643400  1
  H  H61  1  0.56469700  0.52238900  0.20643400  1
  H  H62  1  0.43530300  0.02238900  0.29356600  1
  H  H63  1  0.06469700  0.97761100  0.79356600  1
  H  H64  1  0.70643400  0.93530300  0.47761100  1
  H  H65  1  0.20643400  0.56469700  0.52238900  1
  H  H66  1  0.29356600  0.43530300  0.02238900  1
  H  H67  1  0.79356600  0.06469700  0.97761100  1
  H  H68  1  0.52238900  0.29356600  0.06469700  1
  H  H69  1  0.47761100  0.79356600  0.43530300  1
  H  H70  1  0.97761100  0.70643400  0.56469700  1
  H  H71  1  0.02238900  0.20643400  0.93530300  1
  H  H72  1  0.06469700  0.52238900  0.29356600  1
  H  H73  1  0.43530300  0.47761100  0.79356600  1
  H  H74  1  0.56469700  0.97761100  0.70643400  1
  H  H75  1  0.93530300  0.02238900  0.20643400  1
  H  H76  1  0.29356600  0.06469700  0.52238900  1
  H  H77  1  0.79356600  0.43530300  0.47761100  1
  H  H78  1  0.70643400  0.56469700  0.97761100  1
  H  H79  1  0.20643400  0.93530300  0.02238900  1
  H  H80  1  0.52385000  0.70249900  0.06154300  1
  H  H81  1  0.47615000  0.20249900  0.43845700  1
  H  H82  1  0.97615000  0.29750100  0.56154300  1
  H  H83  1  0.02385000  0.79750100  0.93845700  1
  H  H84  1  0.06154300  0.52385000  0.70249900  1
  H  H85  1  0.43845700  0.47615000  0.20249900  1
  H  H86  1  0.56154300  0.97615000  0.29750100  1
  H  H87  1  0.93845700  0.02385000  0.79750100  1
  H  H88  1  0.70249900  0.06154300  0.52385000  1
  H  H89  1  0.20249900  0.43845700  0.47615000  1
  H  H90  1  0.29750100  0.56154300  0.97615000  1
  H  H91  1  0.79750100  0.93845700  0.02385000  1
  H  H92  1  0.47615000  0.29750100  0.93845700  1
  H  H93  1  0.52385000  0.79750100  0.56154300  1
  H  H94  1  0.02385000  0.70249900  0.43845700  1
  H  H95  1  0.97615000  0.20249900  0.06154300  1
  H  H96  1  0.93845700  0.47615000  0.29750100  1
  H  H97  1  0.56154300  0.52385000  0.79750100  1
  H  H98  1  0.43845700  0.02385000  0.70249900  1
  H  H99  1  0.06154300  0.97615000  0.20249900  1
  H  H100  1  0.29750100  0.93845700  0.47615000  1
  H  H101  1  0.79750100  0.56154300  0.52385000  1
  H  H102  1  0.70249900  0.43845700  0.02385000  1
  H  H103  1  0.20249900  0.06154300  0.97615000  1
  S  S104  1  0.17198000  0.82802000  0.32802000  1
  S  S105  1  0.82802000  0.32802000  0.17198000  1
  S  S106  1  0.32802000  0.17198000  0.82802000  1
  S  S107  1  0.67198000  0.67198000  0.67198000  1
  S  S108  1  0.82802000  0.17198000  0.67198000  1
  S  S109  1  0.17198000  0.67198000  0.82802000  1
  S  S110  1  0.67198000  0.82802000  0.17198000  1
  S  S111  1  0.32802000  0.32802000  0.32802000  1
  O  O112  1  0.24178000  0.75822000  0.25822000  1
  O  O113  1  0.75822000  0.25822000  0.24178000  1
  O  O114  1  0.25822000  0.24178000  0.75822000  1
  O  O115  1  0.74178000  0.74178000  0.74178000  1
  O  O116  1  0.75822000  0.24178000  0.74178000  1
  O  O117  1  0.24178000  0.74178000  0.75822000  1
  O  O118  1  0.74178000  0.75822000  0.24178000  1
  O  O119  1  0.25822000  0.25822000  0.25822000  1
  O  O120  1  0.06215200  0.78006500  0.33636100  1
  O  O121  1  0.93784800  0.28006500  0.16363900  1
  O  O122  1  0.43784800  0.21993500  0.83636100  1
  O  O123  1  0.56215200  0.71993500  0.66363900  1
  O  O124  1  0.33636100  0.06215200  0.78006500  1
  O  O125  1  0.16363900  0.93784800  0.28006500  1
  O  O126  1  0.83636100  0.43784800  0.21993500  1
  O  O127  1  0.66363900  0.56215200  0.71993500  1
  O  O128  1  0.78006500  0.33636100  0.06215200  1
  O  O129  1  0.28006500  0.16363900  0.93784800  1
  O  O130  1  0.21993500  0.83636100  0.43784800  1
  O  O131  1  0.71993500  0.66363900  0.56215200  1
  O  O132  1  0.93784800  0.21993500  0.66363900  1
  O  O133  1  0.06215200  0.71993500  0.83636100  1
  O  O134  1  0.56215200  0.78006500  0.16363900  1
  O  O135  1  0.43784800  0.28006500  0.33636100  1
  O  O136  1  0.66363900  0.93784800  0.21993500  1
  O  O137  1  0.83636100  0.06215200  0.71993500  1
  O  O138  1  0.16363900  0.56215200  0.78006500  1
  O  O139  1  0.33636100  0.43784800  0.28006500  1
  O  O140  1  0.21993500  0.66363900  0.93784800  1
  O  O141  1  0.71993500  0.83636100  0.06215200  1
  O  O142  1  0.78006500  0.16363900  0.56215200  1
  O  O143  1  0.28006500  0.33636100  0.43784800  1
  O  O144  1  0.15757100  0.55261100  0.21105900  1
  O  O145  1  0.84242900  0.05261100  0.28894100  1
  O  O146  1  0.34242900  0.44738900  0.71105900  1
  O  O147  1  0.65757100  0.94738900  0.78894100  1
  O  O148  1  0.21105900  0.15757100  0.55261100  1
  O  O149  1  0.28894100  0.84242900  0.05261100  1
  O  O150  1  0.71105900  0.34242900  0.44738900  1
  O  O151  1  0.78894100  0.65757100  0.94738900  1
  O  O152  1  0.55261100  0.21105900  0.15757100  1
  O  O153  1  0.05261100  0.28894100  0.84242900  1
  O  O154  1  0.44738900  0.71105900  0.34242900  1
  O  O155  1  0.94738900  0.78894100  0.65757100  1
  O  O156  1  0.84242900  0.44738900  0.78894100  1
  O  O157  1  0.15757100  0.94738900  0.71105900  1
  O  O158  1  0.65757100  0.55261100  0.28894100  1
  O  O159  1  0.34242900  0.05261100  0.21105900  1
  O  O160  1  0.78894100  0.84242900  0.44738900  1
  O  O161  1  0.71105900  0.15757100  0.94738900  1
  O  O162  1  0.28894100  0.65757100  0.55261100  1
  O  O163  1  0.21105900  0.34242900  0.05261100  1
  O  O164  1  0.44738900  0.78894100  0.84242900  1
  O  O165  1  0.94738900  0.71105900  0.15757100  1
  O  O166  1  0.55261100  0.28894100  0.65757100  1
  O  O167  1  0.05261100  0.21105900  0.34242900  1
  O  O168  1  0.50055300  0.65886600  0.99813200  1
  O  O169  1  0.49944700  0.15886600  0.50186800  1
  O  O170  1  0.99944700  0.34113400  0.49813200  1
  O  O171  1  0.00055300  0.84113400  0.00186800  1
  O  O172  1  0.99813200  0.50055300  0.65886600  1
  O  O173  1  0.50186800  0.49944700  0.15886600  1
  O  O174  1  0.49813200  0.99944700  0.34113400  1
  O  O175  1  0.00186800  0.00055300  0.84113400  1
  O  O176  1  0.65886600  0.99813200  0.50055300  1
  O  O177  1  0.15886600  0.50186800  0.49944700  1
  O  O178  1  0.34113400  0.49813200  0.99944700  1
  O  O179  1  0.84113400  0.00186800  0.00055300  1
  O  O180  1  0.49944700  0.34113400  0.00186800  1
  O  O181  1  0.50055300  0.84113400  0.49813200  1
  O  O182  1  0.00055300  0.65886600  0.50186800  1
  O  O183  1  0.99944700  0.15886600  0.99813200  1
  O  O184  1  0.00186800  0.49944700  0.34113400  1
  O  O185  1  0.49813200  0.50055300  0.84113400  1
  O  O186  1  0.50186800  0.00055300  0.65886600  1
  O  O187  1  0.99813200  0.99944700  0.15886600  1
  O  O188  1  0.34113400  0.00186800  0.49944700  1
  O  O189  1  0.84113400  0.49813200  0.50055300  1
  O  O190  1  0.65886600  0.50186800  0.00055300  1
  O  O191  1  0.15886600  0.99813200  0.99944700  1
