# generated using pymatgen
data_AsH18N3O7
_symmetry_space_group_name_H-M   'P 1'
_cell_length_a   6.36618200
_cell_length_b   6.79066700
_cell_length_c   23.13277831
_cell_angle_alpha   85.93770747
_cell_angle_beta   90.00000000
_cell_angle_gamma   90.00000000
_symmetry_Int_Tables_number   1
_chemical_formula_structural   AsH18N3O7
_chemical_formula_sum   'As4 H72 N12 O28'
_cell_volume   997.53190478
_cell_formula_units_Z   4
loop_
 _symmetry_equiv_pos_site_id
 _symmetry_equiv_pos_as_xyz
  1  'x, y, z'
loop_
 _atom_site_type_symbol
 _atom_site_label
 _atom_site_symmetry_multiplicity
 _atom_site_fract_x
 _atom_site_fract_y
 _atom_site_fract_z
 _atom_site_occupancy
  As  As0  1  0.86004500  0.79047900  0.84295800  1
  As  As1  1  0.36004500  0.20952100  0.65704200  1
  As  As2  1  0.13995500  0.20952100  0.15704200  1
  As  As3  1  0.63995500  0.79047900  0.34295800  1
  H  H4  1  0.89139400  0.74474900  0.64007700  1
  H  H5  1  0.39139400  0.25525100  0.85992300  1
  H  H6  1  0.10860600  0.25525100  0.35992300  1
  H  H7  1  0.60860600  0.74474900  0.14007700  1
  H  H8  1  0.96998100  0.98031800  0.65781200  1
  H  H9  1  0.46998100  0.01968200  0.84218800  1
  H  H10  1  0.03001900  0.01968200  0.34218800  1
  H  H11  1  0.53001900  0.98031800  0.15781200  1
  H  H12  1  0.88890800  0.19842100  0.78471600  1
  H  H13  1  0.38890800  0.80157900  0.71528400  1
  H  H14  1  0.11109200  0.80157900  0.21528400  1
  H  H15  1  0.61109200  0.19842100  0.28471600  1
  H  H16  1  0.96085200  0.28085700  0.71547900  1
  H  H17  1  0.46085200  0.71914300  0.78452100  1
  H  H18  1  0.03914800  0.71914300  0.28452100  1
  H  H19  1  0.53914800  0.28085700  0.21547900  1
  H  H20  1  0.72444400  0.86846300  0.01007400  1
  H  H21  1  0.22444400  0.13153700  0.48992600  1
  H  H22  1  0.27555600  0.13153700  0.98992600  1
  H  H23  1  0.77555600  0.86846300  0.51007400  1
  H  H24  1  0.65850400  0.63253000  0.02838000  1
  H  H25  1  0.15850400  0.36747000  0.47162000  1
  H  H26  1  0.34149600  0.36747000  0.97162000  1
  H  H27  1  0.84149600  0.63253000  0.52838000  1
  H  H28  1  0.79906800  0.17245200  0.99398300  1
  H  H29  1  0.29906800  0.82754800  0.50601700  1
  H  H30  1  0.20093200  0.82754800  0.00601700  1
  H  H31  1  0.70093200  0.17245200  0.49398300  1
  H  H32  1  0.95063900  0.40707800  0.61718800  1
  H  H33  1  0.45063900  0.59292200  0.88281200  1
  H  H34  1  0.04936100  0.59292200  0.38281200  1
  H  H35  1  0.54936100  0.40707800  0.11718800  1
  H  H36  1  0.88244000  0.17082100  0.89635600  1
  H  H37  1  0.38244000  0.82917900  0.60364400  1
  H  H38  1  0.11756000  0.82917900  0.10364400  1
  H  H39  1  0.61756000  0.17082100  0.39635600  1
  H  H40  1  0.88893100  0.80349700  0.71022000  1
  H  H41  1  0.38893100  0.19650300  0.78978000  1
  H  H42  1  0.11106900  0.19650300  0.28978000  1
  H  H43  1  0.61106900  0.80349700  0.21022000  1
  H  H44  1  0.71160600  0.90932700  0.66150200  1
  H  H45  1  0.21160600  0.09067300  0.83849800  1
  H  H46  1  0.28839400  0.09067300  0.33849800  1
  H  H47  1  0.78839400  0.90932700  0.16150200  1
  H  H48  1  0.89360400  0.44885500  0.76505500  1
  H  H49  1  0.39360400  0.55114500  0.73494500  1
  H  H50  1  0.10639600  0.55114500  0.23494500  1
  H  H51  1  0.60639600  0.44885500  0.26505500  1
  H  H52  1  0.70494800  0.30358300  0.73689100  1
  H  H53  1  0.20494800  0.69641700  0.76310900  1
  H  H54  1  0.29505200  0.69641700  0.26310900  1
  H  H55  1  0.79505200  0.30358300  0.23689100  1
  H  H56  1  0.77595100  0.69592400  0.96120000  1
  H  H57  1  0.27595100  0.30407600  0.53880000  1
  H  H58  1  0.22404900  0.30407600  0.03880000  1
  H  H59  1  0.72404900  0.69592400  0.46120000  1
  H  H60  1  0.52348500  0.76964500  0.97560800  1
  H  H61  1  0.02348500  0.23035500  0.52439200  1
  H  H62  1  0.47651500  0.23035500  0.02439200  1
  H  H63  1  0.97651500  0.76964500  0.47560800  1
  H  H64  1  0.84858700  0.16787600  0.06090000  1
  H  H65  1  0.34858700  0.83212400  0.43910000  1
  H  H66  1  0.15141300  0.83212400  0.93910000  1
  H  H67  1  0.65141300  0.16787600  0.56090000  1
  H  H68  1  0.70709900  0.44092600  0.60413300  1
  H  H69  1  0.20709900  0.55907400  0.89586700  1
  H  H70  1  0.29290100  0.55907400  0.39586700  1
  H  H71  1  0.79290100  0.44092600  0.10413300  1
  H  H72  1  0.89365600  0.39462600  0.91591300  1
  H  H73  1  0.39365600  0.60537400  0.58408700  1
  H  H74  1  0.10634400  0.60537400  0.08408700  1
  H  H75  1  0.60634400  0.39462600  0.41591300  1
  N  N76  1  0.86832600  0.85941300  0.66696500  1
  N  N77  1  0.36832600  0.14058700  0.83303500  1
  N  N78  1  0.13167400  0.14058700  0.33303500  1
  N  N79  1  0.63167400  0.85941300  0.16696500  1
  N  N80  1  0.86292500  0.30792800  0.75074900  1
  N  N81  1  0.36292500  0.69207200  0.74925100  1
  N  N82  1  0.13707500  0.69207200  0.24925100  1
  N  N83  1  0.63707500  0.30792800  0.25074900  1
  N  N84  1  0.67137600  0.73789900  0.99330300  1
  N  N85  1  0.17137600  0.26210100  0.50669700  1
  N  N86  1  0.32862400  0.26210100  0.00669700  1
  N  N87  1  0.82862400  0.73789900  0.49330300  1
  O  O88  1  0.94167800  0.69133200  0.78011800  1
  O  O89  1  0.44167800  0.30866800  0.71988200  1
  O  O90  1  0.05832200  0.30866800  0.21988200  1
  O  O91  1  0.55832200  0.69133200  0.28011800  1
  O  O92  1  0.96440200  0.66012500  0.90347300  1
  O  O93  1  0.46440200  0.33987500  0.59652700  1
  O  O94  1  0.03559800  0.33987500  0.09652700  1
  O  O95  1  0.53559800  0.66012500  0.40347300  1
  O  O96  1  0.59022800  0.78566800  0.84778200  1
  O  O97  1  0.09022800  0.21433200  0.65221800  1
  O  O98  1  0.40977200  0.21433200  0.15221800  1
  O  O99  1  0.90977200  0.78566800  0.34778200  1
  O  O100  1  0.94728300  0.03120700  0.84216700  1
  O  O101  1  0.44728300  0.96879300  0.65783300  1
  O  O102  1  0.05271700  0.96879300  0.15783300  1
  O  O103  1  0.55271700  0.03120700  0.34216700  1
  O  O104  1  0.74949500  0.11422700  0.03293000  1
  O  O105  1  0.24949500  0.88577300  0.46707000  1
  O  O106  1  0.25050500  0.88577300  0.96707000  1
  O  O107  1  0.75050500  0.11422700  0.53293000  1
  O  O108  1  0.84748200  0.50875200  0.60170800  1
  O  O109  1  0.34748200  0.49124800  0.89829200  1
  O  O110  1  0.15251800  0.49124800  0.39829200  1
  O  O111  1  0.65251800  0.50875200  0.10170800  1
  O  O112  1  0.84602600  0.25960900  0.92780900  1
  O  O113  1  0.34602600  0.74039100  0.57219100  1
  O  O114  1  0.15397400  0.74039100  0.07219100  1
  O  O115  1  0.65397400  0.25960900  0.42780900  1
