# generated using pymatgen
data_Sr(RhO2)2
_symmetry_space_group_name_H-M   'P 1'
_cell_length_a   5.44379600
_cell_length_b   6.28121100
_cell_length_c   11.37143700
_cell_angle_alpha   90.00000000
_cell_angle_beta   90.00000000
_cell_angle_gamma   90.00000000
_symmetry_Int_Tables_number   1
_chemical_formula_structural   Sr(RhO2)2
_chemical_formula_sum   'Sr4 Rh8 O16'
_cell_volume   388.83072432
_cell_formula_units_Z   4
loop_
 _symmetry_equiv_pos_site_id
 _symmetry_equiv_pos_as_xyz
  1  'x, y, z'
loop_
 _atom_site_type_symbol
 _atom_site_label
 _atom_site_symmetry_multiplicity
 _atom_site_fract_x
 _atom_site_fract_y
 _atom_site_fract_z
 _atom_site_occupancy
  Sr  Sr0  1  0.14154100  0.00000000  0.50000000  1
  Sr  Sr1  1  0.46560300  0.00000000  0.00000000  1
  Sr  Sr2  1  0.53439700  0.50000000  0.50000000  1
  Sr  Sr3  1  0.85845900  0.50000000  0.00000000  1
  Rh  Rh4  1  0.50213400  0.00000000  0.74392700  1
  Rh  Rh5  1  0.50213400  0.00000000  0.25607300  1
  Rh  Rh6  1  0.00000000  0.75000000  0.75000000  1
  Rh  Rh7  1  0.00000000  0.75000000  0.25000000  1
  Rh  Rh8  1  0.49786600  0.50000000  0.75607300  1
  Rh  Rh9  1  0.49786600  0.50000000  0.24392700  1
  Rh  Rh10  1  0.00000000  0.25000000  0.25000000  1
  Rh  Rh11  1  0.00000000  0.25000000  0.75000000  1
  O  O12  1  0.17127400  0.00000000  0.16416800  1
  O  O13  1  0.83661400  0.00000000  0.65790800  1
  O  O14  1  0.83661400  0.00000000  0.34209200  1
  O  O15  1  0.17127400  0.00000000  0.83583200  1
  O  O16  1  0.66601100  0.75384700  0.15603700  1
  O  O17  1  0.33398900  0.74615300  0.34396300  1
  O  O18  1  0.33398900  0.74615300  0.65603700  1
  O  O19  1  0.66601100  0.75384700  0.84396300  1
  O  O20  1  0.16338600  0.50000000  0.15790800  1
  O  O21  1  0.16338600  0.50000000  0.84209200  1
  O  O22  1  0.82872600  0.50000000  0.33583200  1
  O  O23  1  0.82872600  0.50000000  0.66416800  1
  O  O24  1  0.66601100  0.24615300  0.15603700  1
  O  O25  1  0.33398900  0.25384700  0.34396300  1
  O  O26  1  0.33398900  0.25384700  0.65603700  1
  O  O27  1  0.66601100  0.24615300  0.84396300  1
