# generated using pymatgen
data_LiV2O5
_symmetry_space_group_name_H-M   'P 1'
_cell_length_a   6.68705500
_cell_length_b   7.64442000
_cell_length_c   7.70509400
_cell_angle_alpha   90.00000000
_cell_angle_beta   90.00000000
_cell_angle_gamma   90.00000000
_symmetry_Int_Tables_number   1
_chemical_formula_structural   LiV2O5
_chemical_formula_sum   'Li4 V8 O20'
_cell_volume   393.87405721
_cell_formula_units_Z   4
loop_
 _symmetry_equiv_pos_site_id
 _symmetry_equiv_pos_as_xyz
  1  'x, y, z'
loop_
 _atom_site_type_symbol
 _atom_site_label
 _atom_site_symmetry_multiplicity
 _atom_site_fract_x
 _atom_site_fract_y
 _atom_site_fract_z
 _atom_site_occupancy
  Li  Li0  1  0.00000000  0.00000000  0.00000000  1
  Li  Li1  1  0.50000000  0.00000000  0.00000000  1
  Li  Li2  1  0.00000000  0.50000000  0.50000000  1
  Li  Li3  1  0.50000000  0.50000000  0.50000000  1
  V  V4  1  0.25000000  0.72969400  0.16928500  1
  V  V5  1  0.75000000  0.22969400  0.33071500  1
  V  V6  1  0.25000000  0.77030600  0.66928500  1
  V  V7  1  0.75000000  0.27030600  0.83071500  1
  V  V8  1  0.75000000  0.62880900  0.12451200  1
  V  V9  1  0.25000000  0.12880900  0.37548800  1
  V  V10  1  0.75000000  0.87119100  0.62451200  1
  V  V11  1  0.25000000  0.37119100  0.87548800  1
  O  O12  1  0.25000000  0.50263000  0.05562600  1
  O  O13  1  0.75000000  0.16483400  0.12103800  1
  O  O14  1  0.53838000  0.76312000  0.12236700  1
  O  O15  1  0.96162000  0.76312000  0.12236700  1
  O  O16  1  0.25000000  0.99600800  0.19015700  1
  O  O17  1  0.75000000  0.49600800  0.30984300  1
  O  O18  1  0.03838000  0.26312000  0.37763300  1
  O  O19  1  0.46162000  0.26312000  0.37763300  1
  O  O20  1  0.25000000  0.66483400  0.37896200  1
  O  O21  1  0.75000000  0.00263000  0.44437400  1
  O  O22  1  0.25000000  0.99737000  0.55562600  1
  O  O23  1  0.75000000  0.33516600  0.62103800  1
  O  O24  1  0.53838000  0.73688000  0.62236700  1
  O  O25  1  0.96162000  0.73688000  0.62236700  1
  O  O26  1  0.25000000  0.50399200  0.69015700  1
  O  O27  1  0.75000000  0.00399200  0.80984300  1
  O  O28  1  0.03838000  0.23688000  0.87763300  1
  O  O29  1  0.46162000  0.23688000  0.87763300  1
  O  O30  1  0.25000000  0.83516600  0.87896200  1
  O  O31  1  0.75000000  0.49737000  0.94437400  1
