# generated using pymatgen
data_Mg(NO3)2
_symmetry_space_group_name_H-M   'P 1'
_cell_length_a   7.63776600
_cell_length_b   7.63776600
_cell_length_c   7.63776600
_cell_angle_alpha   90.00000000
_cell_angle_beta   90.00000000
_cell_angle_gamma   90.00000000
_symmetry_Int_Tables_number   1
_chemical_formula_structural   Mg(NO3)2
_chemical_formula_sum   'Mg4 N8 O24'
_cell_volume   445.55266532
_cell_formula_units_Z   4
loop_
 _symmetry_equiv_pos_site_id
 _symmetry_equiv_pos_as_xyz
  1  'x, y, z'
loop_
 _atom_site_type_symbol
 _atom_site_label
 _atom_site_symmetry_multiplicity
 _atom_site_fract_x
 _atom_site_fract_y
 _atom_site_fract_z
 _atom_site_occupancy
  Mg  Mg0  1  0.50000000  0.50000000  0.50000000  1
  Mg  Mg1  1  0.50000000  0.00000000  0.00000000  1
  Mg  Mg2  1  0.00000000  0.50000000  0.00000000  1
  Mg  Mg3  1  0.00000000  0.00000000  0.50000000  1
  N  N4  1  0.66643200  0.16643200  0.33356800  1
  N  N5  1  0.66643200  0.33356800  0.83356800  1
  N  N6  1  0.83356800  0.83356800  0.83356800  1
  N  N7  1  0.83356800  0.66643200  0.33356800  1
  N  N8  1  0.16643200  0.16643200  0.16643200  1
  N  N9  1  0.16643200  0.33356800  0.66643200  1
  N  N10  1  0.33356800  0.66643200  0.16643200  1
  N  N11  1  0.33356800  0.83356800  0.66643200  1
  O  O12  1  0.54878200  0.21748900  0.83188500  1
  O  O13  1  0.54878200  0.28251100  0.33188500  1
  O  O14  1  0.66811500  0.45121800  0.71748900  1
  O  O15  1  0.66811500  0.04878200  0.21748900  1
  O  O16  1  0.71748900  0.66811500  0.45121800  1
  O  O17  1  0.71748900  0.83188500  0.95121800  1
  O  O18  1  0.78251100  0.33188500  0.95121800  1
  O  O19  1  0.78251100  0.16811500  0.45121800  1
  O  O20  1  0.83188500  0.95121800  0.71748900  1
  O  O21  1  0.83188500  0.54878200  0.21748900  1
  O  O22  1  0.95121800  0.71748900  0.83188500  1
  O  O23  1  0.95121800  0.78251100  0.33188500  1
  O  O24  1  0.04878200  0.21748900  0.66811500  1
  O  O25  1  0.04878200  0.28251100  0.16811500  1
  O  O26  1  0.16811500  0.45121800  0.78251100  1
  O  O27  1  0.16811500  0.04878200  0.28251100  1
  O  O28  1  0.21748900  0.66811500  0.04878200  1
  O  O29  1  0.21748900  0.83188500  0.54878200  1
  O  O30  1  0.28251100  0.16811500  0.04878200  1
  O  O31  1  0.28251100  0.33188500  0.54878200  1
  O  O32  1  0.33188500  0.54878200  0.28251100  1
  O  O33  1  0.33188500  0.95121800  0.78251100  1
  O  O34  1  0.45121800  0.71748900  0.66811500  1
  O  O35  1  0.45121800  0.78251100  0.16811500  1
