# generated using pymatgen
data_Tm(ClO4)3
_symmetry_space_group_name_H-M   'P 1'
_cell_length_a   9.39222913
_cell_length_b   9.39222913
_cell_length_c   9.39222997
_cell_angle_alpha   51.78829081
_cell_angle_beta   51.78829081
_cell_angle_gamma   51.78828895
_symmetry_Int_Tables_number   1
_chemical_formula_structural   Tm(ClO4)3
_chemical_formula_sum   'Tm2 Cl6 O24'
_cell_volume   472.68133900
_cell_formula_units_Z   2
loop_
 _symmetry_equiv_pos_site_id
 _symmetry_equiv_pos_as_xyz
  1  'x, y, z'
loop_
 _atom_site_type_symbol
 _atom_site_label
 _atom_site_symmetry_multiplicity
 _atom_site_fract_x
 _atom_site_fract_y
 _atom_site_fract_z
 _atom_site_occupancy
  Tm  Tm0  1  0.94120500  0.94120500  0.94120500  1
  Tm  Tm1  1  0.44120500  0.44120500  0.44120500  1
  Cl  Cl2  1  0.53435500  0.15488600  0.81003100  1
  Cl  Cl3  1  0.81003100  0.53435500  0.15488600  1
  Cl  Cl4  1  0.65488600  0.03435500  0.31003100  1
  Cl  Cl5  1  0.15488600  0.81003100  0.53435500  1
  Cl  Cl6  1  0.03435500  0.31003100  0.65488600  1
  Cl  Cl7  1  0.31003100  0.65488600  0.03435500  1
  O  O8  1  0.92448000  0.24526200  0.87017000  1
  O  O9  1  0.87017000  0.92448000  0.24526200  1
  O  O10  1  0.71976100  0.11330600  0.79851700  1
  O  O11  1  0.00163900  0.42502700  0.05124400  1
  O  O12  1  0.58260200  0.10663500  0.65836700  1
  O  O13  1  0.92502700  0.50163900  0.55124400  1
  O  O14  1  0.61330600  0.21976100  0.29851700  1
  O  O15  1  0.24526200  0.87017000  0.92448000  1
  O  O16  1  0.42502700  0.05124400  0.00163900  1
  O  O17  1  0.74526200  0.42448000  0.37017000  1
  O  O18  1  0.79851700  0.71976100  0.11330600  1
  O  O19  1  0.65836700  0.58260200  0.10663500  1
  O  O20  1  0.42448000  0.37017000  0.74526200  1
  O  O21  1  0.50163900  0.55124400  0.92502700  1
  O  O22  1  0.21976100  0.29851700  0.61330600  1
  O  O23  1  0.29851700  0.61330600  0.21976100  1
  O  O24  1  0.55124400  0.92502700  0.50163900  1
  O  O25  1  0.37017000  0.74526200  0.42448000  1
  O  O26  1  0.60663500  0.08260200  0.15836700  1
  O  O27  1  0.10663500  0.65836700  0.58260200  1
  O  O28  1  0.11330600  0.79851700  0.71976100  1
  O  O29  1  0.05124400  0.00163900  0.42502700  1
  O  O30  1  0.08260200  0.15836700  0.60663500  1
  O  O31  1  0.15836700  0.60663500  0.08260200  1
