# generated using pymatgen
data_CaMgAsO4F
_symmetry_space_group_name_H-M   'P 1'
_cell_length_a   5.66529300
_cell_length_b   5.66529300
_cell_length_c   7.20614326
_cell_angle_alpha   76.10575680
_cell_angle_beta   76.10575680
_cell_angle_gamma   106.15042903
_symmetry_Int_Tables_number   1
_chemical_formula_structural   CaMgAsO4F
_chemical_formula_sum   'Ca2 Mg2 As2 O8 F2'
_cell_volume   203.63896380
_cell_formula_units_Z   2
loop_
 _symmetry_equiv_pos_site_id
 _symmetry_equiv_pos_as_xyz
  1  'x, y, z'
loop_
 _atom_site_type_symbol
 _atom_site_label
 _atom_site_symmetry_multiplicity
 _atom_site_fract_x
 _atom_site_fract_y
 _atom_site_fract_z
 _atom_site_occupancy
  Ca  Ca0  1  0.66826200  0.33173800  0.25000000  1
  Ca  Ca1  1  0.33173800  0.66826200  0.75000000  1
  Mg  Mg2  1  0.00000000  0.00000000  0.00000000  1
  Mg  Mg3  1  0.00000000  0.00000000  0.50000000  1
  As  As4  1  0.32180500  0.67819500  0.25000000  1
  As  As5  1  0.67819500  0.32180500  0.75000000  1
  O  O6  1  0.61945600  0.73912800  0.07828400  1
  O  O7  1  0.26087200  0.38054400  0.42171600  1
  O  O8  1  0.89795900  0.32807600  0.88034800  1
  O  O9  1  0.67192400  0.10204100  0.61965200  1
  O  O10  1  0.10204100  0.67192400  0.11965200  1
  O  O11  1  0.32807600  0.89795900  0.38034800  1
  O  O12  1  0.38054400  0.26087200  0.92171600  1
  O  O13  1  0.73912800  0.61945600  0.57828400  1
  F  F14  1  0.91828900  0.08171100  0.25000000  1
  F  F15  1  0.08171100  0.91828900  0.75000000  1
