# generated using pymatgen
data_Li2V3SnO8
_symmetry_space_group_name_H-M   'P 1'
_cell_length_a   6.01400047
_cell_length_b   6.01400047
_cell_length_c   9.83151122
_cell_angle_alpha   89.93694544
_cell_angle_beta   89.93694544
_cell_angle_gamma   120.55600651
_symmetry_Int_Tables_number   1
_chemical_formula_structural   Li2V3SnO8
_chemical_formula_sum   'Li4 V6 Sn2 O16'
_cell_volume   306.20774464
_cell_formula_units_Z   2
loop_
 _symmetry_equiv_pos_site_id
 _symmetry_equiv_pos_as_xyz
  1  'x, y, z'
loop_
 _atom_site_type_symbol
 _atom_site_label
 _atom_site_symmetry_multiplicity
 _atom_site_fract_x
 _atom_site_fract_y
 _atom_site_fract_z
 _atom_site_occupancy
  Li  Li0  1  0.33771700  0.67045700  0.89529700  1
  Li  Li1  1  0.99378200  0.99795200  0.99281700  1
  Li  Li2  1  0.99795200  0.99378200  0.49281700  1
  Li  Li3  1  0.67045700  0.33771700  0.39529700  1
  V  V4  1  0.65262600  0.82773800  0.21922500  1
  V  V5  1  0.16641100  0.82952500  0.21129600  1
  V  V6  1  0.82952500  0.16641100  0.71129600  1
  V  V7  1  0.34295000  0.17078700  0.71393400  1
  V  V8  1  0.17078700  0.34295000  0.21393400  1
  V  V9  1  0.82773800  0.65262600  0.71922500  1
  Sn  Sn10  1  0.32947900  0.66551000  0.49243200  1
  Sn  Sn11  1  0.66551000  0.32947900  0.99243200  1
  O  O12  1  0.67478300  0.83768200  0.60295200  1
  O  O13  1  0.49244000  0.52730300  0.34284100  1
  O  O14  1  0.35709400  0.67416500  0.10444400  1
  O  O15  1  0.98134700  0.99673800  0.30649400  1
  O  O16  1  0.99673800  0.98134700  0.80649400  1
  O  O17  1  0.15816800  0.31899100  0.60069900  1
  O  O18  1  0.48775500  0.96798500  0.33781100  1
  O  O19  1  0.03572600  0.51438000  0.33720400  1
  O  O20  1  0.83435900  0.15646700  0.09647400  1
  O  O21  1  0.15646700  0.83435900  0.59647400  1
  O  O22  1  0.96798500  0.48775500  0.83781100  1
  O  O23  1  0.51438000  0.03572600  0.83720400  1
  O  O24  1  0.67416500  0.35709400  0.60444400  1
  O  O25  1  0.83768200  0.67478300  0.10295200  1
  O  O26  1  0.52730300  0.49244000  0.84284100  1
  O  O27  1  0.31899100  0.15816800  0.10069900  1
