# generated using pymatgen
data_RbTiPS5
_symmetry_space_group_name_H-M   'P 1'
_cell_length_a   9.96464037
_cell_length_b   9.96464037
_cell_length_c   16.08908688
_cell_angle_alpha   59.35092483
_cell_angle_beta   59.35092483
_cell_angle_gamma   42.15303172
_symmetry_Int_Tables_number   1
_chemical_formula_structural   RbTiPS5
_chemical_formula_sum   'Rb4 Ti4 P4 S20'
_cell_volume   897.99191954
_cell_formula_units_Z   4
loop_
 _symmetry_equiv_pos_site_id
 _symmetry_equiv_pos_as_xyz
  1  'x, y, z'
loop_
 _atom_site_type_symbol
 _atom_site_label
 _atom_site_symmetry_multiplicity
 _atom_site_fract_x
 _atom_site_fract_y
 _atom_site_fract_z
 _atom_site_occupancy
  Rb  Rb0  1  0.66364400  0.66364400  0.13718700  1
  Rb  Rb1  1  0.70183000  0.70183000  0.64246900  1
  Rb  Rb2  1  0.29817000  0.29817000  0.35753100  1
  Rb  Rb3  1  0.33635600  0.33635600  0.86281300  1
  Ti  Ti4  1  0.72463300  0.27536700  0.00000000  1
  Ti  Ti5  1  0.27536700  0.72463300  0.00000000  1
  Ti  Ti6  1  0.78019100  0.21980900  0.50000000  1
  Ti  Ti7  1  0.21980900  0.78019100  0.50000000  1
  P  P8  1  0.33293600  0.33293600  0.59485600  1
  P  P9  1  0.07535400  0.07535400  0.09821500  1
  P  P10  1  0.92464600  0.92464600  0.90178500  1
  P  P11  1  0.66706400  0.66706400  0.40514400  1
  S  S12  1  0.17163100  0.17163100  0.11677300  1
  S  S13  1  0.59141000  0.12273500  0.65300500  1
  S  S14  1  0.12273500  0.59141000  0.65300500  1
  S  S15  1  0.97652400  0.97652400  0.41468900  1
  S  S16  1  0.44006100  0.44006100  0.44803500  1
  S  S17  1  0.10927200  0.10927200  0.95036000  1
  S  S18  1  0.76466600  0.23033800  0.15252400  1
  S  S19  1  0.23033800  0.76466600  0.15252400  1
  S  S20  1  0.60604100  0.60604100  0.91294700  1
  S  S21  1  0.22007700  0.22007700  0.61015500  1
  S  S22  1  0.77992300  0.77992300  0.38984500  1
  S  S23  1  0.39395900  0.39395900  0.08705300  1
  S  S24  1  0.23533400  0.76966200  0.84747600  1
  S  S25  1  0.76966200  0.23533400  0.84747600  1
  S  S26  1  0.89072800  0.89072800  0.04964000  1
  S  S27  1  0.55993900  0.55993900  0.55196500  1
  S  S28  1  0.02347600  0.02347600  0.58531100  1
  S  S29  1  0.87726500  0.40859000  0.34699500  1
  S  S30  1  0.40859000  0.87726500  0.34699500  1
  S  S31  1  0.82836900  0.82836900  0.88322700  1
