# generated using pymatgen
data_Ba2Fe3P6HO22
_symmetry_space_group_name_H-M   'P 1'
_cell_length_a   4.91970100
_cell_length_b   8.00249343
_cell_length_c   11.42330261
_cell_angle_alpha   89.27073239
_cell_angle_beta   89.28493420
_cell_angle_gamma   87.13515349
_symmetry_Int_Tables_number   1
_chemical_formula_structural   Ba2Fe3P6HO22
_chemical_formula_sum   'Ba2 Fe3 P6 H1 O22'
_cell_volume   449.10395224
_cell_formula_units_Z   1
loop_
 _symmetry_equiv_pos_site_id
 _symmetry_equiv_pos_as_xyz
  1  'x, y, z'
loop_
 _atom_site_type_symbol
 _atom_site_label
 _atom_site_symmetry_multiplicity
 _atom_site_fract_x
 _atom_site_fract_y
 _atom_site_fract_z
 _atom_site_occupancy
  Ba  Ba0  1  0.73252500  0.00477100  0.17539900  1
  Ba  Ba1  1  0.26747500  0.99522900  0.82460100  1
  Fe  Fe2  1  0.00000000  0.00000000  0.50000000  1
  Fe  Fe3  1  0.72464500  0.49354000  0.20508000  1
  Fe  Fe4  1  0.27535500  0.50646000  0.79492000  1
  P  P5  1  0.18447100  0.70408300  0.05124100  1
  P  P6  1  0.81552900  0.29591700  0.94875900  1
  P  P7  1  0.23714100  0.30083700  0.34344400  1
  P  P8  1  0.76285900  0.69916300  0.65655600  1
  P  P9  1  0.52545800  0.75715200  0.42450900  1
  P  P10  1  0.47454200  0.24284800  0.57549100  1
  H  H11  1  0.50000000  0.50000000  0.00000000  1
  O  O12  1  0.92135500  0.68113200  0.12363800  1
  O  O13  1  0.07864500  0.31886800  0.87636200  1
  O  O14  1  0.40851100  0.56514200  0.08702000  1
  O  O15  1  0.59148900  0.43485800  0.91298000  1
  O  O16  1  0.27142600  0.88443300  0.07042700  1
  O  O17  1  0.72857400  0.11556700  0.92957300  1
  O  O18  1  0.14102100  0.67884400  0.91788500  1
  O  O19  1  0.85897900  0.32115600  0.08211500  1
  O  O20  1  0.13153000  0.12204900  0.34881900  1
  O  O21  1  0.86847000  0.87795100  0.65118100  1
  O  O22  1  0.02077200  0.43438000  0.31010500  1
  O  O23  1  0.97922800  0.56562000  0.68989500  1
  O  O24  1  0.67325700  0.64675800  0.52686100  1
  O  O25  1  0.32674300  0.35324200  0.47313900  1
  O  O26  1  0.49156700  0.30046600  0.26349600  1
  O  O27  1  0.50843300  0.69953400  0.73650400  1
  O  O28  1  0.69129200  0.91510600  0.40720300  1
  O  O29  1  0.30870800  0.08489400  0.59279700  1
  O  O30  1  0.23104500  0.79672900  0.46033200  1
  O  O31  1  0.76895500  0.20327100  0.53966800  1
  O  O32  1  0.54434900  0.65552200  0.31266100  1
  O  O33  1  0.45565100  0.34447800  0.68733900  1
