# generated using pymatgen
data_Li5(NiN)3
_symmetry_space_group_name_H-M   'P 1'
_cell_length_a   6.52463504
_cell_length_b   6.52463504
_cell_length_c   3.47237500
_cell_angle_alpha   90.00000000
_cell_angle_beta   90.00000000
_cell_angle_gamma   120.00001059
_symmetry_Int_Tables_number   1
_chemical_formula_structural   Li5(NiN)3
_chemical_formula_sum   'Li5 Ni3 N3'
_cell_volume   128.01759231
_cell_formula_units_Z   1
loop_
 _symmetry_equiv_pos_site_id
 _symmetry_equiv_pos_as_xyz
  1  'x, y, z'
loop_
 _atom_site_type_symbol
 _atom_site_label
 _atom_site_symmetry_multiplicity
 _atom_site_fract_x
 _atom_site_fract_y
 _atom_site_fract_z
 _atom_site_occupancy
  Li  Li0  1  0.66666700  0.33333300  0.50000000  1
  Li  Li1  1  0.33333300  0.66666700  0.50000000  1
  Li  Li2  1  0.00000000  0.26312900  0.50000000  1
  Li  Li3  1  0.26312900  0.00000000  0.50000000  1
  Li  Li4  1  0.73687100  0.73687100  0.50000000  1
  Ni  Ni5  1  0.00000000  0.63286700  0.00000000  1
  Ni  Ni6  1  0.36713300  0.36713300  0.00000000  1
  Ni  Ni7  1  0.63286700  0.00000000  0.00000000  1
  N  N8  1  0.00000000  0.63456500  0.50000000  1
  N  N9  1  0.63456500  0.00000000  0.50000000  1
  N  N10  1  0.36543500  0.36543500  0.50000000  1
