# generated using pymatgen
data_Na2Zn(HO)4
_symmetry_space_group_name_H-M   'P 1'
_cell_length_a   6.63159800
_cell_length_b   8.09378700
_cell_length_c   11.47200127
_cell_angle_alpha   49.18866422
_cell_angle_beta   90.00000000
_cell_angle_gamma   90.00000000
_symmetry_Int_Tables_number   1
_chemical_formula_structural   Na2Zn(HO)4
_chemical_formula_sum   'Na8 Zn4 H16 O16'
_cell_volume   466.04516846
_cell_formula_units_Z   4
loop_
 _symmetry_equiv_pos_site_id
 _symmetry_equiv_pos_as_xyz
  1  'x, y, z'
loop_
 _atom_site_type_symbol
 _atom_site_label
 _atom_site_symmetry_multiplicity
 _atom_site_fract_x
 _atom_site_fract_y
 _atom_site_fract_z
 _atom_site_occupancy
  Na  Na0  1  0.56225100  0.48624400  0.28791600  1
  Na  Na1  1  0.93774900  0.48624400  0.78791600  1
  Na  Na2  1  0.43774900  0.51375600  0.71208400  1
  Na  Na3  1  0.06225100  0.51375600  0.21208400  1
  Na  Na4  1  0.74905300  0.98382200  0.50794500  1
  Na  Na5  1  0.75094700  0.98382200  0.00794500  1
  Na  Na6  1  0.25094700  0.01617800  0.49205500  1
  Na  Na7  1  0.24905300  0.01617800  0.99205500  1
  Zn  Zn8  1  0.74814900  0.31347100  0.63881100  1
  Zn  Zn9  1  0.75185100  0.31347100  0.13881100  1
  Zn  Zn10  1  0.25185100  0.68652900  0.36118900  1
  Zn  Zn11  1  0.24814900  0.68652900  0.86118900  1
  H  H12  1  0.54539100  0.30846400  0.97497800  1
  H  H13  1  0.95460900  0.30846400  0.47497800  1
  H  H14  1  0.45460900  0.69153600  0.02502200  1
  H  H15  1  0.04539100  0.69153600  0.52502200  1
  H  H16  1  0.81030200  0.70711100  0.96273600  1
  H  H17  1  0.68969800  0.70711100  0.46273600  1
  H  H18  1  0.18969800  0.29288900  0.03726400  1
  H  H19  1  0.31030200  0.29288900  0.53726400  1
  H  H20  1  0.53611600  0.94110400  0.22237800  1
  H  H21  1  0.96388400  0.94110400  0.72237800  1
  H  H22  1  0.46388400  0.05889600  0.77762200  1
  H  H23  1  0.03611600  0.05889600  0.27762200  1
  H  H24  1  0.59303000  0.77382800  0.75850700  1
  H  H25  1  0.90697000  0.77382800  0.25850700  1
  H  H26  1  0.40697000  0.22617200  0.24149300  1
  H  H27  1  0.09303000  0.22617200  0.74149300  1
  O  O28  1  0.69355600  0.30298200  0.97656600  1
  O  O29  1  0.80644400  0.30298200  0.47656600  1
  O  O30  1  0.30644400  0.69701800  0.02343400  1
  O  O31  1  0.19355600  0.69701800  0.52343400  1
  O  O32  1  0.74559600  0.62165700  0.56603000  1
  O  O33  1  0.75440400  0.62165700  0.06603000  1
  O  O34  1  0.25440400  0.37834300  0.43397000  1
  O  O35  1  0.24559600  0.37834300  0.93397000  1
  O  O36  1  0.50064100  0.18067500  0.77122700  1
  O  O37  1  0.99935900  0.18067500  0.27122700  1
  O  O38  1  0.49935900  0.81932500  0.22877300  1
  O  O39  1  0.00064100  0.81932500  0.72877300  1
  O  O40  1  0.53241500  0.17160800  0.29926700  1
  O  O41  1  0.96758500  0.17160800  0.79926700  1
  O  O42  1  0.46758500  0.82839200  0.70073300  1
  O  O43  1  0.03241500  0.82839200  0.20073300  1
