# generated using pymatgen
data_Li6Hf2O7
_symmetry_space_group_name_H-M   'P 1'
_cell_length_a   6.02722910
_cell_length_b   6.02722910
_cell_length_c   10.20055626
_cell_angle_alpha   81.05459787
_cell_angle_beta   81.05459787
_cell_angle_gamma   59.67360929
_symmetry_Int_Tables_number   1
_chemical_formula_structural   Li6Hf2O7
_chemical_formula_sum   'Li12 Hf4 O14'
_cell_volume   314.67349911
_cell_formula_units_Z   2
loop_
 _symmetry_equiv_pos_site_id
 _symmetry_equiv_pos_as_xyz
  1  'x, y, z'
loop_
 _atom_site_type_symbol
 _atom_site_label
 _atom_site_symmetry_multiplicity
 _atom_site_fract_x
 _atom_site_fract_y
 _atom_site_fract_z
 _atom_site_occupancy
  Li  Li0  1  0.66372900  0.92256000  0.39521300  1
  Li  Li1  1  0.92256000  0.66372900  0.89521300  1
  Li  Li2  1  0.20644200  0.91842200  0.41479900  1
  Li  Li3  1  0.66425500  0.46849500  0.39674300  1
  Li  Li4  1  0.91842200  0.20644200  0.91479900  1
  Li  Li5  1  0.46849500  0.66425500  0.89674300  1
  Li  Li6  1  0.53150500  0.33574500  0.10325700  1
  Li  Li7  1  0.08157800  0.79355800  0.08520100  1
  Li  Li8  1  0.33574500  0.53150500  0.60325700  1
  Li  Li9  1  0.79355800  0.08157800  0.58520100  1
  Li  Li10  1  0.07744000  0.33627100  0.10478700  1
  Li  Li11  1  0.33627100  0.07744000  0.60478700  1
  Hf  Hf12  1  0.56071200  0.80653400  0.13525200  1
  Hf  Hf13  1  0.80653400  0.56071200  0.63525200  1
  Hf  Hf14  1  0.19346600  0.43928800  0.36474800  1
  Hf  Hf15  1  0.43928800  0.19346600  0.86474800  1
  O  O16  1  0.86167700  0.63857300  0.25452500  1
  O  O17  1  0.00042900  0.26756700  0.49775400  1
  O  O18  1  0.63857300  0.86167700  0.75452500  1
  O  O19  1  0.26756700  0.00042900  0.99775400  1
  O  O20  1  0.74272100  0.50119100  0.02353400  1
  O  O21  1  0.34987400  0.65012600  0.25000000  1
  O  O22  1  0.50119100  0.74272100  0.52353400  1
  O  O23  1  0.49880900  0.25727900  0.47646600  1
  O  O24  1  0.65012600  0.34987400  0.75000000  1
  O  O25  1  0.25727900  0.49880900  0.97646600  1
  O  O26  1  0.73243300  0.99957100  0.00224600  1
  O  O27  1  0.36142700  0.13832300  0.24547500  1
  O  O28  1  0.99957100  0.73243300  0.50224600  1
  O  O29  1  0.13832300  0.36142700  0.74547500  1
