# generated using pymatgen
data_SrCaSi
_symmetry_space_group_name_H-M   'P 1'
_cell_length_a   4.93322300
_cell_length_b   8.10046500
_cell_length_c   9.14442800
_cell_angle_alpha   90.00000000
_cell_angle_beta   90.00000000
_cell_angle_gamma   90.00000000
_symmetry_Int_Tables_number   1
_chemical_formula_structural   SrCaSi
_chemical_formula_sum   'Sr4 Ca4 Si4'
_cell_volume   365.42414735
_cell_formula_units_Z   4
loop_
 _symmetry_equiv_pos_site_id
 _symmetry_equiv_pos_as_xyz
  1  'x, y, z'
loop_
 _atom_site_type_symbol
 _atom_site_label
 _atom_site_symmetry_multiplicity
 _atom_site_fract_x
 _atom_site_fract_y
 _atom_site_fract_z
 _atom_site_occupancy
  Sr  Sr0  1  0.25000000  0.52226100  0.17841300  1
  Sr  Sr1  1  0.25000000  0.02226100  0.32158700  1
  Sr  Sr2  1  0.75000000  0.97773900  0.67841300  1
  Sr  Sr3  1  0.75000000  0.47773900  0.82158700  1
  Ca  Ca4  1  0.75000000  0.35260600  0.42662300  1
  Ca  Ca5  1  0.25000000  0.14739400  0.92662300  1
  Ca  Ca6  1  0.75000000  0.85260600  0.07337700  1
  Ca  Ca7  1  0.25000000  0.64739400  0.57337700  1
  Si  Si8  1  0.25000000  0.76738600  0.89346900  1
  Si  Si9  1  0.25000000  0.26738600  0.60653100  1
  Si  Si10  1  0.75000000  0.23261400  0.10653100  1
  Si  Si11  1  0.75000000  0.73261400  0.39346900  1
