# generated using pymatgen
data_Nd(PO3)3
_symmetry_space_group_name_H-M   'P 1'
_cell_length_a   7.11870625
_cell_length_b   7.11870625
_cell_length_c   7.40156000
_cell_angle_alpha   90.00000000
_cell_angle_beta   90.00000000
_cell_angle_gamma   105.38031743
_symmetry_Int_Tables_number   1
_chemical_formula_structural   Nd(PO3)3
_chemical_formula_sum   'Nd2 P6 O18'
_cell_volume   361.64835039
_cell_formula_units_Z   2
loop_
 _symmetry_equiv_pos_site_id
 _symmetry_equiv_pos_as_xyz
  1  'x, y, z'
loop_
 _atom_site_type_symbol
 _atom_site_label
 _atom_site_symmetry_multiplicity
 _atom_site_fract_x
 _atom_site_fract_y
 _atom_site_fract_z
 _atom_site_occupancy
  Nd  Nd0  1  0.87405500  0.87405500  0.00000000  1
  Nd  Nd1  1  0.12594500  0.12594500  0.50000000  1
  P  P2  1  0.33335500  0.68517900  0.04617900  1
  P  P3  1  0.66664500  0.31482100  0.54617900  1
  P  P4  1  0.68517900  0.33335500  0.95382100  1
  P  P5  1  0.31482100  0.66664500  0.45382100  1
  P  P6  1  0.25086000  0.25086000  0.00000000  1
  P  P7  1  0.74914000  0.74914000  0.50000000  1
  O  O8  1  0.25174300  0.47003000  0.95821500  1
  O  O9  1  0.74825700  0.52997000  0.45821500  1
  O  O10  1  0.47003000  0.25174300  0.04178500  1
  O  O11  1  0.52997000  0.74825700  0.54178500  1
  O  O12  1  0.78115000  0.52691000  0.03556200  1
  O  O13  1  0.21885000  0.47309000  0.53556200  1
  O  O14  1  0.52691000  0.78115000  0.96443800  1
  O  O15  1  0.47309000  0.21885000  0.46443800  1
  O  O16  1  0.37248200  0.62751800  0.25000000  1
  O  O17  1  0.62751800  0.37248200  0.75000000  1
  O  O18  1  0.82898000  0.86526000  0.33206300  1
  O  O19  1  0.17102000  0.13474000  0.83206300  1
  O  O20  1  0.86526000  0.82898000  0.66793700  1
  O  O21  1  0.13474000  0.17102000  0.16793700  1
  O  O22  1  0.21669800  0.82698500  0.46456600  1
  O  O23  1  0.78330200  0.17301500  0.96456600  1
  O  O24  1  0.82698500  0.21669800  0.53543400  1
  O  O25  1  0.17301500  0.78330200  0.03543400  1
