# generated using pymatgen
data_Be2GeO4
_symmetry_space_group_name_H-M   'P 1'
_cell_length_a   7.95781789
_cell_length_b   7.95781789
_cell_length_c   7.95781783
_cell_angle_alpha   107.99042198
_cell_angle_beta   107.99042198
_cell_angle_gamma   107.99042371
_symmetry_Int_Tables_number   1
_chemical_formula_structural   Be2GeO4
_chemical_formula_sum   'Be12 Ge6 O24'
_cell_volume   407.81910567
_cell_formula_units_Z   6
loop_
 _symmetry_equiv_pos_site_id
 _symmetry_equiv_pos_as_xyz
  1  'x, y, z'
loop_
 _atom_site_type_symbol
 _atom_site_label
 _atom_site_symmetry_multiplicity
 _atom_site_fract_x
 _atom_site_fract_y
 _atom_site_fract_z
 _atom_site_occupancy
  Be  Be0  1  0.29296900  0.88957800  0.07061700  1
  Be  Be1  1  0.92938300  0.70703100  0.11042200  1
  Be  Be2  1  0.39523500  0.62818000  0.22177500  1
  Be  Be3  1  0.11042200  0.92938300  0.70703100  1
  Be  Be4  1  0.77822600  0.60476500  0.37182000  1
  Be  Be5  1  0.37182000  0.77822600  0.60476500  1
  Be  Be6  1  0.62818000  0.22177400  0.39523500  1
  Be  Be7  1  0.22177500  0.39523500  0.62818000  1
  Be  Be8  1  0.88957800  0.07061700  0.29296900  1
  Be  Be9  1  0.60476500  0.37182000  0.77822500  1
  Be  Be10  1  0.07061700  0.29296900  0.88957800  1
  Be  Be11  1  0.70703100  0.11042200  0.92938300  1
  Ge  Ge12  1  0.73232500  0.96270900  0.55539300  1
  Ge  Ge13  1  0.44460700  0.26767500  0.03729100  1
  Ge  Ge14  1  0.03729100  0.44460700  0.26767500  1
  Ge  Ge15  1  0.96270900  0.55539300  0.73232500  1
  Ge  Ge16  1  0.55539300  0.73232500  0.96270900  1
  Ge  Ge17  1  0.26767500  0.03729100  0.44460700  1
  O  O18  1  0.80600100  0.83709100  0.13630800  1
  O  O19  1  0.40856600  0.75112300  0.08892100  1
  O  O20  1  0.16290900  0.86369200  0.19399900  1
  O  O21  1  0.24887700  0.91107900  0.59143400  1
  O  O22  1  0.48127500  0.78798400  0.45663200  1
  O  O23  1  0.16912700  0.45524400  0.12398000  1
  O  O24  1  0.87602000  0.83087300  0.54475600  1
  O  O25  1  0.91107900  0.59143400  0.24887700  1
  O  O26  1  0.54336800  0.51872500  0.21201600  1
  O  O27  1  0.21201600  0.54336800  0.51872500  1
  O  O28  1  0.86369200  0.19399900  0.16290900  1
  O  O29  1  0.54475600  0.87602000  0.83087300  1
  O  O30  1  0.45524400  0.12398000  0.16912700  1
  O  O31  1  0.13630800  0.80600100  0.83709100  1
  O  O32  1  0.78798400  0.45663200  0.48127500  1
  O  O33  1  0.45663200  0.48127500  0.78798400  1
  O  O34  1  0.08892100  0.40856600  0.75112300  1
  O  O35  1  0.12398000  0.16912700  0.45524400  1
  O  O36  1  0.83087300  0.54475600  0.87602000  1
  O  O37  1  0.51872500  0.21201600  0.54336800  1
  O  O38  1  0.75112300  0.08892100  0.40856600  1
  O  O39  1  0.83709100  0.13630800  0.80600100  1
  O  O40  1  0.59143400  0.24887700  0.91107900  1
  O  O41  1  0.19399900  0.16290900  0.86369200  1
