# generated using pymatgen
data_Na3MgPCO7
_symmetry_space_group_name_H-M   'P 1'
_cell_length_a   6.68777900
_cell_length_b   5.23497300
_cell_length_c   8.90867171
_cell_angle_alpha   89.06479181
_cell_angle_beta   90.00000000
_cell_angle_gamma   90.00000000
_symmetry_Int_Tables_number   1
_chemical_formula_structural   Na3MgPCO7
_chemical_formula_sum   'Na6 Mg2 P2 C2 O14'
_cell_volume   311.85410062
_cell_formula_units_Z   2
loop_
 _symmetry_equiv_pos_site_id
 _symmetry_equiv_pos_as_xyz
  1  'x, y, z'
loop_
 _atom_site_type_symbol
 _atom_site_label
 _atom_site_symmetry_multiplicity
 _atom_site_fract_x
 _atom_site_fract_y
 _atom_site_fract_z
 _atom_site_occupancy
  Na  Na0  1  0.49454200  0.25569800  0.26491700  1
  Na  Na1  1  0.99454200  0.74430200  0.73508300  1
  Na  Na2  1  0.50545800  0.74430200  0.73508300  1
  Na  Na3  1  0.00545800  0.25569800  0.26491700  1
  Na  Na4  1  0.75000000  0.23620100  0.91626200  1
  Na  Na5  1  0.25000000  0.76379900  0.08373800  1
  Mg  Mg6  1  0.25000000  0.21448000  0.64465800  1
  Mg  Mg7  1  0.75000000  0.78552000  0.35534200  1
  P  P8  1  0.75000000  0.28759200  0.58233100  1
  P  P9  1  0.25000000  0.71240800  0.41766900  1
  C  C10  1  0.25000000  0.26762700  0.93535200  1
  C  C11  1  0.75000000  0.73237300  0.06464800  1
  O  O12  1  0.25000000  0.04301600  0.87474400  1
  O  O13  1  0.75000000  0.95698400  0.12525600  1
  O  O14  1  0.25000000  0.46832500  0.84651900  1
  O  O15  1  0.75000000  0.53167500  0.15348100  1
  O  O16  1  0.25000000  0.29191200  0.07959400  1
  O  O17  1  0.75000000  0.70808800  0.92040600  1
  O  O18  1  0.93688500  0.21294200  0.67764800  1
  O  O19  1  0.43688500  0.78705800  0.32235200  1
  O  O20  1  0.06311500  0.78705800  0.32235200  1
  O  O21  1  0.56311500  0.21294200  0.67764800  1
  O  O22  1  0.75000000  0.15130300  0.42942300  1
  O  O23  1  0.25000000  0.84869700  0.57057700  1
  O  O24  1  0.25000000  0.41758500  0.44742900  1
  O  O25  1  0.75000000  0.58241500  0.55257100  1
