# generated using pymatgen
data_PH4N(OF)2
_symmetry_space_group_name_H-M   'P 1'
_cell_length_a   6.54702100
_cell_length_b   7.98037400
_cell_length_c   8.23344700
_cell_angle_alpha   90.00000000
_cell_angle_beta   90.00000000
_cell_angle_gamma   90.00000000
_symmetry_Int_Tables_number   1
_chemical_formula_structural   PH4N(OF)2
_chemical_formula_sum   'P4 H16 N4 O8 F8'
_cell_volume   430.17847258
_cell_formula_units_Z   4
loop_
 _symmetry_equiv_pos_site_id
 _symmetry_equiv_pos_as_xyz
  1  'x, y, z'
loop_
 _atom_site_type_symbol
 _atom_site_label
 _atom_site_symmetry_multiplicity
 _atom_site_fract_x
 _atom_site_fract_y
 _atom_site_fract_z
 _atom_site_occupancy
  P  P0  1  0.25000000  0.81955800  0.60640300  1
  P  P1  1  0.25000000  0.68044200  0.10640300  1
  P  P2  1  0.75000000  0.18044200  0.39359700  1
  P  P3  1  0.75000000  0.31955800  0.89359700  1
  H  H4  1  0.25000000  0.48184800  0.62200300  1
  H  H5  1  0.25000000  0.01815200  0.12200300  1
  H  H6  1  0.75000000  0.51815200  0.37799700  1
  H  H7  1  0.75000000  0.98184800  0.87799700  1
  H  H8  1  0.25000000  0.31645200  0.74774100  1
  H  H9  1  0.25000000  0.18354800  0.24774100  1
  H  H10  1  0.75000000  0.68354800  0.25225900  1
  H  H11  1  0.75000000  0.81645200  0.75225900  1
  H  H12  1  0.12106900  0.30923200  0.56740300  1
  H  H13  1  0.37893100  0.19076800  0.06740300  1
  H  H14  1  0.62106900  0.69076800  0.43259700  1
  H  H15  1  0.87893100  0.80923200  0.93259700  1
  H  H16  1  0.87893100  0.69076800  0.43259700  1
  H  H17  1  0.62106900  0.80923200  0.93259700  1
  H  H18  1  0.37893100  0.30923200  0.56740300  1
  H  H19  1  0.12106900  0.19076800  0.06740300  1
  N  N20  1  0.25000000  0.35301400  0.62853300  1
  N  N21  1  0.25000000  0.14698600  0.12853300  1
  N  N22  1  0.75000000  0.64698600  0.37146700  1
  N  N23  1  0.75000000  0.85301400  0.87146700  1
  O  O24  1  0.05138700  0.72783700  0.60835400  1
  O  O25  1  0.44861300  0.77216300  0.10835400  1
  O  O26  1  0.55138700  0.27216300  0.39164600  1
  O  O27  1  0.94861300  0.22783700  0.89164600  1
  O  O28  1  0.94861300  0.27216300  0.39164600  1
  O  O29  1  0.55138700  0.22783700  0.89164600  1
  O  O30  1  0.44861300  0.72783700  0.60835400  1
  O  O31  1  0.05138700  0.77216300  0.10835400  1
  F  F32  1  0.25000000  0.95474400  0.74804200  1
  F  F33  1  0.25000000  0.54525600  0.24804200  1
  F  F34  1  0.75000000  0.04525600  0.25195800  1
  F  F35  1  0.75000000  0.45474400  0.75195800  1
  F  F36  1  0.25000000  0.94733300  0.45823800  1
  F  F37  1  0.25000000  0.55266700  0.95823800  1
  F  F38  1  0.75000000  0.05266700  0.54176200  1
  F  F39  1  0.75000000  0.44733300  0.04176200  1
