# generated using pymatgen
data_Al11TlO17
_symmetry_space_group_name_H-M   'P 1'
_cell_length_a   5.65447069
_cell_length_b   5.65447069
_cell_length_c   23.08250700
_cell_angle_alpha   90.00000000
_cell_angle_beta   90.00000000
_cell_angle_gamma   120.01304184
_symmetry_Int_Tables_number   1
_chemical_formula_structural   Al11TlO17
_chemical_formula_sum   'Al22 Tl2 O34'
_cell_volume   639.05823037
_cell_formula_units_Z   2
loop_
 _symmetry_equiv_pos_site_id
 _symmetry_equiv_pos_as_xyz
  1  'x, y, z'
loop_
 _atom_site_type_symbol
 _atom_site_label
 _atom_site_symmetry_multiplicity
 _atom_site_fract_x
 _atom_site_fract_y
 _atom_site_fract_z
 _atom_site_occupancy
  Al  Al0  1  0.33464200  0.16721500  0.60538600  1
  Al  Al1  1  0.33464200  0.16721500  0.89461400  1
  Al  Al2  1  0.66761600  0.33380000  0.32480100  1
  Al  Al3  1  0.66662900  0.33327300  0.47528700  1
  Al  Al4  1  0.66761600  0.33380000  0.17519900  1
  Al  Al5  1  0.00014700  0.00014700  0.50000000  1
  Al  Al6  1  0.00014700  0.00014700  0.00000000  1
  Al  Al7  1  0.66662900  0.33327300  0.02471300  1
  Al  Al8  1  0.83263000  0.16719900  0.89461800  1
  Al  Al9  1  0.83263000  0.16719900  0.60538200  1
  Al  Al10  1  0.83275500  0.66546800  0.89484600  1
  Al  Al11  1  0.83275500  0.66546800  0.60515400  1
  Al  Al12  1  0.16721500  0.33464200  0.10538600  1
  Al  Al13  1  0.16721500  0.33464200  0.39461400  1
  Al  Al14  1  0.16719900  0.83263000  0.10538200  1
  Al  Al15  1  0.33380000  0.66761600  0.82480100  1
  Al  Al16  1  0.33380000  0.66761600  0.67519900  1
  Al  Al17  1  0.33327300  0.66662900  0.52471300  1
  Al  Al18  1  0.33327300  0.66662900  0.97528700  1
  Al  Al19  1  0.16719900  0.83263000  0.39461800  1
  Al  Al20  1  0.66546800  0.83275500  0.39484600  1
  Al  Al21  1  0.66546800  0.83275500  0.10515400  1
  Tl  Tl22  1  0.67888700  0.35778700  0.75000000  1
  Tl  Tl23  1  0.35778700  0.67888700  0.25000000  1
  O  O24  1  0.31413700  0.15705200  0.45098200  1
  O  O25  1  0.31413700  0.15705200  0.04901800  1
  O  O26  1  0.50179000  0.00356600  0.64363300  1
  O  O27  1  0.50179000  0.00356600  0.85636700  1
  O  O28  1  0.66566200  0.33279800  0.25000000  1
  O  O29  1  0.84289600  0.15700600  0.04898700  1
  O  O30  1  0.66670900  0.33336000  0.55481000  1
  O  O31  1  0.99983100  0.99988900  0.36043400  1
  O  O32  1  0.99983100  0.99988900  0.13956600  1
  O  O33  1  0.99988900  0.99983100  0.86043400  1
  O  O34  1  0.99988900  0.99983100  0.63956600  1
  O  O35  1  0.66670900  0.33336000  0.94519000  1
  O  O36  1  0.50160500  0.49887300  0.64355700  1
  O  O37  1  0.84289600  0.15700600  0.45101300  1
  O  O38  1  0.50160500  0.49887300  0.85644300  1
  O  O39  1  0.15705200  0.31413700  0.95098200  1
  O  O40  1  0.15705200  0.31413700  0.54901800  1
  O  O41  1  0.99727200  0.49886800  0.64355300  1
  O  O42  1  0.99727200  0.49886800  0.85644700  1
  O  O43  1  0.00356600  0.50179000  0.35636700  1
  O  O44  1  0.00356600  0.50179000  0.14363300  1
  O  O45  1  0.84294100  0.68584600  0.45101100  1
  O  O46  1  0.84294100  0.68584600  0.04898900  1
  O  O47  1  0.49887300  0.50160500  0.14355700  1
  O  O48  1  0.33279800  0.66566200  0.75000000  1
  O  O49  1  0.33336000  0.66670900  0.05481000  1
  O  O50  1  0.49887300  0.50160500  0.35644300  1
  O  O51  1  0.15700600  0.84289600  0.54898700  1
  O  O52  1  0.15700600  0.84289600  0.95101300  1
  O  O53  1  0.33336000  0.66670900  0.44519000  1
  O  O54  1  0.49886800  0.99727200  0.35644700  1
  O  O55  1  0.49886800  0.99727200  0.14355300  1
  O  O56  1  0.68584600  0.84294100  0.95101100  1
  O  O57  1  0.68584600  0.84294100  0.54898900  1
