# generated using pymatgen
data_K(CoO2)2
_symmetry_space_group_name_H-M   'P 1'
_cell_length_a   5.70645918
_cell_length_b   4.93524545
_cell_length_c   12.59067275
_cell_angle_alpha   90.03957855
_cell_angle_beta   89.99874440
_cell_angle_gamma   90.02867426
_symmetry_Int_Tables_number   1
_chemical_formula_structural   K(CoO2)2
_chemical_formula_sum   'K4 Co8 O16'
_cell_volume   354.58817603
_cell_formula_units_Z   4
loop_
 _symmetry_equiv_pos_site_id
 _symmetry_equiv_pos_as_xyz
  1  'x, y, z'
loop_
 _atom_site_type_symbol
 _atom_site_label
 _atom_site_symmetry_multiplicity
 _atom_site_fract_x
 _atom_site_fract_y
 _atom_site_fract_z
 _atom_site_occupancy
  K  K0  1  0.99983100  0.03673800  0.25100500  1
  K  K1  1  0.99893300  0.36387100  0.74983300  1
  K  K2  1  0.50106000  0.63608800  0.24967500  1
  K  K3  1  0.50018300  0.96323200  0.75096500  1
  Co  Co4  1  0.99887800  0.99953100  0.99810900  1
  Co  Co5  1  0.00000600  0.99975700  0.50136500  1
  Co  Co6  1  0.25150500  0.50004200  0.00006900  1
  Co  Co7  1  0.24846400  0.49994400  0.50007000  1
  Co  Co8  1  0.50000200  0.00024600  0.00136200  1
  Co  Co9  1  0.50113000  0.00043700  0.49809900  1
  Co  Co10  1  0.75018700  0.49994400  0.50003900  1
  Co  Co11  1  0.74985900  0.50004700  0.00003800  1
  O  O12  1  0.00289700  0.33634400  0.42420000  1
  O  O13  1  0.00209200  0.33067300  0.07562800  1
  O  O14  1  0.00272300  0.66522600  0.57728600  1
  O  O15  1  0.00185200  0.67004800  0.92259800  1
  O  O16  1  0.25032900  0.83180000  0.42183700  1
  O  O17  1  0.24708000  0.83240100  0.07823200  1
  O  O18  1  0.25290900  0.16795400  0.57817700  1
  O  O19  1  0.24953300  0.16778200  0.92178900  1
  O  O20  1  0.49832200  0.32966700  0.42257600  1
  O  O21  1  0.49714300  0.33495700  0.07720500  1
  O  O22  1  0.49792900  0.66947900  0.57565000  1
  O  O23  1  0.49708000  0.66356500  0.92427400  1
  O  O24  1  0.74883100  0.83653000  0.42194500  1
  O  O25  1  0.75367700  0.83688700  0.07805900  1
  O  O26  1  0.74640900  0.16327000  0.57801500  1
  O  O27  1  0.75125500  0.16333700  0.92190100  1
