# generated using pymatgen
data_BaCaP2(HO4)2
_symmetry_space_group_name_H-M   'P 1'
_cell_length_a   8.03806000
_cell_length_b   9.66133300
_cell_length_c   9.97688763
_cell_angle_alpha   64.53142007
_cell_angle_beta   90.00000000
_cell_angle_gamma   90.00000000
_symmetry_Int_Tables_number   1
_chemical_formula_structural   BaCaP2(HO4)2
_chemical_formula_sum   'Ba4 Ca4 P8 H8 O32'
_cell_volume   699.49584742
_cell_formula_units_Z   4
loop_
 _symmetry_equiv_pos_site_id
 _symmetry_equiv_pos_as_xyz
  1  'x, y, z'
loop_
 _atom_site_type_symbol
 _atom_site_label
 _atom_site_symmetry_multiplicity
 _atom_site_fract_x
 _atom_site_fract_y
 _atom_site_fract_z
 _atom_site_occupancy
  Ba  Ba0  1  0.35446800  0.55152400  0.77337200  1
  Ba  Ba1  1  0.85446800  0.94847600  0.22662800  1
  Ba  Ba2  1  0.64553200  0.44847600  0.22662800  1
  Ba  Ba3  1  0.14553200  0.05152400  0.77337200  1
  Ca  Ca4  1  0.35831700  0.78937900  0.27446100  1
  Ca  Ca5  1  0.85831700  0.71062100  0.72553900  1
  Ca  Ca6  1  0.64168300  0.21062100  0.72553900  1
  Ca  Ca7  1  0.14168300  0.28937900  0.27446100  1
  P  P8  1  0.23740300  0.92577000  0.49898100  1
  P  P9  1  0.73740300  0.57423000  0.50101900  1
  P  P10  1  0.76259700  0.07423000  0.50101900  1
  P  P11  1  0.26259700  0.42577000  0.49898100  1
  P  P12  1  0.43729600  0.16586700  0.07331700  1
  P  P13  1  0.93729600  0.33413300  0.92668300  1
  P  P14  1  0.56270400  0.83413300  0.92668300  1
  P  P15  1  0.06270400  0.66586700  0.07331700  1
  H  H16  1  0.52135700  0.87154000  0.51587000  1
  H  H17  1  0.02135700  0.62846000  0.48413000  1
  H  H18  1  0.47864300  0.12846000  0.48413000  1
  H  H19  1  0.97864300  0.37154000  0.51587000  1
  H  H20  1  0.33177000  0.66173800  0.04740000  1
  H  H21  1  0.83177000  0.83826200  0.95260000  1
  H  H22  1  0.66823000  0.33826200  0.95260000  1
  H  H23  1  0.16823000  0.16173800  0.04740000  1
  O  O24  1  0.66056200  0.55989700  0.64694700  1
  O  O25  1  0.16056200  0.94010300  0.35305300  1
  O  O26  1  0.33943800  0.44010300  0.35305300  1
  O  O27  1  0.83943800  0.05989700  0.64694700  1
  O  O28  1  0.36540300  0.33220300  0.63881300  1
  O  O29  1  0.86540300  0.16779700  0.36118700  1
  O  O30  1  0.63459700  0.66779700  0.36118700  1
  O  O31  1  0.13459700  0.83220300  0.63881300  1
  O  O32  1  0.21333600  0.58348400  0.49132100  1
  O  O33  1  0.71333600  0.91651600  0.50867900  1
  O  O34  1  0.78666400  0.41651600  0.50867900  1
  O  O35  1  0.28666400  0.08348400  0.49132100  1
  O  O36  1  0.40605400  0.82611300  0.51673500  1
  O  O37  1  0.90605400  0.67388700  0.48326500  1
  O  O38  1  0.59394600  0.17388700  0.48326500  1
  O  O39  1  0.09394600  0.32611300  0.51673500  1
  O  O40  1  0.02798700  0.48002100  0.82179800  1
  O  O41  1  0.52798700  0.01997900  0.17820200  1
  O  O42  1  0.97201300  0.51997900  0.17820200  1
  O  O43  1  0.47201300  0.98002100  0.82179800  1
  O  O44  1  0.39145800  0.27622500  0.14239100  1
  O  O45  1  0.89145800  0.22377500  0.85760900  1
  O  O46  1  0.60854200  0.72377500  0.85760900  1
  O  O47  1  0.10854200  0.77622500  0.14239100  1
  O  O48  1  0.53520500  0.25842500  0.92647200  1
  O  O49  1  0.03520500  0.24157500  0.07352800  1
  O  O50  1  0.46479500  0.74157500  0.07352800  1
  O  O51  1  0.96479500  0.75842500  0.92647200  1
  O  O52  1  0.22862200  0.60930600  0.02197500  1
  O  O53  1  0.72862200  0.89069400  0.97802500  1
  O  O54  1  0.77137800  0.39069400  0.97802500  1
  O  O55  1  0.27137800  0.10930600  0.02197500  1
