# generated using pymatgen
data_Li2PdO3
_symmetry_space_group_name_H-M   'P 1'
_cell_length_a   5.19918380
_cell_length_b   5.19918380
_cell_length_c   5.14136449
_cell_angle_alpha   80.50121708
_cell_angle_beta   80.50121708
_cell_angle_gamma   120.07536583
_symmetry_Int_Tables_number   1
_chemical_formula_structural   Li2PdO3
_chemical_formula_sum   'Li4 Pd2 O6'
_cell_volume   113.51234295
_cell_formula_units_Z   2
loop_
 _symmetry_equiv_pos_site_id
 _symmetry_equiv_pos_as_xyz
  1  'x, y, z'
loop_
 _atom_site_type_symbol
 _atom_site_label
 _atom_site_symmetry_multiplicity
 _atom_site_fract_x
 _atom_site_fract_y
 _atom_site_fract_z
 _atom_site_occupancy
  Li  Li0  1  0.50000000  0.50000000  0.50000000  1
  Li  Li1  1  0.83118700  0.16881300  0.50000000  1
  Li  Li2  1  0.16881300  0.83118700  0.50000000  1
  Li  Li3  1  0.00000000  0.00000000  0.00000000  1
  Pd  Pd4  1  0.66674300  0.33325700  0.00000000  1
  Pd  Pd5  1  0.33325700  0.66674300  0.00000000  1
  O  O6  1  0.72887700  0.72887700  0.76330700  1
  O  O7  1  0.92442300  0.57674100  0.23373600  1
  O  O8  1  0.57674100  0.92442300  0.23373600  1
  O  O9  1  0.07557700  0.42325900  0.76626400  1
  O  O10  1  0.42325900  0.07557700  0.76626400  1
  O  O11  1  0.27112300  0.27112300  0.23669300  1
