# generated using pymatgen
data_K2PtS2
_symmetry_space_group_name_H-M   'P 1'
_cell_length_a   6.24802175
_cell_length_b   6.24802175
_cell_length_c   6.24802175
_cell_angle_alpha   145.96811961
_cell_angle_beta   110.17441243
_cell_angle_gamma   80.00249199
_symmetry_Int_Tables_number   1
_chemical_formula_structural   K2PtS2
_chemical_formula_sum   'K2 Pt1 S2'
_cell_volume   125.17272896
_cell_formula_units_Z   1
loop_
 _symmetry_equiv_pos_site_id
 _symmetry_equiv_pos_as_xyz
  1  'x, y, z'
loop_
 _atom_site_type_symbol
 _atom_site_label
 _atom_site_symmetry_multiplicity
 _atom_site_fract_x
 _atom_site_fract_y
 _atom_site_fract_z
 _atom_site_occupancy
  K  K0  1  0.69431500  0.19431500  0.50000000  1
  K  K1  1  0.30568500  0.80568500  0.50000000  1
  Pt  Pt2  1  0.00000000  0.00000000  0.00000000  1
  S  S3  1  0.78520700  0.50000000  0.28520700  1
  S  S4  1  0.21479300  0.50000000  0.71479300  1
