# generated using pymatgen
data_NdZnAsO
_symmetry_space_group_name_H-M   'P 1'
_cell_length_a   4.06612100
_cell_length_b   4.06612100
_cell_length_c   9.10985700
_cell_angle_alpha   90.00000000
_cell_angle_beta   90.00000000
_cell_angle_gamma   90.00000000
_symmetry_Int_Tables_number   1
_chemical_formula_structural   NdZnAsO
_chemical_formula_sum   'Nd2 Zn2 As2 O2'
_cell_volume   150.61636301
_cell_formula_units_Z   2
loop_
 _symmetry_equiv_pos_site_id
 _symmetry_equiv_pos_as_xyz
  1  'x, y, z'
loop_
 _atom_site_type_symbol
 _atom_site_label
 _atom_site_symmetry_multiplicity
 _atom_site_fract_x
 _atom_site_fract_y
 _atom_site_fract_z
 _atom_site_occupancy
  Nd  Nd0  1  0.00000000  0.50000000  0.87048900  1
  Nd  Nd1  1  0.50000000  0.00000000  0.12951100  1
  Zn  Zn2  1  0.00000000  0.00000000  0.50000000  1
  Zn  Zn3  1  0.50000000  0.50000000  0.50000000  1
  As  As4  1  0.50000000  0.00000000  0.67522900  1
  As  As5  1  0.00000000  0.50000000  0.32477100  1
  O  O6  1  0.50000000  0.50000000  0.00000000  1
  O  O7  1  0.00000000  0.00000000  0.00000000  1
