# generated using pymatgen
data_HoBO3
_symmetry_space_group_name_H-M   'P 1'
_cell_length_a   6.58141978
_cell_length_b   6.58141978
_cell_length_c   8.84418200
_cell_angle_alpha   90.00000000
_cell_angle_beta   90.00000000
_cell_angle_gamma   120.06052448
_symmetry_Int_Tables_number   1
_chemical_formula_structural   HoBO3
_chemical_formula_sum   'Ho6 B6 O18'
_cell_volume   331.56012460
_cell_formula_units_Z   6
loop_
 _symmetry_equiv_pos_site_id
 _symmetry_equiv_pos_as_xyz
  1  'x, y, z'
loop_
 _atom_site_type_symbol
 _atom_site_label
 _atom_site_symmetry_multiplicity
 _atom_site_fract_x
 _atom_site_fract_y
 _atom_site_fract_z
 _atom_site_occupancy
  Ho  Ho0  1  0.82883200  0.17116800  0.00000000  1
  Ho  Ho1  1  0.82883200  0.17116800  0.50000000  1
  Ho  Ho2  1  0.50000000  0.50000000  0.00000000  1
  Ho  Ho3  1  0.50000000  0.50000000  0.50000000  1
  Ho  Ho4  1  0.17116800  0.82883200  0.50000000  1
  Ho  Ho5  1  0.17116800  0.82883200  0.00000000  1
  B  B6  1  0.83379800  0.59316400  0.25000000  1
  B  B7  1  0.40683600  0.16620200  0.75000000  1
  B  B8  1  0.92425000  0.92425000  0.75000000  1
  B  B9  1  0.07575000  0.07575000  0.25000000  1
  B  B10  1  0.59316400  0.83379800  0.25000000  1
  B  B11  1  0.16620200  0.40683600  0.75000000  1
  O  O12  1  0.83389700  0.05190500  0.25000000  1
  O  O13  1  0.94809500  0.16610300  0.75000000  1
  O  O14  1  0.83318100  0.48352300  0.39280200  1
  O  O15  1  0.83318100  0.48352300  0.10719800  1
  O  O16  1  0.51647700  0.16681900  0.89280200  1
  O  O17  1  0.51647700  0.16681900  0.60719800  1
  O  O18  1  0.81604500  0.81604500  0.60564500  1
  O  O19  1  0.38336800  0.38336800  0.75000000  1
  O  O20  1  0.81604500  0.81604500  0.89435500  1
  O  O21  1  0.18395500  0.18395500  0.10564500  1
  O  O22  1  0.18395500  0.18395500  0.39435500  1
  O  O23  1  0.61663200  0.61663200  0.25000000  1
  O  O24  1  0.48352300  0.83318100  0.10719800  1
  O  O25  1  0.16681900  0.51647700  0.60719800  1
  O  O26  1  0.48352300  0.83318100  0.39280200  1
  O  O27  1  0.16681900  0.51647700  0.89280200  1
  O  O28  1  0.05190500  0.83389700  0.25000000  1
  O  O29  1  0.16610300  0.94809500  0.75000000  1
