# generated using pymatgen
data_KRb2YF6
_symmetry_space_group_name_H-M   'P 1'
_cell_length_a   6.75063200
_cell_length_b   6.58136500
_cell_length_c   11.42318791
_cell_angle_alpha   55.08607246
_cell_angle_beta   90.00000000
_cell_angle_gamma   90.00000000
_symmetry_Int_Tables_number   1
_chemical_formula_structural   KRb2YF6
_chemical_formula_sum   'K2 Rb4 Y2 F12'
_cell_volume   416.16768005
_cell_formula_units_Z   2
loop_
 _symmetry_equiv_pos_site_id
 _symmetry_equiv_pos_as_xyz
  1  'x, y, z'
loop_
 _atom_site_type_symbol
 _atom_site_label
 _atom_site_symmetry_multiplicity
 _atom_site_fract_x
 _atom_site_fract_y
 _atom_site_fract_z
 _atom_site_occupancy
  K  K0  1  0.00000000  0.50000000  0.50000000  1
  K  K1  1  0.50000000  0.50000000  0.00000000  1
  Rb  Rb2  1  0.95622100  0.26266300  0.24813800  1
  Rb  Rb3  1  0.54377900  0.26266300  0.74813800  1
  Rb  Rb4  1  0.45622100  0.73733700  0.25186200  1
  Rb  Rb5  1  0.04377900  0.73733700  0.75186200  1
  Y  Y6  1  0.00000000  0.00000000  0.00000000  1
  Y  Y7  1  0.50000000  0.00000000  0.50000000  1
  F  F8  1  0.26711100  0.23061300  0.94616900  1
  F  F9  1  0.76711100  0.76938700  0.55383100  1
  F  F10  1  0.73288900  0.76938700  0.05383100  1
  F  F11  1  0.23288900  0.23061300  0.44616900  1
  F  F12  1  0.18185500  0.68792400  0.04111500  1
  F  F13  1  0.68185500  0.31207600  0.45888500  1
  F  F14  1  0.81814500  0.31207600  0.95888500  1
  F  F15  1  0.31814500  0.68792400  0.54111500  1
  F  F16  1  0.46118700  0.86469300  0.72493300  1
  F  F17  1  0.96118700  0.13530700  0.77506700  1
  F  F18  1  0.53881300  0.13530700  0.27506700  1
  F  F19  1  0.03881300  0.86469300  0.22493300  1
