# generated using pymatgen
data_Na2CoO3
_symmetry_space_group_name_H-M   'P 1'
_cell_length_a   5.15877900
_cell_length_b   10.86468472
_cell_length_c   6.25027486
_cell_angle_alpha   90.30958979
_cell_angle_beta   90.00164256
_cell_angle_gamma   89.99783364
_symmetry_Int_Tables_number   1
_chemical_formula_structural   Na2CoO3
_chemical_formula_sum   'Na8 Co4 O12'
_cell_volume   350.31346215
_cell_formula_units_Z   4
loop_
 _symmetry_equiv_pos_site_id
 _symmetry_equiv_pos_as_xyz
  1  'x, y, z'
loop_
 _atom_site_type_symbol
 _atom_site_label
 _atom_site_symmetry_multiplicity
 _atom_site_fract_x
 _atom_site_fract_y
 _atom_site_fract_z
 _atom_site_occupancy
  Na  Na0  1  0.51971700  0.75404800  0.92038400  1
  Na  Na1  1  0.51968900  0.25405900  0.42040200  1
  Na  Na2  1  0.01988500  0.58313300  0.09155100  1
  Na  Na3  1  0.01986200  0.08313000  0.59157100  1
  Na  Na4  1  0.51983000  0.41686000  0.90844000  1
  Na  Na5  1  0.51985600  0.91685000  0.40846000  1
  Na  Na6  1  0.01972600  0.24592900  0.07962200  1
  Na  Na7  1  0.01977200  0.74593700  0.57963900  1
  Co  Co8  1  0.05181100  0.91794600  0.08193400  1
  Co  Co9  1  0.55182400  0.58207300  0.41804600  1
  Co  Co10  1  0.05180600  0.41795100  0.58192200  1
  Co  Co11  1  0.55181500  0.08206300  0.91806100  1
  O  O12  1  0.39687400  0.45078700  0.54908400  1
  O  O13  1  0.39686600  0.95077300  0.04909500  1
  O  O14  1  0.89688700  0.04922300  0.95090200  1
  O  O15  1  0.89689600  0.54924400  0.45088800  1
  O  O16  1  0.98467400  0.77908200  0.94687500  1
  O  O17  1  0.98468400  0.27909700  0.44688300  1
  O  O18  1  0.48503600  0.58353700  0.14208000  1
  O  O19  1  0.48504200  0.08352900  0.64210400  1
  O  O20  1  0.98507300  0.41647300  0.85790000  1
  O  O21  1  0.98505900  0.91646400  0.35792800  1
  O  O22  1  0.48465900  0.22090000  0.05310700  1
  O  O23  1  0.48465500  0.72091200  0.55312100  1
