# generated using pymatgen
data_Ba3In2(HO)12
_symmetry_space_group_name_H-M   'P 1'
_cell_length_a   12.44447848
_cell_length_b   12.44447848
_cell_length_c   12.44447848
_cell_angle_alpha   109.47122063
_cell_angle_beta   109.47122063
_cell_angle_gamma   109.47122063
_symmetry_Int_Tables_number   1
_chemical_formula_structural   Ba3In2(HO)12
_chemical_formula_sum   'Ba12 In8 H48 O48'
_cell_volume   1483.57057935
_cell_formula_units_Z   4
loop_
 _symmetry_equiv_pos_site_id
 _symmetry_equiv_pos_as_xyz
  1  'x, y, z'
loop_
 _atom_site_type_symbol
 _atom_site_label
 _atom_site_symmetry_multiplicity
 _atom_site_fract_x
 _atom_site_fract_y
 _atom_site_fract_z
 _atom_site_occupancy
  Ba  Ba0  1  0.12500000  0.37500000  0.75000000  1
  Ba  Ba1  1  0.37500000  0.12500000  0.25000000  1
  Ba  Ba2  1  0.37500000  0.75000000  0.12500000  1
  Ba  Ba3  1  0.12500000  0.25000000  0.37500000  1
  Ba  Ba4  1  0.75000000  0.12500000  0.37500000  1
  Ba  Ba5  1  0.25000000  0.37500000  0.12500000  1
  Ba  Ba6  1  0.87500000  0.62500000  0.25000000  1
  Ba  Ba7  1  0.62500000  0.87500000  0.75000000  1
  Ba  Ba8  1  0.62500000  0.25000000  0.87500000  1
  Ba  Ba9  1  0.87500000  0.75000000  0.62500000  1
  Ba  Ba10  1  0.25000000  0.87500000  0.62500000  1
  Ba  Ba11  1  0.75000000  0.62500000  0.87500000  1
  In  In12  1  0.00000000  0.50000000  0.00000000  1
  In  In13  1  0.00000000  0.00000000  0.50000000  1
  In  In14  1  0.50000000  0.00000000  0.00000000  1
  In  In15  1  0.50000000  0.50000000  0.50000000  1
  In  In16  1  0.50000000  0.50000000  0.00000000  1
  In  In17  1  0.50000000  0.00000000  0.50000000  1
  In  In18  1  0.00000000  0.50000000  0.50000000  1
  In  In19  1  0.00000000  0.00000000  0.00000000  1
  H  H20  1  0.94893300  0.25018300  0.88572400  1
  H  H21  1  0.86445900  0.06320900  0.61427600  1
  H  H22  1  0.63554100  0.24981700  0.19875000  1
  H  H23  1  0.55106700  0.43679100  0.30125000  1
  H  H24  1  0.25018300  0.88572400  0.94893300  1
  H  H25  1  0.06320900  0.61427600  0.86445900  1
  H  H26  1  0.24981700  0.19875000  0.63554100  1
  H  H27  1  0.43679100  0.30125000  0.55106700  1
  H  H28  1  0.88572400  0.94893300  0.25018300  1
  H  H29  1  0.61427600  0.86445900  0.06320900  1
  H  H30  1  0.19875000  0.63554100  0.24981700  1
  H  H31  1  0.30125000  0.55106700  0.43679100  1
  H  H32  1  0.05106700  0.74981700  0.11427600  1
  H  H33  1  0.13554100  0.93679100  0.38572400  1
  H  H34  1  0.36445900  0.75018300  0.80125000  1
  H  H35  1  0.44893300  0.56320900  0.69875000  1
  H  H36  1  0.74981700  0.11427600  0.05106700  1
  H  H37  1  0.93679100  0.38572400  0.13554100  1
  H  H38  1  0.75018300  0.80125000  0.36445900  1
  H  H39  1  0.56320900  0.69875000  0.44893300  1
  H  H40  1  0.11427600  0.05106700  0.74981700  1
  H  H41  1  0.38572400  0.13554100  0.93679100  1
  H  H42  1  0.80125000  0.36445900  0.75018300  1
  H  H43  1  0.69875000  0.44893300  0.56320900  1
  H  H44  1  0.44893300  0.38572400  0.75018300  1
  H  H45  1  0.36445900  0.11427600  0.56320900  1
  H  H46  1  0.13554100  0.69875000  0.74981700  1
  H  H47  1  0.05106700  0.80125000  0.93679100  1
  H  H48  1  0.75018300  0.44893300  0.38572400  1
  H  H49  1  0.56320900  0.36445900  0.11427600  1
  H  H50  1  0.74981700  0.13554100  0.69875000  1
  H  H51  1  0.93679100  0.05106700  0.80125000  1
  H  H52  1  0.38572400  0.75018300  0.44893300  1
  H  H53  1  0.11427600  0.56320900  0.36445900  1
  H  H54  1  0.69875000  0.74981700  0.13554100  1
  H  H55  1  0.80125000  0.93679100  0.05106700  1
  H  H56  1  0.55106700  0.61427600  0.24981700  1
  H  H57  1  0.63554100  0.88572400  0.43679100  1
  H  H58  1  0.86445900  0.30125000  0.25018300  1
  H  H59  1  0.94893300  0.19875000  0.06320900  1
  H  H60  1  0.24981700  0.55106700  0.61427600  1
  H  H61  1  0.43679100  0.63554100  0.88572400  1
  H  H62  1  0.25018300  0.86445900  0.30125000  1
  H  H63  1  0.06320900  0.94893300  0.19875000  1
  H  H64  1  0.61427600  0.24981700  0.55106700  1
  H  H65  1  0.88572400  0.43679100  0.63554100  1
  H  H66  1  0.30125000  0.25018300  0.86445900  1
  H  H67  1  0.19875000  0.06320900  0.94893300  1
  O  O68  1  0.02586700  0.33057800  0.91245200  1
  O  O69  1  0.91812600  0.11341500  0.58754800  1
  O  O70  1  0.58187400  0.16942200  0.19529000  1
  O  O71  1  0.47413300  0.38658500  0.30471000  1
  O  O72  1  0.33057800  0.91245200  0.02586700  1
  O  O73  1  0.11341500  0.58754800  0.91812600  1
  O  O74  1  0.16942200  0.19529000  0.58187400  1
  O  O75  1  0.38658500  0.30471000  0.47413300  1
  O  O76  1  0.91245200  0.02586700  0.33057800  1
  O  O77  1  0.58754800  0.91812600  0.11341500  1
  O  O78  1  0.19529000  0.58187400  0.16942200  1
  O  O79  1  0.30471000  0.47413300  0.38658500  1
  O  O80  1  0.97413300  0.66942200  0.08754800  1
  O  O81  1  0.08187400  0.88658500  0.41245200  1
  O  O82  1  0.41812600  0.83057800  0.80471000  1
  O  O83  1  0.52586700  0.61341500  0.69529000  1
  O  O84  1  0.66942200  0.08754800  0.97413300  1
  O  O85  1  0.88658500  0.41245200  0.08187400  1
  O  O86  1  0.83057800  0.80471000  0.41812600  1
  O  O87  1  0.61341500  0.69529000  0.52586700  1
  O  O88  1  0.08754800  0.97413300  0.66942200  1
  O  O89  1  0.41245200  0.08187400  0.88658500  1
  O  O90  1  0.80471000  0.41812600  0.83057800  1
  O  O91  1  0.69529000  0.52586700  0.61341500  1
  O  O92  1  0.52586700  0.41245200  0.83057800  1
  O  O93  1  0.41812600  0.08754800  0.61341500  1
  O  O94  1  0.08187400  0.69529000  0.66942200  1
  O  O95  1  0.97413300  0.80471000  0.88658500  1
  O  O96  1  0.83057800  0.52586700  0.41245200  1
  O  O97  1  0.61341500  0.41812600  0.08754800  1
  O  O98  1  0.66942200  0.08187400  0.69529000  1
  O  O99  1  0.88658500  0.97413300  0.80471000  1
  O  O100  1  0.41245200  0.83057800  0.52586700  1
  O  O101  1  0.08754800  0.61341500  0.41812600  1
  O  O102  1  0.69529000  0.66942200  0.08187400  1
  O  O103  1  0.80471000  0.88658500  0.97413300  1
  O  O104  1  0.47413300  0.58754800  0.16942200  1
  O  O105  1  0.58187400  0.91245200  0.38658500  1
  O  O106  1  0.91812600  0.30471000  0.33057800  1
  O  O107  1  0.02586700  0.19529000  0.11341500  1
  O  O108  1  0.16942200  0.47413300  0.58754800  1
  O  O109  1  0.38658500  0.58187400  0.91245200  1
  O  O110  1  0.33057800  0.91812600  0.30471000  1
  O  O111  1  0.11341500  0.02586700  0.19529000  1
  O  O112  1  0.58754800  0.16942200  0.47413300  1
  O  O113  1  0.91245200  0.38658500  0.58187400  1
  O  O114  1  0.30471000  0.33057800  0.91812600  1
  O  O115  1  0.19529000  0.11341500  0.02586700  1
