# generated using pymatgen
data_Ba2Cu2O5
_symmetry_space_group_name_H-M   'P 1'
_cell_length_a   4.13854600
_cell_length_b   11.54344700
_cell_length_c   13.76475100
_cell_angle_alpha   90.00000000
_cell_angle_beta   90.00000000
_cell_angle_gamma   90.00000000
_symmetry_Int_Tables_number   1
_chemical_formula_structural   Ba2Cu2O5
_chemical_formula_sum   'Ba8 Cu8 O20'
_cell_volume   657.58463891
_cell_formula_units_Z   4
loop_
 _symmetry_equiv_pos_site_id
 _symmetry_equiv_pos_as_xyz
  1  'x, y, z'
loop_
 _atom_site_type_symbol
 _atom_site_label
 _atom_site_symmetry_multiplicity
 _atom_site_fract_x
 _atom_site_fract_y
 _atom_site_fract_z
 _atom_site_occupancy
  Ba  Ba0  1  0.25829000  0.05433800  0.86051700  1
  Ba  Ba1  1  0.25900400  0.19410000  0.54368200  1
  Ba  Ba2  1  0.75900400  0.30590000  0.04368200  1
  Ba  Ba3  1  0.75829000  0.44566200  0.36051700  1
  Ba  Ba4  1  0.24171000  0.55433800  0.86051700  1
  Ba  Ba5  1  0.24099600  0.69410000  0.54368200  1
  Ba  Ba6  1  0.74099600  0.80590000  0.04368200  1
  Ba  Ba7  1  0.74171000  0.94566200  0.36051700  1
  Cu  Cu8  1  0.23439300  0.01856700  0.15642000  1
  Cu  Cu9  1  0.27143500  0.23453800  0.24971800  1
  Cu  Cu10  1  0.77143500  0.26546200  0.74971800  1
  Cu  Cu11  1  0.73439300  0.48143300  0.65642000  1
  Cu  Cu12  1  0.26560700  0.51856700  0.15642000  1
  Cu  Cu13  1  0.22856500  0.73453800  0.24971800  1
  Cu  Cu14  1  0.72856500  0.76546200  0.74971800  1
  Cu  Cu15  1  0.76560700  0.98143300  0.65642000  1
  O  O16  1  0.23069700  0.07982700  0.28372400  1
  O  O17  1  0.72551600  0.03587600  0.53148000  1
  O  O18  1  0.90627100  0.12405400  0.70089600  1
  O  O19  1  0.27399500  0.17314200  0.12310800  1
  O  O20  1  0.74318100  0.20949800  0.87445500  1
  O  O21  1  0.24318100  0.29050200  0.37445500  1
  O  O22  1  0.77399500  0.32685800  0.62310800  1
  O  O23  1  0.40627100  0.37594600  0.20089600  1
  O  O24  1  0.22551600  0.46412400  0.03148000  1
  O  O25  1  0.73069700  0.42017300  0.78372400  1
  O  O26  1  0.26930300  0.57982700  0.28372400  1
  O  O27  1  0.77448400  0.53587600  0.53148000  1
  O  O28  1  0.59372900  0.62405400  0.70089600  1
  O  O29  1  0.22600500  0.67314200  0.12310800  1
  O  O30  1  0.75681900  0.70949800  0.87445500  1
  O  O31  1  0.25681900  0.79050200  0.37445500  1
  O  O32  1  0.72600500  0.82685800  0.62310800  1
  O  O33  1  0.09372900  0.87594600  0.20089600  1
  O  O34  1  0.27448400  0.96412400  0.03148000  1
  O  O35  1  0.76930300  0.92017300  0.78372400  1
