# generated using pymatgen
data_K6Zr3H8(OF)12
_symmetry_space_group_name_H-M   'P 1'
_cell_length_a   11.04814300
_cell_length_b   13.96767800
_cell_length_c   14.72626800
_cell_angle_alpha   90.00000000
_cell_angle_beta   90.00000000
_cell_angle_gamma   90.00000000
_symmetry_Int_Tables_number   1
_chemical_formula_structural   K6Zr3H8(OF)12
_chemical_formula_sum   'K24 Zr12 H32 O48 F48'
_cell_volume   2272.51208408
_cell_formula_units_Z   4
loop_
 _symmetry_equiv_pos_site_id
 _symmetry_equiv_pos_as_xyz
  1  'x, y, z'
loop_
 _atom_site_type_symbol
 _atom_site_label
 _atom_site_symmetry_multiplicity
 _atom_site_fract_x
 _atom_site_fract_y
 _atom_site_fract_z
 _atom_site_occupancy
  K  K0  1  0.13270100  0.45809400  0.89151100  1
  K  K1  1  0.36729900  0.04190600  0.39151100  1
  K  K2  1  0.86729900  0.95809400  0.10848900  1
  K  K3  1  0.63270100  0.54190600  0.60848900  1
  K  K4  1  0.86729900  0.54190600  0.10848900  1
  K  K5  1  0.63270100  0.95809400  0.60848900  1
  K  K6  1  0.13270100  0.04190600  0.89151100  1
  K  K7  1  0.36729900  0.45809400  0.39151100  1
  K  K8  1  0.43143200  0.89557300  0.82263600  1
  K  K9  1  0.06856800  0.60442700  0.32263600  1
  K  K10  1  0.56856800  0.39557300  0.17736400  1
  K  K11  1  0.93143200  0.10442700  0.67736400  1
  K  K12  1  0.56856800  0.10442700  0.17736400  1
  K  K13  1  0.93143200  0.39557300  0.67736400  1
  K  K14  1  0.43143200  0.60442700  0.82263600  1
  K  K15  1  0.06856800  0.89557300  0.32263600  1
  K  K16  1  0.18954100  0.88032200  0.61162800  1
  K  K17  1  0.31045900  0.61967800  0.11162800  1
  K  K18  1  0.81045900  0.38032200  0.38837200  1
  K  K19  1  0.68954100  0.11967800  0.88837200  1
  K  K20  1  0.81045900  0.11967800  0.38837200  1
  K  K21  1  0.68954100  0.38032200  0.88837200  1
  K  K22  1  0.18954100  0.61967800  0.61162800  1
  K  K23  1  0.31045900  0.88032200  0.11162800  1
  Zr  Zr24  1  0.63097400  0.25000000  0.59625000  1
  Zr  Zr25  1  0.86902600  0.25000000  0.09625000  1
  Zr  Zr26  1  0.36902600  0.75000000  0.40375000  1
  Zr  Zr27  1  0.13097400  0.75000000  0.90375000  1
  Zr  Zr28  1  0.33359300  0.10976800  0.66379500  1
  Zr  Zr29  1  0.16640700  0.39023200  0.16379500  1
  Zr  Zr30  1  0.66640700  0.60976800  0.33620500  1
  Zr  Zr31  1  0.83359300  0.89023200  0.83620500  1
  Zr  Zr32  1  0.66640700  0.89023200  0.33620500  1
  Zr  Zr33  1  0.83359300  0.60976800  0.83620500  1
  Zr  Zr34  1  0.33359300  0.39023200  0.66379500  1
  Zr  Zr35  1  0.16640700  0.10976800  0.16379500  1
  H  H36  1  0.17314400  0.25000000  0.80169300  1
  H  H37  1  0.32685600  0.25000000  0.30169300  1
  H  H38  1  0.82685600  0.75000000  0.19830700  1
  H  H39  1  0.67314400  0.75000000  0.69830700  1
  H  H40  1  0.94756100  0.25000000  0.86547300  1
  H  H41  1  0.55243900  0.25000000  0.36547300  1
  H  H42  1  0.05243900  0.75000000  0.13452700  1
  H  H43  1  0.44756100  0.75000000  0.63452700  1
  H  H44  1  0.41038900  0.06516100  0.99938600  1
  H  H45  1  0.08961100  0.43483900  0.49938600  1
  H  H46  1  0.58961100  0.56516100  0.00061400  1
  H  H47  1  0.91038900  0.93483900  0.50061400  1
  H  H48  1  0.58961100  0.93483900  0.00061400  1
  H  H49  1  0.91038900  0.56516100  0.50061400  1
  H  H50  1  0.41038900  0.43483900  0.99938600  1
  H  H51  1  0.08961100  0.06516100  0.49938600  1
  H  H52  1  0.43736800  0.19383200  0.85346500  1
  H  H53  1  0.06263200  0.30616800  0.35346500  1
  H  H54  1  0.56263200  0.69383200  0.14653500  1
  H  H55  1  0.93736800  0.80616800  0.64653500  1
  H  H56  1  0.56263200  0.80616800  0.14653500  1
  H  H57  1  0.93736800  0.69383200  0.64653500  1
  H  H58  1  0.43736800  0.30616800  0.85346500  1
  H  H59  1  0.06263200  0.19383200  0.35346500  1
  H  H60  1  0.47931100  0.25000000  0.00068100  1
  H  H61  1  0.02068900  0.25000000  0.50068100  1
  H  H62  1  0.52068900  0.75000000  0.99931900  1
  H  H63  1  0.97931100  0.75000000  0.49931900  1
  H  H64  1  0.10851200  0.25000000  0.58429500  1
  H  H65  1  0.39148800  0.25000000  0.08429500  1
  H  H66  1  0.89148800  0.75000000  0.41570500  1
  H  H67  1  0.60851200  0.75000000  0.91570500  1
  O  O68  1  0.48862600  0.13916000  0.57216100  1
  O  O69  1  0.01137400  0.36084000  0.07216100  1
  O  O70  1  0.51137400  0.63916000  0.42783900  1
  O  O71  1  0.98862600  0.86084000  0.92783900  1
  O  O72  1  0.51137400  0.86084000  0.42783900  1
  O  O73  1  0.98862600  0.63916000  0.92783900  1
  O  O74  1  0.48862600  0.36084000  0.57216100  1
  O  O75  1  0.01137400  0.13916000  0.07216100  1
  O  O76  1  0.52632000  0.14112000  0.67084800  1
  O  O77  1  0.97368000  0.35888000  0.17084800  1
  O  O78  1  0.47368000  0.64112000  0.32915200  1
  O  O79  1  0.02632000  0.85888000  0.82915200  1
  O  O80  1  0.47368000  0.85888000  0.32915200  1
  O  O81  1  0.02632000  0.64112000  0.82915200  1
  O  O82  1  0.52632000  0.35888000  0.67084800  1
  O  O83  1  0.97368000  0.14112000  0.17084800  1
  O  O84  1  0.28353700  0.25000000  0.72191000  1
  O  O85  1  0.21646300  0.25000000  0.22191000  1
  O  O86  1  0.71646300  0.75000000  0.27809000  1
  O  O87  1  0.78353700  0.75000000  0.77809000  1
  O  O88  1  0.25843300  0.25000000  0.62170400  1
  O  O89  1  0.24156700  0.25000000  0.12170400  1
  O  O90  1  0.74156700  0.75000000  0.37829600  1
  O  O91  1  0.75843300  0.75000000  0.87829600  1
  O  O92  1  0.00199300  0.25000000  0.81085000  1
  O  O93  1  0.49800700  0.25000000  0.31085000  1
  O  O94  1  0.99800700  0.75000000  0.18915000  1
  O  O95  1  0.50199300  0.75000000  0.68915000  1
  O  O96  1  0.12103500  0.25000000  0.85714400  1
  O  O97  1  0.37896500  0.25000000  0.35714400  1
  O  O98  1  0.87896500  0.75000000  0.14285600  1
  O  O99  1  0.62103500  0.75000000  0.64285600  1
  O  O100  1  0.48538700  0.04017300  0.96931800  1
  O  O101  1  0.01461300  0.45982700  0.46931800  1
  O  O102  1  0.51461300  0.54017300  0.03068200  1
  O  O103  1  0.98538700  0.95982700  0.53068200  1
  O  O104  1  0.51461300  0.95982700  0.03068200  1
  O  O105  1  0.98538700  0.54017300  0.53068200  1
  O  O106  1  0.48538700  0.45982700  0.96931800  1
  O  O107  1  0.01461300  0.04017300  0.46931800  1
  O  O108  1  0.47976400  0.25000000  0.87997800  1
  O  O109  1  0.02023600  0.25000000  0.37997800  1
  O  O110  1  0.52023600  0.75000000  0.12002200  1
  O  O111  1  0.97976400  0.75000000  0.62002200  1
  O  O112  1  0.02153400  0.25000000  0.56805300  1
  O  O113  1  0.47846600  0.25000000  0.06805300  1
  O  O114  1  0.97846600  0.75000000  0.43194700  1
  O  O115  1  0.52153400  0.75000000  0.93194700  1
  F  F116  1  0.36697100  0.09232800  0.80464600  1
  F  F117  1  0.13302900  0.40767200  0.30464600  1
  F  F118  1  0.63302900  0.59232800  0.19535400  1
  F  F119  1  0.86697100  0.90767200  0.69535400  1
  F  F120  1  0.63302900  0.90767200  0.19535400  1
  F  F121  1  0.86697100  0.59232800  0.69535400  1
  F  F122  1  0.36697100  0.40767200  0.80464600  1
  F  F123  1  0.13302900  0.09232800  0.30464600  1
  F  F124  1  0.16653300  0.05800000  0.70871900  1
  F  F125  1  0.33346700  0.44200000  0.20871900  1
  F  F126  1  0.83346700  0.55800000  0.29128100  1
  F  F127  1  0.66653300  0.94200000  0.79128100  1
  F  F128  1  0.83346700  0.94200000  0.29128100  1
  F  F129  1  0.66653300  0.55800000  0.79128100  1
  F  F130  1  0.16653300  0.44200000  0.70871900  1
  F  F131  1  0.33346700  0.05800000  0.20871900  1
  F  F132  1  0.89052500  0.03185000  0.84187200  1
  F  F133  1  0.60947500  0.46815000  0.34187200  1
  F  F134  1  0.10947500  0.53185000  0.15812800  1
  F  F135  1  0.39052500  0.96815000  0.65812800  1
  F  F136  1  0.10947500  0.96815000  0.15812800  1
  F  F137  1  0.39052500  0.53185000  0.65812800  1
  F  F138  1  0.89052500  0.46815000  0.84187200  1
  F  F139  1  0.60947500  0.03185000  0.34187200  1
  F  F140  1  0.24499500  0.07101500  0.54108200  1
  F  F141  1  0.25500500  0.42898500  0.04108200  1
  F  F142  1  0.75500500  0.57101500  0.45891800  1
  F  F143  1  0.74499500  0.92898500  0.95891800  1
  F  F144  1  0.75500500  0.92898500  0.45891800  1
  F  F145  1  0.74499500  0.57101500  0.95891800  1
  F  F146  1  0.24499500  0.42898500  0.54108200  1
  F  F147  1  0.25500500  0.07101500  0.04108200  1
  F  F148  1  0.74871600  0.13743300  0.56968000  1
  F  F149  1  0.75128400  0.36256700  0.06968000  1
  F  F150  1  0.25128400  0.63743300  0.43032000  1
  F  F151  1  0.24871600  0.86256700  0.93032000  1
  F  F152  1  0.25128400  0.86256700  0.43032000  1
  F  F153  1  0.24871600  0.63743300  0.93032000  1
  F  F154  1  0.74871600  0.36256700  0.56968000  1
  F  F155  1  0.75128400  0.13743300  0.06968000  1
  F  F156  1  0.86045600  0.25000000  0.95028200  1
  F  F157  1  0.63954400  0.25000000  0.45028200  1
  F  F158  1  0.13954400  0.75000000  0.04971800  1
  F  F159  1  0.36045600  0.75000000  0.54971800  1
  F  F160  1  0.72820300  0.25000000  0.71944700  1
  F  F161  1  0.77179700  0.25000000  0.21944700  1
  F  F162  1  0.27179700  0.75000000  0.28055300  1
  F  F163  1  0.22820300  0.75000000  0.78055300  1
