# generated using pymatgen
data_ErP4HO12
_symmetry_space_group_name_H-M   'P 1'
_cell_length_a   7.22254900
_cell_length_b   9.68892200
_cell_length_c   13.79612954
_cell_angle_alpha   79.17798817
_cell_angle_beta   90.00000000
_cell_angle_gamma   90.00000000
_symmetry_Int_Tables_number   1
_chemical_formula_structural   ErP4HO12
_chemical_formula_sum   'Er4 P16 H4 O48'
_cell_volume   948.26531703
_cell_formula_units_Z   4
loop_
 _symmetry_equiv_pos_site_id
 _symmetry_equiv_pos_as_xyz
  1  'x, y, z'
loop_
 _atom_site_type_symbol
 _atom_site_label
 _atom_site_symmetry_multiplicity
 _atom_site_fract_x
 _atom_site_fract_y
 _atom_site_fract_z
 _atom_site_occupancy
  Er  Er0  1  0.05672200  0.94107400  0.72891700  1
  Er  Er1  1  0.55672200  0.55892600  0.27108300  1
  Er  Er2  1  0.94327800  0.05892600  0.27108300  1
  Er  Er3  1  0.44327800  0.44107400  0.72891700  1
  P  P4  1  0.78523900  0.70601700  0.61343300  1
  P  P5  1  0.28523900  0.79398300  0.38656700  1
  P  P6  1  0.21476100  0.29398300  0.38656700  1
  P  P7  1  0.71476100  0.20601700  0.61343300  1
  P  P8  1  0.39663100  0.78793600  0.59471200  1
  P  P9  1  0.89663100  0.71206400  0.40528800  1
  P  P10  1  0.60336900  0.21206400  0.40528800  1
  P  P11  1  0.10336900  0.28793600  0.59471200  1
  P  P12  1  0.68114400  0.87516600  0.90125500  1
  P  P13  1  0.18114400  0.62483400  0.09874500  1
  P  P14  1  0.31885600  0.12483400  0.09874500  1
  P  P15  1  0.81885600  0.37516600  0.90125500  1
  P  P16  1  0.34680700  0.69145100  0.89559200  1
  P  P17  1  0.84680700  0.80854900  0.10440800  1
  P  P18  1  0.65319300  0.30854900  0.10440800  1
  P  P19  1  0.15319300  0.19145100  0.89559200  1
  H  H20  1  0.85302200  0.56364000  0.79558100  1
  H  H21  1  0.35302200  0.93636000  0.20441900  1
  H  H22  1  0.14697800  0.43636000  0.20441900  1
  H  H23  1  0.64697800  0.06364000  0.79558100  1
  O  O24  1  0.36003200  0.63232700  0.61711300  1
  O  O25  1  0.86003200  0.86767300  0.38288700  1
  O  O26  1  0.63996800  0.36767300  0.38288700  1
  O  O27  1  0.13996800  0.13232700  0.61711300  1
  O  O28  1  0.94792400  0.79046400  0.63754300  1
  O  O29  1  0.44792400  0.70953600  0.36245700  1
  O  O30  1  0.05207600  0.20953600  0.36245700  1
  O  O31  1  0.55207600  0.29046400  0.63754300  1
  O  O32  1  0.77089600  0.90140900  0.00209800  1
  O  O33  1  0.27089600  0.59859100  0.99790200  1
  O  O34  1  0.22910400  0.09859100  0.99790200  1
  O  O35  1  0.72910400  0.40140900  0.00209800  1
  O  O36  1  0.81755100  0.82694900  0.83425100  1
  O  O37  1  0.31755100  0.67305100  0.16574900  1
  O  O38  1  0.18244900  0.17305100  0.16574900  1
  O  O39  1  0.68244900  0.32694900  0.83425100  1
  O  O40  1  0.72433000  0.58303200  0.69166400  1
  O  O41  1  0.22433000  0.91696800  0.30833600  1
  O  O42  1  0.27567000  0.41696800  0.30833600  1
  O  O43  1  0.77567000  0.08303200  0.69166400  1
  O  O44  1  0.82420300  0.64438700  0.51499900  1
  O  O45  1  0.32420300  0.85561300  0.48500100  1
  O  O46  1  0.17579700  0.35561300  0.48500100  1
  O  O47  1  0.67579700  0.14438700  0.51499900  1
  O  O48  1  0.32588300  0.88013000  0.66231600  1
  O  O49  1  0.82588300  0.61987000  0.33768400  1
  O  O50  1  0.67411700  0.11987000  0.33768400  1
  O  O51  1  0.17411700  0.38013000  0.66231600  1
  O  O52  1  0.41941800  0.58920300  0.83637000  1
  O  O53  1  0.91941800  0.91079700  0.16363000  1
  O  O54  1  0.58058200  0.41079700  0.16363000  1
  O  O55  1  0.08058200  0.08920300  0.83637000  1
  O  O56  1  0.52238600  0.76562700  0.94005800  1
  O  O57  1  0.02238600  0.73437300  0.05994200  1
  O  O58  1  0.47761400  0.23437300  0.05994200  1
  O  O59  1  0.97761400  0.26562700  0.94005800  1
  O  O60  1  0.20852500  0.80003400  0.85419000  1
  O  O61  1  0.70852500  0.69996600  0.14581000  1
  O  O62  1  0.79147500  0.19996600  0.14581000  1
  O  O63  1  0.29147500  0.30003400  0.85419000  1
  O  O64  1  0.61759500  0.81489700  0.58275200  1
  O  O65  1  0.11759500  0.68510300  0.41724800  1
  O  O66  1  0.38240500  0.18510300  0.41724800  1
  O  O67  1  0.88240500  0.31489700  0.58275200  1
  O  O68  1  0.91770500  0.51674000  0.85868600  1
  O  O69  1  0.41770500  0.98326000  0.14131400  1
  O  O70  1  0.08229500  0.48326000  0.14131400  1
  O  O71  1  0.58229500  0.01674000  0.85868600  1
