# generated using pymatgen
data_Sc2Sb
_symmetry_space_group_name_H-M   'P 1'
_cell_length_a   4.23002700
_cell_length_b   4.23002700
_cell_length_c   7.85785200
_cell_angle_alpha   90.00000000
_cell_angle_beta   90.00000000
_cell_angle_gamma   90.00000000
_symmetry_Int_Tables_number   1
_chemical_formula_structural   Sc2Sb
_chemical_formula_sum   'Sc4 Sb2'
_cell_volume   140.60155495
_cell_formula_units_Z   2
loop_
 _symmetry_equiv_pos_site_id
 _symmetry_equiv_pos_as_xyz
  1  'x, y, z'
loop_
 _atom_site_type_symbol
 _atom_site_label
 _atom_site_symmetry_multiplicity
 _atom_site_fract_x
 _atom_site_fract_y
 _atom_site_fract_z
 _atom_site_occupancy
  Sc  Sc0  1  0.00000000  0.00000000  0.00000000  1
  Sc  Sc1  1  0.50000000  0.50000000  0.00000000  1
  Sc  Sc2  1  0.50000000  0.00000000  0.34459700  1
  Sc  Sc3  1  0.00000000  0.50000000  0.65540300  1
  Sb  Sb4  1  0.50000000  0.00000000  0.71993900  1
  Sb  Sb5  1  0.00000000  0.50000000  0.28006100  1
