# generated using pymatgen
data_Dy3Ni2
_symmetry_space_group_name_H-M   'P 1'
_cell_length_a   6.89035324
_cell_length_b   6.89035324
_cell_length_c   9.51605857
_cell_angle_alpha   75.11323044
_cell_angle_beta   75.11323044
_cell_angle_gamma   30.80237270
_symmetry_Int_Tables_number   1
_chemical_formula_structural   Dy3Ni2
_chemical_formula_sum   'Dy6 Ni4'
_cell_volume   222.98818326
_cell_formula_units_Z   2
loop_
 _symmetry_equiv_pos_site_id
 _symmetry_equiv_pos_as_xyz
  1  'x, y, z'
loop_
 _atom_site_type_symbol
 _atom_site_label
 _atom_site_symmetry_multiplicity
 _atom_site_fract_x
 _atom_site_fract_y
 _atom_site_fract_z
 _atom_site_occupancy
  Dy  Dy0  1  0.85590400  0.85590400  0.36722700  1
  Dy  Dy1  1  0.14409600  0.14409600  0.63277300  1
  Dy  Dy2  1  0.40279900  0.40279900  0.67293200  1
  Dy  Dy3  1  0.59720100  0.59720100  0.32706800  1
  Dy  Dy4  1  0.13162400  0.13162400  0.00258300  1
  Dy  Dy5  1  0.86837600  0.86837600  0.99741700  1
  Ni  Ni6  1  0.74369300  0.74369300  0.77341300  1
  Ni  Ni7  1  0.25630700  0.25630700  0.22658700  1
  Ni  Ni8  1  0.53471100  0.53471100  0.85562900  1
  Ni  Ni9  1  0.46528900  0.46528900  0.14437100  1
