# generated using pymatgen
data_Ca5TaTi3Al(SiO5)5
_symmetry_space_group_name_H-M   'P 1'
_cell_length_a   5.49007900
_cell_length_b   7.13631005
_cell_length_c   25.18732268
_cell_angle_alpha   84.48824547
_cell_angle_beta   85.71625888
_cell_angle_gamma   75.88598675
_symmetry_Int_Tables_number   1
_chemical_formula_structural   Ca5TaTi3Al(SiO5)5
_chemical_formula_sum   'Ca10 Ta2 Ti6 Al2 Si10 O50'
_cell_volume   951.25279003
_cell_formula_units_Z   2
loop_
 _symmetry_equiv_pos_site_id
 _symmetry_equiv_pos_as_xyz
  1  'x, y, z'
loop_
 _atom_site_type_symbol
 _atom_site_label
 _atom_site_symmetry_multiplicity
 _atom_site_fract_x
 _atom_site_fract_y
 _atom_site_fract_z
 _atom_site_occupancy
  Ca  Ca0  1  0.84549900  0.88861500  0.66635800  1
  Ca  Ca1  1  0.24696900  0.68875000  0.46779900  1
  Ca  Ca2  1  0.64158900  0.51231100  0.26696200  1
  Ca  Ca3  1  0.03973200  0.31372300  0.06526500  1
  Ca  Ca4  1  0.75303100  0.31125000  0.53220100  1
  Ca  Ca5  1  0.43861000  0.11778900  0.86568200  1
  Ca  Ca6  1  0.15450100  0.11138500  0.33364200  1
  Ca  Ca7  1  0.56139000  0.88221100  0.13431800  1
  Ca  Ca8  1  0.96026800  0.68627700  0.93473500  1
  Ca  Ca9  1  0.35841100  0.48768900  0.73303800  1
  Ta  Ta10  1  0.29772600  0.10144100  0.59960500  1
  Ta  Ta11  1  0.70227400  0.89855900  0.40039500  1
  Ti  Ti12  1  0.10251500  0.69826000  0.20077400  1
  Ti  Ti13  1  0.10034900  0.20027900  0.19901900  1
  Ti  Ti14  1  0.50000000  0.50000000  0.00000000  1
  Ti  Ti15  1  0.50000000  0.00000000  0.00000000  1
  Ti  Ti16  1  0.89748500  0.30174000  0.79922600  1
  Ti  Ti17  1  0.89965100  0.79972100  0.80098100  1
  Al  Al18  1  0.30059500  0.59936800  0.60062800  1
  Al  Al19  1  0.69940500  0.40063200  0.39937200  1
  Si  Si20  1  0.84769400  0.42146800  0.66349900  1
  Si  Si21  1  0.24757500  0.22363600  0.46214800  1
  Si  Si22  1  0.65287500  0.01560100  0.26287000  1
  Si  Si23  1  0.75242500  0.77636400  0.53785200  1
  Si  Si24  1  0.05335900  0.81246600  0.06420100  1
  Si  Si25  1  0.15230600  0.57853200  0.33650100  1
  Si  Si26  1  0.45289700  0.61265400  0.86414000  1
  Si  Si27  1  0.54710300  0.38734600  0.13586000  1
  Si  Si28  1  0.94664100  0.18753400  0.93579900  1
  Si  Si29  1  0.34712500  0.98439900  0.73713000  1
  O  O30  1  0.02630900  0.63602800  0.55163100  1
  O  O31  1  0.94154000  0.24020600  0.62331400  1
  O  O32  1  0.20378800  0.85819100  0.61285000  1
  O  O33  1  0.42679300  0.43832400  0.35064200  1
  O  O34  1  0.19632600  0.12513700  0.52339400  1
  O  O35  1  0.06413600  0.54695500  0.66169300  1
  O  O36  1  0.34152600  0.04029100  0.42313600  1
  O  O37  1  0.53536500  0.65271000  0.53860500  1
  O  O38  1  0.40350400  0.07949600  0.67608900  1
  O  O39  1  0.60220800  0.65801000  0.41297900  1
  O  O40  1  0.82144600  0.24107800  0.14971900  1
  O  O41  1  0.39779200  0.34199000  0.58702100  1
  O  O42  1  0.59649600  0.92050400  0.32391100  1
  O  O43  1  0.46463500  0.34729000  0.46139500  1
  O  O44  1  0.74171800  0.83817200  0.22303300  1
  O  O45  1  0.65847400  0.95970900  0.57686400  1
  O  O46  1  0.93586400  0.45304500  0.33830700  1
  O  O47  1  0.80367400  0.87486300  0.47660600  1
  O  O48  1  0.00258200  0.46310000  0.21356000  1
  O  O49  1  0.22144200  0.04303700  0.95007700  1
  O  O50  1  0.57320700  0.56167600  0.64935800  1
  O  O51  1  0.79621200  0.14180900  0.38715000  1
  O  O52  1  0.00086600  0.71682200  0.12482200  1
  O  O53  1  0.86319800  0.14629800  0.26255500  1
  O  O54  1  0.14174000  0.63723100  0.02318800  1
  O  O55  1  0.05846000  0.75979400  0.37668600  1
  O  O56  1  0.33741300  0.25499300  0.13697600  1
  O  O57  1  0.20033500  0.67793900  0.27568000  1
  O  O58  1  0.40480200  0.26323800  0.01408500  1
  O  O59  1  0.62074500  0.83858600  0.75078000  1
  O  O60  1  0.97369100  0.36397200  0.44836900  1
  O  O61  1  0.19763000  0.93612100  0.18654100  1
  O  O62  1  0.39890900  0.51560400  0.92461700  1
  O  O63  1  0.26239000  0.94562700  0.06260600  1
  O  O64  1  0.54052900  0.43818100  0.82301700  1
  O  O65  1  0.45947100  0.56181900  0.17698300  1
  O  O66  1  0.73761000  0.05437300  0.93739400  1
  O  O67  1  0.60109100  0.48439600  0.07538300  1
  O  O68  1  0.80237000  0.06387900  0.81345900  1
  O  O69  1  0.37925500  0.16141400  0.24922000  1
  O  O70  1  0.59519800  0.73676200  0.98591500  1
  O  O71  1  0.79966500  0.32206100  0.72432000  1
  O  O72  1  0.66258700  0.74500700  0.86302400  1
  O  O73  1  0.85826000  0.36276900  0.97681200  1
  O  O74  1  0.13680200  0.85370200  0.73744500  1
  O  O75  1  0.99913400  0.28317800  0.87517800  1
  O  O76  1  0.77855800  0.95696300  0.04992300  1
  O  O77  1  0.99741800  0.53690000  0.78644000  1
  O  O78  1  0.25828200  0.16182800  0.77696700  1
  O  O79  1  0.17855400  0.75892200  0.85028100  1
