# generated using pymatgen
data_LiMnF6
_symmetry_space_group_name_H-M   'P 1'
_cell_length_a   5.38946670
_cell_length_b   5.38946670
_cell_length_c   5.38946728
_cell_angle_alpha   55.97162757
_cell_angle_beta   55.97162757
_cell_angle_gamma   55.97162613
_symmetry_Int_Tables_number   1
_chemical_formula_structural   LiMnF6
_chemical_formula_sum   'Li1 Mn1 F6'
_cell_volume   100.36171431
_cell_formula_units_Z   1
loop_
 _symmetry_equiv_pos_site_id
 _symmetry_equiv_pos_as_xyz
  1  'x, y, z'
loop_
 _atom_site_type_symbol
 _atom_site_label
 _atom_site_symmetry_multiplicity
 _atom_site_fract_x
 _atom_site_fract_y
 _atom_site_fract_z
 _atom_site_occupancy
  Li  Li0  1  0.50000000  0.50000000  0.50000000  1
  Mn  Mn1  1  0.00000000  0.00000000  0.00000000  1
  F  F2  1  0.88967100  0.23219300  0.64492700  1
  F  F3  1  0.76780700  0.35507300  0.11032900  1
  F  F4  1  0.35507300  0.11032900  0.76780700  1
  F  F5  1  0.64492700  0.88967100  0.23219300  1
  F  F6  1  0.23219300  0.64492700  0.88967100  1
  F  F7  1  0.11032900  0.76780700  0.35507300  1
