# generated using pymatgen
data_LiVPHO5
_symmetry_space_group_name_H-M   'P 1'
_cell_length_a   5.17156152
_cell_length_b   7.52205007
_cell_length_c   10.37038935
_cell_angle_alpha   77.33290818
_cell_angle_beta   98.73938381
_cell_angle_gamma   74.06614071
_symmetry_Int_Tables_number   1
_chemical_formula_structural   LiVPHO5
_chemical_formula_sum   'Li4 V4 P4 H4 O20'
_cell_volume   368.67198308
_cell_formula_units_Z   4
loop_
 _symmetry_equiv_pos_site_id
 _symmetry_equiv_pos_as_xyz
  1  'x, y, z'
loop_
 _atom_site_type_symbol
 _atom_site_label
 _atom_site_symmetry_multiplicity
 _atom_site_fract_x
 _atom_site_fract_y
 _atom_site_fract_z
 _atom_site_occupancy
  Li  Li0  1  0.13490000  0.61062600  0.21441500  1
  Li  Li1  1  0.63561700  0.11003900  0.71416600  1
  Li  Li2  1  0.86434800  0.38988200  0.78580900  1
  Li  Li3  1  0.36512400  0.88945200  0.28561100  1
  V  V4  1  0.49961300  0.50021200  0.49987000  1
  V  V5  1  0.75013500  0.25001300  0.25002900  1
  V  V6  1  0.24983300  0.75000100  0.74996400  1
  V  V7  1  0.00039700  0.99977800  0.00012000  1
  P  P8  1  0.37944600  0.29596700  0.93558200  1
  P  P9  1  0.87802400  0.79571600  0.43542900  1
  P  P10  1  0.62202100  0.70432100  0.06454800  1
  P  P11  1  0.12053000  0.20400000  0.56444700  1
  H  H12  1  0.16297800  0.19935900  0.14148400  1
  H  H13  1  0.66454900  0.69862100  0.64194300  1
  H  H14  1  0.83573500  0.80116000  0.85812800  1
  H  H15  1  0.33668100  0.30087200  0.35844700  1
  O  O16  1  0.45317000  0.38387900  0.33754200  1
  O  O17  1  0.95396300  0.88327000  0.83812300  1
  O  O18  1  0.54645100  0.61644400  0.66194700  1
  O  O19  1  0.04645000  0.11636100  0.16239500  1
  O  O20  1  0.43494700  0.29069100  0.08734500  1
  O  O21  1  0.93347700  0.79109700  0.58682700  1
  O  O22  1  0.56653200  0.70899600  0.91316000  1
  O  O23  1  0.06506200  0.20924000  0.41267500  1
  O  O24  1  0.80445100  0.50460800  0.15760200  1
  O  O25  1  0.30324100  0.00337500  0.65715000  1
  O  O26  1  0.19674100  0.49654600  0.84287500  1
  O  O27  1  0.69555600  0.99543500  0.34234000  1
  O  O28  1  0.20718400  0.16218100  0.91043300  1
  O  O29  1  0.70685500  0.66118800  0.41025800  1
  O  O30  1  0.79307600  0.83897200  0.08969400  1
  O  O31  1  0.29290100  0.33764300  0.58965700  1
  O  O32  1  0.65579100  0.22774300  0.88915800  1
  O  O33  1  0.15515900  0.72752700  0.38927800  1
  O  O34  1  0.34490300  0.77251800  0.11069300  1
  O  O35  1  0.84416200  0.27226500  0.61085700  1
