# generated using pymatgen
data_La4Al2O9
_symmetry_space_group_name_H-M   'P 1'
_cell_length_a   11.13643900
_cell_length_b   7.95169700
_cell_length_c   11.60357701
_cell_angle_alpha   70.53224120
_cell_angle_beta   90.00000000
_cell_angle_gamma   90.00000000
_symmetry_Int_Tables_number   1
_chemical_formula_structural   La4Al2O9
_chemical_formula_sum   'La16 Al8 O36'
_cell_volume   968.79317288
_cell_formula_units_Z   4
loop_
 _symmetry_equiv_pos_site_id
 _symmetry_equiv_pos_as_xyz
  1  'x, y, z'
loop_
 _atom_site_type_symbol
 _atom_site_label
 _atom_site_symmetry_multiplicity
 _atom_site_fract_x
 _atom_site_fract_y
 _atom_site_fract_z
 _atom_site_occupancy
  La  La0  1  0.91230000  0.97428800  0.80973100  1
  La  La1  1  0.58770000  0.97428800  0.30973100  1
  La  La2  1  0.12422500  0.83703700  0.58383900  1
  La  La3  1  0.62528100  0.66503200  0.92950300  1
  La  La4  1  0.37577500  0.83703700  0.08383900  1
  La  La5  1  0.87471900  0.66503200  0.42950300  1
  La  La6  1  0.39943700  0.52453600  0.70983000  1
  La  La7  1  0.89943700  0.47546400  0.79017000  1
  La  La8  1  0.10056300  0.52453600  0.20983000  1
  La  La9  1  0.60056300  0.47546400  0.29017000  1
  La  La10  1  0.12528100  0.33496800  0.57049700  1
  La  La11  1  0.62422500  0.16296300  0.91616100  1
  La  La12  1  0.37471900  0.33496800  0.07049700  1
  La  La13  1  0.87577500  0.16296300  0.41616100  1
  La  La14  1  0.41230000  0.02571200  0.69026900  1
  La  La15  1  0.08770000  0.02571200  0.19026900  1
  Al  Al16  1  0.68824500  0.77459000  0.62885500  1
  Al  Al17  1  0.18612900  0.64937800  0.88131900  1
  Al  Al18  1  0.81175500  0.77459000  0.12885500  1
  Al  Al19  1  0.31387100  0.64937800  0.38131900  1
  Al  Al20  1  0.68612900  0.35062200  0.61868100  1
  Al  Al21  1  0.18824500  0.22541000  0.87114500  1
  Al  Al22  1  0.81387100  0.35062200  0.11868100  1
  Al  Al23  1  0.31175500  0.22541000  0.37114500  1
  O  O24  1  0.76651900  0.91951500  0.98368500  1
  O  O25  1  0.49717400  0.92357200  0.89379600  1
  O  O26  1  0.73348100  0.91951500  0.48368500  1
  O  O27  1  0.27414200  0.78246100  0.75505800  1
  O  O28  1  0.77237900  0.76944300  0.76163200  1
  O  O29  1  0.00282600  0.92357200  0.39379600  1
  O  O30  1  0.53423900  0.78274400  0.66437500  1
  O  O31  1  0.03472000  0.69863500  0.83274100  1
  O  O32  1  0.22585800  0.78246100  0.25505800  1
  O  O33  1  0.72762100  0.76944300  0.26163200  1
  O  O34  1  0.27131200  0.63851400  0.53109700  1
  O  O35  1  0.96576100  0.78274400  0.16437500  1
  O  O36  1  0.73561400  0.56574400  0.61748100  1
  O  O37  1  0.46528000  0.69863500  0.33274100  1
  O  O38  1  0.50702000  0.43216600  0.89613900  1
  O  O39  1  0.00702000  0.56783400  0.60386100  1
  O  O40  1  0.23561400  0.43425600  0.88251900  1
  O  O41  1  0.77131200  0.36148600  0.96890300  1
  O  O42  1  0.22868800  0.63851400  0.03109700  1
  O  O43  1  0.76438600  0.56574400  0.11748100  1
  O  O44  1  0.99298000  0.43216600  0.39613900  1
  O  O45  1  0.49298000  0.56783400  0.10386100  1
  O  O46  1  0.53472000  0.30136500  0.66725900  1
  O  O47  1  0.26438600  0.43425600  0.38251900  1
  O  O48  1  0.03423900  0.21725600  0.83562500  1
  O  O49  1  0.72868800  0.36148600  0.46890300  1
  O  O50  1  0.27237900  0.23055700  0.73836800  1
  O  O51  1  0.77414200  0.21753900  0.74494200  1
  O  O52  1  0.96528000  0.30136500  0.16725900  1
  O  O53  1  0.46576100  0.21725600  0.33562500  1
  O  O54  1  0.99717400  0.07642800  0.60620400  1
  O  O55  1  0.22762100  0.23055700  0.23836800  1
  O  O56  1  0.72585800  0.21753900  0.24494200  1
  O  O57  1  0.26651900  0.08048500  0.51631500  1
  O  O58  1  0.50282600  0.07642800  0.10620400  1
  O  O59  1  0.23348100  0.08048500  0.01631500  1
