# generated using pymatgen
data_K3LiMn4(MoO4)6
_symmetry_space_group_name_H-M   'P 1'
_cell_length_a   10.88054965
_cell_length_b   10.88054965
_cell_length_c   10.88054972
_cell_angle_alpha   85.72036341
_cell_angle_beta   85.72036341
_cell_angle_gamma   85.72035966
_symmetry_Int_Tables_number   1
_chemical_formula_structural   K3LiMn4(MoO4)6
_chemical_formula_sum   'K6 Li2 Mn8 Mo12 O48'
_cell_volume   1277.84326110
_cell_formula_units_Z   2
loop_
 _symmetry_equiv_pos_site_id
 _symmetry_equiv_pos_as_xyz
  1  'x, y, z'
loop_
 _atom_site_type_symbol
 _atom_site_label
 _atom_site_symmetry_multiplicity
 _atom_site_fract_x
 _atom_site_fract_y
 _atom_site_fract_z
 _atom_site_occupancy
  K  K0  1  0.69882000  0.20067800  0.43491000  1
  K  K1  1  0.70067800  0.19882000  0.93491000  1
  K  K2  1  0.20067800  0.43491000  0.69882000  1
  K  K3  1  0.43491000  0.69882000  0.20067800  1
  K  K4  1  0.93491000  0.70067800  0.19882000  1
  K  K5  1  0.19882000  0.93491000  0.70067800  1
  Li  Li6  1  0.24913900  0.24913900  0.24913900  1
  Li  Li7  1  0.74913900  0.74913900  0.74913900  1
  Mn  Mn8  1  0.00311800  0.00311800  0.00311800  1
  Mn  Mn9  1  0.46291800  0.03517600  0.25007200  1
  Mn  Mn10  1  0.03517600  0.25007200  0.46291800  1
  Mn  Mn11  1  0.25007200  0.46291800  0.03517600  1
  Mn  Mn12  1  0.50311800  0.50311800  0.50311800  1
  Mn  Mn13  1  0.75007200  0.53517600  0.96291800  1
  Mn  Mn14  1  0.96291800  0.75007200  0.53517600  1
  Mn  Mn15  1  0.53517600  0.96291800  0.75007200  1
  Mo  Mo16  1  0.85113700  0.03798200  0.68750900  1
  Mo  Mo17  1  0.31243300  0.14935500  0.95999600  1
  Mo  Mo18  1  0.35113700  0.18750900  0.53798200  1
  Mo  Mo19  1  0.95999600  0.31243300  0.14935500  1
  Mo  Mo20  1  0.53798200  0.35113700  0.18750900  1
  Mo  Mo21  1  0.81243300  0.45999600  0.64935500  1
  Mo  Mo22  1  0.18750900  0.53798200  0.35113700  1
  Mo  Mo23  1  0.45999600  0.64935500  0.81243300  1
  Mo  Mo24  1  0.03798200  0.68750900  0.85113700  1
  Mo  Mo25  1  0.64935500  0.81243300  0.45999600  1
  Mo  Mo26  1  0.68750900  0.85113700  0.03798200  1
  Mo  Mo27  1  0.14935500  0.95999600  0.31243300  1
  O  O28  1  0.41589500  0.05051200  0.61844300  1
  O  O29  1  0.33055900  0.12411300  0.12358400  1
  O  O30  1  0.12411300  0.12358400  0.33055900  1
  O  O31  1  0.17725800  0.07703700  0.92252200  1
  O  O32  1  0.45061900  0.08449500  0.88156700  1
  O  O33  1  0.68838100  0.08633900  0.69616500  1
  O  O34  1  0.91990500  0.07395400  0.82466600  1
  O  O35  1  0.37970000  0.17056800  0.37472000  1
  O  O36  1  0.91589500  0.11844300  0.55051200  1
  O  O37  1  0.58633900  0.18838100  0.19616500  1
  O  O38  1  0.18838100  0.19616500  0.58633900  1
  O  O39  1  0.92252200  0.17725800  0.07703700  1
  O  O40  1  0.12358400  0.33055900  0.12411300  1
  O  O41  1  0.41990500  0.32466600  0.57395400  1
  O  O42  1  0.91393900  0.30155300  0.31256200  1
  O  O43  1  0.30155300  0.31256200  0.91393900  1
  O  O44  1  0.17056800  0.37472000  0.37970000  1
  O  O45  1  0.37472000  0.37970000  0.17056800  1
  O  O46  1  0.61844300  0.41589500  0.05051200  1
  O  O47  1  0.57395400  0.41990500  0.32466600  1
  O  O48  1  0.95061900  0.38156700  0.58449500  1
  O  O49  1  0.67725800  0.42252200  0.57703700  1
  O  O50  1  0.88156700  0.45061900  0.08449500  1
  O  O51  1  0.80155300  0.41393900  0.81256200  1
  O  O52  1  0.19616500  0.58633900  0.18838100  1
  O  O53  1  0.11844300  0.55051200  0.91589500  1
  O  O54  1  0.32466600  0.57395400  0.41990500  1
  O  O55  1  0.05051200  0.61844300  0.41589500  1
  O  O56  1  0.42252200  0.57703700  0.67725800  1
  O  O57  1  0.38156700  0.58449500  0.95061900  1
  O  O58  1  0.62358400  0.62411300  0.83055900  1
  O  O59  1  0.83055900  0.62358400  0.62411300  1
  O  O60  1  0.69616500  0.68838100  0.08633900  1
  O  O61  1  0.08633900  0.69616500  0.68838100  1
  O  O62  1  0.57703700  0.67725800  0.42252200  1
  O  O63  1  0.87472000  0.67056800  0.87970000  1
  O  O64  1  0.07395400  0.82466600  0.91990500  1
  O  O65  1  0.81256200  0.80155300  0.41393900  1
  O  O66  1  0.41393900  0.81256200  0.80155300  1
  O  O67  1  0.08449500  0.88156700  0.45061900  1
  O  O68  1  0.62411300  0.83055900  0.62358400  1
  O  O69  1  0.07703700  0.92252200  0.17725800  1
  O  O70  1  0.31256200  0.91393900  0.30155300  1
  O  O71  1  0.55051200  0.91589500  0.11844300  1
  O  O72  1  0.82466600  0.91990500  0.07395400  1
  O  O73  1  0.87970000  0.87472000  0.67056800  1
  O  O74  1  0.67056800  0.87970000  0.87472000  1
  O  O75  1  0.58449500  0.95061900  0.38156700  1
