# generated using pymatgen
data_K(WO3)4
_symmetry_space_group_name_H-M   'P 1'
_cell_length_a   7.51551756
_cell_length_b   7.51551756
_cell_length_c   15.45914900
_cell_angle_alpha   90.00000000
_cell_angle_beta   90.00000000
_cell_angle_gamma   119.99999611
_symmetry_Int_Tables_number   1
_chemical_formula_structural   K(WO3)4
_chemical_formula_sum   'K3 W12 O36'
_cell_volume   756.19537926
_cell_formula_units_Z   3
loop_
 _symmetry_equiv_pos_site_id
 _symmetry_equiv_pos_as_xyz
  1  'x, y, z'
loop_
 _atom_site_type_symbol
 _atom_site_label
 _atom_site_symmetry_multiplicity
 _atom_site_fract_x
 _atom_site_fract_y
 _atom_site_fract_z
 _atom_site_occupancy
  K  K0  1  0.00000000  0.00000000  0.25052000  1
  K  K1  1  0.00000000  0.00000000  0.52730200  1
  K  K2  1  0.00000000  0.00000000  0.80462200  1
  W  W3  1  0.99990400  0.49995200  0.37636400  1
  W  W4  1  0.99980000  0.49990000  0.87673400  1
  W  W5  1  0.00007900  0.50004000  0.12556500  1
  W  W6  1  0.99988400  0.49994200  0.62675200  1
  W  W7  1  0.50010000  0.49990000  0.87673400  1
  W  W8  1  0.50004800  0.49995200  0.37636400  1
  W  W9  1  0.50005800  0.49994200  0.62675200  1
  W  W10  1  0.49996000  0.50004000  0.12556500  1
  W  W11  1  0.50005800  0.00011600  0.62675200  1
  W  W12  1  0.49996000  0.99992100  0.12556500  1
  W  W13  1  0.50010000  0.00020000  0.87673400  1
  W  W14  1  0.50004800  0.00009600  0.37636400  1
  O  O15  1  0.98607600  0.49303800  0.00147100  1
  O  O16  1  0.98506300  0.49253100  0.50067400  1
  O  O17  1  0.21227300  0.78772700  0.12342500  1
  O  O18  1  0.21062700  0.78937300  0.62097600  1
  O  O19  1  0.21141100  0.78858900  0.87900200  1
  O  O20  1  0.21066700  0.78933300  0.38113900  1
  O  O21  1  0.21141100  0.42282100  0.87900200  1
  O  O22  1  0.21066700  0.42133500  0.38113900  1
  O  O23  1  0.21062700  0.42125400  0.62097600  1
  O  O24  1  0.21227300  0.42454500  0.12342500  1
  O  O25  1  0.50696200  0.01392400  0.00147100  1
  O  O26  1  0.50746900  0.01493700  0.50067400  1
  O  O27  1  0.57717900  0.78858900  0.87900200  1
  O  O28  1  0.57866500  0.78933300  0.38113900  1
  O  O29  1  0.57545500  0.78772700  0.12342500  1
  O  O30  1  0.57874600  0.78937300  0.62097600  1
  O  O31  1  0.50746900  0.49253100  0.50067400  1
  O  O32  1  0.50696200  0.49303800  0.00147100  1
  O  O33  1  0.49267100  0.50732900  0.25208300  1
  O  O34  1  0.49299300  0.50700700  0.75041900  1
  O  O35  1  0.42134100  0.21067100  0.37207400  1
  O  O36  1  0.42264200  0.21132100  0.87091400  1
  O  O37  1  0.42407700  0.21203900  0.13178400  1
  O  O38  1  0.42111700  0.21055800  0.62969300  1
  O  O39  1  0.49267100  0.98534100  0.25208300  1
  O  O40  1  0.49299300  0.98598600  0.75041900  1
  O  O41  1  0.78932900  0.57865900  0.37207400  1
  O  O42  1  0.78867900  0.57735800  0.87091400  1
  O  O43  1  0.78796100  0.57592300  0.13178400  1
  O  O44  1  0.78944200  0.57888300  0.62969300  1
  O  O45  1  0.78796100  0.21203900  0.13178400  1
  O  O46  1  0.78944200  0.21055800  0.62969300  1
  O  O47  1  0.78932900  0.21067100  0.37207400  1
  O  O48  1  0.78867900  0.21132100  0.87091400  1
  O  O49  1  0.01465900  0.50732900  0.25208300  1
  O  O50  1  0.01401400  0.50700700  0.75041900  1
