# generated using pymatgen
data_Na5FeO4
_symmetry_space_group_name_H-M   'P 1'
_cell_length_a   10.35101100
_cell_length_b   10.60593200
_cell_length_c   10.72719000
_cell_angle_alpha   90.00000000
_cell_angle_beta   90.00000000
_cell_angle_gamma   90.00000000
_symmetry_Int_Tables_number   1
_chemical_formula_structural   Na5FeO4
_chemical_formula_sum   'Na40 Fe8 O32'
_cell_volume   1177.65364694
_cell_formula_units_Z   8
loop_
 _symmetry_equiv_pos_site_id
 _symmetry_equiv_pos_as_xyz
  1  'x, y, z'
loop_
 _atom_site_type_symbol
 _atom_site_label
 _atom_site_symmetry_multiplicity
 _atom_site_fract_x
 _atom_site_fract_y
 _atom_site_fract_z
 _atom_site_occupancy
  Na  Na0  1  0.85223200  0.38555900  0.10332600  1
  Na  Na1  1  0.35223200  0.11444100  0.10332600  1
  Na  Na2  1  0.16447400  0.89259400  0.11322600  1
  Na  Na3  1  0.66447400  0.60740600  0.11322600  1
  Na  Na4  1  0.63488100  0.15334600  0.11812200  1
  Na  Na5  1  0.13488100  0.34665400  0.11812200  1
  Na  Na6  1  0.91062500  0.12300700  0.14621300  1
  Na  Na7  1  0.41062500  0.37699300  0.14621300  1
  Na  Na8  1  0.59970100  0.87923100  0.16065800  1
  Na  Na9  1  0.09970100  0.62076900  0.16065800  1
  Na  Na10  1  0.09970100  0.12076900  0.33934200  1
  Na  Na11  1  0.59970100  0.37923100  0.33934200  1
  Na  Na12  1  0.41062500  0.87699300  0.35378700  1
  Na  Na13  1  0.91062500  0.62300700  0.35378700  1
  Na  Na14  1  0.63488100  0.65334600  0.38187800  1
  Na  Na15  1  0.13488100  0.84665400  0.38187800  1
  Na  Na16  1  0.16447400  0.39259400  0.38677400  1
  Na  Na17  1  0.66447400  0.10740600  0.38677400  1
  Na  Na18  1  0.85223200  0.88555900  0.39667400  1
  Na  Na19  1  0.35223200  0.61444100  0.39667400  1
  Na  Na20  1  0.64776800  0.38555900  0.60332600  1
  Na  Na21  1  0.14776800  0.11444100  0.60332600  1
  Na  Na22  1  0.33552600  0.89259400  0.61322600  1
  Na  Na23  1  0.83552600  0.60740600  0.61322600  1
  Na  Na24  1  0.36511900  0.34665400  0.61812200  1
  Na  Na25  1  0.86511900  0.15334600  0.61812200  1
  Na  Na26  1  0.08937500  0.37699300  0.64621300  1
  Na  Na27  1  0.58937500  0.12300700  0.64621300  1
  Na  Na28  1  0.90029900  0.87923100  0.66065800  1
  Na  Na29  1  0.40029900  0.62076900  0.66065800  1
  Na  Na30  1  0.90029900  0.37923100  0.83934200  1
  Na  Na31  1  0.40029900  0.12076900  0.83934200  1
  Na  Na32  1  0.58937500  0.62300700  0.85378700  1
  Na  Na33  1  0.08937500  0.87699300  0.85378700  1
  Na  Na34  1  0.36511900  0.84665400  0.88187800  1
  Na  Na35  1  0.86511900  0.65334600  0.88187800  1
  Na  Na36  1  0.33552600  0.39259400  0.88677400  1
  Na  Na37  1  0.83552600  0.10740600  0.88677400  1
  Na  Na38  1  0.64776800  0.88555900  0.89667400  1
  Na  Na39  1  0.14776800  0.61444100  0.89667400  1
  Fe  Fe40  1  0.88376800  0.85448800  0.12749600  1
  Fe  Fe41  1  0.38376800  0.64551200  0.12749600  1
  Fe  Fe42  1  0.88376800  0.35448800  0.37250400  1
  Fe  Fe43  1  0.38376800  0.14551200  0.37250400  1
  Fe  Fe44  1  0.61623200  0.85448800  0.62749600  1
  Fe  Fe45  1  0.11623200  0.64551200  0.62749600  1
  Fe  Fe46  1  0.61623200  0.35448800  0.87250400  1
  Fe  Fe47  1  0.11623200  0.14551200  0.87250400  1
  O  O48  1  0.49774000  0.73967700  0.01900400  1
  O  O49  1  0.99774000  0.76032300  0.01900400  1
  O  O50  1  0.76954900  0.97738300  0.04963400  1
  O  O51  1  0.26954900  0.52261700  0.04963400  1
  O  O52  1  0.99413500  0.94923000  0.24134400  1
  O  O53  1  0.49413500  0.55077000  0.24134400  1
  O  O54  1  0.77512300  0.75484700  0.23592800  1
  O  O55  1  0.27512300  0.74515300  0.23592800  1
  O  O56  1  0.77512300  0.25484700  0.26407200  1
  O  O57  1  0.27512300  0.24515300  0.26407200  1
  O  O58  1  0.99413500  0.44923000  0.25865600  1
  O  O59  1  0.49413500  0.05077000  0.25865600  1
  O  O60  1  0.76954900  0.47738300  0.45036600  1
  O  O61  1  0.26954900  0.02261700  0.45036600  1
  O  O62  1  0.49774000  0.23967700  0.48099600  1
  O  O63  1  0.99774000  0.26032300  0.48099600  1
  O  O64  1  0.00226000  0.73967700  0.51900400  1
  O  O65  1  0.50226000  0.76032300  0.51900400  1
  O  O66  1  0.73045100  0.97738300  0.54963400  1
  O  O67  1  0.23045100  0.52261700  0.54963400  1
  O  O68  1  0.00586500  0.55077000  0.74134400  1
  O  O69  1  0.50586500  0.94923000  0.74134400  1
  O  O70  1  0.72487700  0.75484700  0.73592800  1
  O  O71  1  0.22487700  0.74515300  0.73592800  1
  O  O72  1  0.72487700  0.25484700  0.76407200  1
  O  O73  1  0.22487700  0.24515300  0.76407200  1
  O  O74  1  0.00586500  0.05077000  0.75865600  1
  O  O75  1  0.50586500  0.44923000  0.75865600  1
  O  O76  1  0.23045100  0.02261700  0.95036600  1
  O  O77  1  0.73045100  0.47738300  0.95036600  1
  O  O78  1  0.00226000  0.23967700  0.98099600  1
  O  O79  1  0.50226000  0.26032300  0.98099600  1
