# generated using pymatgen
data_Li3NbS4
_symmetry_space_group_name_H-M   'P 1'
_cell_length_a   8.96631954
_cell_length_b   8.96631954
_cell_length_c   8.96631954
_cell_angle_alpha   109.47122063
_cell_angle_beta   109.47122063
_cell_angle_gamma   109.47122063
_symmetry_Int_Tables_number   1
_chemical_formula_structural   Li3NbS4
_chemical_formula_sum   'Li12 Nb4 S16'
_cell_volume   554.90769279
_cell_formula_units_Z   4
loop_
 _symmetry_equiv_pos_site_id
 _symmetry_equiv_pos_as_xyz
  1  'x, y, z'
loop_
 _atom_site_type_symbol
 _atom_site_label
 _atom_site_symmetry_multiplicity
 _atom_site_fract_x
 _atom_site_fract_y
 _atom_site_fract_z
 _atom_site_occupancy
  Li  Li0  1  0.00000000  0.49910300  0.23864700  1
  Li  Li1  1  0.49910300  0.00000000  0.23864700  1
  Li  Li2  1  0.76135300  0.26045600  0.76135300  1
  Li  Li3  1  0.73954400  0.50089700  0.50089700  1
  Li  Li4  1  0.76135300  0.76135300  0.26045600  1
  Li  Li5  1  0.23864700  0.49910300  0.00000000  1
  Li  Li6  1  0.50089700  0.50089700  0.73954400  1
  Li  Li7  1  0.49910300  0.23864700  0.00000000  1
  Li  Li8  1  0.00000000  0.23864700  0.49910300  1
  Li  Li9  1  0.50089700  0.73954400  0.50089700  1
  Li  Li10  1  0.23864700  0.00000000  0.49910300  1
  Li  Li11  1  0.26045600  0.76135300  0.76135300  1
  Nb  Nb12  1  0.71766000  0.00000000  0.00000000  1
  Nb  Nb13  1  0.28234000  0.28234000  0.28234000  1
  Nb  Nb14  1  0.00000000  0.71766000  0.00000000  1
  Nb  Nb15  1  0.00000000  0.00000000  0.71766000  1
  S  S16  1  0.75924700  0.24469300  0.24469300  1
  S  S17  1  0.75530700  0.51455400  0.00000000  1
  S  S18  1  0.22797900  0.00000000  0.00000000  1
  S  S19  1  0.00000000  0.22797900  0.00000000  1
  S  S20  1  0.00000000  0.00000000  0.22797900  1
  S  S21  1  0.48544600  0.48544600  0.24075300  1
  S  S22  1  0.48544600  0.24075300  0.48544600  1
  S  S23  1  0.51455400  0.00000000  0.75530700  1
  S  S24  1  0.00000000  0.51455400  0.75530700  1
  S  S25  1  0.24075300  0.48544600  0.48544600  1
  S  S26  1  0.24469300  0.75924700  0.24469300  1
  S  S27  1  0.75530700  0.00000000  0.51455400  1
  S  S28  1  0.24469300  0.24469300  0.75924700  1
  S  S29  1  0.77202100  0.77202100  0.77202100  1
  S  S30  1  0.51455400  0.75530700  0.00000000  1
  S  S31  1  0.00000000  0.75530700  0.51455400  1
