# generated using pymatgen
data_P2Pt
_symmetry_space_group_name_H-M   'P 1'
_cell_length_a   5.75477900
_cell_length_b   5.75477900
_cell_length_c   5.75477900
_cell_angle_alpha   90.00000000
_cell_angle_beta   90.00000000
_cell_angle_gamma   90.00000000
_symmetry_Int_Tables_number   1
_chemical_formula_structural   P2Pt
_chemical_formula_sum   'P8 Pt4'
_cell_volume   190.58378614
_cell_formula_units_Z   4
loop_
 _symmetry_equiv_pos_site_id
 _symmetry_equiv_pos_as_xyz
  1  'x, y, z'
loop_
 _atom_site_type_symbol
 _atom_site_label
 _atom_site_symmetry_multiplicity
 _atom_site_fract_x
 _atom_site_fract_y
 _atom_site_fract_z
 _atom_site_occupancy
  P  P0  1  0.38996500  0.38996500  0.38996500  1
  P  P1  1  0.11003500  0.61003500  0.88996500  1
  P  P2  1  0.88996500  0.11003500  0.61003500  1
  P  P3  1  0.61003500  0.88996500  0.11003500  1
  P  P4  1  0.61003500  0.61003500  0.61003500  1
  P  P5  1  0.88996500  0.38996500  0.11003500  1
  P  P6  1  0.11003500  0.88996500  0.38996500  1
  P  P7  1  0.38996500  0.11003500  0.88996500  1
  Pt  Pt8  1  0.00000000  0.00000000  0.00000000  1
  Pt  Pt9  1  0.50000000  0.00000000  0.50000000  1
  Pt  Pt10  1  0.50000000  0.50000000  0.00000000  1
  Pt  Pt11  1  0.00000000  0.50000000  0.50000000  1
