# generated using pymatgen
data_Nd2P3(HO2)5
_symmetry_space_group_name_H-M   'P 1'
_cell_length_a   8.04384900
_cell_length_b   9.73222300
_cell_length_c   13.60082054
_cell_angle_alpha   66.40674546
_cell_angle_beta   90.00000000
_cell_angle_gamma   90.00000000
_symmetry_Int_Tables_number   1
_chemical_formula_structural   Nd2P3(HO2)5
_chemical_formula_sum   'Nd8 P12 H20 O40'
_cell_volume   975.73261686
_cell_formula_units_Z   4
loop_
 _symmetry_equiv_pos_site_id
 _symmetry_equiv_pos_as_xyz
  1  'x, y, z'
loop_
 _atom_site_type_symbol
 _atom_site_label
 _atom_site_symmetry_multiplicity
 _atom_site_fract_x
 _atom_site_fract_y
 _atom_site_fract_z
 _atom_site_occupancy
  Nd  Nd0  1  0.08016700  0.81900000  0.23023000  1
  Nd  Nd1  1  0.41983300  0.81900000  0.73023000  1
  Nd  Nd2  1  0.91983300  0.18100000  0.76977000  1
  Nd  Nd3  1  0.58016700  0.18100000  0.26977000  1
  Nd  Nd4  1  0.21114600  0.59118800  0.03613300  1
  Nd  Nd5  1  0.28885400  0.59118800  0.53613300  1
  Nd  Nd6  1  0.78885400  0.40881200  0.96386700  1
  Nd  Nd7  1  0.71114600  0.40881200  0.46386700  1
  P  P8  1  0.19460300  0.23224900  0.10005800  1
  P  P9  1  0.30539700  0.23224900  0.60005800  1
  P  P10  1  0.80539700  0.76775100  0.89994200  1
  P  P11  1  0.69460300  0.76775100  0.39994200  1
  P  P12  1  0.24976800  0.94208900  0.94600300  1
  P  P13  1  0.25023200  0.94208900  0.44600300  1
  P  P14  1  0.75023200  0.05791100  0.05399700  1
  P  P15  1  0.74976800  0.05791100  0.55399700  1
  P  P16  1  0.11391800  0.46181200  0.32502400  1
  P  P17  1  0.38608200  0.46181200  0.82502400  1
  P  P18  1  0.88608200  0.53818800  0.67497600  1
  P  P19  1  0.61391800  0.53818800  0.17497600  1
  H  H20  1  0.26212800  0.20499800  0.01387400  1
  H  H21  1  0.23787200  0.20499800  0.51387400  1
  H  H22  1  0.73787200  0.79500200  0.98612600  1
  H  H23  1  0.76212800  0.79500200  0.48612600  1
  H  H24  1  0.38971400  0.99266900  0.98389000  1
  H  H25  1  0.11028600  0.99266900  0.48389000  1
  H  H26  1  0.61028600  0.00733100  0.01611000  1
  H  H27  1  0.88971400  0.00733100  0.51611000  1
  H  H28  1  0.23931100  0.35957700  0.32798400  1
  H  H29  1  0.26068900  0.35957700  0.82798400  1
  H  H30  1  0.76068900  0.64042300  0.67201600  1
  H  H31  1  0.73931100  0.64042300  0.17201600  1
  H  H32  1  0.47562100  0.87465400  0.23425100  1
  H  H33  1  0.02437900  0.87465400  0.73425100  1
  H  H34  1  0.52437900  0.12534600  0.76574900  1
  H  H35  1  0.97562100  0.12534600  0.26574900  1
  H  H36  1  0.42980000  0.76117100  0.17840200  1
  H  H37  1  0.07020000  0.76117100  0.67840200  1
  H  H38  1  0.57020000  0.23882900  0.82159800  1
  H  H39  1  0.92980000  0.23882900  0.32159800  1
  O  O40  1  0.33238500  0.30492600  0.14299500  1
  O  O41  1  0.16761500  0.30492600  0.64299500  1
  O  O42  1  0.66761500  0.69507400  0.85700500  1
  O  O43  1  0.83238500  0.69507400  0.35700500  1
  O  O44  1  0.05872300  0.35566400  0.05220500  1
  O  O45  1  0.44127700  0.35566400  0.55220500  1
  O  O46  1  0.94127700  0.64433600  0.94779500  1
  O  O47  1  0.55872300  0.64433600  0.44779500  1
  O  O48  1  0.12525400  0.08313500  0.17961700  1
  O  O49  1  0.37474600  0.08313500  0.67961700  1
  O  O50  1  0.87474600  0.91686500  0.82038300  1
  O  O51  1  0.62525400  0.91686500  0.32038300  1
  O  O52  1  0.14914400  0.83858600  0.04553700  1
  O  O53  1  0.35085600  0.83858600  0.54553700  1
  O  O54  1  0.85085600  0.16141400  0.95446300  1
  O  O55  1  0.64914400  0.16141400  0.45446300  1
  O  O56  1  0.31447300  0.83493700  0.89471300  1
  O  O57  1  0.18552700  0.83493700  0.39471300  1
  O  O58  1  0.68552700  0.16506300  0.10528700  1
  O  O59  1  0.81447300  0.16506300  0.60528700  1
  O  O60  1  0.16048200  0.08100500  0.87003800  1
  O  O61  1  0.33951800  0.08100500  0.37003800  1
  O  O62  1  0.83951800  0.91899500  0.12996200  1
  O  O63  1  0.66048200  0.91899500  0.62996200  1
  O  O64  1  0.17461600  0.55871800  0.38371700  1
  O  O65  1  0.32538400  0.55871800  0.88371700  1
  O  O66  1  0.82538400  0.44128200  0.61628300  1
  O  O67  1  0.67461600  0.44128200  0.11628300  1
  O  O68  1  0.08514600  0.56981200  0.20640100  1
  O  O69  1  0.41485400  0.56981200  0.70640100  1
  O  O70  1  0.91485400  0.43018800  0.79359900  1
  O  O71  1  0.58514600  0.43018800  0.29359900  1
  O  O72  1  0.95820100  0.36952500  0.37591700  1
  O  O73  1  0.54179900  0.36952500  0.87591700  1
  O  O74  1  0.04179900  0.63047500  0.62408300  1
  O  O75  1  0.45820100  0.63047500  0.12408300  1
  O  O76  1  0.38494500  0.83883400  0.20146100  1
  O  O77  1  0.11505500  0.83883400  0.70146100  1
  O  O78  1  0.61505500  0.16116600  0.79853900  1
  O  O79  1  0.88494500  0.16116600  0.29853900  1
