# generated using pymatgen
data_Mg3(AsO4)2
_symmetry_space_group_name_H-M   'P 1'
_cell_length_a   8.45371100
_cell_length_b   5.36565200
_cell_length_c   9.14811449
_cell_angle_alpha   60.01774760
_cell_angle_beta   90.00000000
_cell_angle_gamma   90.00000000
_symmetry_Int_Tables_number   1
_chemical_formula_structural   Mg3(AsO4)2
_chemical_formula_sum   'Mg6 As4 O16'
_cell_volume   359.42622544
_cell_formula_units_Z   2
loop_
 _symmetry_equiv_pos_site_id
 _symmetry_equiv_pos_as_xyz
  1  'x, y, z'
loop_
 _atom_site_type_symbol
 _atom_site_label
 _atom_site_symmetry_multiplicity
 _atom_site_fract_x
 _atom_site_fract_y
 _atom_site_fract_z
 _atom_site_occupancy
  Mg  Mg0  1  0.00000000  0.50000000  0.50000000  1
  Mg  Mg1  1  0.35549100  0.49963500  0.60119500  1
  Mg  Mg2  1  0.85549100  0.50036500  0.89880500  1
  Mg  Mg3  1  0.50000000  0.50000000  0.00000000  1
  Mg  Mg4  1  0.14450900  0.49963500  0.10119500  1
  Mg  Mg5  1  0.64450900  0.50036500  0.39880500  1
  As  As6  1  0.30608400  0.84838100  0.19542000  1
  As  As7  1  0.80608400  0.15161900  0.30458000  1
  As  As8  1  0.19391600  0.84838100  0.69542000  1
  As  As9  1  0.69391600  0.15161900  0.80458000  1
  O  O10  1  0.87356600  0.33058100  0.74093500  1
  O  O11  1  0.43674400  0.70003500  0.36152700  1
  O  O12  1  0.64644900  0.23439800  0.95830300  1
  O  O13  1  0.80402300  0.78778100  0.38374600  1
  O  O14  1  0.14644900  0.76560200  0.54169700  1
  O  O15  1  0.37356600  0.66941900  0.75906500  1
  O  O16  1  0.30402300  0.21221900  0.11625400  1
  O  O17  1  0.93674400  0.29996500  0.13847300  1
  O  O18  1  0.06325600  0.70003500  0.86152700  1
  O  O19  1  0.69597700  0.78778100  0.88374600  1
  O  O20  1  0.62643400  0.33058100  0.24093500  1
  O  O21  1  0.85355100  0.23439800  0.45830300  1
  O  O22  1  0.19597700  0.21221900  0.61625400  1
  O  O23  1  0.35355100  0.76560200  0.04169700  1
  O  O24  1  0.56325600  0.29996500  0.63847300  1
  O  O25  1  0.12643400  0.66941900  0.25906500  1
