# generated using pymatgen
data_CsUF6
_symmetry_space_group_name_H-M   'P 1'
_cell_length_a   5.56793942
_cell_length_b   5.56793942
_cell_length_c   5.56793948
_cell_angle_alpha   95.70964905
_cell_angle_beta   95.70964905
_cell_angle_gamma   95.70964876
_symmetry_Int_Tables_number   1
_chemical_formula_structural   CsUF6
_chemical_formula_sum   'Cs1 U1 F6'
_cell_volume   169.86224800
_cell_formula_units_Z   1
loop_
 _symmetry_equiv_pos_site_id
 _symmetry_equiv_pos_as_xyz
  1  'x, y, z'
loop_
 _atom_site_type_symbol
 _atom_site_label
 _atom_site_symmetry_multiplicity
 _atom_site_fract_x
 _atom_site_fract_y
 _atom_site_fract_z
 _atom_site_occupancy
  Cs  Cs0  1  0.50000000  0.50000000  0.50000000  1
  U  U1  1  0.00000000  0.00000000  0.00000000  1
  F  F2  1  0.31290400  0.91890200  0.20209400  1
  F  F3  1  0.20209400  0.31290400  0.91890200  1
  F  F4  1  0.08109800  0.79790600  0.68709600  1
  F  F5  1  0.79790600  0.68709600  0.08109800  1
  F  F6  1  0.68709600  0.08109800  0.79790600  1
  F  F7  1  0.91890200  0.20209400  0.31290400  1
