# generated using pymatgen
data_Th2TeN2
_symmetry_space_group_name_H-M   'P 1'
_cell_length_a   7.19691265
_cell_length_b   7.19691265
_cell_length_c   7.19691265
_cell_angle_alpha   146.82897882
_cell_angle_beta   146.82897882
_cell_angle_gamma   47.61707389
_symmetry_Int_Tables_number   1
_chemical_formula_structural   Th2TeN2
_chemical_formula_sum   'Th2 Te1 N2'
_cell_volume   111.15270703
_cell_formula_units_Z   1
loop_
 _symmetry_equiv_pos_site_id
 _symmetry_equiv_pos_as_xyz
  1  'x, y, z'
loop_
 _atom_site_type_symbol
 _atom_site_label
 _atom_site_symmetry_multiplicity
 _atom_site_fract_x
 _atom_site_fract_y
 _atom_site_fract_z
 _atom_site_occupancy
  Th  Th0  1  0.33666300  0.33666300  0.00000000  1
  Th  Th1  1  0.66333700  0.66333700  0.00000000  1
  Te  Te2  1  0.00000000  0.00000000  0.00000000  1
  N  N3  1  0.25000000  0.75000000  0.50000000  1
  N  N4  1  0.75000000  0.25000000  0.50000000  1
