# generated using pymatgen
data_Li4V(BO3)2
_symmetry_space_group_name_H-M   'P 1'
_cell_length_a   3.38516800
_cell_length_b   9.27339300
_cell_length_c   15.76375601
_cell_angle_alpha   89.99633566
_cell_angle_beta   90.00003147
_cell_angle_gamma   90.00006474
_symmetry_Int_Tables_number   1
_chemical_formula_structural   Li4V(BO3)2
_chemical_formula_sum   'Li16 V4 B8 O24'
_cell_volume   494.85572120
_cell_formula_units_Z   4
loop_
 _symmetry_equiv_pos_site_id
 _symmetry_equiv_pos_as_xyz
  1  'x, y, z'
loop_
 _atom_site_type_symbol
 _atom_site_label
 _atom_site_symmetry_multiplicity
 _atom_site_fract_x
 _atom_site_fract_y
 _atom_site_fract_z
 _atom_site_occupancy
  Li  Li0  1  0.49999700  0.05327100  0.08752900  1
  Li  Li1  1  0.50000000  0.05325500  0.58755900  1
  Li  Li2  1  0.00000100  0.44673100  0.33755900  1
  Li  Li3  1  0.00000000  0.44676600  0.83754000  1
  Li  Li4  1  0.99999900  0.55327200  0.16248400  1
  Li  Li5  1  0.99999800  0.55325400  0.66243100  1
  Li  Li6  1  0.49999800  0.94676300  0.41246800  1
  Li  Li7  1  0.49999900  0.94673200  0.91242900  1
  Li  Li8  1  0.99999800  0.19916500  0.00488100  1
  Li  Li9  1  0.99999900  0.19921600  0.50493100  1
  Li  Li10  1  0.49999800  0.30081700  0.25493800  1
  Li  Li11  1  0.49999900  0.30080800  0.75488400  1
  Li  Li12  1  0.49999800  0.69916700  0.24511500  1
  Li  Li13  1  0.49999900  0.69921100  0.74506600  1
  Li  Li14  1  0.99999800  0.80080000  0.49511600  1
  Li  Li15  1  0.99999800  0.80082200  0.99505400  1
  V  V16  1  0.99993700  0.99995700  0.74987400  1
  V  V17  1  0.49997900  0.49994800  0.50000800  1
  V  V18  1  0.00007500  0.00000000  0.25012600  1
  V  V19  1  0.49999900  0.49999300  0.00004500  1
  B  B20  1  0.50000000  0.20357400  0.38601500  1
  B  B21  1  0.50000100  0.20347000  0.88588700  1
  B  B22  1  0.99999900  0.29647800  0.13597500  1
  B  B23  1  0.00000300  0.29650600  0.63594700  1
  B  B24  1  0.00000200  0.70345200  0.36410900  1
  B  B25  1  0.00000000  0.70355800  0.86398800  1
  B  B26  1  0.49999800  0.79649900  0.11404500  1
  B  B27  1  0.50000100  0.79646600  0.61403000  1
  O  O28  1  0.49999800  0.11702800  0.31197300  1
  O  O29  1  0.50001000  0.11696800  0.81189300  1
  O  O30  1  0.00000300  0.38299200  0.06195500  1
  O  O31  1  0.00000900  0.38299200  0.56193700  1
  O  O32  1  0.00001200  0.61697800  0.43808400  1
  O  O33  1  0.00000200  0.61703100  0.93802600  1
  O  O34  1  0.49999800  0.88298700  0.18805900  1
  O  O35  1  0.50001200  0.88300400  0.68806600  1
  O  O36  1  0.99999800  0.14646900  0.12896700  1
  O  O37  1  0.00000200  0.14645100  0.62896100  1
  O  O38  1  0.50000700  0.35355400  0.37900800  1
  O  O39  1  0.50000100  0.35350200  0.87890400  1
  O  O40  1  0.49999900  0.64648100  0.12104700  1
  O  O41  1  0.49999500  0.64647000  0.62102300  1
  O  O42  1  0.99999700  0.85351200  0.37109600  1
  O  O43  1  0.00000200  0.85356900  0.87098500  1
  O  O44  1  0.49999800  0.13759800  0.46362500  1
  O  O45  1  0.49999600  0.13752100  0.96353300  1
  O  O46  1  0.99999900  0.36243700  0.21359300  1
  O  O47  1  0.99999900  0.36247300  0.71358200  1
  O  O48  1  0.99999800  0.63752300  0.28645300  1
  O  O49  1  0.99999800  0.63759600  0.78637700  1
  O  O50  1  0.49999900  0.86244900  0.03640700  1
  O  O51  1  0.49999800  0.86246400  0.53641700  1
