# generated using pymatgen
data_RbAuO2
_symmetry_space_group_name_H-M   'P 1'
_cell_length_a   6.64179613
_cell_length_b   6.64179613
_cell_length_c   6.13360500
_cell_angle_alpha   90.00000000
_cell_angle_beta   90.00000000
_cell_angle_gamma   136.88998771
_symmetry_Int_Tables_number   1
_chemical_formula_structural   RbAuO2
_chemical_formula_sum   'Rb2 Au2 O4'
_cell_volume   184.91098935
_cell_formula_units_Z   2
loop_
 _symmetry_equiv_pos_site_id
 _symmetry_equiv_pos_as_xyz
  1  'x, y, z'
loop_
 _atom_site_type_symbol
 _atom_site_label
 _atom_site_symmetry_multiplicity
 _atom_site_fract_x
 _atom_site_fract_y
 _atom_site_fract_z
 _atom_site_occupancy
  Rb  Rb0  1  0.30206600  0.69793400  0.75000000  1
  Rb  Rb1  1  0.69793400  0.30206600  0.25000000  1
  Au  Au2  1  0.99755600  0.00244400  0.25000000  1
  Au  Au3  1  0.00244400  0.99755600  0.75000000  1
  O  O4  1  0.89093400  0.10906600  0.50463600  1
  O  O5  1  0.10906600  0.89093400  0.49536400  1
  O  O6  1  0.89093400  0.10906600  0.99536400  1
  O  O7  1  0.10906600  0.89093400  0.00463600  1
