# generated using pymatgen
data_NaNiPO4
_symmetry_space_group_name_H-M   'P 1'
_cell_length_a   4.68862300
_cell_length_b   11.38230301
_cell_length_c   6.45840401
_cell_angle_alpha   90.00505916
_cell_angle_beta   89.99990675
_cell_angle_gamma   90.00010061
_symmetry_Int_Tables_number   1
_chemical_formula_structural   NaNiPO4
_chemical_formula_sum   'Na4 Ni4 P4 O16'
_cell_volume   344.66776162
_cell_formula_units_Z   4
loop_
 _symmetry_equiv_pos_site_id
 _symmetry_equiv_pos_as_xyz
  1  'x, y, z'
loop_
 _atom_site_type_symbol
 _atom_site_label
 _atom_site_symmetry_multiplicity
 _atom_site_fract_x
 _atom_site_fract_y
 _atom_site_fract_z
 _atom_site_occupancy
  Na  Na0  1  0.47682700  0.22216900  0.75003500  1
  Na  Na1  1  0.97685300  0.27780900  0.24996300  1
  Na  Na2  1  0.02314500  0.72219000  0.75003800  1
  Na  Na3  1  0.52317100  0.77783100  0.24996500  1
  Ni  Ni4  1  0.00000300  0.00000200  0.49999800  1
  Ni  Ni5  1  0.50000500  0.49999900  0.50000200  1
  Ni  Ni6  1  0.00000000  0.00000100  0.99999900  1
  Ni  Ni7  1  0.50000000  0.49999800  0.00000200  1
  P  P8  1  0.40534500  0.07947300  0.25001300  1
  P  P9  1  0.90533900  0.42052400  0.74998700  1
  P  P10  1  0.09466400  0.57947600  0.25001400  1
  P  P11  1  0.59465500  0.92052700  0.74998600  1
  O  O12  1  0.74503200  0.04648200  0.75002400  1
  O  O13  1  0.24503600  0.45352100  0.24997600  1
  O  O14  1  0.75496300  0.54647900  0.75002500  1
  O  O15  1  0.25496800  0.95351900  0.24997500  1
  O  O16  1  0.73615000  0.07173400  0.25003600  1
  O  O17  1  0.23615600  0.42826000  0.74996300  1
  O  O18  1  0.76384200  0.57174000  0.25003800  1
  O  O19  1  0.26384900  0.92826600  0.74996400  1
  O  O20  1  0.28745100  0.13953000  0.44788700  1
  O  O21  1  0.28749500  0.13952800  0.05220300  1
  O  O22  1  0.78749400  0.36047800  0.94780600  1
  O  O23  1  0.78745000  0.36047700  0.55209900  1
  O  O24  1  0.21250500  0.63952200  0.05219300  1
  O  O25  1  0.21254900  0.63952300  0.44790000  1
  O  O26  1  0.71254800  0.86047100  0.55211200  1
  O  O27  1  0.71250400  0.86047200  0.94779700  1
