# generated using pymatgen
data_BaRhF6
_symmetry_space_group_name_H-M   'P 1'
_cell_length_a   5.02945750
_cell_length_b   5.02945750
_cell_length_c   5.02945834
_cell_angle_alpha   98.37501998
_cell_angle_beta   98.37501998
_cell_angle_gamma   98.37502098
_symmetry_Int_Tables_number   1
_chemical_formula_structural   BaRhF6
_chemical_formula_sum   'Ba1 Rh1 F6'
_cell_volume   122.70048389
_cell_formula_units_Z   1
loop_
 _symmetry_equiv_pos_site_id
 _symmetry_equiv_pos_as_xyz
  1  'x, y, z'
loop_
 _atom_site_type_symbol
 _atom_site_label
 _atom_site_symmetry_multiplicity
 _atom_site_fract_x
 _atom_site_fract_y
 _atom_site_fract_z
 _atom_site_occupancy
  Ba  Ba0  1  0.50000000  0.50000000  0.50000000  1
  Rh  Rh1  1  0.00000000  0.00000000  0.00000000  1
  F  F2  1  0.72073400  0.72073400  0.07307200  1
  F  F3  1  0.07307200  0.72073400  0.72073400  1
  F  F4  1  0.92692800  0.27926600  0.27926600  1
  F  F5  1  0.27926600  0.27926600  0.92692800  1
  F  F6  1  0.27926600  0.92692800  0.27926600  1
  F  F7  1  0.72073400  0.07307200  0.72073400  1
