# generated using pymatgen
data_H4SeO5
_symmetry_space_group_name_H-M   'P 1'
_cell_length_a   8.79471800
_cell_length_b   9.24845400
_cell_length_c   10.56793400
_cell_angle_alpha   90.00000000
_cell_angle_beta   90.00000000
_cell_angle_gamma   90.00000000
_symmetry_Int_Tables_number   1
_chemical_formula_structural   H4SeO5
_chemical_formula_sum   'H32 Se8 O40'
_cell_volume   859.56980587
_cell_formula_units_Z   8
loop_
 _symmetry_equiv_pos_site_id
 _symmetry_equiv_pos_as_xyz
  1  'x, y, z'
loop_
 _atom_site_type_symbol
 _atom_site_label
 _atom_site_symmetry_multiplicity
 _atom_site_fract_x
 _atom_site_fract_y
 _atom_site_fract_z
 _atom_site_occupancy
  H  H0  1  0.77783400  0.27399200  0.45622000  1
  H  H1  1  0.27783400  0.72600800  0.04378000  1
  H  H2  1  0.22216600  0.22600800  0.95622000  1
  H  H3  1  0.72216600  0.77399200  0.54378000  1
  H  H4  1  0.22216600  0.72600800  0.54378000  1
  H  H5  1  0.72216600  0.27399200  0.95622000  1
  H  H6  1  0.77783400  0.77399200  0.04378000  1
  H  H7  1  0.27783400  0.22600800  0.45622000  1
  H  H8  1  0.82566700  0.09904200  0.46706900  1
  H  H9  1  0.32566700  0.90095800  0.03293100  1
  H  H10  1  0.17433300  0.40095800  0.96706900  1
  H  H11  1  0.67433300  0.59904200  0.53293100  1
  H  H12  1  0.17433300  0.90095800  0.53293100  1
  H  H13  1  0.67433300  0.09904200  0.96706900  1
  H  H14  1  0.82566700  0.59904200  0.03293100  1
  H  H15  1  0.32566700  0.40095800  0.46706900  1
  H  H16  1  0.79453300  0.17085700  0.07444600  1
  H  H17  1  0.29453300  0.82914300  0.42555400  1
  H  H18  1  0.20546700  0.32914300  0.57444600  1
  H  H19  1  0.70546700  0.67085700  0.92555400  1
  H  H20  1  0.20546700  0.82914300  0.92555400  1
  H  H21  1  0.70546700  0.17085700  0.57444600  1
  H  H22  1  0.79453300  0.67085700  0.42555400  1
  H  H23  1  0.29453300  0.32914300  0.07444600  1
  H  H24  1  0.54176300  0.23249400  0.25922900  1
  H  H25  1  0.04176300  0.76750600  0.24077100  1
  H  H26  1  0.45823700  0.26750600  0.75922900  1
  H  H27  1  0.95823700  0.73249400  0.74077100  1
  H  H28  1  0.45823700  0.76750600  0.74077100  1
  H  H29  1  0.95823700  0.23249400  0.75922900  1
  H  H30  1  0.54176300  0.73249400  0.24077100  1
  H  H31  1  0.04176300  0.26750600  0.25922900  1
  Se  Se32  1  0.89010500  0.46511600  0.26707200  1
  Se  Se33  1  0.39010500  0.53488400  0.23292800  1
  Se  Se34  1  0.10989500  0.03488400  0.76707200  1
  Se  Se35  1  0.60989500  0.96511600  0.73292800  1
  Se  Se36  1  0.10989500  0.53488400  0.73292800  1
  Se  Se37  1  0.60989500  0.46511600  0.76707200  1
  Se  Se38  1  0.89010500  0.96511600  0.23292800  1
  Se  Se39  1  0.39010500  0.03488400  0.26707200  1
  O  O40  1  0.74937800  0.38838600  0.34580900  1
  O  O41  1  0.24937800  0.61161400  0.15419100  1
  O  O42  1  0.25062200  0.11161400  0.84580900  1
  O  O43  1  0.75062200  0.88838600  0.65419100  1
  O  O44  1  0.25062200  0.61161400  0.65419100  1
  O  O45  1  0.75062200  0.38838600  0.84580900  1
  O  O46  1  0.74937800  0.88838600  0.15419100  1
  O  O47  1  0.24937800  0.11161400  0.34580900  1
  O  O48  1  0.86971900  0.46315900  0.11159400  1
  O  O49  1  0.36971900  0.53684100  0.38840600  1
  O  O50  1  0.13028100  0.03684100  0.61159400  1
  O  O51  1  0.63028100  0.96315900  0.88840600  1
  O  O52  1  0.13028100  0.53684100  0.88840600  1
  O  O53  1  0.63028100  0.46315900  0.61159400  1
  O  O54  1  0.86971900  0.96315900  0.38840600  1
  O  O55  1  0.36971900  0.03684100  0.11159400  1
  O  O56  1  0.92923700  0.62841800  0.32631700  1
  O  O57  1  0.42923700  0.37158200  0.17368300  1
  O  O58  1  0.07076300  0.87158200  0.82631700  1
  O  O59  1  0.57076300  0.12841800  0.67368300  1
  O  O60  1  0.07076300  0.37158200  0.67368300  1
  O  O61  1  0.57076300  0.62841800  0.82631700  1
  O  O62  1  0.92923700  0.12841800  0.17368300  1
  O  O63  1  0.42923700  0.87158200  0.32631700  1
  O  O64  1  0.05638300  0.36445200  0.30004800  1
  O  O65  1  0.55638300  0.63554800  0.19995200  1
  O  O66  1  0.94361700  0.13554800  0.80004800  1
  O  O67  1  0.44361700  0.86445200  0.69995200  1
  O  O68  1  0.94361700  0.63554800  0.69995200  1
  O  O69  1  0.44361700  0.36445200  0.80004800  1
  O  O70  1  0.05638300  0.86445200  0.19995200  1
  O  O71  1  0.55638300  0.13554800  0.30004800  1
  O  O72  1  0.70257600  0.19054900  0.01779700  1
  O  O73  1  0.20257600  0.80945100  0.48220300  1
  O  O74  1  0.29742400  0.30945100  0.51779700  1
  O  O75  1  0.79742400  0.69054900  0.98220300  1
  O  O76  1  0.29742400  0.80945100  0.98220300  1
  O  O77  1  0.79742400  0.19054900  0.51779700  1
  O  O78  1  0.70257600  0.69054900  0.48220300  1
  O  O79  1  0.20257600  0.30945100  0.01779700  1
