# generated using pymatgen
data_Sr4(NiO3)3
_symmetry_space_group_name_H-M   'P 1'
_cell_length_a   9.54318866
_cell_length_b   9.54318866
_cell_length_c   7.83384200
_cell_angle_alpha   90.00000000
_cell_angle_beta   90.00000000
_cell_angle_gamma   120.00000456
_symmetry_Int_Tables_number   1
_chemical_formula_structural   Sr4(NiO3)3
_chemical_formula_sum   'Sr12 Ni9 O27'
_cell_volume   617.86335539
_cell_formula_units_Z   3
loop_
 _symmetry_equiv_pos_site_id
 _symmetry_equiv_pos_as_xyz
  1  'x, y, z'
loop_
 _atom_site_type_symbol
 _atom_site_label
 _atom_site_symmetry_multiplicity
 _atom_site_fract_x
 _atom_site_fract_y
 _atom_site_fract_z
 _atom_site_occupancy
  Sr  Sr0  1  0.02419400  0.69143300  0.25072300  1
  Sr  Sr1  1  0.00000000  0.35925200  0.00000000  1
  Sr  Sr2  1  0.00000000  0.33208600  0.50000000  1
  Sr  Sr3  1  0.30856700  0.33276100  0.25072300  1
  Sr  Sr4  1  0.33276100  0.30856700  0.74927700  1
  Sr  Sr5  1  0.66723900  0.97580600  0.25072300  1
  Sr  Sr6  1  0.64074800  0.64074800  0.00000000  1
  Sr  Sr7  1  0.33208600  0.00000000  0.50000000  1
  Sr  Sr8  1  0.66791400  0.66791400  0.50000000  1
  Sr  Sr9  1  0.35925200  0.00000000  0.00000000  1
  Sr  Sr10  1  0.97580600  0.66723900  0.74927700  1
  Sr  Sr11  1  0.69143300  0.02419400  0.74927700  1
  Ni  Ni12  1  0.33333300  0.66666700  0.42124300  1
  Ni  Ni13  1  0.33333300  0.66666700  0.10031600  1
  Ni  Ni14  1  0.00000000  0.00000000  0.00000000  1
  Ni  Ni15  1  0.00000000  0.00000000  0.34057700  1
  Ni  Ni16  1  0.00000000  0.00000000  0.65942300  1
  Ni  Ni17  1  0.33333300  0.66666700  0.75996700  1
  Ni  Ni18  1  0.66666700  0.33333300  0.57875700  1
  Ni  Ni19  1  0.66666700  0.33333300  0.89968400  1
  Ni  Ni20  1  0.66666700  0.33333300  0.24003300  1
  O  O21  1  0.00000000  0.84991600  0.50000000  1
  O  O22  1  0.15310500  0.98918600  0.80075800  1
  O  O23  1  0.18405800  0.68333700  0.95872100  1
  O  O24  1  0.18114700  0.67220700  0.56152400  1
  O  O25  1  0.17323500  0.51951300  0.25894100  1
  O  O26  1  0.01081400  0.16391900  0.80075800  1
  O  O27  1  0.34627800  0.82676500  0.25894100  1
  O  O28  1  0.31666300  0.50072100  0.95872100  1
  O  O29  1  0.32779300  0.50894000  0.56152400  1
  O  O30  1  0.15008400  0.15008400  0.50000000  1
  O  O31  1  0.49106000  0.81885300  0.56152400  1
  O  O32  1  0.49927900  0.81594200  0.95872100  1
  O  O33  1  0.48048700  0.65372200  0.25894100  1
  O  O34  1  0.16391900  0.01081400  0.19924200  1
  O  O35  1  0.50072100  0.31666300  0.04127900  1
  O  O36  1  0.50894000  0.32779300  0.43847600  1
  O  O37  1  0.65372200  0.48048700  0.74105900  1
  O  O38  1  0.83608100  0.84689500  0.80075800  1
  O  O39  1  0.84689500  0.83608100  0.19924200  1
  O  O40  1  0.51951300  0.17323500  0.74105900  1
  O  O41  1  0.81594200  0.49927900  0.04127900  1
  O  O42  1  0.81885300  0.49106000  0.43847600  1
  O  O43  1  0.67220700  0.18114700  0.43847600  1
  O  O44  1  0.68333700  0.18405800  0.04127900  1
  O  O45  1  0.82676500  0.34627800  0.74105900  1
  O  O46  1  0.84991600  0.00000000  0.50000000  1
  O  O47  1  0.98918600  0.15310500  0.19924200  1
