# generated using pymatgen
data_UTeP
_symmetry_space_group_name_H-M   'P 1'
_cell_length_a   8.89801427
_cell_length_b   8.89801427
_cell_length_c   8.89801427
_cell_angle_alpha   153.45499224
_cell_angle_beta   153.45499224
_cell_angle_gamma   37.89225032
_symmetry_Int_Tables_number   1
_chemical_formula_structural   UTeP
_chemical_formula_sum   'U2 Te2 P2'
_cell_volume   140.48436893
_cell_formula_units_Z   2
loop_
 _symmetry_equiv_pos_site_id
 _symmetry_equiv_pos_as_xyz
  1  'x, y, z'
loop_
 _atom_site_type_symbol
 _atom_site_label
 _atom_site_symmetry_multiplicity
 _atom_site_fract_x
 _atom_site_fract_y
 _atom_site_fract_z
 _atom_site_occupancy
  U  U0  1  0.89101400  0.89101400  0.00000000  1
  U  U1  1  0.10898600  0.10898600  0.00000000  1
  Te  Te2  1  0.31633300  0.31633300  0.00000000  1
  Te  Te3  1  0.68366700  0.68366700  0.00000000  1
  P  P4  1  0.50000000  0.00000000  0.50000000  1
  P  P5  1  0.00000000  0.50000000  0.50000000  1
