# generated using pymatgen
data_SnF2
_symmetry_space_group_name_H-M   'P 1'
_cell_length_a   5.23018800
_cell_length_b   5.23018800
_cell_length_c   8.49166600
_cell_angle_alpha   90.00000000
_cell_angle_beta   90.00000000
_cell_angle_gamma   90.00000000
_symmetry_Int_Tables_number   1
_chemical_formula_structural   SnF2
_chemical_formula_sum   'Sn4 F8'
_cell_volume   232.28838992
_cell_formula_units_Z   4
loop_
 _symmetry_equiv_pos_site_id
 _symmetry_equiv_pos_as_xyz
  1  'x, y, z'
loop_
 _atom_site_type_symbol
 _atom_site_label
 _atom_site_symmetry_multiplicity
 _atom_site_fract_x
 _atom_site_fract_y
 _atom_site_fract_z
 _atom_site_occupancy
  Sn  Sn0  1  0.00377900  0.00377900  0.50000000  1
  Sn  Sn1  1  0.49622100  0.50377900  0.75000000  1
  Sn  Sn2  1  0.50377900  0.49622100  0.25000000  1
  Sn  Sn3  1  0.99622100  0.99622100  0.00000000  1
  F  F4  1  0.74330600  0.85791700  0.32853200  1
  F  F5  1  0.25669400  0.14208300  0.82853200  1
  F  F6  1  0.85791700  0.74330600  0.67146800  1
  F  F7  1  0.35791700  0.75669400  0.07853200  1
  F  F8  1  0.14208300  0.25669400  0.17146800  1
  F  F9  1  0.24330600  0.64208300  0.42146800  1
  F  F10  1  0.75669400  0.35791700  0.92146800  1
  F  F11  1  0.64208300  0.24330600  0.57853200  1
