# generated using pymatgen
data_Li3Cr2(PO4)3
_symmetry_space_group_name_H-M   'P 1'
_cell_length_a   8.99786595
_cell_length_b   8.37831659
_cell_length_c   8.38618229
_cell_angle_alpha   59.88374192
_cell_angle_beta   89.75074642
_cell_angle_gamma   62.11752336
_symmetry_Int_Tables_number   1
_chemical_formula_structural   Li3Cr2(PO4)3
_chemical_formula_sum   'Li6 Cr4 P6 O24'
_cell_volume   460.93098185
_cell_formula_units_Z   2
loop_
 _symmetry_equiv_pos_site_id
 _symmetry_equiv_pos_as_xyz
  1  'x, y, z'
loop_
 _atom_site_type_symbol
 _atom_site_label
 _atom_site_symmetry_multiplicity
 _atom_site_fract_x
 _atom_site_fract_y
 _atom_site_fract_z
 _atom_site_occupancy
  Li  Li0  1  0.84836900  0.81439900  0.91786200  1
  Li  Li1  1  0.85653600  0.40829200  0.67151000  1
  Li  Li2  1  0.62657200  0.18750500  0.25439000  1
  Li  Li3  1  0.13782600  0.94219900  0.73081500  1
  Li  Li4  1  0.13507100  0.60197400  0.32813000  1
  Li  Li5  1  0.13441500  0.18738700  0.07879000  1
  Cr  Cr6  1  0.95517600  0.69714700  0.64775000  1
  Cr  Cr7  1  0.56390900  0.29432400  0.85326500  1
  Cr  Cr8  1  0.43204100  0.71280100  0.14354900  1
  Cr  Cr9  1  0.04128500  0.30675600  0.34551900  1
  P  P10  1  0.75176400  0.49777800  0.96177600  1
  P  P11  1  0.74701400  0.20939300  0.53946500  1
  P  P12  1  0.74739200  0.79165100  0.25048000  1
  P  P13  1  0.24975200  0.21281200  0.74735700  1
  P  P14  1  0.25095300  0.78836800  0.46333400  1
  P  P15  1  0.24363900  0.50610400  0.03866800  1
  O  O16  1  0.80085200  0.66555700  0.82652200  1
  O  O17  1  0.73686600  0.38458900  0.86748200  1
  O  O18  1  0.89977800  0.25437000  0.53639500  1
  O  O19  1  0.73052700  0.13409200  0.74594300  1
  O  O20  1  0.58024300  0.60908500  0.00029300  1
  O  O21  1  0.79867800  0.02445300  0.50879700  1
  O  O22  1  0.80297000  0.70078400  0.46796400  1
  O  O23  1  0.90545300  0.64223200  0.20612400  1
  O  O24  1  0.90852800  0.30975400  0.15423300  1
  O  O25  1  0.41807500  0.19738700  0.80241700  1
  O  O26  1  0.26696500  0.98802800  0.87523700  1
  O  O27  1  0.57545300  0.40677900  0.37975200  1
  O  O28  1  0.42732300  0.58904200  0.61347800  1
  O  O29  1  0.71866300  0.02208100  0.12755600  1
  O  O30  1  0.58246700  0.79827000  0.20010300  1
  O  O31  1  0.09300900  0.69820600  0.84054800  1
  O  O32  1  0.09223200  0.36615600  0.78966000  1
  O  O33  1  0.19353300  0.30052800  0.53097900  1
  O  O34  1  0.19043900  0.97613200  0.49296700  1
  O  O35  1  0.42109200  0.38308300  0.01276900  1
  O  O36  1  0.26656500  0.86853800  0.25529200  1
  O  O37  1  0.10792600  0.72850900  0.47594200  1
  O  O38  1  0.25853500  0.61896800  0.13270400  1
  O  O39  1  0.19274700  0.34023900  0.16755700  1
