# generated using pymatgen
data_Er2Co12P7
_symmetry_space_group_name_H-M   'P 1'
_cell_length_a   8.99158299
_cell_length_b   8.99158299
_cell_length_c   3.57674700
_cell_angle_alpha   90.00000000
_cell_angle_beta   90.00000000
_cell_angle_gamma   119.99999258
_symmetry_Int_Tables_number   1
_chemical_formula_structural   Er2Co12P7
_chemical_formula_sum   'Er2 Co12 P7'
_cell_volume   250.43279469
_cell_formula_units_Z   1
loop_
 _symmetry_equiv_pos_site_id
 _symmetry_equiv_pos_as_xyz
  1  'x, y, z'
loop_
 _atom_site_type_symbol
 _atom_site_label
 _atom_site_symmetry_multiplicity
 _atom_site_fract_x
 _atom_site_fract_y
 _atom_site_fract_z
 _atom_site_occupancy
  Er  Er0  1  0.66666700  0.33333300  0.50000000  1
  Er  Er1  1  0.33333300  0.66666700  0.00000000  1
  Co  Co2  1  0.11909400  0.84600600  0.00000000  1
  Co  Co3  1  0.38268900  0.43559100  0.50000000  1
  Co  Co4  1  0.72691200  0.88090600  0.00000000  1
  Co  Co5  1  0.56440900  0.94709800  0.50000000  1
  Co  Co6  1  0.23410400  0.10239300  0.50000000  1
  Co  Co7  1  0.86828900  0.76589600  0.50000000  1
  Co  Co8  1  0.89760700  0.13171100  0.50000000  1
  Co  Co9  1  0.93969800  0.37438500  0.00000000  1
  Co  Co10  1  0.62561500  0.56531300  0.00000000  1
  Co  Co11  1  0.43468700  0.06030200  0.00000000  1
  Co  Co12  1  0.05290200  0.61731100  0.50000000  1
  Co  Co13  1  0.15399400  0.27308800  0.00000000  1
  P  P14  1  0.00000000  0.00000000  0.00000000  1
  P  P15  1  0.59683600  0.70882100  0.50000000  1
  P  P16  1  0.70637800  0.11341000  0.00000000  1
  P  P17  1  0.88659000  0.59296800  0.00000000  1
  P  P18  1  0.40703200  0.29362200  0.00000000  1
  P  P19  1  0.29117900  0.88801500  0.50000000  1
  P  P20  1  0.11198500  0.40316400  0.50000000  1
