# generated using pymatgen
data_Gd3As5O12
_symmetry_space_group_name_H-M   'P 1'
_cell_length_a   9.30466700
_cell_length_b   9.30466700
_cell_length_c   9.30466700
_cell_angle_alpha   109.47122063
_cell_angle_beta   109.47122063
_cell_angle_gamma   109.47122063
_symmetry_Int_Tables_number   1
_chemical_formula_structural   Gd3As5O12
_chemical_formula_sum   'Gd6 As10 O24'
_cell_volume   620.12696320
_cell_formula_units_Z   2
loop_
 _symmetry_equiv_pos_site_id
 _symmetry_equiv_pos_as_xyz
  1  'x, y, z'
loop_
 _atom_site_type_symbol
 _atom_site_label
 _atom_site_symmetry_multiplicity
 _atom_site_fract_x
 _atom_site_fract_y
 _atom_site_fract_z
 _atom_site_occupancy
  Gd  Gd0  1  0.75000000  0.50000000  0.25000000  1
  Gd  Gd1  1  0.50000000  0.75000000  0.25000000  1
  Gd  Gd2  1  0.75000000  0.25000000  0.50000000  1
  Gd  Gd3  1  0.25000000  0.75000000  0.50000000  1
  Gd  Gd4  1  0.25000000  0.50000000  0.75000000  1
  Gd  Gd5  1  0.50000000  0.25000000  0.75000000  1
  As  As6  1  0.71259700  0.71259700  0.00000000  1
  As  As7  1  0.00000000  0.00000000  0.50411900  1
  As  As8  1  0.00000000  0.28740300  0.28740300  1
  As  As9  1  0.28740300  0.00000000  0.28740300  1
  As  As10  1  0.49588100  0.49588100  0.49588100  1
  As  As11  1  0.71259700  0.00000000  0.71259700  1
  As  As12  1  0.00000000  0.71259700  0.71259700  1
  As  As13  1  0.00000000  0.50411900  0.00000000  1
  As  As14  1  0.50411900  0.00000000  0.00000000  1
  As  As15  1  0.28740300  0.28740300  0.00000000  1
  O  O16  1  0.70268800  0.70268800  0.18502300  1
  O  O17  1  0.29731200  0.48233500  0.00000000  1
  O  O18  1  0.48233500  0.29731200  0.00000000  1
  O  O19  1  0.71671500  0.19168900  0.19168900  1
  O  O20  1  0.19168900  0.71671500  0.19168900  1
  O  O21  1  0.00000000  0.80831100  0.52502600  1
  O  O22  1  0.80831100  0.00000000  0.52502600  1
  O  O23  1  0.47497400  0.47497400  0.28328500  1
  O  O24  1  0.51766500  0.81497700  0.51766500  1
  O  O25  1  0.81497700  0.51766500  0.51766500  1
  O  O26  1  0.00000000  0.48233500  0.29731200  1
  O  O27  1  0.48233500  0.00000000  0.29731200  1
  O  O28  1  0.28328500  0.47497400  0.47497400  1
  O  O29  1  0.47497400  0.28328500  0.47497400  1
  O  O30  1  0.00000000  0.52502600  0.80831100  1
  O  O31  1  0.52502600  0.00000000  0.80831100  1
  O  O32  1  0.70268800  0.18502300  0.70268800  1
  O  O33  1  0.18502300  0.70268800  0.70268800  1
  O  O34  1  0.00000000  0.29731200  0.48233500  1
  O  O35  1  0.29731200  0.00000000  0.48233500  1
  O  O36  1  0.51766500  0.51766500  0.81497700  1
  O  O37  1  0.52502600  0.80831100  0.00000000  1
  O  O38  1  0.80831100  0.52502600  0.00000000  1
  O  O39  1  0.19168900  0.19168900  0.71671500  1
