# generated using pymatgen
data_RbDyS2
_symmetry_space_group_name_H-M   'P 1'
_cell_length_a   8.03456154
_cell_length_b   8.03456154
_cell_length_c   8.03456102
_cell_angle_alpha   29.43069202
_cell_angle_beta   29.43069202
_cell_angle_gamma   29.43068798
_symmetry_Int_Tables_number   1
_chemical_formula_structural   RbDyS2
_chemical_formula_sum   'Rb1 Dy1 S2'
_cell_volume   110.83271806
_cell_formula_units_Z   1
loop_
 _symmetry_equiv_pos_site_id
 _symmetry_equiv_pos_as_xyz
  1  'x, y, z'
loop_
 _atom_site_type_symbol
 _atom_site_label
 _atom_site_symmetry_multiplicity
 _atom_site_fract_x
 _atom_site_fract_y
 _atom_site_fract_z
 _atom_site_occupancy
  Rb  Rb0  1  0.00000000  0.00000000  0.00000000  1
  Dy  Dy1  1  0.50000000  0.50000000  0.50000000  1
  S  S2  1  0.76943000  0.76943000  0.76943000  1
  S  S3  1  0.23057000  0.23057000  0.23057000  1
