# generated using pymatgen
data_K3Fe3P4H2O17
_symmetry_space_group_name_H-M   'P 1'
_cell_length_a   6.63132900
_cell_length_b   10.91409400
_cell_length_c   21.04297000
_cell_angle_alpha   90.00000000
_cell_angle_beta   90.00000000
_cell_angle_gamma   90.00000000
_symmetry_Int_Tables_number   1
_chemical_formula_structural   K3Fe3P4H2O17
_chemical_formula_sum   'K12 Fe12 P16 H8 O68'
_cell_volume   1522.98386059
_cell_formula_units_Z   4
loop_
 _symmetry_equiv_pos_site_id
 _symmetry_equiv_pos_as_xyz
  1  'x, y, z'
loop_
 _atom_site_type_symbol
 _atom_site_label
 _atom_site_symmetry_multiplicity
 _atom_site_fract_x
 _atom_site_fract_y
 _atom_site_fract_z
 _atom_site_occupancy
  K  K0  1  0.81367100  0.25000000  0.50000000  1
  K  K1  1  0.68632900  0.25000000  0.00000000  1
  K  K2  1  0.18632900  0.75000000  0.50000000  1
  K  K3  1  0.31367100  0.75000000  0.00000000  1
  K  K4  1  0.64179500  0.51147000  0.40444300  1
  K  K5  1  0.64179500  0.98853000  0.59555700  1
  K  K6  1  0.85820500  0.51147000  0.09555700  1
  K  K7  1  0.85820500  0.98853000  0.90444300  1
  K  K8  1  0.35820500  0.48853000  0.59555700  1
  K  K9  1  0.35820500  0.01147000  0.40444300  1
  K  K10  1  0.14179500  0.48853000  0.90444300  1
  K  K11  1  0.14179500  0.01147000  0.09555700  1
  Fe  Fe12  1  0.75000000  0.00200200  0.25000000  1
  Fe  Fe13  1  0.75000000  0.49799800  0.75000000  1
  Fe  Fe14  1  0.25000000  0.99799800  0.75000000  1
  Fe  Fe15  1  0.25000000  0.50200200  0.25000000  1
  Fe  Fe16  1  0.00062600  0.25154800  0.33750300  1
  Fe  Fe17  1  0.00062600  0.24845200  0.66249700  1
  Fe  Fe18  1  0.49937400  0.25154800  0.16249700  1
  Fe  Fe19  1  0.49937400  0.24845200  0.83750300  1
  Fe  Fe20  1  0.99937400  0.74845200  0.66249700  1
  Fe  Fe21  1  0.99937400  0.75154800  0.33750300  1
  Fe  Fe22  1  0.50062600  0.74845200  0.83750300  1
  Fe  Fe23  1  0.50062600  0.75154800  0.16249700  1
  P  P24  1  0.50023700  0.75260200  0.29501300  1
  P  P25  1  0.50023700  0.74739800  0.70498700  1
  P  P26  1  0.99976300  0.75260200  0.20498700  1
  P  P27  1  0.99976300  0.74739800  0.79501300  1
  P  P28  1  0.49976300  0.24739800  0.70498700  1
  P  P29  1  0.49976300  0.25260200  0.29501300  1
  P  P30  1  0.00023700  0.24739800  0.79501300  1
  P  P31  1  0.00023700  0.25260200  0.20498700  1
  P  P32  1  0.85154700  0.50063300  0.59750900  1
  P  P33  1  0.85154700  0.99936700  0.40249100  1
  P  P34  1  0.64845300  0.50063300  0.90249100  1
  P  P35  1  0.64845300  0.99936700  0.09750900  1
  P  P36  1  0.14845300  0.49936700  0.40249100  1
  P  P37  1  0.14845300  0.00063300  0.59750900  1
  P  P38  1  0.35154700  0.49936700  0.09750900  1
  P  P39  1  0.35154700  0.00063300  0.90249100  1
  H  H40  1  0.32225400  0.18063900  0.51329100  1
  H  H41  1  0.32225400  0.31936100  0.48670900  1
  H  H42  1  0.17774600  0.18063900  0.98670900  1
  H  H43  1  0.17774600  0.31936100  0.01329100  1
  H  H44  1  0.67774600  0.81936100  0.48670900  1
  H  H45  1  0.67774600  0.68063900  0.51329100  1
  H  H46  1  0.82225400  0.81936100  0.01329100  1
  H  H47  1  0.82225400  0.68063900  0.98670900  1
  O  O48  1  0.31621100  0.77762700  0.33716900  1
  O  O49  1  0.31621100  0.72237300  0.66283100  1
  O  O50  1  0.18378900  0.77762700  0.16283100  1
  O  O51  1  0.18378900  0.72237300  0.83716900  1
  O  O52  1  0.68378900  0.22237300  0.66283100  1
  O  O53  1  0.68378900  0.27762700  0.33716900  1
  O  O54  1  0.81621100  0.22237300  0.83716900  1
  O  O55  1  0.81621100  0.27762700  0.16283100  1
  O  O56  1  0.53543200  0.86086900  0.24554900  1
  O  O57  1  0.53543200  0.63913100  0.75445100  1
  O  O58  1  0.96456800  0.86086900  0.25445100  1
  O  O59  1  0.96456800  0.63913100  0.74554900  1
  O  O60  1  0.46456800  0.13913100  0.75445100  1
  O  O61  1  0.46456800  0.36086900  0.24554900  1
  O  O62  1  0.03543200  0.13913100  0.74554900  1
  O  O63  1  0.03543200  0.36086900  0.25445100  1
  O  O64  1  0.68957700  0.72570900  0.33457900  1
  O  O65  1  0.68957700  0.77429100  0.66542100  1
  O  O66  1  0.81042300  0.72570900  0.16542100  1
  O  O67  1  0.81042300  0.77429100  0.83457900  1
  O  O68  1  0.31042300  0.27429100  0.66542100  1
  O  O69  1  0.31042300  0.22570900  0.33457900  1
  O  O70  1  0.18957700  0.27429100  0.83457900  1
  O  O71  1  0.18957700  0.22570900  0.16542100  1
  O  O72  1  0.46098600  0.64447700  0.24558000  1
  O  O73  1  0.46098600  0.85552300  0.75442000  1
  O  O74  1  0.03901400  0.64447700  0.25442000  1
  O  O75  1  0.03901400  0.85552300  0.74558000  1
  O  O76  1  0.53901400  0.35552300  0.75442000  1
  O  O77  1  0.53901400  0.14447700  0.24558000  1
  O  O78  1  0.96098600  0.35552300  0.74558000  1
  O  O79  1  0.96098600  0.14447700  0.25442000  1
  O  O80  1  0.98584300  0.38245300  0.60057000  1
  O  O81  1  0.98584300  0.11754700  0.39943000  1
  O  O82  1  0.51415700  0.38245300  0.89943000  1
  O  O83  1  0.51415700  0.11754700  0.10057000  1
  O  O84  1  0.01415700  0.61754700  0.39943000  1
  O  O85  1  0.01415700  0.88245300  0.60057000  1
  O  O86  1  0.48584300  0.61754700  0.10057000  1
  O  O87  1  0.48584300  0.88245300  0.89943000  1
  O  O88  1  0.99624900  0.61391500  0.60105200  1
  O  O89  1  0.99624900  0.88608500  0.39894800  1
  O  O90  1  0.50375100  0.61391500  0.89894800  1
  O  O91  1  0.50375100  0.88608500  0.10105200  1
  O  O92  1  0.00375100  0.38608500  0.39894800  1
  O  O93  1  0.00375100  0.11391500  0.60105200  1
  O  O94  1  0.49624900  0.38608500  0.10105200  1
  O  O95  1  0.49624900  0.11391500  0.89894800  1
  O  O96  1  0.72850800  0.50335300  0.53648900  1
  O  O97  1  0.72850800  0.99664700  0.46351100  1
  O  O98  1  0.77149200  0.50335300  0.96351100  1
  O  O99  1  0.77149200  0.99664700  0.03648900  1
  O  O100  1  0.27149200  0.49664700  0.46351100  1
  O  O101  1  0.27149200  0.00335300  0.53648900  1
  O  O102  1  0.22850800  0.49664700  0.03648900  1
  O  O103  1  0.22850800  0.00335300  0.96351100  1
  O  O104  1  0.71470000  0.50100500  0.65766100  1
  O  O105  1  0.71470000  0.99899500  0.34233900  1
  O  O106  1  0.78530000  0.50100500  0.84233900  1
  O  O107  1  0.78530000  0.99899500  0.15766100  1
  O  O108  1  0.28530000  0.49899500  0.34233900  1
  O  O109  1  0.28530000  0.00100500  0.65766100  1
  O  O110  1  0.21470000  0.49899500  0.15766100  1
  O  O111  1  0.21470000  0.00100500  0.84233900  1
  O  O112  1  0.40690200  0.25000000  0.50000000  1
  O  O113  1  0.09309800  0.25000000  0.00000000  1
  O  O114  1  0.59309800  0.75000000  0.50000000  1
  O  O115  1  0.90690200  0.75000000  0.00000000  1
