# generated using pymatgen
data_Mn4Si4SnB2(HO9)2
_symmetry_space_group_name_H-M   'P 1'
_cell_length_a   7.05210234
_cell_length_b   7.46174288
_cell_length_c   7.77465280
_cell_angle_alpha   89.97075886
_cell_angle_beta   63.04497394
_cell_angle_gamma   76.88883581
_symmetry_Int_Tables_number   1
_chemical_formula_structural   Mn4Si4SnB2(HO9)2
_chemical_formula_sum   'Mn4 Si4 Sn1 B2 H2 O18'
_cell_volume   352.68376481
_cell_formula_units_Z   1
loop_
 _symmetry_equiv_pos_site_id
 _symmetry_equiv_pos_as_xyz
  1  'x, y, z'
loop_
 _atom_site_type_symbol
 _atom_site_label
 _atom_site_symmetry_multiplicity
 _atom_site_fract_x
 _atom_site_fract_y
 _atom_site_fract_z
 _atom_site_occupancy
  Mn  Mn0  1  0.69432300  0.71115600  0.26412900  1
  Mn  Mn1  1  0.30569300  0.28881200  0.73589500  1
  Mn  Mn2  1  0.19009400  0.72270200  0.26466100  1
  Mn  Mn3  1  0.80983100  0.27736700  0.73532800  1
  Si  Si4  1  0.92499500  0.67416400  0.75861000  1
  Si  Si5  1  0.07501300  0.32583100  0.24139000  1
  Si  Si6  1  0.46920600  0.67650100  0.77647400  1
  Si  Si7  1  0.53079900  0.32350000  0.22352400  1
  Sn  Sn8  1  0.99999800  0.00000000  0.99999600  1
  B  B9  1  0.25058300  0.87637300  0.56965400  1
  B  B10  1  0.74941800  0.12362600  0.43034500  1
  H  H11  1  0.67142200  0.95422500  0.66008900  1
  H  H12  1  0.32858100  0.04577300  0.33991100  1
  O  O13  1  0.14301600  0.04365600  0.70872700  1
  O  O14  1  0.85699000  0.95633900  0.29127400  1
  O  O15  1  0.87693700  0.77965600  0.96527600  1
  O  O16  1  0.12306900  0.22034000  0.03472500  1
  O  O17  1  0.43513300  0.75078300  0.58956400  1
  O  O18  1  0.56487500  0.24921100  0.41043700  1
  O  O19  1  0.27364500  0.80477900  0.97791100  1
  O  O20  1  0.72636100  0.19521900  0.02208500  1
  O  O21  1  0.09075100  0.77001700  0.57851300  1
  O  O22  1  0.90925400  0.22997900  0.42148600  1
  O  O23  1  0.69862900  0.73028800  0.73615400  1
  O  O24  1  0.30137500  0.26970700  0.26384100  1
  O  O25  1  0.01413700  0.45143200  0.73559000  1
  O  O26  1  0.98586500  0.54856400  0.26441000  1
  O  O27  1  0.49109200  0.45763700  0.78995100  1
  O  O28  1  0.50890900  0.54236400  0.21004900  1
  O  O29  1  0.35437100  0.91392200  0.36184400  1
  O  O30  1  0.64563300  0.08607500  0.63815500  1
