# generated using pymatgen
data_CaH3NO5
_symmetry_space_group_name_H-M   'P 1'
_cell_length_a   8.88723900
_cell_length_b   14.18236200
_cell_length_c   14.64183400
_cell_angle_alpha   90.00000000
_cell_angle_beta   90.00000000
_cell_angle_gamma   90.00000000
_symmetry_Int_Tables_number   1
_chemical_formula_structural   CaH3NO5
_chemical_formula_sum   'Ca16 H48 N16 O80'
_cell_volume   1845.48663664
_cell_formula_units_Z   16
loop_
 _symmetry_equiv_pos_site_id
 _symmetry_equiv_pos_as_xyz
  1  'x, y, z'
loop_
 _atom_site_type_symbol
 _atom_site_label
 _atom_site_symmetry_multiplicity
 _atom_site_fract_x
 _atom_site_fract_y
 _atom_site_fract_z
 _atom_site_occupancy
  Ca  Ca0  1  0.48573500  0.26838700  0.05303200  1
  Ca  Ca1  1  0.01426500  0.76838700  0.94696800  1
  Ca  Ca2  1  0.98573500  0.73161300  0.44696800  1
  Ca  Ca3  1  0.51426500  0.23161300  0.55303200  1
  Ca  Ca4  1  0.51426500  0.73161300  0.94696800  1
  Ca  Ca5  1  0.98573500  0.23161300  0.05303200  1
  Ca  Ca6  1  0.01426500  0.26838700  0.55303200  1
  Ca  Ca7  1  0.48573500  0.76838700  0.44696800  1
  Ca  Ca8  1  0.48683700  0.27118900  0.80134800  1
  Ca  Ca9  1  0.01316300  0.77118900  0.19865200  1
  Ca  Ca10  1  0.98683700  0.72881100  0.69865200  1
  Ca  Ca11  1  0.51316300  0.22881100  0.30134800  1
  Ca  Ca12  1  0.51316300  0.72881100  0.19865200  1
  Ca  Ca13  1  0.98683700  0.22881100  0.80134800  1
  Ca  Ca14  1  0.01316300  0.27118900  0.30134800  1
  Ca  Ca15  1  0.48683700  0.77118900  0.69865200  1
  H  H16  1  0.59157200  0.40373800  0.19111900  1
  H  H17  1  0.90842800  0.90373800  0.80888100  1
  H  H18  1  0.09157200  0.59626200  0.30888100  1
  H  H19  1  0.40842800  0.09626200  0.69111900  1
  H  H20  1  0.40842800  0.59626200  0.80888100  1
  H  H21  1  0.09157200  0.09626200  0.19111900  1
  H  H22  1  0.90842800  0.40373800  0.69111900  1
  H  H23  1  0.59157200  0.90373800  0.30888100  1
  H  H24  1  0.74018200  0.33354200  0.17965100  1
  H  H25  1  0.75981800  0.83354200  0.82034900  1
  H  H26  1  0.24018200  0.66645800  0.32034900  1
  H  H27  1  0.25981800  0.16645800  0.67965100  1
  H  H28  1  0.25981800  0.66645800  0.82034900  1
  H  H29  1  0.24018200  0.16645800  0.17965100  1
  H  H30  1  0.75981800  0.33354200  0.67965100  1
  H  H31  1  0.74018200  0.83354200  0.32034900  1
  H  H32  1  0.41522200  0.10153300  0.16222200  1
  H  H33  1  0.08477800  0.60153300  0.83777800  1
  H  H34  1  0.91522200  0.89846700  0.33777800  1
  H  H35  1  0.58477800  0.39846700  0.66222200  1
  H  H36  1  0.58477800  0.89846700  0.83777800  1
  H  H37  1  0.91522200  0.39846700  0.16222200  1
  H  H38  1  0.08477800  0.10153300  0.66222200  1
  H  H39  1  0.41522200  0.60153300  0.33777800  1
  H  H40  1  0.42903800  0.11535300  0.92522100  1
  H  H41  1  0.07096200  0.61535300  0.07477900  1
  H  H42  1  0.92903800  0.88464700  0.57477900  1
  H  H43  1  0.57096200  0.38464700  0.42522100  1
  H  H44  1  0.57096200  0.88464700  0.07477900  1
  H  H45  1  0.92903800  0.38464700  0.92522100  1
  H  H46  1  0.07096200  0.11535300  0.42522100  1
  H  H47  1  0.42903800  0.61535300  0.57477900  1
  H  H48  1  0.60403800  0.41032700  0.92785000  1
  H  H49  1  0.89596200  0.91032700  0.07215000  1
  H  H50  1  0.10403800  0.58967300  0.57215000  1
  H  H51  1  0.39596200  0.08967300  0.42785000  1
  H  H52  1  0.39596200  0.58967300  0.07215000  1
  H  H53  1  0.10403800  0.08967300  0.92785000  1
  H  H54  1  0.89596200  0.41032700  0.42785000  1
  H  H55  1  0.60403800  0.91032700  0.57215000  1
  H  H56  1  0.75601000  0.33102400  0.92580500  1
  H  H57  1  0.74399000  0.83102400  0.07419500  1
  H  H58  1  0.25601000  0.66897600  0.57419500  1
  H  H59  1  0.24399000  0.16897600  0.42580500  1
  H  H60  1  0.24399000  0.66897600  0.07419500  1
  H  H61  1  0.25601000  0.16897600  0.92580500  1
  H  H62  1  0.74399000  0.33102400  0.42580500  1
  H  H63  1  0.75601000  0.83102400  0.57419500  1
  N  N64  1  0.73779800  0.08810800  0.05520200  1
  N  N65  1  0.76220200  0.58810800  0.94479800  1
  N  N66  1  0.23779800  0.91189200  0.44479800  1
  N  N67  1  0.26220200  0.41189200  0.55520200  1
  N  N68  1  0.26220200  0.91189200  0.94479800  1
  N  N69  1  0.23779800  0.41189200  0.05520200  1
  N  N70  1  0.76220200  0.08810800  0.55520200  1
  N  N71  1  0.73779800  0.58810800  0.44479800  1
  N  N72  1  0.73049800  0.09052700  0.81021300  1
  N  N73  1  0.76950200  0.59052700  0.18978700  1
  N  N74  1  0.23049800  0.90947300  0.68978700  1
  N  N75  1  0.26950200  0.40947300  0.31021300  1
  N  N76  1  0.26950200  0.90947300  0.18978700  1
  N  N77  1  0.23049800  0.40947300  0.81021300  1
  N  N78  1  0.76950200  0.09052700  0.31021300  1
  N  N79  1  0.73049800  0.59052700  0.68978700  1
  O  O80  1  0.87224900  0.05857100  0.06290500  1
  O  O81  1  0.62775100  0.55857100  0.93709500  1
  O  O82  1  0.37224900  0.94142900  0.43709500  1
  O  O83  1  0.12775100  0.44142900  0.56290500  1
  O  O84  1  0.12775100  0.94142900  0.93709500  1
  O  O85  1  0.37224900  0.44142900  0.06290500  1
  O  O86  1  0.62775100  0.05857100  0.56290500  1
  O  O87  1  0.87224900  0.55857100  0.43709500  1
  O  O88  1  0.62681700  0.03568900  0.05430500  1
  O  O89  1  0.87318300  0.53568900  0.94569500  1
  O  O90  1  0.12681700  0.96431100  0.44569500  1
  O  O91  1  0.37318300  0.46431100  0.55430500  1
  O  O92  1  0.37318300  0.96431100  0.94569500  1
  O  O93  1  0.12681700  0.46431100  0.05430500  1
  O  O94  1  0.87318300  0.03568900  0.55430500  1
  O  O95  1  0.62681700  0.53568900  0.44569500  1
  O  O96  1  0.72118800  0.17886900  0.04768300  1
  O  O97  1  0.77881200  0.67886900  0.95231700  1
  O  O98  1  0.22118800  0.82113100  0.45231700  1
  O  O99  1  0.27881200  0.32113100  0.54768300  1
  O  O100  1  0.27881200  0.82113100  0.95231700  1
  O  O101  1  0.22118800  0.32113100  0.04768300  1
  O  O102  1  0.77881200  0.17886900  0.54768300  1
  O  O103  1  0.72118800  0.67886900  0.45231700  1
  O  O104  1  0.86233700  0.05611700  0.81367200  1
  O  O105  1  0.63766300  0.55611700  0.18632800  1
  O  O106  1  0.36233700  0.94388300  0.68632800  1
  O  O107  1  0.13766300  0.44388300  0.31367200  1
  O  O108  1  0.13766300  0.94388300  0.18632800  1
  O  O109  1  0.36233700  0.44388300  0.81367200  1
  O  O110  1  0.63766300  0.05611700  0.31367200  1
  O  O111  1  0.86233700  0.55611700  0.68632800  1
  O  O112  1  0.61441300  0.04302400  0.81923800  1
  O  O113  1  0.88558700  0.54302400  0.18076200  1
  O  O114  1  0.11441300  0.95697600  0.68076200  1
  O  O115  1  0.38558700  0.45697600  0.31923800  1
  O  O116  1  0.38558700  0.95697600  0.18076200  1
  O  O117  1  0.11441300  0.45697600  0.81923800  1
  O  O118  1  0.88558700  0.04302400  0.31923800  1
  O  O119  1  0.61441300  0.54302400  0.68076200  1
  O  O120  1  0.72098200  0.18081500  0.79657500  1
  O  O121  1  0.77901800  0.68081500  0.20342500  1
  O  O122  1  0.22098200  0.81918500  0.70342500  1
  O  O123  1  0.27901800  0.31918500  0.29657500  1
  O  O124  1  0.27901800  0.81918500  0.20342500  1
  O  O125  1  0.22098200  0.31918500  0.79657500  1
  O  O126  1  0.77901800  0.18081500  0.29657500  1
  O  O127  1  0.72098200  0.68081500  0.70342500  1
  O  O128  1  0.61559400  0.33652900  0.18487000  1
  O  O129  1  0.88440600  0.83652900  0.81513000  1
  O  O130  1  0.11559400  0.66347100  0.31513000  1
  O  O131  1  0.38440600  0.16347100  0.68487000  1
  O  O132  1  0.38440600  0.66347100  0.81513000  1
  O  O133  1  0.11559400  0.16347100  0.18487000  1
  O  O134  1  0.88440600  0.33652900  0.68487000  1
  O  O135  1  0.61559400  0.83652900  0.31513000  1
  O  O136  1  0.39508000  0.16888200  0.17109900  1
  O  O137  1  0.10492000  0.66888200  0.82890100  1
  O  O138  1  0.89508000  0.83111800  0.32890100  1
  O  O139  1  0.60492000  0.33111800  0.67109900  1
  O  O140  1  0.60492000  0.83111800  0.82890100  1
  O  O141  1  0.89508000  0.33111800  0.17109900  1
  O  O142  1  0.10492000  0.16888200  0.67109900  1
  O  O143  1  0.39508000  0.66888200  0.32890100  1
  O  O144  1  0.38992000  0.17986100  0.92612600  1
  O  O145  1  0.11008000  0.67986100  0.07387400  1
  O  O146  1  0.88992000  0.82013900  0.57387400  1
  O  O147  1  0.61008000  0.32013900  0.42612600  1
  O  O148  1  0.61008000  0.82013900  0.07387400  1
  O  O149  1  0.88992000  0.32013900  0.92612600  1
  O  O150  1  0.11008000  0.17986100  0.42612600  1
  O  O151  1  0.38992000  0.67986100  0.57387400  1
  O  O152  1  0.61610200  0.34165500  0.92587400  1
  O  O153  1  0.88389800  0.84165500  0.07412600  1
  O  O154  1  0.11610200  0.65834500  0.57412600  1
  O  O155  1  0.38389800  0.15834500  0.42587400  1
  O  O156  1  0.38389800  0.65834500  0.07412600  1
  O  O157  1  0.11610200  0.15834500  0.92587400  1
  O  O158  1  0.88389800  0.34165500  0.42587400  1
  O  O159  1  0.61610200  0.84165500  0.57412600  1
