# generated using pymatgen
data_LaMg2H7
_symmetry_space_group_name_H-M   'P 1'
_cell_length_a   6.36099000
_cell_length_b   6.36099000
_cell_length_c   9.53736100
_cell_angle_alpha   90.00000000
_cell_angle_beta   90.00000000
_cell_angle_gamma   90.00000000
_symmetry_Int_Tables_number   1
_chemical_formula_structural   LaMg2H7
_chemical_formula_sum   'La4 Mg8 H28'
_cell_volume   385.90254893
_cell_formula_units_Z   4
loop_
 _symmetry_equiv_pos_site_id
 _symmetry_equiv_pos_as_xyz
  1  'x, y, z'
loop_
 _atom_site_type_symbol
 _atom_site_label
 _atom_site_symmetry_multiplicity
 _atom_site_fract_x
 _atom_site_fract_y
 _atom_site_fract_z
 _atom_site_occupancy
  La  La0  1  0.76957700  0.23042300  0.75000000  1
  La  La1  1  0.23042300  0.76957700  0.25000000  1
  La  La2  1  0.73042300  0.73042300  0.50000000  1
  La  La3  1  0.26957700  0.26957700  0.00000000  1
  Mg  Mg4  1  0.52539100  0.23852300  0.39812300  1
  Mg  Mg5  1  0.47460900  0.76147700  0.89812300  1
  Mg  Mg6  1  0.73852300  0.97460900  0.14812300  1
  Mg  Mg7  1  0.26147700  0.02539100  0.64812300  1
  Mg  Mg8  1  0.76147700  0.47460900  0.10187700  1
  Mg  Mg9  1  0.23852300  0.52539100  0.60187700  1
  Mg  Mg10  1  0.97460900  0.73852300  0.85187700  1
  Mg  Mg11  1  0.02539100  0.26147700  0.35187700  1
  H  H12  1  0.53278900  0.46795700  0.62064400  1
  H  H13  1  0.46721100  0.53204300  0.12064400  1
  H  H14  1  0.96795700  0.96721100  0.37064400  1
  H  H15  1  0.03204300  0.03278900  0.87064400  1
  H  H16  1  0.53204300  0.46721100  0.87935600  1
  H  H17  1  0.46795700  0.53278900  0.37935600  1
  H  H18  1  0.96721100  0.96795700  0.62935600  1
  H  H19  1  0.03278900  0.03204300  0.12935600  1
  H  H20  1  0.57111000  0.06624500  0.56958000  1
  H  H21  1  0.42889000  0.93375500  0.06958000  1
  H  H22  1  0.56624500  0.92889000  0.31958000  1
  H  H23  1  0.43375500  0.07111000  0.81958000  1
  H  H24  1  0.93375500  0.42889000  0.93042000  1
  H  H25  1  0.06624500  0.57111000  0.43042000  1
  H  H26  1  0.92889000  0.56624500  0.68042000  1
  H  H27  1  0.07111000  0.43375500  0.18042000  1
  H  H28  1  0.80492500  0.33947900  0.49597200  1
  H  H29  1  0.19507500  0.66052100  0.99597200  1
  H  H30  1  0.83947900  0.69507500  0.24597200  1
  H  H31  1  0.16052100  0.30492500  0.74597200  1
  H  H32  1  0.66052100  0.19507500  0.00402800  1
  H  H33  1  0.33947900  0.80492500  0.50402800  1
  H  H34  1  0.69507500  0.83947900  0.75402800  1
  H  H35  1  0.30492500  0.16052100  0.25402800  1
  H  H36  1  0.25817300  0.74182700  0.75000000  1
  H  H37  1  0.74182700  0.25817300  0.25000000  1
  H  H38  1  0.24182700  0.24182700  0.50000000  1
  H  H39  1  0.75817300  0.75817300  0.00000000  1
