# generated using pymatgen
data_MnP2O7
_symmetry_space_group_name_H-M   'P 1'
_cell_length_a   6.83822538
_cell_length_b   9.44277281
_cell_length_c   9.02096330
_cell_angle_alpha   117.99721134
_cell_angle_beta   99.38145945
_cell_angle_gamma   96.56401855
_symmetry_Int_Tables_number   1
_chemical_formula_structural   MnP2O7
_chemical_formula_sum   'Mn4 P8 O28'
_cell_volume   495.12615482
_cell_formula_units_Z   4
loop_
 _symmetry_equiv_pos_site_id
 _symmetry_equiv_pos_as_xyz
  1  'x, y, z'
loop_
 _atom_site_type_symbol
 _atom_site_label
 _atom_site_symmetry_multiplicity
 _atom_site_fract_x
 _atom_site_fract_y
 _atom_site_fract_z
 _atom_site_occupancy
  Mn  Mn0  1  0.99996600  0.49979200  0.49978000  1
  Mn  Mn1  1  0.50001300  0.49998700  0.00021100  1
  Mn  Mn2  1  0.00021100  0.00010200  0.99996600  1
  Mn  Mn3  1  0.49999700  0.00004600  0.49982300  1
  P  P4  1  0.86179200  0.12129600  0.35835700  1
  P  P5  1  0.86175600  0.62131600  0.85835500  1
  P  P6  1  0.13825200  0.87867200  0.64163900  1
  P  P7  1  0.13821100  0.37868300  0.14163400  1
  P  P8  1  0.25338400  0.28823200  0.59926000  1
  P  P9  1  0.25337800  0.78822700  0.09921400  1
  P  P10  1  0.74661700  0.71178700  0.40080500  1
  P  P11  1  0.74659000  0.21175500  0.90075100  1
  O  O12  1  0.83180100  0.28205900  0.36376100  1
  O  O13  1  0.83180400  0.78208500  0.86376400  1
  O  O14  1  0.16817100  0.71792600  0.63624400  1
  O  O15  1  0.16819400  0.21794900  0.13625900  1
  O  O16  1  0.23532400  0.41588500  0.53988900  1
  O  O17  1  0.23534000  0.91591400  0.03990200  1
  O  O18  1  0.76465800  0.58411100  0.46011200  1
  O  O19  1  0.76465200  0.08410600  0.96011600  1
  O  O20  1  0.93521100  0.00670000  0.20119100  1
  O  O21  1  0.93521800  0.50669100  0.70117700  1
  O  O22  1  0.06477300  0.99331600  0.79883600  1
  O  O23  1  0.06478900  0.49329800  0.29882300  1
  O  O24  1  0.40429200  0.18948200  0.51209700  1
  O  O25  1  0.40429700  0.68948700  0.01211700  1
  O  O26  1  0.59569300  0.81052600  0.48790100  1
  O  O27  1  0.59569000  0.31051700  0.98790700  1
  O  O28  1  0.67190400  0.01994800  0.35955700  1
  O  O29  1  0.67190100  0.51995200  0.85957900  1
  O  O30  1  0.32808200  0.98005600  0.64044500  1
  O  O31  1  0.32807200  0.48004600  0.14045500  1
  O  O32  1  0.03286200  0.16596300  0.52828800  1
  O  O33  1  0.03288700  0.66598200  0.02830800  1
  O  O34  1  0.96711900  0.83404700  0.47172300  1
  O  O35  1  0.96712300  0.33403800  0.97173400  1
  O  O36  1  0.29088100  0.85579200  0.29469000  1
  O  O37  1  0.29088600  0.35578900  0.79469100  1
  O  O38  1  0.70911100  0.14422100  0.70531800  1
  O  O39  1  0.70910200  0.64421800  0.20532500  1
