# generated using pymatgen
data_Zn2Hg2H2S2O11
_symmetry_space_group_name_H-M   'P 1'
_cell_length_a   6.20824700
_cell_length_b   11.41969800
_cell_length_c   13.27055400
_cell_angle_alpha   90.00000000
_cell_angle_beta   90.00000000
_cell_angle_gamma   90.00000000
_symmetry_Int_Tables_number   1
_chemical_formula_structural   Zn2Hg2H2S2O11
_chemical_formula_sum   'Zn8 Hg8 H8 S8 O44'
_cell_volume   940.83325518
_cell_formula_units_Z   4
loop_
 _symmetry_equiv_pos_site_id
 _symmetry_equiv_pos_as_xyz
  1  'x, y, z'
loop_
 _atom_site_type_symbol
 _atom_site_label
 _atom_site_symmetry_multiplicity
 _atom_site_fract_x
 _atom_site_fract_y
 _atom_site_fract_z
 _atom_site_occupancy
  Zn  Zn0  1  0.01695700  0.16600200  0.12473700  1
  Zn  Zn1  1  0.01695700  0.16600200  0.37526300  1
  Zn  Zn2  1  0.01695700  0.33399800  0.62473700  1
  Zn  Zn3  1  0.01695700  0.33399800  0.87526300  1
  Zn  Zn4  1  0.98304300  0.66600200  0.12473700  1
  Zn  Zn5  1  0.98304300  0.66600200  0.37526300  1
  Zn  Zn6  1  0.98304300  0.83399800  0.87526300  1
  Zn  Zn7  1  0.98304300  0.83399800  0.62473700  1
  Hg  Hg8  1  0.20260700  0.41862300  0.25000000  1
  Hg  Hg9  1  0.20260700  0.08137700  0.75000000  1
  Hg  Hg10  1  0.47771200  0.66952900  0.25000000  1
  Hg  Hg11  1  0.47771200  0.83047100  0.75000000  1
  Hg  Hg12  1  0.52228800  0.16952900  0.25000000  1
  Hg  Hg13  1  0.52228800  0.33047100  0.75000000  1
  Hg  Hg14  1  0.79739300  0.58137700  0.75000000  1
  Hg  Hg15  1  0.79739300  0.91862300  0.25000000  1
  H  H16  1  0.30592800  0.30782000  0.03070200  1
  H  H17  1  0.30592800  0.30782000  0.46929800  1
  H  H18  1  0.30592800  0.19218000  0.53070200  1
  H  H19  1  0.30592800  0.19218000  0.96929800  1
  H  H20  1  0.69407200  0.69218000  0.53070200  1
  H  H21  1  0.69407200  0.80782000  0.03070200  1
  H  H22  1  0.69407200  0.80782000  0.46929800  1
  H  H23  1  0.69407200  0.69218000  0.96929800  1
  S  S24  1  0.26908100  0.91014200  0.07759500  1
  S  S25  1  0.26908100  0.58985800  0.57759500  1
  S  S26  1  0.26908100  0.58985800  0.92240500  1
  S  S27  1  0.26908100  0.91014200  0.42240500  1
  S  S28  1  0.73091900  0.41014200  0.42240500  1
  S  S29  1  0.73091900  0.41014200  0.07759500  1
  S  S30  1  0.73091900  0.08985800  0.57759500  1
  S  S31  1  0.73091900  0.08985800  0.92240500  1
  O  O32  1  0.11216400  0.83574100  0.13494700  1
  O  O33  1  0.11216400  0.83574100  0.36505300  1
  O  O34  1  0.11216400  0.66425900  0.86505300  1
  O  O35  1  0.11216400  0.66425900  0.63494700  1
  O  O36  1  0.16732400  0.60167600  0.25000000  1
  O  O37  1  0.16732400  0.89832400  0.75000000  1
  O  O38  1  0.20383700  0.25000000  0.00000000  1
  O  O39  1  0.20383700  0.25000000  0.50000000  1
  O  O40  1  0.21137900  0.23300700  0.25000000  1
  O  O41  1  0.21137900  0.26699300  0.75000000  1
  O  O42  1  0.22214100  0.59592700  0.03234500  1
  O  O43  1  0.22214100  0.59592700  0.46765500  1
  O  O44  1  0.22214100  0.90407300  0.96765500  1
  O  O45  1  0.22214100  0.90407300  0.53234500  1
  O  O46  1  0.24687100  0.03315000  0.11475000  1
  O  O47  1  0.24687100  0.03315000  0.38525000  1
  O  O48  1  0.24687100  0.46685000  0.61475000  1
  O  O49  1  0.24687100  0.46685000  0.88525000  1
  O  O50  1  0.49088300  0.86928000  0.09860400  1
  O  O51  1  0.49088300  0.86928000  0.40139600  1
  O  O52  1  0.49088300  0.63072000  0.59860400  1
  O  O53  1  0.49088300  0.63072000  0.90139600  1
  O  O54  1  0.50911700  0.13072000  0.59860400  1
  O  O55  1  0.50911700  0.13072000  0.90139600  1
  O  O56  1  0.50911700  0.36928000  0.09860400  1
  O  O57  1  0.50911700  0.36928000  0.40139600  1
  O  O58  1  0.75312900  0.53315000  0.11475000  1
  O  O59  1  0.75312900  0.53315000  0.38525000  1
  O  O60  1  0.75312900  0.96685000  0.61475000  1
  O  O61  1  0.75312900  0.96685000  0.88525000  1
  O  O62  1  0.77785900  0.09592700  0.03234500  1
  O  O63  1  0.77785900  0.09592700  0.46765500  1
  O  O64  1  0.77785900  0.40407300  0.53234500  1
  O  O65  1  0.77785900  0.40407300  0.96765500  1
  O  O66  1  0.78862100  0.73300700  0.25000000  1
  O  O67  1  0.78862100  0.76699300  0.75000000  1
  O  O68  1  0.79616300  0.75000000  0.50000000  1
  O  O69  1  0.79616300  0.75000000  0.00000000  1
  O  O70  1  0.83267600  0.10167600  0.25000000  1
  O  O71  1  0.83267600  0.39832400  0.75000000  1
  O  O72  1  0.88783600  0.33574100  0.13494700  1
  O  O73  1  0.88783600  0.33574100  0.36505300  1
  O  O74  1  0.88783600  0.16425900  0.63494700  1
  O  O75  1  0.88783600  0.16425900  0.86505300  1
