# generated using pymatgen
data_Li2Cr3SbO8
_symmetry_space_group_name_H-M   'P 1'
_cell_length_a   8.54076400
_cell_length_b   8.54076400
_cell_length_c   8.54076400
_cell_angle_alpha   90.00000000
_cell_angle_beta   90.00000000
_cell_angle_gamma   90.00000000
_symmetry_Int_Tables_number   1
_chemical_formula_structural   Li2Cr3SbO8
_chemical_formula_sum   'Li8 Cr12 Sb4 O32'
_cell_volume   623.00303818
_cell_formula_units_Z   4
loop_
 _symmetry_equiv_pos_site_id
 _symmetry_equiv_pos_as_xyz
  1  'x, y, z'
loop_
 _atom_site_type_symbol
 _atom_site_label
 _atom_site_symmetry_multiplicity
 _atom_site_fract_x
 _atom_site_fract_y
 _atom_site_fract_z
 _atom_site_occupancy
  Li  Li0  1  0.49688700  0.49688700  0.49688700  1
  Li  Li1  1  0.75311300  0.75311300  0.75311300  1
  Li  Li2  1  0.74688700  0.24688700  0.25311300  1
  Li  Li3  1  0.00311300  0.50311300  0.99688700  1
  Li  Li4  1  0.99688700  0.00311300  0.50311300  1
  Li  Li5  1  0.25311300  0.74688700  0.24688700  1
  Li  Li6  1  0.24688700  0.25311300  0.74688700  1
  Li  Li7  1  0.50311300  0.99688700  0.00311300  1
  Cr  Cr8  1  0.62053600  0.62946400  0.12500000  1
  Cr  Cr9  1  0.62500000  0.87946400  0.37053600  1
  Cr  Cr10  1  0.62946400  0.12500000  0.62053600  1
  Cr  Cr11  1  0.87053600  0.87500000  0.12053600  1
  Cr  Cr12  1  0.87500000  0.12053600  0.87053600  1
  Cr  Cr13  1  0.87946400  0.37053600  0.62500000  1
  Cr  Cr14  1  0.12053600  0.87053600  0.87500000  1
  Cr  Cr15  1  0.12500000  0.62053600  0.62946400  1
  Cr  Cr16  1  0.12946400  0.37500000  0.37946400  1
  Cr  Cr17  1  0.37053600  0.62500000  0.87946400  1
  Cr  Cr18  1  0.37500000  0.37946400  0.12946400  1
  Cr  Cr19  1  0.37946400  0.12946400  0.37500000  1
  Sb  Sb20  1  0.62500000  0.37500000  0.87500000  1
  Sb  Sb21  1  0.87500000  0.62500000  0.37500000  1
  Sb  Sb22  1  0.12500000  0.12500000  0.12500000  1
  Sb  Sb23  1  0.37500000  0.87500000  0.62500000  1
  O  O24  1  0.61258200  0.61154800  0.88653900  1
  O  O25  1  0.61346100  0.38741800  0.11154800  1
  O  O26  1  0.61215700  0.11215700  0.38784300  1
  O  O27  1  0.63845200  0.63741800  0.36346100  1
  O  O28  1  0.61154800  0.88653900  0.61258200  1
  O  O29  1  0.63784300  0.86215700  0.13784300  1
  O  O30  1  0.63653900  0.13845200  0.86258200  1
  O  O31  1  0.63741800  0.36346100  0.63845200  1
  O  O32  1  0.86258200  0.63653900  0.13845200  1
  O  O33  1  0.86346100  0.86154800  0.36258200  1
  O  O34  1  0.86215700  0.13784300  0.63784300  1
  O  O35  1  0.88845200  0.11346100  0.11258200  1
  O  O36  1  0.86154800  0.36258200  0.86346100  1
  O  O37  1  0.88784300  0.88784300  0.88784300  1
  O  O38  1  0.88653900  0.61258200  0.61154800  1
  O  O39  1  0.88741800  0.38845200  0.38653900  1
  O  O40  1  0.11258200  0.88845200  0.11346100  1
  O  O41  1  0.11346100  0.11258200  0.88845200  1
  O  O42  1  0.11215700  0.38784300  0.61215700  1
  O  O43  1  0.13845200  0.86258200  0.63653900  1
  O  O44  1  0.11154800  0.61346100  0.38741800  1
  O  O45  1  0.13784300  0.63784300  0.86215700  1
  O  O46  1  0.13653900  0.36154800  0.13741800  1
  O  O47  1  0.13741800  0.13653900  0.36154800  1
  O  O48  1  0.36258200  0.86346100  0.86154800  1
  O  O49  1  0.36346100  0.63845200  0.63741800  1
  O  O50  1  0.36215700  0.36215700  0.36215700  1
  O  O51  1  0.38845200  0.38653900  0.88741800  1
  O  O52  1  0.36154800  0.13741800  0.13653900  1
  O  O53  1  0.38784300  0.61215700  0.11215700  1
  O  O54  1  0.38653900  0.88741800  0.38845200  1
  O  O55  1  0.38741800  0.11154800  0.61346100  1
