# generated using pymatgen
data_LiV(SiO3)2
_symmetry_space_group_name_H-M   'P 1'
_cell_length_a   5.35778900
_cell_length_b   8.78766100
_cell_length_c   18.28882800
_cell_angle_alpha   90.00000000
_cell_angle_beta   90.00000000
_cell_angle_gamma   90.00000000
_symmetry_Int_Tables_number   1
_chemical_formula_structural   LiV(SiO3)2
_chemical_formula_sum   'Li8 V8 Si16 O48'
_cell_volume   861.08252703
_cell_formula_units_Z   8
loop_
 _symmetry_equiv_pos_site_id
 _symmetry_equiv_pos_as_xyz
  1  'x, y, z'
loop_
 _atom_site_type_symbol
 _atom_site_label
 _atom_site_symmetry_multiplicity
 _atom_site_fract_x
 _atom_site_fract_y
 _atom_site_fract_z
 _atom_site_occupancy
  Li  Li0  1  0.12036600  0.50353000  0.62636400  1
  Li  Li1  1  0.62036600  0.99647000  0.62636400  1
  Li  Li2  1  0.62036600  0.49647000  0.87363600  1
  Li  Li3  1  0.12036600  0.00353000  0.87363600  1
  Li  Li4  1  0.87963400  0.99647000  0.12636400  1
  Li  Li5  1  0.37963400  0.50353000  0.12636400  1
  Li  Li6  1  0.87963400  0.49647000  0.37363600  1
  Li  Li7  1  0.37963400  0.00353000  0.37363600  1
  V  V8  1  0.11935800  0.15268100  0.62475200  1
  V  V9  1  0.61935800  0.34731900  0.62475200  1
  V  V10  1  0.61935800  0.84731900  0.87524800  1
  V  V11  1  0.11935800  0.65268100  0.87524800  1
  V  V12  1  0.88064200  0.34731900  0.12475200  1
  V  V13  1  0.38064200  0.15268100  0.12475200  1
  V  V14  1  0.88064200  0.84731900  0.37524800  1
  V  V15  1  0.38064200  0.65268100  0.37524800  1
  Si  Si16  1  0.22665700  0.83805600  0.52496200  1
  Si  Si17  1  0.72665700  0.66194400  0.52496200  1
  Si  Si18  1  0.95352100  0.83882800  0.72554600  1
  Si  Si19  1  0.45352100  0.66117200  0.72554600  1
  Si  Si20  1  0.95352100  0.33882800  0.77445400  1
  Si  Si21  1  0.45352100  0.16117200  0.77445400  1
  Si  Si22  1  0.22665700  0.33805600  0.97503800  1
  Si  Si23  1  0.72665700  0.16194400  0.97503800  1
  Si  Si24  1  0.27334300  0.83805600  0.02496200  1
  Si  Si25  1  0.77334300  0.66194400  0.02496200  1
  Si  Si26  1  0.54647900  0.83882800  0.22554600  1
  Si  Si27  1  0.04647900  0.66117200  0.22554600  1
  Si  Si28  1  0.54647900  0.33882800  0.27445400  1
  Si  Si29  1  0.04647900  0.16117200  0.27445400  1
  Si  Si30  1  0.27334300  0.33805600  0.47503800  1
  Si  Si31  1  0.77334300  0.16194400  0.47503800  1
  O  O32  1  0.94878400  0.77970200  0.55187100  1
  O  O33  1  0.44878400  0.72029800  0.55187100  1
  O  O34  1  0.28010300  0.33401800  0.56576000  1
  O  O35  1  0.78010300  0.16598200  0.56576000  1
  O  O36  1  0.28828900  0.99962800  0.56366800  1
  O  O37  1  0.78828900  0.50037200  0.56366800  1
  O  O38  1  0.95402300  0.33294400  0.68416200  1
  O  O39  1  0.45402300  0.16705600  0.68416200  1
  O  O40  1  0.45440100  0.49334900  0.68990300  1
  O  O41  1  0.95440100  0.00665100  0.68990300  1
  O  O42  1  0.68821900  0.76470600  0.69585000  1
  O  O43  1  0.18821900  0.73529400  0.69585000  1
  O  O44  1  0.68821900  0.26470600  0.80415000  1
  O  O45  1  0.18821900  0.23529400  0.80415000  1
  O  O46  1  0.45440100  0.99334900  0.81009700  1
  O  O47  1  0.95440100  0.50665100  0.81009700  1
  O  O48  1  0.95402300  0.83294400  0.81583800  1
  O  O49  1  0.45402300  0.66705600  0.81583800  1
  O  O50  1  0.28828900  0.49962800  0.93633200  1
  O  O51  1  0.78828900  0.00037200  0.93633200  1
  O  O52  1  0.28010300  0.83401800  0.93424000  1
  O  O53  1  0.78010300  0.66598200  0.93424000  1
  O  O54  1  0.94878400  0.27970200  0.94812900  1
  O  O55  1  0.44878400  0.22029800  0.94812900  1
  O  O56  1  0.55121600  0.77970200  0.05187100  1
  O  O57  1  0.05121600  0.72029800  0.05187100  1
  O  O58  1  0.21989700  0.33401800  0.06576000  1
  O  O59  1  0.71989700  0.16598200  0.06576000  1
  O  O60  1  0.21171100  0.99962800  0.06366800  1
  O  O61  1  0.71171100  0.50037200  0.06366800  1
  O  O62  1  0.54597700  0.33294400  0.18416200  1
  O  O63  1  0.04597700  0.16705600  0.18416200  1
  O  O64  1  0.04559900  0.49334900  0.18990300  1
  O  O65  1  0.54559900  0.00665100  0.18990300  1
  O  O66  1  0.81178100  0.76470600  0.19585000  1
  O  O67  1  0.31178100  0.73529400  0.19585000  1
  O  O68  1  0.81178100  0.26470600  0.30415000  1
  O  O69  1  0.31178100  0.23529400  0.30415000  1
  O  O70  1  0.04559900  0.99334900  0.31009700  1
  O  O71  1  0.54559900  0.50665100  0.31009700  1
  O  O72  1  0.54597700  0.83294400  0.31583800  1
  O  O73  1  0.04597700  0.66705600  0.31583800  1
  O  O74  1  0.21171100  0.49962800  0.43633200  1
  O  O75  1  0.71171100  0.00037200  0.43633200  1
  O  O76  1  0.21989700  0.83401800  0.43424000  1
  O  O77  1  0.71989700  0.66598200  0.43424000  1
  O  O78  1  0.55121600  0.27970200  0.44812900  1
  O  O79  1  0.05121600  0.22029800  0.44812900  1
