# generated using pymatgen
data_LuAsO4
_symmetry_space_group_name_H-M   'P 1'
_cell_length_a   5.86951320
_cell_length_b   5.86951320
_cell_length_c   5.86951320
_cell_angle_alpha   106.61874077
_cell_angle_beta   106.61874077
_cell_angle_gamma   115.34047267
_symmetry_Int_Tables_number   1
_chemical_formula_structural   LuAsO4
_chemical_formula_sum   'Lu2 As2 O8'
_cell_volume   154.42504931
_cell_formula_units_Z   2
loop_
 _symmetry_equiv_pos_site_id
 _symmetry_equiv_pos_as_xyz
  1  'x, y, z'
loop_
 _atom_site_type_symbol
 _atom_site_label
 _atom_site_symmetry_multiplicity
 _atom_site_fract_x
 _atom_site_fract_y
 _atom_site_fract_z
 _atom_site_occupancy
  Lu  Lu0  1  0.00000000  0.00000000  0.00000000  1
  Lu  Lu1  1  0.25000000  0.75000000  0.50000000  1
  As  As2  1  0.75000000  0.25000000  0.50000000  1
  As  As3  1  0.50000000  0.50000000  0.00000000  1
  O  O4  1  0.31862800  0.50205200  0.18342400  1
  O  O5  1  0.38520400  0.06862800  0.31657600  1
  O  O6  1  0.75205200  0.06862800  0.68342400  1
  O  O7  1  0.31862800  0.13520400  0.81657600  1
  O  O8  1  0.86479600  0.68137200  0.18342400  1
  O  O9  1  0.93137200  0.24794800  0.31657600  1
  O  O10  1  0.93137200  0.61479600  0.68342400  1
  O  O11  1  0.49794800  0.68137200  0.81657600  1
