# generated using pymatgen
data_Cs3YO3
_symmetry_space_group_name_H-M   'P 1'
_cell_length_a   7.63534300
_cell_length_b   8.39358100
_cell_length_c   12.23763655
_cell_angle_alpha   84.51815784
_cell_angle_beta   90.00000000
_cell_angle_gamma   90.00000000
_symmetry_Int_Tables_number   1
_chemical_formula_structural   Cs3YO3
_chemical_formula_sum   'Cs12 Y4 O12'
_cell_volume   780.69715435
_cell_formula_units_Z   4
loop_
 _symmetry_equiv_pos_site_id
 _symmetry_equiv_pos_as_xyz
  1  'x, y, z'
loop_
 _atom_site_type_symbol
 _atom_site_label
 _atom_site_symmetry_multiplicity
 _atom_site_fract_x
 _atom_site_fract_y
 _atom_site_fract_z
 _atom_site_occupancy
  Cs  Cs0  1  0.33915600  0.34855700  0.07554400  1
  Cs  Cs1  1  0.61775700  0.94417800  0.15580500  1
  Cs  Cs2  1  0.82094400  0.38118400  0.19422700  1
  Cs  Cs3  1  0.32094400  0.61881600  0.30577300  1
  Cs  Cs4  1  0.11775700  0.05582200  0.34419500  1
  Cs  Cs5  1  0.83915600  0.65144300  0.42445600  1
  Cs  Cs6  1  0.16084400  0.34855700  0.57554400  1
  Cs  Cs7  1  0.88224300  0.94417800  0.65580500  1
  Cs  Cs8  1  0.67905600  0.38118400  0.69422700  1
  Cs  Cs9  1  0.17905600  0.61881600  0.80577300  1
  Cs  Cs10  1  0.38224300  0.05582200  0.84419500  1
  Cs  Cs11  1  0.66084400  0.65144300  0.92445600  1
  Y  Y12  1  0.08552200  0.84209500  0.06769900  1
  Y  Y13  1  0.58552200  0.15790500  0.43230100  1
  Y  Y14  1  0.41447800  0.84209500  0.56769900  1
  Y  Y15  1  0.91447800  0.15790500  0.93230100  1
  O  O16  1  0.34484100  0.75388400  0.04384500  1
  O  O17  1  0.05619200  0.10132900  0.08901900  1
  O  O18  1  0.94371900  0.70109900  0.19227400  1
  O  O19  1  0.44371900  0.29890100  0.30772600  1
  O  O20  1  0.55619200  0.89867100  0.41098100  1
  O  O21  1  0.84484100  0.24611600  0.45615500  1
  O  O22  1  0.15515900  0.75388400  0.54384500  1
  O  O23  1  0.44380800  0.10132900  0.58901900  1
  O  O24  1  0.55628100  0.70109900  0.69227400  1
  O  O25  1  0.05628100  0.29890100  0.80772600  1
  O  O26  1  0.94380800  0.89867100  0.91098100  1
  O  O27  1  0.65515900  0.24611600  0.95615500  1
