# generated using pymatgen
data_LiCu2F6
_symmetry_space_group_name_H-M   'P 1'
_cell_length_a   4.67194100
_cell_length_b   4.67194100
_cell_length_c   9.06660600
_cell_angle_alpha   90.00000000
_cell_angle_beta   90.00000000
_cell_angle_gamma   90.00000000
_symmetry_Int_Tables_number   1
_chemical_formula_structural   LiCu2F6
_chemical_formula_sum   'Li2 Cu4 F12'
_cell_volume   197.89710571
_cell_formula_units_Z   2
loop_
 _symmetry_equiv_pos_site_id
 _symmetry_equiv_pos_as_xyz
  1  'x, y, z'
loop_
 _atom_site_type_symbol
 _atom_site_label
 _atom_site_symmetry_multiplicity
 _atom_site_fract_x
 _atom_site_fract_y
 _atom_site_fract_z
 _atom_site_occupancy
  Li  Li0  1  0.50000000  0.50000000  0.00000000  1
  Li  Li1  1  0.00000000  0.00000000  0.50000000  1
  Cu  Cu2  1  0.50000000  0.50000000  0.66869000  1
  Cu  Cu3  1  0.50000000  0.50000000  0.33131000  1
  Cu  Cu4  1  0.00000000  0.00000000  0.83131000  1
  Cu  Cu5  1  0.00000000  0.00000000  0.16869000  1
  F  F6  1  0.68971900  0.31028100  0.50000000  1
  F  F7  1  0.69764000  0.30236000  0.82851700  1
  F  F8  1  0.69764000  0.30236000  0.17148300  1
  F  F9  1  0.80236000  0.80236000  0.67148300  1
  F  F10  1  0.80236000  0.80236000  0.32851700  1
  F  F11  1  0.81028100  0.81028100  0.00000000  1
  F  F12  1  0.18971900  0.18971900  0.00000000  1
  F  F13  1  0.19764000  0.19764000  0.67148300  1
  F  F14  1  0.19764000  0.19764000  0.32851700  1
  F  F15  1  0.30236000  0.69764000  0.17148300  1
  F  F16  1  0.30236000  0.69764000  0.82851700  1
  F  F17  1  0.31028100  0.68971900  0.50000000  1
