# generated using pymatgen
data_RbN3
_symmetry_space_group_name_H-M   'P 1'
_cell_length_a   5.97429730
_cell_length_b   5.97429730
_cell_length_c   5.97429730
_cell_angle_alpha   114.50454577
_cell_angle_beta   114.50454577
_cell_angle_gamma   99.81509621
_symmetry_Int_Tables_number   1
_chemical_formula_structural   RbN3
_chemical_formula_sum   'Rb2 N6'
_cell_volume   160.73917501
_cell_formula_units_Z   2
loop_
 _symmetry_equiv_pos_site_id
 _symmetry_equiv_pos_as_xyz
  1  'x, y, z'
loop_
 _atom_site_type_symbol
 _atom_site_label
 _atom_site_symmetry_multiplicity
 _atom_site_fract_x
 _atom_site_fract_y
 _atom_site_fract_z
 _atom_site_occupancy
  Rb  Rb0  1  0.75000000  0.75000000  0.00000000  1
  Rb  Rb1  1  0.25000000  0.25000000  0.00000000  1
  N  N2  1  0.00000000  0.50000000  0.50000000  1
  N  N3  1  0.50000000  0.00000000  0.50000000  1
  N  N4  1  0.13023700  0.63023700  0.76047400  1
  N  N5  1  0.86976300  0.36976300  0.23952600  1
  N  N6  1  0.63023700  0.86976300  0.50000000  1
  N  N7  1  0.36976300  0.13023700  0.50000000  1
