# generated using pymatgen
data_Er2Si2O7
_symmetry_space_group_name_H-M   'P 1'
_cell_length_a   5.65667342
_cell_length_b   5.65667342
_cell_length_c   4.77438423
_cell_angle_alpha   82.70917260
_cell_angle_beta   82.70917260
_cell_angle_gamma   105.37123241
_symmetry_Int_Tables_number   1
_chemical_formula_structural   Er2Si2O7
_chemical_formula_sum   'Er2 Si2 O7'
_cell_volume   144.04151611
_cell_formula_units_Z   1
loop_
 _symmetry_equiv_pos_site_id
 _symmetry_equiv_pos_as_xyz
  1  'x, y, z'
loop_
 _atom_site_type_symbol
 _atom_site_label
 _atom_site_symmetry_multiplicity
 _atom_site_fract_x
 _atom_site_fract_y
 _atom_site_fract_z
 _atom_site_occupancy
  Er  Er0  1  0.30804000  0.69196000  0.00000000  1
  Er  Er1  1  0.69196000  0.30804000  0.00000000  1
  Si  Si2  1  0.21876800  0.21876800  0.58964700  1
  Si  Si3  1  0.78123200  0.78123200  0.41035300  1
  O  O4  1  0.91516100  0.61460800  0.21895400  1
  O  O5  1  0.38539200  0.08483900  0.78104600  1
  O  O6  1  0.08483900  0.38539200  0.78104600  1
  O  O7  1  0.61460800  0.91516100  0.21895400  1
  O  O8  1  0.00000000  0.00000000  0.50000000  1
  O  O9  1  0.61700600  0.61700600  0.71425000  1
  O  O10  1  0.38299400  0.38299400  0.28575000  1
