# generated using pymatgen
data_HgPSe3
_symmetry_space_group_name_H-M   'P 1'
_cell_length_a   6.72067980
_cell_length_b   6.72067980
_cell_length_c   15.19005263
_cell_angle_alpha   86.06077872
_cell_angle_beta   86.06077872
_cell_angle_gamma   120.20217304
_symmetry_Int_Tables_number   1
_chemical_formula_structural   HgPSe3
_chemical_formula_sum   'Hg4 P4 Se12'
_cell_volume   587.30518972
_cell_formula_units_Z   4
loop_
 _symmetry_equiv_pos_site_id
 _symmetry_equiv_pos_as_xyz
  1  'x, y, z'
loop_
 _atom_site_type_symbol
 _atom_site_label
 _atom_site_symmetry_multiplicity
 _atom_site_fract_x
 _atom_site_fract_y
 _atom_site_fract_z
 _atom_site_occupancy
  Hg  Hg0  1  0.42317900  0.22785400  0.43732300  1
  Hg  Hg1  1  0.77214600  0.57682100  0.06267700  1
  Hg  Hg2  1  0.57682100  0.77214600  0.56267700  1
  Hg  Hg3  1  0.22785400  0.42317900  0.93732300  1
  P  P4  1  0.47496800  0.93859300  0.07580300  1
  P  P5  1  0.06140700  0.52503200  0.42419700  1
  P  P6  1  0.52503200  0.06140700  0.92419700  1
  P  P7  1  0.93859300  0.47496800  0.57580300  1
  Se  Se8  1  0.57316000  0.17878200  0.60153700  1
  Se  Se9  1  0.82121800  0.42684000  0.89846300  1
  Se  Se10  1  0.42684000  0.82121800  0.39846300  1
  Se  Se11  1  0.17878200  0.57316000  0.10153700  1
  Se  Se12  1  0.95956100  0.79957300  0.61133300  1
  Se  Se13  1  0.20042700  0.04043900  0.88866700  1
  Se  Se14  1  0.04043900  0.20042700  0.38866700  1
  Se  Se15  1  0.79957300  0.95956100  0.11133300  1
  Se  Se16  1  0.59708700  0.82790700  0.85294600  1
  Se  Se17  1  0.17209300  0.40291300  0.64705400  1
  Se  Se18  1  0.40291300  0.17209300  0.14705400  1
  Se  Se19  1  0.82790700  0.59708700  0.35294600  1
