# generated using pymatgen
data_KEuO2
_symmetry_space_group_name_H-M   'P 1'
_cell_length_a   6.58571249
_cell_length_b   6.58571249
_cell_length_c   6.58571285
_cell_angle_alpha   31.61226870
_cell_angle_beta   31.61226870
_cell_angle_gamma   31.61227105
_symmetry_Int_Tables_number   1
_chemical_formula_structural   KEuO2
_chemical_formula_sum   'K1 Eu1 O2'
_cell_volume   69.68521369
_cell_formula_units_Z   1
loop_
 _symmetry_equiv_pos_site_id
 _symmetry_equiv_pos_as_xyz
  1  'x, y, z'
loop_
 _atom_site_type_symbol
 _atom_site_label
 _atom_site_symmetry_multiplicity
 _atom_site_fract_x
 _atom_site_fract_y
 _atom_site_fract_z
 _atom_site_occupancy
  K  K0  1  0.00000000  0.00000000  0.00000000  1
  Eu  Eu1  1  0.50000000  0.50000000  0.50000000  1
  O  O2  1  0.23000500  0.23000500  0.23000500  1
  O  O3  1  0.76999500  0.76999500  0.76999500  1
