# generated using pymatgen
data_La2Sb
_symmetry_space_group_name_H-M   'P 1'
_cell_length_a   9.72232581
_cell_length_b   9.72232581
_cell_length_c   9.72232581
_cell_angle_alpha   152.34512633
_cell_angle_beta   152.34512633
_cell_angle_gamma   39.50951646
_symmetry_Int_Tables_number   1
_chemical_formula_structural   La2Sb
_chemical_formula_sum   'La4 Sb2'
_cell_volume   197.61442733
_cell_formula_units_Z   2
loop_
 _symmetry_equiv_pos_site_id
 _symmetry_equiv_pos_as_xyz
  1  'x, y, z'
loop_
 _atom_site_type_symbol
 _atom_site_label
 _atom_site_symmetry_multiplicity
 _atom_site_fract_x
 _atom_site_fract_y
 _atom_site_fract_z
 _atom_site_occupancy
  La  La0  1  0.32052700  0.32052700  0.00000000  1
  La  La1  1  0.67947300  0.67947300  0.00000000  1
  La  La2  1  0.50000000  0.00000000  0.50000000  1
  La  La3  1  0.00000000  0.50000000  0.50000000  1
  Sb  Sb4  1  0.86291300  0.86291300  0.00000000  1
  Sb  Sb5  1  0.13708700  0.13708700  0.00000000  1
