# generated using pymatgen
data_Rb2Ge2O5
_symmetry_space_group_name_H-M   'P 1'
_cell_length_a   7.04290837
_cell_length_b   7.04290837
_cell_length_c   15.26020180
_cell_angle_alpha   89.76407557
_cell_angle_beta   89.76407557
_cell_angle_gamma   77.53178446
_symmetry_Int_Tables_number   1
_chemical_formula_structural   Rb2Ge2O5
_chemical_formula_sum   'Rb8 Ge8 O20'
_cell_volume   739.08289493
_cell_formula_units_Z   4
loop_
 _symmetry_equiv_pos_site_id
 _symmetry_equiv_pos_as_xyz
  1  'x, y, z'
loop_
 _atom_site_type_symbol
 _atom_site_label
 _atom_site_symmetry_multiplicity
 _atom_site_fract_x
 _atom_site_fract_y
 _atom_site_fract_z
 _atom_site_occupancy
  Rb  Rb0  1  0.93067500  0.72088400  0.08256600  1
  Rb  Rb1  1  0.72088400  0.93067500  0.58256600  1
  Rb  Rb2  1  0.70434300  0.44316700  0.39638100  1
  Rb  Rb3  1  0.44316700  0.70434300  0.89638100  1
  Rb  Rb4  1  0.55683300  0.29565700  0.10361900  1
  Rb  Rb5  1  0.29565700  0.55683300  0.60361900  1
  Rb  Rb6  1  0.27911600  0.06932500  0.41743400  1
  Rb  Rb7  1  0.06932500  0.27911600  0.91743400  1
  Ge  Ge8  1  0.78928800  0.94735000  0.30507200  1
  Ge  Ge9  1  0.94735000  0.78928800  0.80507200  1
  Ge  Ge10  1  0.43799300  0.79498200  0.17887500  1
  Ge  Ge11  1  0.79498200  0.43799300  0.67887500  1
  Ge  Ge12  1  0.20501800  0.56200700  0.32112500  1
  Ge  Ge13  1  0.56200700  0.20501800  0.82112500  1
  Ge  Ge14  1  0.05265000  0.21071200  0.19492800  1
  Ge  Ge15  1  0.21071200  0.05265000  0.69492800  1
  O  O16  1  0.00870300  0.76625200  0.30967700  1
  O  O17  1  0.76625200  0.00870300  0.80967700  1
  O  O18  1  0.64916700  0.86815000  0.22031800  1
  O  O19  1  0.86815000  0.64916700  0.72031800  1
  O  O20  1  0.98971100  0.31558600  0.09539700  1
  O  O21  1  0.31558600  0.98971100  0.59539700  1
  O  O22  1  0.49152100  0.71270400  0.07480200  1
  O  O23  1  0.71270400  0.49152100  0.57480200  1
  O  O24  1  0.39850000  0.60150000  0.25000000  1
  O  O25  1  0.84411800  0.15588200  0.25000000  1
  O  O26  1  0.15588200  0.84411800  0.75000000  1
  O  O27  1  0.60150000  0.39850000  0.75000000  1
  O  O28  1  0.28729600  0.50847900  0.42519800  1
  O  O29  1  0.50847900  0.28729600  0.92519800  1
  O  O30  1  0.68441400  0.01028900  0.40460300  1
  O  O31  1  0.01028900  0.68441400  0.90460300  1
  O  O32  1  0.13185000  0.35083300  0.27968200  1
  O  O33  1  0.35083300  0.13185000  0.77968200  1
  O  O34  1  0.23374800  0.99129700  0.19032300  1
  O  O35  1  0.99129700  0.23374800  0.69032300  1
