# generated using pymatgen
data_LiMnSbO4
_symmetry_space_group_name_H-M   'P 1'
_cell_length_a   6.25919500
_cell_length_b   8.71823900
_cell_length_c   6.25906100
_cell_angle_alpha   89.99926581
_cell_angle_beta   89.99763828
_cell_angle_gamma   90.00037366
_symmetry_Int_Tables_number   1
_chemical_formula_structural   LiMnSbO4
_chemical_formula_sum   'Li4 Mn4 Sb4 O16'
_cell_volume   341.55168821
_cell_formula_units_Z   4
loop_
 _symmetry_equiv_pos_site_id
 _symmetry_equiv_pos_as_xyz
  1  'x, y, z'
loop_
 _atom_site_type_symbol
 _atom_site_label
 _atom_site_symmetry_multiplicity
 _atom_site_fract_x
 _atom_site_fract_y
 _atom_site_fract_z
 _atom_site_occupancy
  Li  Li0  1  0.21126200  0.00000000  0.99999600  1
  Li  Li1  1  0.78873900  0.50000700  0.00000200  1
  Li  Li2  1  0.99999500  0.24999900  0.21127200  1
  Li  Li3  1  0.00000100  0.74999300  0.78872900  1
  Mn  Mn4  1  0.75254300  0.87499800  0.24749600  1
  Mn  Mn5  1  0.24746100  0.37501600  0.75251000  1
  Mn  Mn6  1  0.24732900  0.62500000  0.24735800  1
  Mn  Mn7  1  0.75267900  0.12499500  0.75265200  1
  Sb  Sb8  1  0.49999600  0.24999600  0.23454400  1
  Sb  Sb9  1  0.23459000  0.00000400  0.49999700  1
  Sb  Sb10  1  0.76541200  0.50000300  0.50000000  1
  Sb  Sb11  1  0.50000000  0.74999600  0.76545600  1
  O  O12  1  0.26499700  0.25271900  0.03054600  1
  O  O13  1  0.73498200  0.24725000  0.03048500  1
  O  O14  1  0.03057400  0.99727400  0.26501500  1
  O  O15  1  0.96950100  0.50277300  0.26503800  1
  O  O16  1  0.03050900  0.00275600  0.73496400  1
  O  O17  1  0.96942700  0.49727200  0.73497900  1
  O  O18  1  0.26502000  0.74723500  0.96952700  1
  O  O19  1  0.73499900  0.75271700  0.96944900  1
  O  O20  1  0.47943600  0.01757200  0.27284000  1
  O  O21  1  0.52056000  0.48243600  0.27283900  1
  O  O22  1  0.27286100  0.23241300  0.47941400  1
  O  O23  1  0.72713100  0.26757400  0.47942800  1
  O  O24  1  0.27286200  0.76757700  0.52058300  1
  O  O25  1  0.72712500  0.73241100  0.52057900  1
  O  O26  1  0.52055900  0.51757500  0.72715000  1
  O  O27  1  0.47944900  0.98243900  0.72715400  1
