# generated using pymatgen
data_NiSn2H12(OF)6
_symmetry_space_group_name_H-M   'P 1'
_cell_length_a   6.87054121
_cell_length_b   14.27866699
_cell_length_c   14.05283080
_cell_angle_alpha   74.53085109
_cell_angle_beta   102.13305032
_cell_angle_gamma   78.79232293
_symmetry_Int_Tables_number   1
_chemical_formula_structural   NiSn2H12(OF)6
_chemical_formula_sum   'Ni4 Sn8 H48 O24 F24'
_cell_volume   1252.27394521
_cell_formula_units_Z   4
loop_
 _symmetry_equiv_pos_site_id
 _symmetry_equiv_pos_as_xyz
  1  'x, y, z'
loop_
 _atom_site_type_symbol
 _atom_site_label
 _atom_site_symmetry_multiplicity
 _atom_site_fract_x
 _atom_site_fract_y
 _atom_site_fract_z
 _atom_site_occupancy
  Ni  Ni0  1  0.00026300  0.99987600  0.50003800  1
  Ni  Ni1  1  0.99988300  0.49996700  0.24996700  1
  Ni  Ni2  1  0.99981000  0.49997800  0.75001200  1
  Ni  Ni3  1  0.00007800  0.00004300  0.00000700  1
  Sn  Sn4  1  0.66736200  0.83591400  0.26192200  1
  Sn  Sn5  1  0.66713800  0.33593400  0.01203300  1
  Sn  Sn6  1  0.66740100  0.83590600  0.76209800  1
  Sn  Sn7  1  0.66735100  0.33598700  0.51210800  1
  Sn  Sn8  1  0.33264000  0.66401800  0.48802100  1
  Sn  Sn9  1  0.33264900  0.16402800  0.23790900  1
  Sn  Sn10  1  0.33266200  0.66409500  0.98784800  1
  Sn  Sn11  1  0.33258200  0.16420800  0.73803300  1
  H  H12  1  0.90272500  0.62735300  0.55884900  1
  H  H13  1  0.90264000  0.12736500  0.30879500  1
  H  H14  1  0.90238500  0.62736700  0.05874600  1
  H  H15  1  0.90272000  0.12740600  0.80881600  1
  H  H16  1  0.09726700  0.87264000  0.19114500  1
  H  H17  1  0.09725500  0.37258300  0.94121400  1
  H  H18  1  0.09772600  0.87266700  0.69123800  1
  H  H19  1  0.09738700  0.37263500  0.44122300  1
  H  H20  1  0.74048800  0.54167100  0.35951200  1
  H  H21  1  0.74059700  0.04156500  0.10958400  1
  H  H22  1  0.74049400  0.54154100  0.85967700  1
  H  H23  1  0.74062900  0.04151500  0.60970000  1
  H  H24  1  0.25971300  0.95844100  0.39033000  1
  H  H25  1  0.25939200  0.45856500  0.14022600  1
  H  H26  1  0.25942200  0.95851000  0.89032600  1
  H  H27  1  0.25940500  0.45839500  0.64052200  1
  H  H28  1  0.75896700  0.87405200  0.53352800  1
  H  H29  1  0.75870800  0.37407000  0.28357700  1
  H  H30  1  0.75862700  0.87421200  0.03347900  1
  H  H31  1  0.75857200  0.37420000  0.78351200  1
  H  H32  1  0.24102400  0.62594400  0.21647800  1
  H  H33  1  0.24126400  0.12582800  0.96656900  1
  H  H34  1  0.24121500  0.62577900  0.71658000  1
  H  H35  1  0.24122800  0.12587000  0.46652300  1
  H  H36  1  0.78912800  0.68126400  0.62501200  1
  H  H37  1  0.78913900  0.18121100  0.37501300  1
  H  H38  1  0.78883000  0.68131700  0.12489000  1
  H  H39  1  0.78910200  0.18130900  0.87496900  1
  H  H40  1  0.21088400  0.81872300  0.12495200  1
  H  H41  1  0.21090100  0.31869700  0.87506600  1
  H  H42  1  0.21134500  0.81860700  0.62515600  1
  H  H43  1  0.21096700  0.31872100  0.37506800  1
  H  H44  1  0.91822600  0.59670900  0.37925000  1
  H  H45  1  0.91830600  0.09671300  0.12939300  1
  H  H46  1  0.91827400  0.59667300  0.87937600  1
  H  H47  1  0.91828900  0.09665000  0.62938200  1
  H  H48  1  0.08200200  0.90328900  0.37068300  1
  H  H49  1  0.08166400  0.40335300  0.12050500  1
  H  H50  1  0.08173800  0.90334500  0.87059200  1
  H  H51  1  0.08181100  0.40327200  0.62066900  1
  H  H52  1  0.64893800  0.96068800  0.42623000  1
  H  H53  1  0.64850900  0.46076100  0.17620100  1
  H  H54  1  0.64808200  0.96096600  0.92613400  1
  H  H55  1  0.64801200  0.46088600  0.67613700  1
  H  H56  1  0.35112200  0.53933900  0.32378700  1
  H  H57  1  0.35188400  0.03910900  0.07390100  1
  H  H58  1  0.35171700  0.53908000  0.82388700  1
  H  H59  1  0.35151800  0.03924700  0.57386200  1
  O  O60  1  0.82790100  0.61577500  0.61228600  1
  O  O61  1  0.82796600  0.11573500  0.36226100  1
  O  O62  1  0.82736900  0.61586200  0.11208800  1
  O  O63  1  0.82779600  0.11582100  0.86218600  1
  O  O64  1  0.17208800  0.88421000  0.13772600  1
  O  O65  1  0.17211600  0.38419300  0.88781900  1
  O  O66  1  0.17266000  0.88412300  0.63789700  1
  O  O67  1  0.17212100  0.38422700  0.38778600  1
  O  O68  1  0.83191200  0.57667500  0.32610000  1
  O  O69  1  0.83213100  0.07655800  0.07624300  1
  O  O70  1  0.83208300  0.57641900  0.82634500  1
  O  O71  1  0.83233900  0.07625500  0.57637300  1
  O  O72  1  0.16842800  0.92342400  0.42374300  1
  O  O73  1  0.16740500  0.42388300  0.17341900  1
  O  O74  1  0.16786600  0.92361900  0.92364500  1
  O  O75  1  0.16796800  0.42336600  0.67387000  1
  O  O76  1  0.78559500  0.91891900  0.47312000  1
  O  O77  1  0.78527100  0.41896300  0.22303700  1
  O  O78  1  0.78486800  0.91940500  0.97312000  1
  O  O79  1  0.78476900  0.41927400  0.72302200  1
  O  O80  1  0.21443100  0.58105200  0.27687300  1
  O  O81  1  0.21501800  0.08086500  0.02712000  1
  O  O82  1  0.21486000  0.58072900  0.77701300  1
  O  O83  1  0.21472200  0.08099500  0.52699800  1
  F  F84  1  0.71622000  0.79587900  0.13312500  1
  F  F85  1  0.71646700  0.29583700  0.88327200  1
  F  F86  1  0.71643300  0.79590800  0.63327500  1
  F  F87  1  0.71658300  0.29587000  0.38330300  1
  F  F88  1  0.28362000  0.70417500  0.61670500  1
  F  F89  1  0.28339900  0.20413100  0.36670600  1
  F  F90  1  0.28369100  0.70415100  0.11666900  1
  F  F91  1  0.28328800  0.20412000  0.86676100  1
  F  F92  1  0.57821100  0.98587300  0.16050100  1
  F  F93  1  0.57819800  0.48589800  0.91054600  1
  F  F94  1  0.57806400  0.98587100  0.66054700  1
  F  F95  1  0.57808800  0.48588000  0.41052800  1
  F  F96  1  0.42185900  0.51408300  0.58949800  1
  F  F97  1  0.42193300  0.01411200  0.33946300  1
  F  F98  1  0.42192300  0.51411200  0.08944300  1
  F  F99  1  0.42187700  0.01411200  0.83946100  1
  F  F100  1  0.97019100  0.85555500  0.28472800  1
  F  F101  1  0.97024400  0.35523900  0.03465600  1
  F  F102  1  0.96996600  0.85566000  0.78461400  1
  F  F103  1  0.97003600  0.35550600  0.53481400  1
  F  F104  1  0.03012000  0.64425000  0.46541900  1
  F  F105  1  0.03002800  0.14438500  0.21523700  1
  F  F106  1  0.02994400  0.64455000  0.96513200  1
  F  F107  1  0.02987700  0.14443800  0.71524900  1
