# generated using pymatgen
data_Zr6BI12
_symmetry_space_group_name_H-M   'P 1'
_cell_length_a   9.28257140
_cell_length_b   9.28257140
_cell_length_c   9.28257167
_cell_angle_alpha   107.04663693
_cell_angle_beta   107.04663693
_cell_angle_gamma   107.04663192
_symmetry_Int_Tables_number   1
_chemical_formula_structural   Zr6BI12
_chemical_formula_sum   'Zr6 B1 I12'
_cell_volume   665.26792602
_cell_formula_units_Z   1
loop_
 _symmetry_equiv_pos_site_id
 _symmetry_equiv_pos_as_xyz
  1  'x, y, z'
loop_
 _atom_site_type_symbol
 _atom_site_label
 _atom_site_symmetry_multiplicity
 _atom_site_fract_x
 _atom_site_fract_y
 _atom_site_fract_z
 _atom_site_occupancy
  Zr  Zr0  1  0.97230500  0.72737200  0.91025900  1
  Zr  Zr1  1  0.27262800  0.08974100  0.02769500  1
  Zr  Zr2  1  0.08974100  0.02769500  0.27262800  1
  Zr  Zr3  1  0.91025900  0.97230500  0.72737200  1
  Zr  Zr4  1  0.72737200  0.91025900  0.97230500  1
  Zr  Zr5  1  0.02769500  0.27262800  0.08974100  1
  B  B6  1  0.00000000  0.00000000  0.00000000  1
  I  I7  1  0.92202900  0.30738500  0.77556800  1
  I  I8  1  0.69261500  0.22443200  0.07797100  1
  I  I9  1  0.44284900  0.14480300  0.36875100  1
  I  I10  1  0.85519700  0.63124900  0.55715100  1
  I  I11  1  0.22443200  0.07797100  0.69261500  1
  I  I12  1  0.63124900  0.55715100  0.85519700  1
  I  I13  1  0.36875100  0.44284900  0.14480300  1
  I  I14  1  0.77556800  0.92202900  0.30738500  1
  I  I15  1  0.14480300  0.36875100  0.44284900  1
  I  I16  1  0.55715100  0.85519700  0.63124900  1
  I  I17  1  0.30738500  0.77556800  0.92202900  1
  I  I18  1  0.07797100  0.69261500  0.22443200  1
