# generated using pymatgen
data_K8V2(S2O9)3
_symmetry_space_group_name_H-M   'P 1'
_cell_length_a   14.14345800
_cell_length_b   13.77063400
_cell_length_c   14.26348105
_cell_angle_alpha   89.61140872
_cell_angle_beta   90.00000000
_cell_angle_gamma   90.00000000
_symmetry_Int_Tables_number   1
_chemical_formula_structural   K8V2(S2O9)3
_chemical_formula_sum   'K32 V8 S24 O108'
_cell_volume   2777.95420241
_cell_formula_units_Z   4
loop_
 _symmetry_equiv_pos_site_id
 _symmetry_equiv_pos_as_xyz
  1  'x, y, z'
loop_
 _atom_site_type_symbol
 _atom_site_label
 _atom_site_symmetry_multiplicity
 _atom_site_fract_x
 _atom_site_fract_y
 _atom_site_fract_z
 _atom_site_occupancy
  K  K0  1  0.78877200  0.15526200  0.22656200  1
  K  K1  1  0.57840000  0.86104300  0.71577400  1
  K  K2  1  0.17462600  0.53092200  0.01398100  1
  K  K3  1  0.71627000  0.04450000  0.48468300  1
  K  K4  1  0.21627000  0.95550000  0.51531700  1
  K  K5  1  0.58091400  0.36146800  0.24743700  1
  K  K6  1  0.85089800  0.18788300  0.94930400  1
  K  K7  1  0.35089800  0.81211700  0.05069600  1
  K  K8  1  0.75992200  0.64849900  0.74464400  1
  K  K9  1  0.99357900  0.67644900  0.45009000  1
  K  K10  1  0.57228200  0.67794400  0.19728800  1
  K  K11  1  0.67462600  0.46907800  0.98601900  1
  K  K12  1  0.79249000  0.84016700  0.29162600  1
  K  K13  1  0.56970100  0.16334600  0.79495500  1
  K  K14  1  0.69799400  0.53714200  0.47908000  1
  K  K15  1  0.37374700  0.31129200  0.95842100  1
  K  K16  1  0.29249000  0.15983300  0.70837400  1
  K  K17  1  0.07228200  0.32205600  0.80271200  1
  K  K18  1  0.28877200  0.84473800  0.77343800  1
  K  K19  1  0.27997400  0.66066500  0.29919600  1
  K  K20  1  0.99438100  0.17599200  0.55788400  1
  K  K21  1  0.07840000  0.13895700  0.28422600  1
  K  K22  1  0.14625100  0.05156600  0.01008700  1
  K  K23  1  0.06970100  0.83665400  0.20504500  1
  K  K24  1  0.49357900  0.32355100  0.54991000  1
  K  K25  1  0.49438100  0.82400800  0.44211600  1
  K  K26  1  0.25992200  0.35150100  0.25535600  1
  K  K27  1  0.64625100  0.94843400  0.98991300  1
  K  K28  1  0.08091400  0.63853200  0.75256300  1
  K  K29  1  0.19799400  0.46285800  0.52092000  1
  K  K30  1  0.77997400  0.33933500  0.70080400  1
  K  K31  1  0.87374700  0.68870800  0.04157900  1
  V  V32  1  0.42119500  0.09594600  0.12322700  1
  V  V33  1  0.41658000  0.58794400  0.87590800  1
  V  V34  1  0.91658000  0.41205600  0.12409200  1
  V  V35  1  0.91977900  0.89518900  0.63079500  1
  V  V36  1  0.92119500  0.90405400  0.87677300  1
  V  V37  1  0.93079700  0.40554700  0.36770500  1
  V  V38  1  0.43079700  0.59445300  0.63229500  1
  V  V39  1  0.41977900  0.10481100  0.36920500  1
  S  S40  1  0.95638000  0.96984800  0.41480100  1
  S  S41  1  0.24896900  0.71434200  0.54934900  1
  S  S42  1  0.10003200  0.28854200  0.04933300  1
  S  S43  1  0.60003200  0.71145800  0.95066700  1
  S  S44  1  0.57031900  0.44817300  0.75164700  1
  S  S45  1  0.42365300  0.51367200  0.09593400  1
  S  S46  1  0.28313500  0.94882100  0.23665300  1
  S  S47  1  0.93978400  0.47702900  0.58983700  1
  S  S48  1  0.24485000  0.22323400  0.46970900  1
  S  S49  1  0.78313500  0.05117900  0.76334700  1
  S  S50  1  0.78115500  0.55878800  0.24551300  1
  S  S51  1  0.74485000  0.77676600  0.53029100  1
  S  S52  1  0.92365300  0.48632800  0.90406600  1
  S  S53  1  0.28115500  0.44121200  0.75448700  1
  S  S54  1  0.45638000  0.03015200  0.58519900  1
  S  S55  1  0.40885800  0.02139400  0.91171500  1
  S  S56  1  0.60110200  0.22520800  0.03309400  1
  S  S57  1  0.74896900  0.28565800  0.45065100  1
  S  S58  1  0.43978400  0.52297100  0.41016300  1
  S  S59  1  0.08464400  0.02724300  0.73676000  1
  S  S60  1  0.58464400  0.97275700  0.26324000  1
  S  S61  1  0.90885800  0.97860600  0.08828500  1
  S  S62  1  0.10110200  0.77479200  0.96690600  1
  S  S63  1  0.07031900  0.55182700  0.24835300  1
  O  O64  1  0.82592500  0.85192300  0.91615700  1
  O  O65  1  0.05383300  0.98239100  0.82689300  1
  O  O66  1  0.52693700  0.51025900  0.11199300  1
  O  O67  1  0.85241600  0.54054000  0.32039700  1
  O  O68  1  0.17486600  0.28161900  0.41723000  1
  O  O69  1  0.18014200  0.99371500  0.71161000  1
  O  O70  1  0.95501800  0.97915400  0.98849200  1
  O  O71  1  0.87666600  0.57222800  0.86366200  1
  O  O72  1  0.19939300  0.15108700  0.53200300  1
  O  O73  1  0.57484900  0.34636200  0.72049800  1
  O  O74  1  0.30180000  0.50787100  0.83849000  1
  O  O75  1  0.85985500  0.02906300  0.83729200  1
  O  O76  1  0.16351400  0.51853100  0.21524200  1
  O  O77  1  0.81933600  0.02288000  0.66965500  1
  O  O78  1  0.08075300  0.13441300  0.74055900  1
  O  O79  1  0.90403200  0.96690000  0.51086100  1
  O  O80  1  0.69583200  0.99906600  0.78842500  1
  O  O81  1  0.31933600  0.97712000  0.33034500  1
  O  O82  1  0.89545600  0.87671300  0.11907600  1
  O  O83  1  0.19386600  0.76831400  0.61957200  1
  O  O84  1  0.84694200  0.50630800  0.62799600  1
  O  O85  1  0.81804600  0.03080100  0.07983600  1
  O  O86  1  0.17937100  0.33069000  0.99586100  1
  O  O87  1  0.51449600  0.45170500  0.39090000  1
  O  O88  1  0.16395900  0.73526600  0.89412300  1
  O  O89  1  0.68014200  0.00628500  0.28839000  1
  O  O90  1  0.02693700  0.48974100  0.88800700  1
  O  O91  1  0.92567800  0.37025600  0.24427200  1
  O  O92  1  0.67937100  0.66931000  0.00413900  1
  O  O93  1  0.53932900  0.77183000  0.01100400  1
  O  O94  1  0.42567800  0.62974400  0.75572800  1
  O  O95  1  0.98386100  0.31028300  0.40913500  1
  O  O96  1  0.26960300  0.84240500  0.23201500  1
  O  O97  1  0.40537700  0.50391600  0.98915500  1
  O  O98  1  0.00732400  0.80196700  0.91576700  1
  O  O99  1  0.01449600  0.54829500  0.60910000  1
  O  O100  1  0.50732400  0.19803300  0.08423300  1
  O  O101  1  0.04238100  0.37785700  0.08436400  1
  O  O102  1  0.63203300  0.76345300  0.86596400  1
  O  O103  1  0.49663800  0.45891400  0.82531900  1
  O  O104  1  0.81654900  0.22325300  0.50102100  1
  O  O105  1  0.35985500  0.97093700  0.16270800  1
  O  O106  1  0.28642700  0.33946000  0.78711700  1
  O  O107  1  0.69386600  0.23168600  0.38042800  1
  O  O108  1  0.97764600  0.02997000  0.14744900  1
  O  O109  1  0.36050700  0.68139700  0.91783800  1
  O  O110  1  0.96605900  0.37756900  0.61955600  1
  O  O111  1  0.99663800  0.54108600  0.17468100  1
  O  O112  1  0.67486600  0.71838100  0.58277000  1
  O  O113  1  0.91635300  0.86541800  0.75447900  1
  O  O114  1  0.07484900  0.65363800  0.27950200  1
  O  O115  1  0.48386100  0.68971700  0.59086500  1
  O  O116  1  0.07421200  0.70075100  0.03734000  1
  O  O117  1  0.03932900  0.22817000  0.98899600  1
  O  O118  1  0.13203300  0.23654700  0.13403600  1
  O  O119  1  0.54460600  0.51116300  0.66542500  1
  O  O120  1  0.37666600  0.42777200  0.13633800  1
  O  O121  1  0.66351400  0.48146900  0.78475800  1
  O  O122  1  0.66395900  0.26473400  0.10587700  1
  O  O123  1  0.39545600  0.12328700  0.88092400  1
  O  O124  1  0.39422800  0.97180600  0.64655900  1
  O  O125  1  0.54238100  0.62214300  0.91563600  1
  O  O126  1  0.96817600  0.86997200  0.37945900  1
  O  O127  1  0.92812900  0.48170200  0.48184400  1
  O  O128  1  0.38263500  0.60665100  0.12808400  1
  O  O129  1  0.48731200  0.19109300  0.40672900  1
  O  O130  1  0.86050700  0.31860300  0.08216200  1
  O  O131  1  0.98731200  0.80890700  0.59327100  1
  O  O132  1  0.18856400  0.65975400  0.48357900  1
  O  O133  1  0.58075300  0.86558700  0.25944100  1
  O  O134  1  0.78642700  0.66054000  0.21288300  1
  O  O135  1  0.68856400  0.34024600  0.51642100  1
  O  O136  1  0.88263500  0.39334900  0.87191600  1
  O  O137  1  0.45501800  0.02084600  0.01150800  1
  O  O138  1  0.54830400  0.98214500  0.56880000  1
  O  O139  1  0.89422800  0.02819400  0.35344100  1
  O  O140  1  0.31804600  0.96919900  0.92016400  1
  O  O141  1  0.14112200  0.86098700  0.01236400  1
  O  O142  1  0.79766300  0.83313700  0.60906300  1
  O  O143  1  0.40403200  0.03310000  0.48913900  1
  O  O144  1  0.55383300  0.01760900  0.17310700  1
  O  O145  1  0.64112200  0.13901300  0.98763600  1
  O  O146  1  0.31139600  0.28454100  0.52194800  1
  O  O147  1  0.32592500  0.14807700  0.08384300  1
  O  O148  1  0.76960300  0.15759500  0.76798500  1
  O  O149  1  0.18510000  0.46488400  0.72129200  1
  O  O150  1  0.31654900  0.77674700  0.49897900  1
  O  O151  1  0.80180000  0.49212900  0.16151000  1
  O  O152  1  0.51709500  0.00302900  0.34235900  1
  O  O153  1  0.90537700  0.49608400  0.01084500  1
  O  O154  1  0.41635300  0.13458200  0.24552100  1
  O  O155  1  0.46605900  0.62243100  0.38044400  1
  O  O156  1  0.35241600  0.45946000  0.67960300  1
  O  O157  1  0.42812900  0.51829800  0.51815600  1
  O  O158  1  0.81139600  0.71545900  0.47805200  1
  O  O159  1  0.19583200  0.00093400  0.21157500  1
  O  O160  1  0.29766300  0.16686300  0.39093700  1
  O  O161  1  0.57421200  0.29924900  0.96266000  1
  O  O162  1  0.46817600  0.13002800  0.62054100  1
  O  O163  1  0.34694200  0.49369200  0.37200400  1
  O  O164  1  0.04830400  0.01785500  0.43120000  1
  O  O165  1  0.30274400  0.63517700  0.60735600  1
  O  O166  1  0.80274400  0.36482300  0.39264400  1
  O  O167  1  0.69939300  0.84891300  0.46799700  1
  O  O168  1  0.04460600  0.48883700  0.33457500  1
  O  O169  1  0.68510000  0.53511600  0.27870800  1
  O  O170  1  0.01709500  0.99697100  0.65764100  1
  O  O171  1  0.47764600  0.97003000  0.85255100  1
