# generated using pymatgen
data_Sr16V8O31
_symmetry_space_group_name_H-M   'P 1'
_cell_length_a   6.91823400
_cell_length_b   11.06271516
_cell_length_c   11.78383505
_cell_angle_alpha   117.34503821
_cell_angle_beta   102.15539397
_cell_angle_gamma   89.65105585
_symmetry_Int_Tables_number   1
_chemical_formula_structural   Sr16V8O31
_chemical_formula_sum   'Sr16 V8 O31'
_cell_volume   778.85356190
_cell_formula_units_Z   1
loop_
 _symmetry_equiv_pos_site_id
 _symmetry_equiv_pos_as_xyz
  1  'x, y, z'
loop_
 _atom_site_type_symbol
 _atom_site_label
 _atom_site_symmetry_multiplicity
 _atom_site_fract_x
 _atom_site_fract_y
 _atom_site_fract_z
 _atom_site_occupancy
  Sr  Sr0  1  0.40280300  0.46798900  0.19443700  1
  Sr  Sr1  1  0.16146400  0.60361900  0.95395000  1
  Sr  Sr2  1  0.59719700  0.53201100  0.80556300  1
  Sr  Sr3  1  0.91329400  0.73562300  0.70653400  1
  Sr  Sr4  1  0.35966100  0.66137300  0.56050800  1
  Sr  Sr5  1  0.16137600  0.09924000  0.95105400  1
  Sr  Sr6  1  0.83862400  0.90076000  0.04894600  1
  Sr  Sr7  1  0.66497100  0.85778900  0.45069900  1
  Sr  Sr8  1  0.09704600  0.78528200  0.30643200  1
  Sr  Sr9  1  0.59737300  0.02763400  0.80763400  1
  Sr  Sr10  1  0.40262700  0.97236600  0.19236600  1
  Sr  Sr11  1  0.90295400  0.21471800  0.69356800  1
  Sr  Sr12  1  0.33502900  0.14221100  0.54930100  1
  Sr  Sr13  1  0.08670600  0.26437700  0.29346600  1
  Sr  Sr14  1  0.64033900  0.33862700  0.43949200  1
  Sr  Sr15  1  0.83853600  0.39638100  0.04605000  1
  V  V16  1  0.37291100  0.81258900  0.87395700  1
  V  V17  1  0.87155600  0.56628800  0.36886100  1
  V  V18  1  0.12912400  0.93837800  0.62818700  1
  V  V19  1  0.62421100  0.68813200  0.12361700  1
  V  V20  1  0.62708900  0.18741100  0.12604300  1
  V  V21  1  0.37578900  0.31186800  0.87638300  1
  V  V22  1  0.87087600  0.06162200  0.37181300  1
  V  V23  1  0.12844400  0.43371200  0.63113900  1
  O  O24  1  0.24419000  0.62490800  0.74375000  1
  O  O25  1  0.50000000  0.50000000  0.00000000  1
  O  O26  1  0.88402600  0.48393200  0.68021800  1
  O  O27  1  0.61470200  0.77108000  0.79317500  1
  O  O28  1  0.13270900  0.85249800  0.95408500  1
  O  O29  1  0.11597400  0.51606800  0.31978200  1
  O  O30  1  0.25828100  0.87793800  0.75620100  1
  O  O31  1  0.37948000  0.71996000  0.20150800  1
  O  O32  1  0.67360400  0.58941900  0.46554800  1
  O  O33  1  0.75021400  0.62034800  0.24766100  1
  O  O34  1  0.85791300  0.64131500  0.03785800  1
  O  O35  1  0.49246700  0.74579300  0.99281300  1
  O  O36  1  0.50000000  0.00000000  0.00000000  1
  O  O37  1  0.37124100  0.89727100  0.54516400  1
  O  O38  1  0.00695500  0.73966600  0.50504300  1
  O  O39  1  0.88794200  0.98112300  0.70824100  1
  O  O40  1  0.73912800  0.86444200  0.24045300  1
  O  O41  1  0.26087200  0.13555800  0.75954700  1
  O  O42  1  0.38529800  0.22892000  0.20682500  1
  O  O43  1  0.74171900  0.12206200  0.24379900  1
  O  O44  1  0.50753300  0.25420700  0.00718700  1
  O  O45  1  0.14208700  0.35868500  0.96214200  1
  O  O46  1  0.62052000  0.28004000  0.79849200  1
  O  O47  1  0.00000000  0.00000000  0.50000000  1
  O  O48  1  0.62875900  0.10272900  0.45483600  1
  O  O49  1  0.11205800  0.01887700  0.29175900  1
  O  O50  1  0.24978600  0.37965200  0.75233900  1
  O  O51  1  0.86729100  0.14750200  0.04591500  1
  O  O52  1  0.32639600  0.41058100  0.53445200  1
  O  O53  1  0.75581000  0.37509200  0.25625000  1
  O  O54  1  0.99304500  0.26033400  0.49495700  1
