# generated using pymatgen
data_BaP4O11
_symmetry_space_group_name_H-M   'P 1'
_cell_length_a   13.33612200
_cell_length_b   9.20042800
_cell_length_c   13.09726081
_cell_angle_alpha   46.80798089
_cell_angle_beta   90.00000000
_cell_angle_gamma   90.00000000
_symmetry_Int_Tables_number   1
_chemical_formula_structural   BaP4O11
_chemical_formula_sum   'Ba4 P16 O44'
_cell_volume   1171.61171216
_cell_formula_units_Z   4
loop_
 _symmetry_equiv_pos_site_id
 _symmetry_equiv_pos_as_xyz
  1  'x, y, z'
loop_
 _atom_site_type_symbol
 _atom_site_label
 _atom_site_symmetry_multiplicity
 _atom_site_fract_x
 _atom_site_fract_y
 _atom_site_fract_z
 _atom_site_occupancy
  Ba  Ba0  1  0.02754700  0.03784900  0.23463300  1
  Ba  Ba1  1  0.52754700  0.96215100  0.26536700  1
  Ba  Ba2  1  0.47245300  0.03784900  0.73463300  1
  Ba  Ba3  1  0.97245300  0.96215100  0.76536700  1
  P  P4  1  0.29317200  0.33198600  0.08336000  1
  P  P5  1  0.33288500  0.59553400  0.77740500  1
  P  P6  1  0.00302900  0.47667500  0.82314200  1
  P  P7  1  0.65656700  0.37585400  0.88683800  1
  P  P8  1  0.15656700  0.62414600  0.61316200  1
  P  P9  1  0.50302900  0.52332500  0.67685800  1
  P  P10  1  0.79317200  0.66801400  0.41664000  1
  P  P11  1  0.83288500  0.40446600  0.72259500  1
  P  P12  1  0.16711500  0.59553400  0.27740500  1
  P  P13  1  0.20682800  0.33198600  0.58336000  1
  P  P14  1  0.49697100  0.47667500  0.32314200  1
  P  P15  1  0.84343300  0.37585400  0.38683800  1
  P  P16  1  0.34343300  0.62414600  0.11316200  1
  P  P17  1  0.99697100  0.52332500  0.17685800  1
  P  P18  1  0.66711500  0.40446600  0.22259500  1
  P  P19  1  0.70682800  0.66801400  0.91664000  1
  O  O20  1  0.61665700  0.23762600  0.25191800  1
  O  O21  1  0.02956900  0.65323500  0.80122900  1
  O  O22  1  0.71435500  0.47646000  0.92974900  1
  O  O23  1  0.39714700  0.25402700  0.12042600  1
  O  O24  1  0.20401800  0.20605800  0.16236800  1
  O  O25  1  0.10234100  0.80860600  0.49961700  1
  O  O26  1  0.27146500  0.44749600  0.91862900  1
  O  O27  1  0.24652700  0.67497700  0.66544800  1
  O  O28  1  0.59147800  0.54889000  0.75402800  1
  O  O29  1  0.90373800  0.54494500  0.72098600  1
  O  O30  1  0.98462500  0.27359800  0.96181600  1
  O  O31  1  0.48462500  0.72640200  0.53818400  1
  O  O32  1  0.40373800  0.45505500  0.77901400  1
  O  O33  1  0.60234100  0.19139400  0.00038300  1
  O  O34  1  0.70401800  0.79394200  0.33763200  1
  O  O35  1  0.09147800  0.45111000  0.74597200  1
  O  O36  1  0.89714700  0.74597300  0.37957400  1
  O  O37  1  0.74652700  0.32502300  0.83455200  1
  O  O38  1  0.77146500  0.55250400  0.58137100  1
  O  O39  1  0.21435500  0.52354000  0.57025100  1
  O  O40  1  0.11665700  0.76237400  0.24808200  1
  O  O41  1  0.47043100  0.65323500  0.30122900  1
  O  O42  1  0.52956900  0.34676500  0.69877100  1
  O  O43  1  0.88334300  0.23762600  0.75191800  1
  O  O44  1  0.78564500  0.47646000  0.42974900  1
  O  O45  1  0.22853500  0.44749600  0.41862900  1
  O  O46  1  0.25347300  0.67497700  0.16544800  1
  O  O47  1  0.10285300  0.25402700  0.62042600  1
  O  O48  1  0.90852200  0.54889000  0.25402800  1
  O  O49  1  0.29598200  0.20605800  0.66236800  1
  O  O50  1  0.39765900  0.80860600  0.99961700  1
  O  O51  1  0.59626200  0.54494500  0.22098600  1
  O  O52  1  0.51537500  0.27359800  0.46181600  1
  O  O53  1  0.01537500  0.72640200  0.03818400  1
  O  O54  1  0.09626200  0.45505500  0.27901400  1
  O  O55  1  0.40852200  0.45111000  0.24597200  1
  O  O56  1  0.75347300  0.32502300  0.33455200  1
  O  O57  1  0.72853500  0.55250400  0.08137100  1
  O  O58  1  0.89765900  0.19139400  0.50038300  1
  O  O59  1  0.79598200  0.79394200  0.83763200  1
  O  O60  1  0.60285300  0.74597300  0.87957400  1
  O  O61  1  0.28564500  0.52354000  0.07025100  1
  O  O62  1  0.97043100  0.34676500  0.19877100  1
  O  O63  1  0.38334300  0.76237400  0.74808200  1
