# generated using pymatgen
data_CaSb2H2F14
_symmetry_space_group_name_H-M   'P 1'
_cell_length_a   11.06282500
_cell_length_b   9.50250600
_cell_length_c   12.47830807
_cell_angle_alpha   59.81739148
_cell_angle_beta   90.00000000
_cell_angle_gamma   90.00000000
_symmetry_Int_Tables_number   1
_chemical_formula_structural   CaSb2H2F14
_chemical_formula_sum   'Ca4 Sb8 H8 F56'
_cell_volume   1133.93574803
_cell_formula_units_Z   4
loop_
 _symmetry_equiv_pos_site_id
 _symmetry_equiv_pos_as_xyz
  1  'x, y, z'
loop_
 _atom_site_type_symbol
 _atom_site_label
 _atom_site_symmetry_multiplicity
 _atom_site_fract_x
 _atom_site_fract_y
 _atom_site_fract_z
 _atom_site_occupancy
  Ca  Ca0  1  0.25050800  0.11027300  0.70797500  1
  Ca  Ca1  1  0.75050800  0.88972700  0.79202500  1
  Ca  Ca2  1  0.24949200  0.11027300  0.20797500  1
  Ca  Ca3  1  0.74949200  0.88972700  0.29202500  1
  Sb  Sb4  1  0.71614900  0.40653800  0.59032700  1
  Sb  Sb5  1  0.00000000  0.00000000  0.00000000  1
  Sb  Sb6  1  0.50000000  0.00000000  0.00000000  1
  Sb  Sb7  1  0.78385100  0.40653800  0.09032700  1
  Sb  Sb8  1  0.00000000  0.00000000  0.50000000  1
  Sb  Sb9  1  0.50000000  0.00000000  0.50000000  1
  Sb  Sb10  1  0.21614900  0.59346200  0.90967300  1
  Sb  Sb11  1  0.28385100  0.59346200  0.40967300  1
  H  H12  1  0.74452600  0.59494000  0.24080600  1
  H  H13  1  0.00317500  0.32323100  0.62152800  1
  H  H14  1  0.24452600  0.40506000  0.25919400  1
  H  H15  1  0.49682500  0.32323100  0.12152800  1
  H  H16  1  0.50317500  0.67676900  0.87847200  1
  H  H17  1  0.75547400  0.59494000  0.74080600  1
  H  H18  1  0.99682500  0.67676900  0.37847200  1
  H  H19  1  0.25547400  0.40506000  0.75919400  1
  F  F20  1  0.02060600  0.77484600  0.11102600  1
  F  F21  1  0.72038400  0.70017200  0.22783300  1
  F  F22  1  0.10851200  0.56461100  0.42310600  1
  F  F23  1  0.46458000  0.77510000  0.08567600  1
  F  F24  1  0.54788600  0.36877700  0.61442900  1
  F  F25  1  0.27733800  0.55782600  0.27097500  1
  F  F26  1  0.29777500  0.35962600  0.51705800  1
  F  F27  1  0.71799400  0.37818500  0.45116600  1
  F  F28  1  0.06429500  0.23877900  0.65862900  1
  F  F29  1  0.21799400  0.62181500  0.04883400  1
  F  F30  1  0.74558800  0.17628400  0.70073200  1
  F  F31  1  0.14033400  0.00113500  0.90674000  1
  F  F32  1  0.41089200  0.02336500  0.85754400  1
  F  F33  1  0.77733800  0.44217400  0.22902500  1
  F  F34  1  0.64504600  0.95815600  0.93353100  1
  F  F35  1  0.90122300  0.95165200  0.89417400  1
  F  F36  1  0.96458000  0.22490000  0.41432400  1
  F  F37  1  0.60851200  0.43538900  0.07689400  1
  F  F38  1  0.22038400  0.29982800  0.27216700  1
  F  F39  1  0.52060600  0.22515400  0.38897400  1
  F  F40  1  0.40122300  0.04834800  0.60582600  1
  F  F41  1  0.95211400  0.36877700  0.11442900  1
  F  F42  1  0.14504600  0.04184400  0.56646900  1
  F  F43  1  0.91089200  0.97663500  0.64245600  1
  F  F44  1  0.64033400  0.99886500  0.59326000  1
  F  F45  1  0.20222500  0.35962600  0.01705800  1
  F  F46  1  0.24558800  0.82371600  0.79926800  1
  F  F47  1  0.43570500  0.23877900  0.15862900  1
  F  F48  1  0.56429500  0.76122100  0.84137100  1
  F  F49  1  0.75441200  0.17628400  0.20073200  1
  F  F50  1  0.79777500  0.64037400  0.98294200  1
  F  F51  1  0.35966600  0.00113500  0.40674000  1
  F  F52  1  0.08910800  0.02336500  0.35754400  1
  F  F53  1  0.85495400  0.95815600  0.43353100  1
  F  F54  1  0.04788600  0.63122300  0.88557100  1
  F  F55  1  0.59877700  0.95165200  0.39417400  1
  F  F56  1  0.47939400  0.77484600  0.61102600  1
  F  F57  1  0.77961600  0.70017200  0.72783300  1
  F  F58  1  0.39148800  0.56461100  0.92310600  1
  F  F59  1  0.03542000  0.77510000  0.58567600  1
  F  F60  1  0.09877700  0.04834800  0.10582600  1
  F  F61  1  0.35495400  0.04184400  0.06646900  1
  F  F62  1  0.22266200  0.55782600  0.77097500  1
  F  F63  1  0.58910800  0.97663500  0.14245600  1
  F  F64  1  0.85966600  0.99886500  0.09326000  1
  F  F65  1  0.25441200  0.82371600  0.29926800  1
  F  F66  1  0.78200600  0.37818500  0.95116600  1
  F  F67  1  0.93570500  0.76122100  0.34137100  1
  F  F68  1  0.28200600  0.62181500  0.54883400  1
  F  F69  1  0.70222500  0.64037400  0.48294200  1
  F  F70  1  0.72266200  0.44217400  0.72902500  1
  F  F71  1  0.45211400  0.63122300  0.38557100  1
  F  F72  1  0.53542000  0.22490000  0.91432400  1
  F  F73  1  0.89148800  0.43538900  0.57689400  1
  F  F74  1  0.27961600  0.29982800  0.77216700  1
  F  F75  1  0.97939400  0.22515400  0.88897400  1
