# generated using pymatgen
data_NdBiO4
_symmetry_space_group_name_H-M   'P 1'
_cell_length_a   6.86255408
_cell_length_b   6.86255408
_cell_length_c   5.38568142
_cell_angle_alpha   69.49637204
_cell_angle_beta   69.49637204
_cell_angle_gamma   114.27231745
_symmetry_Int_Tables_number   1
_chemical_formula_structural   NdBiO4
_chemical_formula_sum   'Nd2 Bi2 O8'
_cell_volume   176.59714657
_cell_formula_units_Z   2
loop_
 _symmetry_equiv_pos_site_id
 _symmetry_equiv_pos_as_xyz
  1  'x, y, z'
loop_
 _atom_site_type_symbol
 _atom_site_label
 _atom_site_symmetry_multiplicity
 _atom_site_fract_x
 _atom_site_fract_y
 _atom_site_fract_z
 _atom_site_occupancy
  Nd  Nd0  1  0.86344500  0.13655500  0.25000000  1
  Nd  Nd1  1  0.13655500  0.86344500  0.75000000  1
  Bi  Bi2  1  0.40039100  0.59960900  0.25000000  1
  Bi  Bi3  1  0.59960900  0.40039100  0.75000000  1
  O  O4  1  0.11633800  0.54813200  0.16635700  1
  O  O5  1  0.54813200  0.11633800  0.66635700  1
  O  O6  1  0.28668600  0.23230300  0.22885200  1
  O  O7  1  0.23230300  0.28668600  0.72885200  1
  O  O8  1  0.76769700  0.71331400  0.27114800  1
  O  O9  1  0.71331400  0.76769700  0.77114800  1
  O  O10  1  0.45186800  0.88366200  0.33364300  1
  O  O11  1  0.88366200  0.45186800  0.83364300  1
