# generated using pymatgen
data_Li3FeF6
_symmetry_space_group_name_H-M   'P 1'
_cell_length_a   8.57279497
_cell_length_b   8.57279497
_cell_length_c   10.25874330
_cell_angle_alpha   85.96704058
_cell_angle_beta   85.96704058
_cell_angle_gamma   61.71607098
_symmetry_Int_Tables_number   1
_chemical_formula_structural   Li3FeF6
_chemical_formula_sum   'Li18 Fe6 F36'
_cell_volume   661.69880264
_cell_formula_units_Z   6
loop_
 _symmetry_equiv_pos_site_id
 _symmetry_equiv_pos_as_xyz
  1  'x, y, z'
loop_
 _atom_site_type_symbol
 _atom_site_label
 _atom_site_symmetry_multiplicity
 _atom_site_fract_x
 _atom_site_fract_y
 _atom_site_fract_z
 _atom_site_occupancy
  Li  Li0  1  0.94120100  0.65489000  0.93211000  1
  Li  Li1  1  0.65489000  0.94120100  0.43211000  1
  Li  Li2  1  0.45461700  0.88013500  0.94948700  1
  Li  Li3  1  0.88013500  0.45461700  0.44948700  1
  Li  Li4  1  0.99437800  0.28654400  0.73059900  1
  Li  Li5  1  0.28654400  0.99437800  0.23059900  1
  Li  Li6  1  0.67332800  0.37294700  0.96151700  1
  Li  Li7  1  0.37294700  0.67332800  0.46151700  1
  Li  Li8  1  0.19036300  0.80963700  0.75000000  1
  Li  Li9  1  0.80963700  0.19036300  0.25000000  1
  Li  Li10  1  0.62705300  0.32667200  0.53848300  1
  Li  Li11  1  0.32667200  0.62705300  0.03848300  1
  Li  Li12  1  0.71345600  0.00562200  0.76940100  1
  Li  Li13  1  0.00562200  0.71345600  0.26940100  1
  Li  Li14  1  0.11986500  0.54538300  0.55051300  1
  Li  Li15  1  0.54538300  0.11986500  0.05051300  1
  Li  Li16  1  0.34511000  0.05879900  0.56789000  1
  Li  Li17  1  0.05879900  0.34511000  0.06789000  1
  Fe  Fe18  1  0.65998300  0.66522700  0.70453500  1
  Fe  Fe19  1  0.66522700  0.65998300  0.20453500  1
  Fe  Fe20  1  0.00000000  0.00000000  0.50000000  1
  Fe  Fe21  1  0.00000000  0.00000000  0.00000000  1
  Fe  Fe22  1  0.33477300  0.34001700  0.79546500  1
  Fe  Fe23  1  0.34001700  0.33477300  0.29546500  1
  F  F24  1  0.93452100  0.92188200  0.66645900  1
  F  F25  1  0.92188200  0.93452100  0.16645900  1
  F  F26  1  0.73431800  0.77350500  0.83651800  1
  F  F27  1  0.58461300  0.89376500  0.60624500  1
  F  F28  1  0.77350500  0.73431800  0.33651800  1
  F  F29  1  0.89174800  0.56895800  0.60986200  1
  F  F30  1  0.89376500  0.58461300  0.10624500  1
  F  F31  1  0.56895800  0.89174800  0.10986200  1
  F  F32  1  0.76159300  0.44082300  0.80636300  1
  F  F33  1  0.43374800  0.75505800  0.80476000  1
  F  F34  1  0.44082300  0.76159300  0.30636300  1
  F  F35  1  0.75505800  0.43374800  0.30476000  1
  F  F36  1  0.58584700  0.56975400  0.56675500  1
  F  F37  1  0.91366300  0.24035900  0.56334500  1
  F  F38  1  0.23993900  0.90575800  0.56639100  1
  F  F39  1  0.56975400  0.58584700  0.06675500  1
  F  F40  1  0.24035900  0.91366300  0.06334500  1
  F  F41  1  0.90575800  0.23993900  0.06639100  1
  F  F42  1  0.09424200  0.76006100  0.93360900  1
  F  F43  1  0.75964100  0.08633700  0.93665500  1
  F  F44  1  0.43024600  0.41415300  0.93324500  1
  F  F45  1  0.76006100  0.09424200  0.43360900  1
  F  F46  1  0.08633700  0.75964100  0.43665500  1
  F  F47  1  0.41415300  0.43024600  0.43324500  1
  F  F48  1  0.24494200  0.56625200  0.69524000  1
  F  F49  1  0.55917700  0.23840700  0.69363700  1
  F  F50  1  0.56625200  0.24494200  0.19524000  1
  F  F51  1  0.23840700  0.55917700  0.19363700  1
  F  F52  1  0.43104200  0.10825200  0.89013800  1
  F  F53  1  0.10623500  0.41538700  0.89375500  1
  F  F54  1  0.10825200  0.43104200  0.39013800  1
  F  F55  1  0.22649500  0.26568200  0.66348200  1
  F  F56  1  0.41538700  0.10623500  0.39375500  1
  F  F57  1  0.26568200  0.22649500  0.16348200  1
  F  F58  1  0.07811800  0.06547900  0.83354100  1
  F  F59  1  0.06547900  0.07811800  0.33354100  1
