# generated using pymatgen
data_NaCdAs
_symmetry_space_group_name_H-M   'P 1'
_cell_length_a   4.51886700
_cell_length_b   7.64948100
_cell_length_c   8.17901200
_cell_angle_alpha   90.00000000
_cell_angle_beta   90.00000000
_cell_angle_gamma   90.00000000
_symmetry_Int_Tables_number   1
_chemical_formula_structural   NaCdAs
_chemical_formula_sum   'Na4 Cd4 As4'
_cell_volume   282.72380359
_cell_formula_units_Z   4
loop_
 _symmetry_equiv_pos_site_id
 _symmetry_equiv_pos_as_xyz
  1  'x, y, z'
loop_
 _atom_site_type_symbol
 _atom_site_label
 _atom_site_symmetry_multiplicity
 _atom_site_fract_x
 _atom_site_fract_y
 _atom_site_fract_z
 _atom_site_occupancy
  Na  Na0  1  0.25000000  0.51848200  0.67345900  1
  Na  Na1  1  0.75000000  0.48151800  0.32654100  1
  Na  Na2  1  0.25000000  0.01848200  0.82654100  1
  Na  Na3  1  0.75000000  0.98151800  0.17345900  1
  Cd  Cd4  1  0.75000000  0.84997900  0.57441300  1
  Cd  Cd5  1  0.75000000  0.34997900  0.92558700  1
  Cd  Cd6  1  0.25000000  0.65002100  0.07441300  1
  Cd  Cd7  1  0.25000000  0.15002100  0.42558700  1
  As  As8  1  0.25000000  0.77854800  0.39078500  1
  As  As9  1  0.75000000  0.72145200  0.89078500  1
  As  As10  1  0.75000000  0.22145200  0.60921500  1
  As  As11  1  0.25000000  0.27854800  0.10921500  1
