# generated using pymatgen
data_LaTa3O9
_symmetry_space_group_name_H-M   'P 1'
_cell_length_a   8.84288334
_cell_length_b   8.84288334
_cell_length_c   9.74773276
_cell_angle_alpha   57.02799865
_cell_angle_beta   57.02799865
_cell_angle_gamma   36.89016574
_symmetry_Int_Tables_number   1
_chemical_formula_structural   LaTa3O9
_chemical_formula_sum   'La2 Ta6 O18'
_cell_volume   374.77052026
_cell_formula_units_Z   2
loop_
 _symmetry_equiv_pos_site_id
 _symmetry_equiv_pos_as_xyz
  1  'x, y, z'
loop_
 _atom_site_type_symbol
 _atom_site_label
 _atom_site_symmetry_multiplicity
 _atom_site_fract_x
 _atom_site_fract_y
 _atom_site_fract_z
 _atom_site_occupancy
  La  La0  1  0.33297600  0.33297600  0.00062900  1
  La  La1  1  0.66702400  0.66702400  0.99937100  1
  Ta  Ta2  1  0.58442100  0.58442100  0.74699000  1
  Ta  Ta3  1  0.74880100  0.74880100  0.26284200  1
  Ta  Ta4  1  0.92321300  0.92321300  0.74104300  1
  Ta  Ta5  1  0.07678700  0.07678700  0.25895700  1
  Ta  Ta6  1  0.25119900  0.25119900  0.73715800  1
  Ta  Ta7  1  0.41557900  0.41557900  0.25301000  1
  O  O8  1  0.57504500  0.09445200  0.23393600  1
  O  O9  1  0.66506300  0.66506300  0.50203000  1
  O  O10  1  0.50000000  0.50000000  0.00000000  1
  O  O11  1  0.42455300  0.92457000  0.22654000  1
  O  O12  1  0.09445200  0.57504500  0.23393600  1
  O  O13  1  0.25038900  0.73063800  0.76697500  1
  O  O14  1  0.26936200  0.74961100  0.23302500  1
  O  O15  1  0.92457000  0.42455300  0.22654000  1
  O  O16  1  0.73063800  0.25038900  0.76697500  1
  O  O17  1  0.00000000  0.00000000  0.50000000  1
  O  O18  1  0.07543000  0.57544700  0.77346000  1
  O  O19  1  0.17402400  0.17402400  0.99976400  1
  O  O20  1  0.82597600  0.82597600  0.00023600  1
  O  O21  1  0.74961100  0.26936200  0.23302500  1
  O  O22  1  0.90554800  0.42495500  0.76606400  1
  O  O23  1  0.57544700  0.07543000  0.77346000  1
  O  O24  1  0.42495500  0.90554800  0.76606400  1
  O  O25  1  0.33493700  0.33493700  0.49797000  1
