# generated using pymatgen
data_Si(Ag4S3)2
_symmetry_space_group_name_H-M   'P 1'
_cell_length_a   7.58999400
_cell_length_b   10.69029700
_cell_length_c   15.21322300
_cell_angle_alpha   90.00000000
_cell_angle_beta   90.00000000
_cell_angle_gamma   90.00000000
_symmetry_Int_Tables_number   1
_chemical_formula_structural   Si(Ag4S3)2
_chemical_formula_sum   'Si4 Ag32 S24'
_cell_volume   1234.39011417
_cell_formula_units_Z   4
loop_
 _symmetry_equiv_pos_site_id
 _symmetry_equiv_pos_as_xyz
  1  'x, y, z'
loop_
 _atom_site_type_symbol
 _atom_site_label
 _atom_site_symmetry_multiplicity
 _atom_site_fract_x
 _atom_site_fract_y
 _atom_site_fract_z
 _atom_site_occupancy
  Si  Si0  1  0.26304500  0.03192400  0.37663900  1
  Si  Si1  1  0.73695500  0.53192400  0.62336100  1
  Si  Si2  1  0.23695500  0.03192400  0.87663900  1
  Si  Si3  1  0.76304500  0.53192400  0.12336100  1
  Ag  Ag4  1  0.06904900  0.35942200  0.93349600  1
  Ag  Ag5  1  0.12337600  0.47934600  0.76066700  1
  Ag  Ag6  1  0.87662400  0.97934600  0.23933300  1
  Ag  Ag7  1  0.37662400  0.47934600  0.26066700  1
  Ag  Ag8  1  0.26374400  0.54557600  0.06404800  1
  Ag  Ag9  1  0.73625600  0.04557600  0.93595200  1
  Ag  Ag10  1  0.23625600  0.54557600  0.56404800  1
  Ag  Ag11  1  0.76374400  0.04557600  0.43595200  1
  Ag  Ag12  1  0.37917700  0.69532200  0.41211300  1
  Ag  Ag13  1  0.62082300  0.19532200  0.58788700  1
  Ag  Ag14  1  0.12082300  0.69532200  0.91211300  1
  Ag  Ag15  1  0.87917700  0.19532200  0.08788700  1
  Ag  Ag16  1  0.49448200  0.78969100  0.22857700  1
  Ag  Ag17  1  0.50551800  0.28969100  0.77142300  1
  Ag  Ag18  1  0.00551800  0.78969100  0.72857700  1
  Ag  Ag19  1  0.99448200  0.28969100  0.27142300  1
  Ag  Ag20  1  0.93095100  0.85942200  0.06650400  1
  Ag  Ag21  1  0.62337600  0.97934600  0.73933300  1
  Ag  Ag22  1  0.56904900  0.85942200  0.56650400  1
  Ag  Ag23  1  0.43095100  0.35942200  0.43349600  1
  Ag  Ag24  1  0.11565500  0.68793200  0.26809500  1
  Ag  Ag25  1  0.88434500  0.18793200  0.73190500  1
  Ag  Ag26  1  0.38434500  0.68793200  0.76809500  1
  Ag  Ag27  1  0.61565500  0.18793200  0.23190500  1
  Ag  Ag28  1  0.48358100  0.77002200  0.01486600  1
  Ag  Ag29  1  0.51641900  0.27002200  0.98513400  1
  Ag  Ag30  1  0.01641900  0.77002200  0.51486600  1
  Ag  Ag31  1  0.98358100  0.27002200  0.48513400  1
  Ag  Ag32  1  0.72773000  0.51421900  0.37074000  1
  Ag  Ag33  1  0.27227000  0.01421900  0.62926000  1
  Ag  Ag34  1  0.77227000  0.51421900  0.87074000  1
  Ag  Ag35  1  0.22773000  0.01421900  0.12926000  1
  S  S36  1  0.99211500  0.41203000  0.12076300  1
  S  S37  1  0.00788500  0.91203000  0.87923700  1
  S  S38  1  0.50788500  0.41203000  0.62076300  1
  S  S39  1  0.49211500  0.91203000  0.37923700  1
  S  S40  1  0.76854700  0.64981300  0.00901000  1
  S  S41  1  0.23145300  0.14981300  0.99099000  1
  S  S42  1  0.73145300  0.64981300  0.50901000  1
  S  S43  1  0.26854700  0.14981300  0.49099000  1
  S  S44  1  0.77051000  0.65010700  0.23730300  1
  S  S45  1  0.22949000  0.15010700  0.76269700  1
  S  S46  1  0.72949000  0.65010700  0.73730300  1
  S  S47  1  0.27051000  0.15010700  0.26269700  1
  S  S48  1  0.18358500  0.51299500  0.38719700  1
  S  S49  1  0.81641500  0.01299500  0.61280300  1
  S  S50  1  0.31641500  0.51299500  0.88719700  1
  S  S51  1  0.68358500  0.01299500  0.11280300  1
  S  S52  1  0.23335300  0.77710200  0.12283600  1
  S  S53  1  0.76664700  0.27710200  0.87716400  1
  S  S54  1  0.26664700  0.77710200  0.62283600  1
  S  S55  1  0.73335300  0.27710200  0.37716400  1
  S  S56  1  0.03280000  0.91269800  0.37379500  1
  S  S57  1  0.96720000  0.41269800  0.62620500  1
  S  S58  1  0.46720000  0.91269800  0.87379500  1
  S  S59  1  0.53280000  0.41269800  0.12620500  1
