# generated using pymatgen
data_YbHfO3
_symmetry_space_group_name_H-M   'P 1'
_cell_length_a   5.53038900
_cell_length_b   5.72589500
_cell_length_c   7.96073200
_cell_angle_alpha   90.00000000
_cell_angle_beta   90.00000000
_cell_angle_gamma   90.00000000
_symmetry_Int_Tables_number   1
_chemical_formula_structural   YbHfO3
_chemical_formula_sum   'Yb4 Hf4 O12'
_cell_volume   252.08793654
_cell_formula_units_Z   4
loop_
 _symmetry_equiv_pos_site_id
 _symmetry_equiv_pos_as_xyz
  1  'x, y, z'
loop_
 _atom_site_type_symbol
 _atom_site_label
 _atom_site_symmetry_multiplicity
 _atom_site_fract_x
 _atom_site_fract_y
 _atom_site_fract_z
 _atom_site_occupancy
  Yb  Yb0  1  0.98728000  0.05284000  0.25000000  1
  Yb  Yb1  1  0.48728000  0.44716000  0.75000000  1
  Yb  Yb2  1  0.51272000  0.55284000  0.25000000  1
  Yb  Yb3  1  0.01272000  0.94716000  0.75000000  1
  Hf  Hf4  1  0.50000000  0.00000000  0.00000000  1
  Hf  Hf5  1  0.50000000  0.00000000  0.50000000  1
  Hf  Hf6  1  0.00000000  0.50000000  0.00000000  1
  Hf  Hf7  1  0.00000000  0.50000000  0.50000000  1
  O  O8  1  0.60693700  0.04105100  0.75000000  1
  O  O9  1  0.19339700  0.19612000  0.55543200  1
  O  O10  1  0.19339700  0.19612000  0.94456800  1
  O  O11  1  0.69339700  0.30388000  0.05543200  1
  O  O12  1  0.69339700  0.30388000  0.44456800  1
  O  O13  1  0.10693700  0.45894900  0.25000000  1
  O  O14  1  0.89306300  0.54105100  0.75000000  1
  O  O15  1  0.30660300  0.69612000  0.55543200  1
  O  O16  1  0.30660300  0.69612000  0.94456800  1
  O  O17  1  0.80660300  0.80388000  0.05543200  1
  O  O18  1  0.80660300  0.80388000  0.44456800  1
  O  O19  1  0.39306300  0.95894900  0.25000000  1
