# generated using pymatgen
data_K4GeH4N2O3
_symmetry_space_group_name_H-M   'P 1'
_cell_length_a   6.53551700
_cell_length_b   11.11296400
_cell_length_c   12.44277360
_cell_angle_alpha   73.71919091
_cell_angle_beta   90.00000000
_cell_angle_gamma   90.00000000
_symmetry_Int_Tables_number   1
_chemical_formula_structural   K4GeH4N2O3
_chemical_formula_sum   'K16 Ge4 H16 N8 O12'
_cell_volume   867.46648753
_cell_formula_units_Z   4
loop_
 _symmetry_equiv_pos_site_id
 _symmetry_equiv_pos_as_xyz
  1  'x, y, z'
loop_
 _atom_site_type_symbol
 _atom_site_label
 _atom_site_symmetry_multiplicity
 _atom_site_fract_x
 _atom_site_fract_y
 _atom_site_fract_z
 _atom_site_occupancy
  K  K0  1  0.60577900  0.36745100  0.61438600  1
  K  K1  1  0.10577900  0.63254900  0.88561400  1
  K  K2  1  0.39422100  0.63254900  0.38561400  1
  K  K3  1  0.89422100  0.36745100  0.11438600  1
  K  K4  1  0.62247800  0.48795700  0.85320100  1
  K  K5  1  0.12247800  0.51204300  0.64679900  1
  K  K6  1  0.37752200  0.51204300  0.14679900  1
  K  K7  1  0.87752200  0.48795700  0.35320100  1
  K  K8  1  0.67924300  0.15151300  0.90242800  1
  K  K9  1  0.17924300  0.84848700  0.59757200  1
  K  K10  1  0.32075700  0.84848700  0.09757200  1
  K  K11  1  0.82075700  0.15151300  0.40242800  1
  K  K12  1  0.62082700  0.80599600  0.82197600  1
  K  K13  1  0.12082700  0.19400400  0.67802400  1
  K  K14  1  0.37917300  0.19400400  0.17802400  1
  K  K15  1  0.87917300  0.80599600  0.32197600  1
  Ge  Ge16  1  0.69472900  0.69685500  0.59898700  1
  Ge  Ge17  1  0.19472900  0.30314500  0.90101300  1
  Ge  Ge18  1  0.30527100  0.30314500  0.40101300  1
  Ge  Ge19  1  0.80527100  0.69685500  0.09898700  1
  H  H20  1  0.68131300  0.92858800  0.55998200  1
  H  H21  1  0.18131300  0.07141200  0.94001800  1
  H  H22  1  0.31868700  0.07141200  0.44001800  1
  H  H23  1  0.81868700  0.92858800  0.05998200  1
  H  H24  1  0.57253000  0.88800000  0.45771200  1
  H  H25  1  0.07253000  0.11200000  0.04228800  1
  H  H26  1  0.42747000  0.11200000  0.54228800  1
  H  H27  1  0.92747000  0.88800000  0.95771200  1
  H  H28  1  0.69420400  0.02580600  0.17091100  1
  H  H29  1  0.19420400  0.97419400  0.32908900  1
  H  H30  1  0.30579600  0.97419400  0.82908900  1
  H  H31  1  0.80579600  0.02580600  0.67091100  1
  H  H32  1  0.58110400  0.07332700  0.69195700  1
  H  H33  1  0.08110400  0.92667300  0.80804300  1
  H  H34  1  0.41889600  0.92667300  0.30804300  1
  H  H35  1  0.91889600  0.07332700  0.19195700  1
  N  N36  1  0.70121400  0.87212900  0.50792300  1
  N  N37  1  0.20121400  0.12787100  0.99207700  1
  N  N38  1  0.29878600  0.12787100  0.49207700  1
  N  N39  1  0.79878600  0.87212900  0.00792300  1
  N  N40  1  0.72465200  0.10709000  0.66590300  1
  N  N41  1  0.22465200  0.89291000  0.83409700  1
  N  N42  1  0.27534800  0.89291000  0.33409700  1
  N  N43  1  0.77534800  0.10709000  0.16590300  1
  O  O44  1  0.73192400  0.60921100  0.00599900  1
  O  O45  1  0.23192400  0.39078900  0.49400100  1
  O  O46  1  0.26807600  0.39078900  0.99400100  1
  O  O47  1  0.76807600  0.60921100  0.50599900  1
  O  O48  1  0.62222700  0.69185900  0.20492900  1
  O  O49  1  0.12222700  0.30814100  0.29507100  1
  O  O50  1  0.37777300  0.30814100  0.79507100  1
  O  O51  1  0.87777300  0.69185900  0.70492900  1
  O  O52  1  0.55158600  0.34286500  0.34264600  1
  O  O53  1  0.05158600  0.65713500  0.15735400  1
  O  O54  1  0.44841400  0.65713500  0.65735400  1
  O  O55  1  0.94841400  0.34286500  0.84264600  1
