# generated using pymatgen
data_K2BiPCO7
_symmetry_space_group_name_H-M   'P 1'
_cell_length_a   7.28143700
_cell_length_b   5.89232800
_cell_length_c   9.90633694
_cell_angle_alpha   85.60493965
_cell_angle_beta   90.00000000
_cell_angle_gamma   90.00000000
_symmetry_Int_Tables_number   1
_chemical_formula_structural   K2BiPCO7
_chemical_formula_sum   'K4 Bi2 P2 C2 O14'
_cell_volume   423.77772184
_cell_formula_units_Z   2
loop_
 _symmetry_equiv_pos_site_id
 _symmetry_equiv_pos_as_xyz
  1  'x, y, z'
loop_
 _atom_site_type_symbol
 _atom_site_label
 _atom_site_symmetry_multiplicity
 _atom_site_fract_x
 _atom_site_fract_y
 _atom_site_fract_z
 _atom_site_occupancy
  K  K0  1  0.48725900  0.24731600  0.77782200  1
  K  K1  1  0.01274100  0.24731600  0.77782200  1
  K  K2  1  0.51274100  0.75268400  0.22217800  1
  K  K3  1  0.98725900  0.75268400  0.22217800  1
  Bi  Bi4  1  0.75000000  0.78841100  0.62000500  1
  Bi  Bi5  1  0.25000000  0.21158900  0.37999500  1
  P  P6  1  0.25000000  0.71758900  0.58183100  1
  P  P7  1  0.75000000  0.28241100  0.41816900  1
  C  C8  1  0.75000000  0.72266000  0.90173900  1
  C  C9  1  0.25000000  0.27734000  0.09826100  1
  O  O10  1  0.25000000  0.29172900  0.97187000  1
  O  O11  1  0.75000000  0.92370200  0.82941600  1
  O  O12  1  0.75000000  0.54492400  0.82802800  1
  O  O13  1  0.07647100  0.80287000  0.65538700  1
  O  O14  1  0.42352900  0.80287000  0.65538700  1
  O  O15  1  0.75000000  0.18019300  0.57085900  1
  O  O16  1  0.25000000  0.45438700  0.58077000  1
  O  O17  1  0.75000000  0.54561300  0.41923000  1
  O  O18  1  0.25000000  0.81980700  0.42914100  1
  O  O19  1  0.57647100  0.19713000  0.34461300  1
  O  O20  1  0.92352900  0.19713000  0.34461300  1
  O  O21  1  0.25000000  0.45507600  0.17197200  1
  O  O22  1  0.25000000  0.07629800  0.17058400  1
  O  O23  1  0.75000000  0.70827100  0.02813000  1
