# generated using pymatgen
data_Na3SiSnBO7
_symmetry_space_group_name_H-M   'P 1'
_cell_length_a   6.76166100
_cell_length_b   5.37439400
_cell_length_c   9.11741383
_cell_angle_alpha   88.06242121
_cell_angle_beta   90.00000000
_cell_angle_gamma   90.00000000
_symmetry_Int_Tables_number   1
_chemical_formula_structural   Na3SiSnBO7
_chemical_formula_sum   'Na6 Si2 Sn2 B2 O14'
_cell_volume   331.13583808
_cell_formula_units_Z   2
loop_
 _symmetry_equiv_pos_site_id
 _symmetry_equiv_pos_as_xyz
  1  'x, y, z'
loop_
 _atom_site_type_symbol
 _atom_site_label
 _atom_site_symmetry_multiplicity
 _atom_site_fract_x
 _atom_site_fract_y
 _atom_site_fract_z
 _atom_site_occupancy
  Na  Na0  1  0.75000000  0.23891500  0.91916600  1
  Na  Na1  1  0.99368200  0.74546500  0.75247600  1
  Na  Na2  1  0.50631800  0.74546500  0.75247600  1
  Na  Na3  1  0.49368200  0.25453500  0.24752400  1
  Na  Na4  1  0.00631800  0.25453500  0.24752400  1
  Na  Na5  1  0.25000000  0.76108500  0.08083400  1
  Si  Si6  1  0.75000000  0.28072900  0.57445100  1
  Si  Si7  1  0.25000000  0.71927100  0.42554900  1
  Sn  Sn8  1  0.25000000  0.21656000  0.65981500  1
  Sn  Sn9  1  0.75000000  0.78344000  0.34018500  1
  B  B10  1  0.25000000  0.27533200  0.93838200  1
  B  B11  1  0.75000000  0.72466800  0.06161800  1
  O  O12  1  0.75000000  0.68437000  0.91720800  1
  O  O13  1  0.25000000  0.03893200  0.87505900  1
  O  O14  1  0.25000000  0.47204800  0.82905100  1
  O  O15  1  0.94104200  0.20606000  0.67855600  1
  O  O16  1  0.55895800  0.20606000  0.67855600  1
  O  O17  1  0.75000000  0.58590500  0.53758400  1
  O  O18  1  0.25000000  0.86209700  0.58149700  1
  O  O19  1  0.75000000  0.13790300  0.41850300  1
  O  O20  1  0.25000000  0.41409500  0.46241600  1
  O  O21  1  0.44104200  0.79394000  0.32144400  1
  O  O22  1  0.05895800  0.79394000  0.32144400  1
  O  O23  1  0.75000000  0.52795200  0.17094900  1
  O  O24  1  0.75000000  0.96106800  0.12494100  1
  O  O25  1  0.25000000  0.31563000  0.08279200  1
