# generated using pymatgen
data_Rb4SnO4
_symmetry_space_group_name_H-M   'P 1'
_cell_length_a   6.91074200
_cell_length_b   6.91654782
_cell_length_c   10.28380782
_cell_angle_alpha   71.68982643
_cell_angle_beta   79.62315113
_cell_angle_gamma   66.52660876
_symmetry_Int_Tables_number   1
_chemical_formula_structural   Rb4SnO4
_chemical_formula_sum   'Rb8 Sn2 O8'
_cell_volume   427.19026304
_cell_formula_units_Z   2
loop_
 _symmetry_equiv_pos_site_id
 _symmetry_equiv_pos_as_xyz
  1  'x, y, z'
loop_
 _atom_site_type_symbol
 _atom_site_label
 _atom_site_symmetry_multiplicity
 _atom_site_fract_x
 _atom_site_fract_y
 _atom_site_fract_z
 _atom_site_occupancy
  Rb  Rb0  1  0.74555900  0.59507500  0.16380700  1
  Rb  Rb1  1  0.25444100  0.40492500  0.83619300  1
  Rb  Rb2  1  0.75800500  0.23640400  0.97343800  1
  Rb  Rb3  1  0.24199500  0.76359600  0.02656200  1
  Rb  Rb4  1  0.27306500  0.51115600  0.43971800  1
  Rb  Rb5  1  0.72693500  0.48884400  0.56028200  1
  Rb  Rb6  1  0.77897300  0.03930100  0.38215900  1
  Rb  Rb7  1  0.22102700  0.96069900  0.61784100  1
  Sn  Sn8  1  0.72613500  0.84464900  0.75278300  1
  Sn  Sn9  1  0.27386500  0.15535100  0.24721700  1
  O  O10  1  0.87020200  0.84038200  0.90599200  1
  O  O11  1  0.12979800  0.15961800  0.09400800  1
  O  O12  1  0.03944100  0.29745100  0.37391500  1
  O  O13  1  0.96055900  0.70254900  0.62608500  1
  O  O14  1  0.45696400  0.33604400  0.18950800  1
  O  O15  1  0.54303600  0.66395600  0.81049200  1
  O  O16  1  0.45078000  0.85217400  0.35036300  1
  O  O17  1  0.54922000  0.14782600  0.64963700  1
