# generated using pymatgen
data_Sr6CoC2N7
_symmetry_space_group_name_H-M   'P 1'
_cell_length_a   3.86988100
_cell_length_b   9.89322900
_cell_length_c   14.69099300
_cell_angle_alpha   90.00000000
_cell_angle_beta   90.00000000
_cell_angle_gamma   90.00000000
_symmetry_Int_Tables_number   1
_chemical_formula_structural   Sr6CoC2N7
_chemical_formula_sum   'Sr12 Co2 C4 N14'
_cell_volume   562.45375979
_cell_formula_units_Z   2
loop_
 _symmetry_equiv_pos_site_id
 _symmetry_equiv_pos_as_xyz
  1  'x, y, z'
loop_
 _atom_site_type_symbol
 _atom_site_label
 _atom_site_symmetry_multiplicity
 _atom_site_fract_x
 _atom_site_fract_y
 _atom_site_fract_z
 _atom_site_occupancy
  Sr  Sr0  1  0.06013200  0.42845300  0.88968400  1
  Sr  Sr1  1  0.06013200  0.57154700  0.11031600  1
  Sr  Sr2  1  0.93986800  0.92845300  0.61031600  1
  Sr  Sr3  1  0.93986800  0.07154700  0.38968400  1
  Sr  Sr4  1  0.49383700  0.09498000  0.83603100  1
  Sr  Sr5  1  0.49383700  0.90502000  0.16396900  1
  Sr  Sr6  1  0.50616300  0.59498000  0.66396900  1
  Sr  Sr7  1  0.50616300  0.40502000  0.33603100  1
  Sr  Sr8  1  0.44084400  0.24631100  0.55808700  1
  Sr  Sr9  1  0.44084400  0.75368900  0.44191300  1
  Sr  Sr10  1  0.55915600  0.74631100  0.94191300  1
  Sr  Sr11  1  0.55915600  0.25368900  0.05808700  1
  Co  Co12  1  0.97660900  0.50000000  0.50000000  1
  Co  Co13  1  0.02339100  0.00000000  0.00000000  1
  C  C14  1  0.81633300  0.27213900  0.72049200  1
  C  C15  1  0.81633300  0.72786100  0.27950800  1
  C  C16  1  0.18366700  0.77213900  0.77950800  1
  C  C17  1  0.18366700  0.22786100  0.22049200  1
  N  N18  1  0.56417200  0.50000000  0.00000000  1
  N  N19  1  0.43582800  0.00000000  0.50000000  1
  N  N20  1  0.02864800  0.16663500  0.94647800  1
  N  N21  1  0.02864800  0.83336500  0.05352200  1
  N  N22  1  0.97135200  0.66663500  0.55352200  1
  N  N23  1  0.97135200  0.33336500  0.44647800  1
  N  N24  1  0.96956400  0.16882500  0.69372300  1
  N  N25  1  0.96956400  0.83117500  0.30627700  1
  N  N26  1  0.03043600  0.66882500  0.80627700  1
  N  N27  1  0.03043600  0.33117500  0.19372300  1
  N  N28  1  0.63477900  0.36630600  0.74875500  1
  N  N29  1  0.63477900  0.63369400  0.25124500  1
  N  N30  1  0.36522100  0.86630600  0.75124500  1
  N  N31  1  0.36522100  0.13369400  0.24875500  1
