# generated using pymatgen
data_ErCrHO5
_symmetry_space_group_name_H-M   'P 1'
_cell_length_a   11.59018800
_cell_length_b   8.20244400
_cell_length_c   11.27022972
_cell_angle_alpha   46.86442751
_cell_angle_beta   90.00000000
_cell_angle_gamma   90.00000000
_symmetry_Int_Tables_number   1
_chemical_formula_structural   ErCrHO5
_chemical_formula_sum   'Er8 Cr8 H8 O40'
_cell_volume   781.86799790
_cell_formula_units_Z   8
loop_
 _symmetry_equiv_pos_site_id
 _symmetry_equiv_pos_as_xyz
  1  'x, y, z'
loop_
 _atom_site_type_symbol
 _atom_site_label
 _atom_site_symmetry_multiplicity
 _atom_site_fract_x
 _atom_site_fract_y
 _atom_site_fract_z
 _atom_site_occupancy
  Er  Er0  1  0.92262500  0.76116400  0.32326900  1
  Er  Er1  1  0.57737500  0.76116400  0.82326900  1
  Er  Er2  1  0.07737500  0.23883600  0.67673100  1
  Er  Er3  1  0.42262500  0.23883600  0.17673100  1
  Er  Er4  1  0.93808900  0.28625400  0.34845500  1
  Er  Er5  1  0.56191100  0.28625400  0.84845500  1
  Er  Er6  1  0.06191100  0.71374600  0.65154500  1
  Er  Er7  1  0.43808900  0.71374600  0.15154500  1
  Cr  Cr8  1  0.67079700  0.36679600  0.50075700  1
  Cr  Cr9  1  0.82920300  0.36679600  0.00075700  1
  Cr  Cr10  1  0.32920300  0.63320400  0.49924300  1
  Cr  Cr11  1  0.17079700  0.63320400  0.99924300  1
  Cr  Cr12  1  0.81255400  0.90640400  0.95940800  1
  Cr  Cr13  1  0.68744600  0.90640400  0.45940800  1
  Cr  Cr14  1  0.18744600  0.09359600  0.04059200  1
  Cr  Cr15  1  0.31255400  0.09359600  0.54059200  1
  H  H16  1  0.10379900  0.56740900  0.32357100  1
  H  H17  1  0.39620100  0.56740900  0.82357100  1
  H  H18  1  0.89620100  0.43259100  0.67642900  1
  H  H19  1  0.60379900  0.43259100  0.17642900  1
  H  H20  1  0.92737100  0.94144900  0.69557600  1
  H  H21  1  0.57262900  0.94144900  0.19557600  1
  H  H22  1  0.07262900  0.05855100  0.30442400  1
  H  H23  1  0.42737100  0.05855100  0.80442400  1
  O  O24  1  0.80996500  0.40679700  0.43839200  1
  O  O25  1  0.69003500  0.40679700  0.93839200  1
  O  O26  1  0.19003500  0.59320300  0.56160800  1
  O  O27  1  0.30996500  0.59320300  0.06160800  1
  O  O28  1  0.66600500  0.37151700  0.64489600  1
  O  O29  1  0.83399500  0.37151700  0.14489600  1
  O  O30  1  0.33399500  0.62848300  0.35510400  1
  O  O31  1  0.16600500  0.62848300  0.85510400  1
  O  O32  1  0.62708500  0.11618500  0.58535100  1
  O  O33  1  0.87291500  0.11618500  0.08535100  1
  O  O34  1  0.37291500  0.88381500  0.41464900  1
  O  O35  1  0.12708500  0.88381500  0.91464900  1
  O  O36  1  0.58474200  0.55647200  0.34339700  1
  O  O37  1  0.91525800  0.55647200  0.84339700  1
  O  O38  1  0.41525800  0.44352800  0.65660300  1
  O  O39  1  0.08474200  0.44352800  0.15660300  1
  O  O40  1  0.88136200  0.71279600  0.13878900  1
  O  O41  1  0.61863800  0.71279600  0.63878900  1
  O  O42  1  0.11863800  0.28720400  0.86121100  1
  O  O43  1  0.38136200  0.28720400  0.36121100  1
  O  O44  1  0.70299700  0.00998300  0.98364700  1
  O  O45  1  0.79700300  0.00998300  0.48364700  1
  O  O46  1  0.29700300  0.99001700  0.01635300  1
  O  O47  1  0.20299700  0.99001700  0.51635300  1
  O  O48  1  0.75770700  0.79801000  0.88921300  1
  O  O49  1  0.74229300  0.79801000  0.38921300  1
  O  O50  1  0.24229300  0.20199000  0.11078700  1
  O  O51  1  0.25770700  0.20199000  0.61078700  1
  O  O52  1  0.90548100  0.10483300  0.82072600  1
  O  O53  1  0.59451900  0.10483300  0.32072600  1
  O  O54  1  0.09451900  0.89516700  0.17927400  1
  O  O55  1  0.40548100  0.89516700  0.67927400  1
  O  O56  1  0.04274600  0.47002800  0.40165400  1
  O  O57  1  0.45725400  0.47002800  0.90165400  1
  O  O58  1  0.95725400  0.52997200  0.59834600  1
  O  O59  1  0.54274600  0.52997200  0.09834600  1
  O  O60  1  0.99462800  0.01782000  0.62412500  1
  O  O61  1  0.50537200  0.01782000  0.12412500  1
  O  O62  1  0.00537200  0.98218000  0.37587500  1
  O  O63  1  0.49462800  0.98218000  0.87587500  1
