# generated using pymatgen
data_Cu2O3
_symmetry_space_group_name_H-M   'P 1'
_cell_length_a   8.08884528
_cell_length_b   8.08884528
_cell_length_c   8.08884528
_cell_angle_alpha   109.47122063
_cell_angle_beta   109.47122063
_cell_angle_gamma   109.47122063
_symmetry_Int_Tables_number   1
_chemical_formula_structural   Cu2O3
_chemical_formula_sum   'Cu16 O24'
_cell_volume   407.41563809
_cell_formula_units_Z   8
loop_
 _symmetry_equiv_pos_site_id
 _symmetry_equiv_pos_as_xyz
  1  'x, y, z'
loop_
 _atom_site_type_symbol
 _atom_site_label
 _atom_site_symmetry_multiplicity
 _atom_site_fract_x
 _atom_site_fract_y
 _atom_site_fract_z
 _atom_site_occupancy
  Cu  Cu0  1  0.50000000  0.00000000  0.00000000  1
  Cu  Cu1  1  0.96595900  0.25000000  0.21595900  1
  Cu  Cu2  1  0.78404100  0.03404100  0.75000000  1
  Cu  Cu3  1  0.71595900  0.46595900  0.25000000  1
  Cu  Cu4  1  0.75000000  0.78404100  0.03404100  1
  Cu  Cu5  1  0.75000000  0.28404100  0.53404100  1
  Cu  Cu6  1  0.46595900  0.25000000  0.71595900  1
  Cu  Cu7  1  0.00000000  0.50000000  0.00000000  1
  Cu  Cu8  1  0.00000000  0.00000000  0.50000000  1
  Cu  Cu9  1  0.53404100  0.75000000  0.28404100  1
  Cu  Cu10  1  0.50000000  0.50000000  0.50000000  1
  Cu  Cu11  1  0.25000000  0.71595900  0.46595900  1
  Cu  Cu12  1  0.25000000  0.21595900  0.96595900  1
  Cu  Cu13  1  0.21595900  0.96595900  0.25000000  1
  Cu  Cu14  1  0.28404100  0.53404100  0.75000000  1
  Cu  Cu15  1  0.03404100  0.75000000  0.78404100  1
  O  O16  1  0.78594500  0.06067700  0.51813600  1
  O  O17  1  0.71405500  0.23219000  0.27473200  1
  O  O18  1  0.26781000  0.98186400  0.04254100  1
  O  O19  1  0.93932300  0.48186400  0.21405500  1
  O  O20  1  0.76781000  0.72526800  0.28594500  1
  O  O21  1  0.43932300  0.22526800  0.45745900  1
  O  O22  1  0.04254100  0.26781000  0.98186400  1
  O  O23  1  0.45745900  0.43932300  0.22526800  1
  O  O24  1  0.98186400  0.04254100  0.26781000  1
  O  O25  1  0.77473200  0.54254100  0.56067700  1
  O  O26  1  0.51813600  0.78594500  0.06067700  1
  O  O27  1  0.72526800  0.28594500  0.76781000  1
  O  O28  1  0.27473200  0.71405500  0.23219000  1
  O  O29  1  0.22526800  0.45745900  0.43932300  1
  O  O30  1  0.48186400  0.21405500  0.93932300  1
  O  O31  1  0.01813600  0.95745900  0.73219000  1
  O  O32  1  0.95745900  0.73219000  0.01813600  1
  O  O33  1  0.54254100  0.56067700  0.77473200  1
  O  O34  1  0.56067700  0.77473200  0.54254100  1
  O  O35  1  0.23219000  0.27473200  0.71405500  1
  O  O36  1  0.06067700  0.51813600  0.78594500  1
  O  O37  1  0.73219000  0.01813600  0.95745900  1
  O  O38  1  0.21405500  0.93932300  0.48186400  1
  O  O39  1  0.28594500  0.76781000  0.72526800  1
