# generated using pymatgen
data_LiP3(WO6)2
_symmetry_space_group_name_H-M   'P 1'
_cell_length_a   8.63204900
_cell_length_b   8.64366229
_cell_length_c   9.11755731
_cell_angle_alpha   90.41027850
_cell_angle_beta   118.22499754
_cell_angle_gamma   119.18054592
_symmetry_Int_Tables_number   1
_chemical_formula_structural   LiP3(WO6)2
_chemical_formula_sum   'Li2 P6 W4 O24'
_cell_volume   497.70603569
_cell_formula_units_Z   2
loop_
 _symmetry_equiv_pos_site_id
 _symmetry_equiv_pos_as_xyz
  1  'x, y, z'
loop_
 _atom_site_type_symbol
 _atom_site_label
 _atom_site_symmetry_multiplicity
 _atom_site_fract_x
 _atom_site_fract_y
 _atom_site_fract_z
 _atom_site_occupancy
  Li  Li0  1  0.34906100  0.81398300  0.58121500  1
  Li  Li1  1  0.65093900  0.18601700  0.41878500  1
  P  P2  1  0.00614200  0.54139900  0.25334300  1
  P  P3  1  0.71122300  0.74214400  0.75093700  1
  P  P4  1  0.28307200  0.02710400  0.74801300  1
  P  P5  1  0.71692800  0.97289600  0.25198700  1
  P  P6  1  0.28877700  0.25785600  0.24906300  1
  P  P7  1  0.99385800  0.45860100  0.74665700  1
  W  W8  1  0.79708600  0.14049600  0.93057500  1
  W  W9  1  0.79674800  0.64690900  0.43835900  1
  W  W10  1  0.20325200  0.35309100  0.56164100  1
  W  W11  1  0.20291400  0.85950400  0.06942500  1
  O  O12  1  0.64174100  0.87892900  0.74587200  1
  O  O13  1  0.17506300  0.54270600  0.42957900  1
  O  O14  1  0.90975800  0.38752600  0.09683900  1
  O  O15  1  0.13788800  0.73864000  0.24336500  1
  O  O16  1  0.50024300  0.09120200  0.77778000  1
  O  O17  1  0.90791700  0.80596500  0.93535100  1
  O  O18  1  0.82891300  0.52410300  0.27103100  1
  O  O19  1  0.22305700  0.23960300  0.38246800  1
  O  O20  1  0.13166300  0.83805100  0.59891600  1
  O  O21  1  0.53318200  0.54379600  0.71054800  1
  O  O22  1  0.28569500  0.00477800  0.91591700  1
  O  O23  1  0.22647600  0.16849300  0.69352200  1
  O  O24  1  0.77352400  0.83150700  0.30647800  1
  O  O25  1  0.71430500  0.99522200  0.08408300  1
  O  O26  1  0.46681800  0.45620400  0.28945200  1
  O  O27  1  0.86833700  0.16194900  0.40108400  1
  O  O28  1  0.77694300  0.76039700  0.61753200  1
  O  O29  1  0.17108700  0.47589700  0.72896900  1
  O  O30  1  0.09208300  0.19403500  0.06464900  1
  O  O31  1  0.49975700  0.90879800  0.22222000  1
  O  O32  1  0.86211200  0.26136000  0.75663500  1
  O  O33  1  0.09024200  0.61247400  0.90316100  1
  O  O34  1  0.82493700  0.45729400  0.57042100  1
  O  O35  1  0.35825900  0.12107100  0.25412800  1
