# generated using pymatgen
data_Cs3HoO3
_symmetry_space_group_name_H-M   'P 1'
_cell_length_a   7.62724800
_cell_length_b   8.32371500
_cell_length_c   12.28463038
_cell_angle_alpha   84.74355788
_cell_angle_beta   90.00000000
_cell_angle_gamma   90.00000000
_symmetry_Int_Tables_number   1
_chemical_formula_structural   Cs3HoO3
_chemical_formula_sum   'Cs12 Ho4 O12'
_cell_volume   776.63497493
_cell_formula_units_Z   4
loop_
 _symmetry_equiv_pos_site_id
 _symmetry_equiv_pos_as_xyz
  1  'x, y, z'
loop_
 _atom_site_type_symbol
 _atom_site_label
 _atom_site_symmetry_multiplicity
 _atom_site_fract_x
 _atom_site_fract_y
 _atom_site_fract_z
 _atom_site_occupancy
  Cs  Cs0  1  0.33104800  0.35455000  0.07819300  1
  Cs  Cs1  1  0.61993000  0.93671400  0.15522900  1
  Cs  Cs2  1  0.80823200  0.37732100  0.19169900  1
  Cs  Cs3  1  0.30823200  0.62267900  0.30830100  1
  Cs  Cs4  1  0.11993000  0.06328600  0.34477100  1
  Cs  Cs5  1  0.83104800  0.64545000  0.42180700  1
  Cs  Cs6  1  0.16895200  0.35455000  0.57819300  1
  Cs  Cs7  1  0.88007000  0.93671400  0.65522900  1
  Cs  Cs8  1  0.69176800  0.37732100  0.69169900  1
  Cs  Cs9  1  0.19176800  0.62267900  0.80830100  1
  Cs  Cs10  1  0.38007000  0.06328600  0.84477100  1
  Cs  Cs11  1  0.66895200  0.64545000  0.92180700  1
  Ho  Ho12  1  0.08651900  0.84220200  0.06581300  1
  Ho  Ho13  1  0.58651900  0.15779800  0.43418700  1
  Ho  Ho14  1  0.41348100  0.84220200  0.56581300  1
  Ho  Ho15  1  0.91348100  0.15779800  0.93418700  1
  O  O16  1  0.34511900  0.75331700  0.04295600  1
  O  O17  1  0.05184700  0.10079300  0.08948100  1
  O  O18  1  0.94261800  0.69531600  0.18400400  1
  O  O19  1  0.44261800  0.30468400  0.31599600  1
  O  O20  1  0.55184700  0.89920700  0.41051900  1
  O  O21  1  0.84511900  0.24668300  0.45704400  1
  O  O22  1  0.15488100  0.75331700  0.54295600  1
  O  O23  1  0.44815300  0.10079300  0.58948100  1
  O  O24  1  0.55738200  0.69531600  0.68400400  1
  O  O25  1  0.05738200  0.30468400  0.81599600  1
  O  O26  1  0.94815300  0.89920700  0.91051900  1
  O  O27  1  0.65488100  0.24668300  0.95704400  1
