# generated using pymatgen
data_LiP4WO12
_symmetry_space_group_name_H-M   'P 1'
_cell_length_a   8.37665800
_cell_length_b   9.67230200
_cell_length_c   13.14142000
_cell_angle_alpha   90.00000000
_cell_angle_beta   90.00000000
_cell_angle_gamma   90.00000000
_symmetry_Int_Tables_number   1
_chemical_formula_structural   LiP4WO12
_chemical_formula_sum   'Li4 P16 W4 O48'
_cell_volume   1064.73842690
_cell_formula_units_Z   4
loop_
 _symmetry_equiv_pos_site_id
 _symmetry_equiv_pos_as_xyz
  1  'x, y, z'
loop_
 _atom_site_type_symbol
 _atom_site_label
 _atom_site_symmetry_multiplicity
 _atom_site_fract_x
 _atom_site_fract_y
 _atom_site_fract_z
 _atom_site_occupancy
  Li  Li0  1  0.99247400  0.75000000  0.00000000  1
  Li  Li1  1  0.00752600  0.25000000  0.00000000  1
  Li  Li2  1  0.50752600  0.25000000  0.50000000  1
  Li  Li3  1  0.49247400  0.75000000  0.50000000  1
  P  P4  1  0.17645000  0.50327300  0.13840100  1
  P  P5  1  0.82355000  0.00327300  0.13840100  1
  P  P6  1  0.53660200  0.50964200  0.15417400  1
  P  P7  1  0.46339800  0.00964200  0.15417400  1
  P  P8  1  0.03660200  0.50964200  0.34582600  1
  P  P9  1  0.96339800  0.00964200  0.34582600  1
  P  P10  1  0.32355000  0.00327300  0.36159900  1
  P  P11  1  0.67645000  0.50327300  0.36159900  1
  P  P12  1  0.32355000  0.49672700  0.63840100  1
  P  P13  1  0.67645000  0.99672700  0.63840100  1
  P  P14  1  0.03660200  0.99035800  0.65417400  1
  P  P15  1  0.96339800  0.49035800  0.65417400  1
  P  P16  1  0.46339800  0.49035800  0.84582600  1
  P  P17  1  0.53660200  0.99035800  0.84582600  1
  P  P18  1  0.17645000  0.99672700  0.86159900  1
  P  P19  1  0.82355000  0.49672700  0.86159900  1
  W  W20  1  0.62980500  0.25000000  0.00000000  1
  W  W21  1  0.37019500  0.75000000  0.00000000  1
  W  W22  1  0.12980500  0.25000000  0.50000000  1
  W  W23  1  0.87019500  0.75000000  0.50000000  1
  O  O24  1  0.18204100  0.62670400  0.06650700  1
  O  O25  1  0.81795900  0.12670400  0.06650700  1
  O  O26  1  0.54407100  0.62338500  0.07603600  1
  O  O27  1  0.45592900  0.12338500  0.07603600  1
  O  O28  1  0.09506500  0.37585600  0.10442400  1
  O  O29  1  0.90493500  0.87585600  0.10442400  1
  O  O30  1  0.36820900  0.88171700  0.13158100  1
  O  O31  1  0.63179100  0.38171700  0.13158100  1
  O  O32  1  0.35485300  0.46783100  0.17807000  1
  O  O33  1  0.64514700  0.96783100  0.17807000  1
  O  O34  1  0.09800400  0.57051700  0.24003300  1
  O  O35  1  0.90199600  0.07051700  0.24003300  1
  O  O36  1  0.40199600  0.07051700  0.25996700  1
  O  O37  1  0.59800400  0.57051700  0.25996700  1
  O  O38  1  0.14514700  0.96783100  0.32193000  1
  O  O39  1  0.85485300  0.46783100  0.32193000  1
  O  O40  1  0.13179100  0.38171700  0.36841900  1
  O  O41  1  0.86820900  0.88171700  0.36841900  1
  O  O42  1  0.59506500  0.37585600  0.39557600  1
  O  O43  1  0.40493500  0.87585600  0.39557600  1
  O  O44  1  0.04407100  0.62338500  0.42396400  1
  O  O45  1  0.95592900  0.12338500  0.42396400  1
  O  O46  1  0.68204100  0.62670400  0.43349300  1
  O  O47  1  0.31795900  0.12670400  0.43349300  1
  O  O48  1  0.31795900  0.37329600  0.56650700  1
  O  O49  1  0.68204100  0.87329600  0.56650700  1
  O  O50  1  0.04407100  0.87661500  0.57603600  1
  O  O51  1  0.95592900  0.37661500  0.57603600  1
  O  O52  1  0.40493500  0.62414400  0.60442400  1
  O  O53  1  0.59506500  0.12414400  0.60442400  1
  O  O54  1  0.13179100  0.11828300  0.63158100  1
  O  O55  1  0.86820900  0.61828300  0.63158100  1
  O  O56  1  0.14514700  0.53216900  0.67807000  1
  O  O57  1  0.85485300  0.03216900  0.67807000  1
  O  O58  1  0.40199600  0.42948300  0.74003300  1
  O  O59  1  0.59800400  0.92948300  0.74003300  1
  O  O60  1  0.09800400  0.92948300  0.75996700  1
  O  O61  1  0.90199600  0.42948300  0.75996700  1
  O  O62  1  0.35485300  0.03216900  0.82193000  1
  O  O63  1  0.64514700  0.53216900  0.82193000  1
  O  O64  1  0.36820900  0.61828300  0.86841900  1
  O  O65  1  0.63179100  0.11828300  0.86841900  1
  O  O66  1  0.09506500  0.12414400  0.89557600  1
  O  O67  1  0.90493500  0.62414400  0.89557600  1
  O  O68  1  0.45592900  0.37661500  0.92396400  1
  O  O69  1  0.54407100  0.87661500  0.92396400  1
  O  O70  1  0.18204100  0.87329600  0.93349300  1
  O  O71  1  0.81795900  0.37329600  0.93349300  1
