# generated using pymatgen
data_MoPH3O7
_symmetry_space_group_name_H-M   'P 1'
_cell_length_a   6.42866700
_cell_length_b   6.82976700
_cell_length_c   7.04533985
_cell_angle_alpha   70.15036833
_cell_angle_beta   90.00000000
_cell_angle_gamma   90.00000000
_symmetry_Int_Tables_number   1
_chemical_formula_structural   MoPH3O7
_chemical_formula_sum   'Mo2 P2 H6 O14'
_cell_volume   290.95627802
_cell_formula_units_Z   2
loop_
 _symmetry_equiv_pos_site_id
 _symmetry_equiv_pos_as_xyz
  1  'x, y, z'
loop_
 _atom_site_type_symbol
 _atom_site_label
 _atom_site_symmetry_multiplicity
 _atom_site_fract_x
 _atom_site_fract_y
 _atom_site_fract_z
 _atom_site_occupancy
  Mo  Mo0  1  0.75000000  0.72291200  0.17032000  1
  Mo  Mo1  1  0.25000000  0.27708800  0.82968000  1
  P  P2  1  0.75000000  0.33776200  0.66401800  1
  P  P3  1  0.25000000  0.66223800  0.33598200  1
  H  H4  1  0.75000000  0.00879200  0.68614900  1
  H  H5  1  0.25000000  0.99120800  0.31385100  1
  H  H6  1  0.75000000  0.26616000  0.28286400  1
  H  H7  1  0.25000000  0.73384000  0.71713600  1
  H  H8  1  0.75000000  0.34997200  0.04371700  1
  H  H9  1  0.25000000  0.65002800  0.95628300  1
  O  O10  1  0.93831700  0.32051700  0.80569100  1
  O  O11  1  0.43831700  0.67948300  0.19430900  1
  O  O12  1  0.06168300  0.67948300  0.19430900  1
  O  O13  1  0.56168300  0.32051700  0.80569100  1
  O  O14  1  0.75000000  0.53651900  0.48447900  1
  O  O15  1  0.25000000  0.46348100  0.51552100  1
  O  O16  1  0.75000000  0.15064700  0.57925300  1
  O  O17  1  0.25000000  0.84935300  0.42074700  1
  O  O18  1  0.75000000  0.80356900  0.90774100  1
  O  O19  1  0.25000000  0.19643100  0.09225900  1
  O  O20  1  0.75000000  0.39222900  0.16354100  1
  O  O21  1  0.25000000  0.60777100  0.83645900  1
  O  O22  1  0.75000000  0.95115700  0.22228900  1
  O  O23  1  0.25000000  0.04884300  0.77771100  1
