# generated using pymatgen
data_Ca19(Mg4H27)2
_symmetry_space_group_name_H-M   'P 1'
_cell_length_a   10.55933170
_cell_length_b   10.55933170
_cell_length_c   10.55933170
_cell_angle_alpha   109.47122063
_cell_angle_beta   109.47122063
_cell_angle_gamma   109.47122063
_symmetry_Int_Tables_number   1
_chemical_formula_structural   Ca19(Mg4H27)2
_chemical_formula_sum   'Ca19 Mg8 H54'
_cell_volume   906.33219434
_cell_formula_units_Z   1
loop_
 _symmetry_equiv_pos_site_id
 _symmetry_equiv_pos_as_xyz
  1  'x, y, z'
loop_
 _atom_site_type_symbol
 _atom_site_label
 _atom_site_symmetry_multiplicity
 _atom_site_fract_x
 _atom_site_fract_y
 _atom_site_fract_z
 _atom_site_occupancy
  Ca  Ca0  1  0.31346700  0.96726000  0.65379300  1
  Ca  Ca1  1  0.68653300  0.03274000  0.34620700  1
  Ca  Ca2  1  0.31346700  0.65967400  0.34620700  1
  Ca  Ca3  1  0.68653300  0.34032600  0.65379300  1
  Ca  Ca4  1  0.65379300  0.31346700  0.96726000  1
  Ca  Ca5  1  0.34620700  0.68653300  0.03274000  1
  Ca  Ca6  1  0.34620700  0.31346700  0.65967400  1
  Ca  Ca7  1  0.65379300  0.68653300  0.34032600  1
  Ca  Ca8  1  0.96726000  0.65379300  0.31346700  1
  Ca  Ca9  1  0.03274000  0.34620700  0.68653300  1
  Ca  Ca10  1  0.65967400  0.34620700  0.31346700  1
  Ca  Ca11  1  0.34032600  0.65379300  0.68653300  1
  Ca  Ca12  1  0.33077400  0.00000000  0.33077400  1
  Ca  Ca13  1  0.66922600  0.00000000  0.66922600  1
  Ca  Ca14  1  0.33077400  0.33077400  0.00000000  1
  Ca  Ca15  1  0.66922600  0.66922600  0.00000000  1
  Ca  Ca16  1  0.00000000  0.33077400  0.33077400  1
  Ca  Ca17  1  0.00000000  0.66922600  0.66922600  1
  Ca  Ca18  1  0.00000000  0.00000000  0.00000000  1
  Mg  Mg19  1  0.31583600  0.00000000  0.00000000  1
  Mg  Mg20  1  0.00000000  0.00000000  0.31583600  1
  Mg  Mg21  1  0.00000000  0.31583600  0.00000000  1
  Mg  Mg22  1  0.68416400  0.68416400  0.68416400  1
  Mg  Mg23  1  0.68416400  0.00000000  0.00000000  1
  Mg  Mg24  1  0.00000000  0.00000000  0.68416400  1
  Mg  Mg25  1  0.00000000  0.68416400  0.00000000  1
  Mg  Mg26  1  0.31583600  0.31583600  0.31583600  1
  H  H27  1  0.42259100  0.94189400  0.14059200  1
  H  H28  1  0.19869900  0.05810600  0.48069700  1
  H  H29  1  0.80130100  0.28199800  0.85940800  1
  H  H30  1  0.57740900  0.71800200  0.51930300  1
  H  H31  1  0.14059200  0.42259100  0.94189400  1
  H  H32  1  0.48069700  0.19869900  0.05810600  1
  H  H33  1  0.85940800  0.80130100  0.28199800  1
  H  H34  1  0.51930300  0.57740900  0.71800200  1
  H  H35  1  0.94189400  0.14059200  0.42259100  1
  H  H36  1  0.05810600  0.48069700  0.19869900  1
  H  H37  1  0.28199800  0.85940800  0.80130100  1
  H  H38  1  0.71800200  0.51930300  0.57740900  1
  H  H39  1  0.57740900  0.05810600  0.85940800  1
  H  H40  1  0.80130100  0.94189400  0.51930300  1
  H  H41  1  0.19869900  0.71800200  0.14059200  1
  H  H42  1  0.42259100  0.28199800  0.48069700  1
  H  H43  1  0.85940800  0.57740900  0.05810600  1
  H  H44  1  0.51930300  0.80130100  0.94189400  1
  H  H45  1  0.14059200  0.19869900  0.71800200  1
  H  H46  1  0.48069700  0.42259100  0.28199800  1
  H  H47  1  0.05810600  0.85940800  0.57740900  1
  H  H48  1  0.94189400  0.51930300  0.80130100  1
  H  H49  1  0.71800200  0.14059200  0.19869900  1
  H  H50  1  0.28199800  0.48069700  0.42259100  1
  H  H51  1  0.39664000  0.21581500  0.81917400  1
  H  H52  1  0.60336000  0.78418500  0.18082600  1
  H  H53  1  0.39664000  0.57746600  0.18082600  1
  H  H54  1  0.60336000  0.42253400  0.81917400  1
  H  H55  1  0.81917400  0.39664000  0.21581500  1
  H  H56  1  0.18082600  0.60336000  0.78418500  1
  H  H57  1  0.18082600  0.39664000  0.57746600  1
  H  H58  1  0.81917400  0.60336000  0.42253400  1
  H  H59  1  0.21581500  0.81917400  0.39664000  1
  H  H60  1  0.78418500  0.18082600  0.60336000  1
  H  H61  1  0.57746600  0.18082600  0.39664000  1
  H  H62  1  0.42253400  0.81917400  0.60336000  1
  H  H63  1  0.17253500  0.06247400  0.88993900  1
  H  H64  1  0.82746500  0.93752600  0.11006100  1
  H  H65  1  0.17253500  0.28259600  0.11006100  1
  H  H66  1  0.82746500  0.71740400  0.88993900  1
  H  H67  1  0.88993900  0.17253500  0.06247400  1
  H  H68  1  0.11006100  0.82746500  0.93752600  1
  H  H69  1  0.11006100  0.17253500  0.28259600  1
  H  H70  1  0.88993900  0.82746500  0.71740400  1
  H  H71  1  0.06247400  0.88993900  0.17253500  1
  H  H72  1  0.93752600  0.11006100  0.82746500  1
  H  H73  1  0.28259600  0.11006100  0.17253500  1
  H  H74  1  0.71740400  0.88993900  0.82746500  1
  H  H75  1  0.61434900  0.50000000  0.11434900  1
  H  H76  1  0.38565100  0.50000000  0.88565100  1
  H  H77  1  0.11434900  0.61434900  0.50000000  1
  H  H78  1  0.88565100  0.38565100  0.50000000  1
  H  H79  1  0.50000000  0.11434900  0.61434900  1
  H  H80  1  0.50000000  0.88565100  0.38565100  1
