# generated using pymatgen
data_GdTa3O9
_symmetry_space_group_name_H-M   'P 1'
_cell_length_a   7.56693100
_cell_length_b   5.36076500
_cell_length_c   8.31740892
_cell_angle_alpha   87.51162034
_cell_angle_beta   90.00000000
_cell_angle_gamma   90.00000000
_symmetry_Int_Tables_number   1
_chemical_formula_structural   GdTa3O9
_chemical_formula_sum   'Gd2 Ta6 O18'
_cell_volume   337.07371294
_cell_formula_units_Z   2
loop_
 _symmetry_equiv_pos_site_id
 _symmetry_equiv_pos_as_xyz
  1  'x, y, z'
loop_
 _atom_site_type_symbol
 _atom_site_label
 _atom_site_symmetry_multiplicity
 _atom_site_fract_x
 _atom_site_fract_y
 _atom_site_fract_z
 _atom_site_occupancy
  Gd  Gd0  1  0.25000000  0.96359500  0.43535600  1
  Gd  Gd1  1  0.75000000  0.03640500  0.56464400  1
  Ta  Ta2  1  0.00000000  0.00000000  0.00000000  1
  Ta  Ta3  1  0.50000000  0.00000000  0.00000000  1
  Ta  Ta4  1  0.00629600  0.52940600  0.69650800  1
  Ta  Ta5  1  0.49370400  0.52940600  0.69650800  1
  Ta  Ta6  1  0.99370400  0.47059400  0.30349200  1
  Ta  Ta7  1  0.50629600  0.47059400  0.30349200  1
  O  O8  1  0.25000000  0.91185100  0.97974400  1
  O  O9  1  0.93833900  0.84868700  0.78606200  1
  O  O10  1  0.56166100  0.84868700  0.78606200  1
  O  O11  1  0.95967600  0.73946400  0.46769700  1
  O  O12  1  0.54032400  0.73946400  0.46769700  1
  O  O13  1  0.25000000  0.65544100  0.65810400  1
  O  O14  1  0.95089100  0.67799300  0.12181000  1
  O  O15  1  0.54910900  0.67799300  0.12181000  1
  O  O16  1  0.25000000  0.57167800  0.31470200  1
  O  O17  1  0.75000000  0.42832200  0.68529800  1
  O  O18  1  0.04910900  0.32200700  0.87819000  1
  O  O19  1  0.45089100  0.32200700  0.87819000  1
  O  O20  1  0.75000000  0.34455900  0.34189600  1
  O  O21  1  0.04032400  0.26053600  0.53230300  1
  O  O22  1  0.45967600  0.26053600  0.53230300  1
  O  O23  1  0.06166100  0.15131300  0.21393800  1
  O  O24  1  0.43833900  0.15131300  0.21393800  1
  O  O25  1  0.75000000  0.08814900  0.02025600  1
