# generated using pymatgen
data_SeO2
_symmetry_space_group_name_H-M   'P 1'
_cell_length_a   8.71289800
_cell_length_b   8.71289800
_cell_length_c   5.20307000
_cell_angle_alpha   90.00000000
_cell_angle_beta   90.00000000
_cell_angle_gamma   90.00000000
_symmetry_Int_Tables_number   1
_chemical_formula_structural   SeO2
_chemical_formula_sum   'Se8 O16'
_cell_volume   394.98893390
_cell_formula_units_Z   8
loop_
 _symmetry_equiv_pos_site_id
 _symmetry_equiv_pos_as_xyz
  1  'x, y, z'
loop_
 _atom_site_type_symbol
 _atom_site_label
 _atom_site_symmetry_multiplicity
 _atom_site_fract_x
 _atom_site_fract_y
 _atom_site_fract_z
 _atom_site_occupancy
  Se  Se0  1  0.36737700  0.28716200  0.50000000  1
  Se  Se1  1  0.63262300  0.71283800  0.50000000  1
  Se  Se2  1  0.71283800  0.36737700  0.00000000  1
  Se  Se3  1  0.28716200  0.63262300  0.00000000  1
  Se  Se4  1  0.78716200  0.86737700  0.00000000  1
  Se  Se5  1  0.86737700  0.21283800  0.50000000  1
  Se  Se6  1  0.13262300  0.78716200  0.50000000  1
  Se  Se7  1  0.21283800  0.13262300  0.00000000  1
  O  O8  1  0.55387700  0.32024500  0.50000000  1
  O  O9  1  0.44612300  0.67975500  0.50000000  1
  O  O10  1  0.67975500  0.55387700  0.00000000  1
  O  O11  1  0.32024500  0.44612300  0.00000000  1
  O  O12  1  0.82024500  0.05387700  0.00000000  1
  O  O13  1  0.05387700  0.17975500  0.50000000  1
  O  O14  1  0.94612300  0.82024500  0.50000000  1
  O  O15  1  0.17975500  0.94612300  0.00000000  1
  O  O16  1  0.36191300  0.13808700  0.25000000  1
  O  O17  1  0.13808700  0.63808700  0.75000000  1
  O  O18  1  0.86191300  0.36191300  0.75000000  1
  O  O19  1  0.63808700  0.86191300  0.25000000  1
  O  O20  1  0.63808700  0.86191300  0.75000000  1
  O  O21  1  0.86191300  0.36191300  0.25000000  1
  O  O22  1  0.13808700  0.63808700  0.25000000  1
  O  O23  1  0.36191300  0.13808700  0.75000000  1
