# generated using pymatgen
data_Na3CdPCO7
_symmetry_space_group_name_H-M   'P 1'
_cell_length_a   7.00416400
_cell_length_b   5.25516800
_cell_length_c   9.17599352
_cell_angle_alpha   89.83614222
_cell_angle_beta   90.00000000
_cell_angle_gamma   90.00000000
_symmetry_Int_Tables_number   1
_chemical_formula_structural   Na3CdPCO7
_chemical_formula_sum   'Na6 Cd2 P2 C2 O14'
_cell_volume   337.74912542
_cell_formula_units_Z   2
loop_
 _symmetry_equiv_pos_site_id
 _symmetry_equiv_pos_as_xyz
  1  'x, y, z'
loop_
 _atom_site_type_symbol
 _atom_site_label
 _atom_site_symmetry_multiplicity
 _atom_site_fract_x
 _atom_site_fract_y
 _atom_site_fract_z
 _atom_site_occupancy
  Na  Na0  1  0.25000000  0.75960800  0.91663900  1
  Na  Na1  1  0.00284500  0.24639900  0.74109300  1
  Na  Na2  1  0.49715500  0.24639900  0.74109300  1
  Na  Na3  1  0.50284500  0.75360100  0.25890700  1
  Na  Na4  1  0.99715500  0.75360100  0.25890700  1
  Na  Na5  1  0.75000000  0.24039200  0.08336100  1
  Cd  Cd6  1  0.75000000  0.76988700  0.63557400  1
  Cd  Cd7  1  0.25000000  0.23011300  0.36442600  1
  P  P8  1  0.25000000  0.70243800  0.59260000  1
  P  P9  1  0.75000000  0.29756200  0.40740000  1
  C  C10  1  0.75000000  0.73584700  0.94340600  1
  C  C11  1  0.25000000  0.26415300  0.05659400  1
  O  O12  1  0.25000000  0.28709400  0.91568000  1
  O  O13  1  0.75000000  0.96017300  0.88275400  1
  O  O14  1  0.75000000  0.53201400  0.86169200  1
  O  O15  1  0.07325000  0.79219100  0.68190000  1
  O  O16  1  0.42675000  0.79219100  0.68190000  1
  O  O17  1  0.25000000  0.40443300  0.58570600  1
  O  O18  1  0.75000000  0.19610200  0.56691500  1
  O  O19  1  0.25000000  0.80389800  0.43308500  1
  O  O20  1  0.75000000  0.59556700  0.41429400  1
  O  O21  1  0.57325000  0.20780900  0.31810000  1
  O  O22  1  0.92675000  0.20780900  0.31810000  1
  O  O23  1  0.25000000  0.46798600  0.13830800  1
  O  O24  1  0.25000000  0.03982700  0.11724600  1
  O  O25  1  0.75000000  0.71290600  0.08432000  1
