# generated using pymatgen
data_Li2(TaS2)3
_symmetry_space_group_name_H-M   'P 1'
_cell_length_a   5.80920689
_cell_length_b   5.80920689
_cell_length_c   12.98606800
_cell_angle_alpha   90.00000000
_cell_angle_beta   90.00000000
_cell_angle_gamma   120.00001014
_symmetry_Int_Tables_number   1
_chemical_formula_structural   Li2(TaS2)3
_chemical_formula_sum   'Li4 Ta6 S12'
_cell_volume   379.52636212
_cell_formula_units_Z   2
loop_
 _symmetry_equiv_pos_site_id
 _symmetry_equiv_pos_as_xyz
  1  'x, y, z'
loop_
 _atom_site_type_symbol
 _atom_site_label
 _atom_site_symmetry_multiplicity
 _atom_site_fract_x
 _atom_site_fract_y
 _atom_site_fract_z
 _atom_site_occupancy
  Li  Li0  1  0.00000000  0.00000000  0.25000000  1
  Li  Li1  1  0.00000000  0.00000000  0.75000000  1
  Li  Li2  1  0.33333300  0.66666700  0.25000000  1
  Li  Li3  1  0.66666700  0.33333300  0.75000000  1
  Ta  Ta4  1  0.00000000  0.00000000  0.00000000  1
  Ta  Ta5  1  0.00000000  0.00000000  0.50000000  1
  Ta  Ta6  1  0.33333300  0.66666700  0.50070600  1
  Ta  Ta7  1  0.33333300  0.66666700  0.99929400  1
  Ta  Ta8  1  0.66666700  0.33333300  0.00070600  1
  Ta  Ta9  1  0.66666700  0.33333300  0.49929400  1
  S  S10  1  0.00091300  0.33451900  0.87962800  1
  S  S11  1  0.99908700  0.33360600  0.12037200  1
  S  S12  1  0.00091300  0.66639400  0.62037200  1
  S  S13  1  0.99908700  0.66548100  0.37962800  1
  S  S14  1  0.33360600  0.99908700  0.87962800  1
  S  S15  1  0.33360600  0.33451900  0.62037200  1
  S  S16  1  0.33451900  0.33360600  0.37962800  1
  S  S17  1  0.33451900  0.00091300  0.12037200  1
  S  S18  1  0.66548100  0.66639400  0.87962800  1
  S  S19  1  0.66639400  0.66548100  0.12037200  1
  S  S20  1  0.66548100  0.99908700  0.62037200  1
  S  S21  1  0.66639400  0.00091300  0.37962800  1
