# generated using pymatgen
data_Hf2N2O
_symmetry_space_group_name_H-M   'P 1'
_cell_length_a   8.70888200
_cell_length_b   8.72202562
_cell_length_c   8.73070595
_cell_angle_alpha   109.31462008
_cell_angle_beta   109.46606068
_cell_angle_gamma   109.40706285
_symmetry_Int_Tables_number   1
_chemical_formula_structural   Hf2N2O
_chemical_formula_sum   'Hf16 N16 O8'
_cell_volume   511.93125564
_cell_formula_units_Z   8
loop_
 _symmetry_equiv_pos_site_id
 _symmetry_equiv_pos_as_xyz
  1  'x, y, z'
loop_
 _atom_site_type_symbol
 _atom_site_label
 _atom_site_symmetry_multiplicity
 _atom_site_fract_x
 _atom_site_fract_y
 _atom_site_fract_z
 _atom_site_occupancy
  Hf  Hf0  1  0.49587600  0.00272200  0.00797000  1
  Hf  Hf1  1  0.28220500  0.24212600  0.02592800  1
  Hf  Hf2  1  0.24330400  0.02740300  0.28378000  1
  Hf  Hf3  1  0.75119100  0.45650000  0.21300100  1
  Hf  Hf4  1  0.52308100  0.27916300  0.74626300  1
  Hf  Hf5  1  0.03417100  0.78860000  0.75720700  1
  Hf  Hf6  1  0.50579500  0.51346500  0.51629400  1
  Hf  Hf7  1  0.01443300  0.50576000  0.00351300  1
  Hf  Hf8  1  0.79209000  0.25151900  0.53266200  1
  Hf  Hf9  1  0.00121600  0.00827100  0.50056400  1
  Hf  Hf10  1  0.21680400  0.74721900  0.45690500  1
  Hf  Hf11  1  0.46482200  0.71805400  0.24916800  1
  Hf  Hf12  1  0.96495800  0.21750200  0.25512100  1
  Hf  Hf13  1  0.25053100  0.53403400  0.79055600  1
  Hf  Hf14  1  0.75042900  0.96189700  0.70725800  1
  Hf  Hf15  1  0.71414000  0.75146200  0.96581400  1
  N  N16  1  0.27344000  0.03130100  0.54490300  1
  N  N17  1  0.49281800  0.23287500  0.95851300  1
  N  N18  1  0.00816900  0.46396600  0.23549400  1
  N  N19  1  0.03467100  0.04505400  0.77090900  1
  N  N20  1  0.22971500  0.45475200  0.99208900  1
  N  N21  1  0.96519200  0.95317600  0.22256600  1
  N  N22  1  0.46222700  0.73387000  0.51067000  1
  N  N23  1  0.72482100  0.23548000  0.27135800  1
  N  N24  1  0.98774700  0.53290300  0.76146300  1
  N  N25  1  0.77105400  0.72904400  0.73801600  1
  N  N26  1  0.23745000  0.77139300  0.22422400  1
  N  N27  1  0.04785500  0.27330600  0.53181800  1
  N  N28  1  0.45355500  0.48343900  0.72482900  1
  N  N29  1  0.26150300  0.98742100  0.03450500  1
  N  N30  1  0.72776200  0.96846600  0.45722500  1
  N  N31  1  0.51238900  0.77506500  0.04272900  1
  O  O32  1  0.73727300  0.01368000  0.96211500  1
  O  O33  1  0.55111900  0.51227700  0.27883000  1
  O  O34  1  0.75522700  0.22658800  0.77340700  1
  O  O35  1  0.95027900  0.72227600  0.46479300  1
  O  O36  1  0.23241800  0.27525800  0.26296300  1
  O  O37  1  0.77301500  0.54633600  0.01159400  1
  O  O38  1  0.53486400  0.26183200  0.48733500  1
  O  O39  1  0.27039200  0.76454300  0.72565400  1
