# generated using pymatgen
data_GdOF
_symmetry_space_group_name_H-M   'P 1'
_cell_length_a   6.85310954
_cell_length_b   6.85310954
_cell_length_c   6.85310949
_cell_angle_alpha   32.93704025
_cell_angle_beta   32.93704025
_cell_angle_gamma   32.93704474
_symmetry_Int_Tables_number   1
_chemical_formula_structural   GdOF
_chemical_formula_sum   'Gd2 O2 F2'
_cell_volume   84.66672714
_cell_formula_units_Z   2
loop_
 _symmetry_equiv_pos_site_id
 _symmetry_equiv_pos_as_xyz
  1  'x, y, z'
loop_
 _atom_site_type_symbol
 _atom_site_label
 _atom_site_symmetry_multiplicity
 _atom_site_fract_x
 _atom_site_fract_y
 _atom_site_fract_z
 _atom_site_occupancy
  Gd  Gd0  1  0.25910100  0.25910100  0.25910100  1
  Gd  Gd1  1  0.74089900  0.74089900  0.74089900  1
  O  O2  1  0.37786000  0.37786000  0.37786000  1
  O  O3  1  0.62214000  0.62214000  0.62214000  1
  F  F4  1  0.12964900  0.12964900  0.12964900  1
  F  F5  1  0.87035100  0.87035100  0.87035100  1
