# generated using pymatgen
data_SrLu2O4
_symmetry_space_group_name_H-M   'P 1'
_cell_length_a   3.34598800
_cell_length_b   10.01134600
_cell_length_c   11.78099900
_cell_angle_alpha   90.00000000
_cell_angle_beta   90.00000000
_cell_angle_gamma   90.00000000
_symmetry_Int_Tables_number   1
_chemical_formula_structural   SrLu2O4
_chemical_formula_sum   'Sr4 Lu8 O16'
_cell_volume   394.63806172
_cell_formula_units_Z   4
loop_
 _symmetry_equiv_pos_site_id
 _symmetry_equiv_pos_as_xyz
  1  'x, y, z'
loop_
 _atom_site_type_symbol
 _atom_site_label
 _atom_site_symmetry_multiplicity
 _atom_site_fract_x
 _atom_site_fract_y
 _atom_site_fract_z
 _atom_site_occupancy
  Sr  Sr0  1  0.75000000  0.24584100  0.64972000  1
  Sr  Sr1  1  0.25000000  0.25415900  0.14972000  1
  Sr  Sr2  1  0.75000000  0.74584100  0.85028000  1
  Sr  Sr3  1  0.25000000  0.75415900  0.35028000  1
  Lu  Lu4  1  0.75000000  0.07304200  0.88769900  1
  Lu  Lu5  1  0.75000000  0.07884700  0.39079200  1
  Lu  Lu6  1  0.25000000  0.42115300  0.89079200  1
  Lu  Lu7  1  0.25000000  0.42695800  0.38769900  1
  Lu  Lu8  1  0.75000000  0.57304200  0.61230100  1
  Lu  Lu9  1  0.75000000  0.57884700  0.10920800  1
  Lu  Lu10  1  0.25000000  0.92115300  0.60920800  1
  Lu  Lu11  1  0.25000000  0.92695800  0.11230100  1
  O  O12  1  0.25000000  0.01929500  0.28298200  1
  O  O13  1  0.75000000  0.07480000  0.07538700  1
  O  O14  1  0.25000000  0.12132800  0.51965900  1
  O  O15  1  0.25000000  0.20924200  0.83036600  1
  O  O16  1  0.75000000  0.29075800  0.33036600  1
  O  O17  1  0.75000000  0.37867200  0.01965900  1
  O  O18  1  0.25000000  0.42520000  0.57538700  1
  O  O19  1  0.75000000  0.48070500  0.78298200  1
  O  O20  1  0.25000000  0.51929500  0.21701800  1
  O  O21  1  0.75000000  0.57480000  0.42461300  1
  O  O22  1  0.25000000  0.62132800  0.98034100  1
  O  O23  1  0.25000000  0.70924200  0.66963400  1
  O  O24  1  0.75000000  0.79075800  0.16963400  1
  O  O25  1  0.75000000  0.87867200  0.48034100  1
  O  O26  1  0.25000000  0.92520000  0.92461300  1
  O  O27  1  0.75000000  0.98070500  0.71701800  1
