# generated using pymatgen
data_Ca5Si3
_symmetry_space_group_name_H-M   'P 1'
_cell_length_a   9.15786549
_cell_length_b   9.15786549
_cell_length_c   9.15786549
_cell_angle_alpha   130.67161574
_cell_angle_beta   130.67161574
_cell_angle_gamma   72.33533472
_symmetry_Int_Tables_number   1
_chemical_formula_structural   Ca5Si3
_chemical_formula_sum   'Ca10 Si6'
_cell_volume   431.88620141
_cell_formula_units_Z   2
loop_
 _symmetry_equiv_pos_site_id
 _symmetry_equiv_pos_as_xyz
  1  'x, y, z'
loop_
 _atom_site_type_symbol
 _atom_site_label
 _atom_site_symmetry_multiplicity
 _atom_site_fract_x
 _atom_site_fract_y
 _atom_site_fract_z
 _atom_site_occupancy
  Ca  Ca0  1  0.53992400  0.68005200  0.50000000  1
  Ca  Ca1  1  0.03992400  0.53992400  0.85987200  1
  Ca  Ca2  1  0.68005200  0.18005200  0.14012800  1
  Ca  Ca3  1  0.96007600  0.46007600  0.14012800  1
  Ca  Ca4  1  0.18005200  0.03992400  0.50000000  1
  Ca  Ca5  1  0.46007600  0.31994800  0.50000000  1
  Ca  Ca6  1  0.81994800  0.96007600  0.50000000  1
  Ca  Ca7  1  0.31994800  0.81994800  0.85987200  1
  Ca  Ca8  1  0.00000000  0.00000000  0.00000000  1
  Ca  Ca9  1  0.50000000  0.50000000  0.00000000  1
  Si  Si10  1  0.61268200  0.11268200  0.72536400  1
  Si  Si11  1  0.11268200  0.38731800  0.50000000  1
  Si  Si12  1  0.88731800  0.61268200  0.50000000  1
  Si  Si13  1  0.38731800  0.88731800  0.27463600  1
  Si  Si14  1  0.25000000  0.25000000  0.00000000  1
  Si  Si15  1  0.75000000  0.75000000  0.00000000  1
