# generated using pymatgen
data_Yb4Sb2O
_symmetry_space_group_name_H-M   'P 1'
_cell_length_a   8.73644336
_cell_length_b   8.73644336
_cell_length_c   8.73644336
_cell_angle_alpha   149.14576672
_cell_angle_beta   149.14576672
_cell_angle_gamma   44.19678906
_symmetry_Int_Tables_number   1
_chemical_formula_structural   Yb4Sb2O
_chemical_formula_sum   'Yb4 Sb2 O1'
_cell_volume   174.87649373
_cell_formula_units_Z   1
loop_
 _symmetry_equiv_pos_site_id
 _symmetry_equiv_pos_as_xyz
  1  'x, y, z'
loop_
 _atom_site_type_symbol
 _atom_site_label
 _atom_site_symmetry_multiplicity
 _atom_site_fract_x
 _atom_site_fract_y
 _atom_site_fract_z
 _atom_site_occupancy
  Yb  Yb0  1  0.50000000  0.00000000  0.50000000  1
  Yb  Yb1  1  0.66311900  0.66311900  0.00000000  1
  Yb  Yb2  1  0.33688100  0.33688100  0.00000000  1
  Yb  Yb3  1  0.00000000  0.50000000  0.50000000  1
  Sb  Sb4  1  0.13933200  0.13933200  0.00000000  1
  Sb  Sb5  1  0.86066800  0.86066800  0.00000000  1
  O  O6  1  0.50000000  0.50000000  0.00000000  1
