# generated using pymatgen
data_Ba2Sb2O5
_symmetry_space_group_name_H-M   'P 1'
_cell_length_a   6.46081800
_cell_length_b   8.20429300
_cell_length_c   14.73678900
_cell_angle_alpha   90.00000000
_cell_angle_beta   90.00000000
_cell_angle_gamma   90.00000000
_symmetry_Int_Tables_number   1
_chemical_formula_structural   Ba2Sb2O5
_chemical_formula_sum   'Ba8 Sb8 O20'
_cell_volume   781.14477927
_cell_formula_units_Z   4
loop_
 _symmetry_equiv_pos_site_id
 _symmetry_equiv_pos_as_xyz
  1  'x, y, z'
loop_
 _atom_site_type_symbol
 _atom_site_label
 _atom_site_symmetry_multiplicity
 _atom_site_fract_x
 _atom_site_fract_y
 _atom_site_fract_z
 _atom_site_occupancy
  Ba  Ba0  1  0.25000000  0.62540200  0.07310100  1
  Ba  Ba1  1  0.75000000  0.62486900  0.43104600  1
  Ba  Ba2  1  0.75000000  0.87513100  0.93104600  1
  Ba  Ba3  1  0.25000000  0.87459800  0.57310100  1
  Ba  Ba4  1  0.25000000  0.12486900  0.06895400  1
  Ba  Ba5  1  0.75000000  0.12540200  0.42689900  1
  Ba  Ba6  1  0.25000000  0.37513100  0.56895400  1
  Ba  Ba7  1  0.75000000  0.37459800  0.92689900  1
  Sb  Sb8  1  0.25000000  0.63508500  0.81934700  1
  Sb  Sb9  1  0.75000000  0.61478600  0.68178300  1
  Sb  Sb10  1  0.25000000  0.86491500  0.31934700  1
  Sb  Sb11  1  0.75000000  0.88521400  0.18178300  1
  Sb  Sb12  1  0.25000000  0.11478600  0.81821700  1
  Sb  Sb13  1  0.75000000  0.13508500  0.68065300  1
  Sb  Sb14  1  0.25000000  0.38521400  0.31821700  1
  Sb  Sb15  1  0.75000000  0.36491500  0.18065300  1
  O  O16  1  0.25000000  0.62523100  0.28012700  1
  O  O17  1  0.02541400  0.62986400  0.90831600  1
  O  O18  1  0.47458600  0.62986400  0.90831600  1
  O  O19  1  0.52588300  0.62030500  0.59261200  1
  O  O20  1  0.97411700  0.62030500  0.59261200  1
  O  O21  1  0.47458600  0.87013600  0.40831600  1
  O  O22  1  0.25000000  0.87476900  0.78012700  1
  O  O23  1  0.52588300  0.87969500  0.09261200  1
  O  O24  1  0.02541400  0.87013600  0.40831600  1
  O  O25  1  0.97411700  0.87969500  0.09261200  1
  O  O26  1  0.75000000  0.12523100  0.21987300  1
  O  O27  1  0.52541400  0.12986400  0.59168400  1
  O  O28  1  0.97458600  0.12986400  0.59168400  1
  O  O29  1  0.02588300  0.12030500  0.90738800  1
  O  O30  1  0.47411700  0.12030500  0.90738800  1
  O  O31  1  0.75000000  0.37476900  0.71987300  1
  O  O32  1  0.02588300  0.37969500  0.40738800  1
  O  O33  1  0.47411700  0.37969500  0.40738800  1
  O  O34  1  0.52541400  0.37013600  0.09168400  1
  O  O35  1  0.97458600  0.37013600  0.09168400  1
