# generated using pymatgen
data_LiFeSbO4
_symmetry_space_group_name_H-M   'P 1'
_cell_length_a   6.09310503
_cell_length_b   8.98046850
_cell_length_c   6.23423146
_cell_angle_alpha   90.00471712
_cell_angle_beta   89.98902111
_cell_angle_gamma   89.99918263
_symmetry_Int_Tables_number   1
_chemical_formula_structural   LiFeSbO4
_chemical_formula_sum   'Li4 Fe4 Sb4 O16'
_cell_volume   341.13051602
_cell_formula_units_Z   4
loop_
 _symmetry_equiv_pos_site_id
 _symmetry_equiv_pos_as_xyz
  1  'x, y, z'
loop_
 _atom_site_type_symbol
 _atom_site_label
 _atom_site_symmetry_multiplicity
 _atom_site_fract_x
 _atom_site_fract_y
 _atom_site_fract_z
 _atom_site_occupancy
  Li  Li0  1  0.24999900  0.10281000  0.99999300  1
  Li  Li1  1  0.75000000  0.60281000  0.49998500  1
  Li  Li2  1  0.75000000  0.89719000  0.00000800  1
  Li  Li3  1  0.24999900  0.39719000  0.50001500  1
  Fe  Fe4  1  0.00000100  0.00000200  0.50000100  1
  Fe  Fe5  1  0.00000200  0.50000000  0.00000200  1
  Fe  Fe6  1  0.50000300  0.49999900  0.99999900  1
  Fe  Fe7  1  0.50000800  0.00000100  0.49999600  1
  Sb  Sb8  1  0.75000100  0.25001300  0.24999800  1
  Sb  Sb9  1  0.24999800  0.74998700  0.75000200  1
  Sb  Sb10  1  0.75000800  0.24998500  0.74999700  1
  Sb  Sb11  1  0.24999100  0.75001500  0.25000300  1
  O  O12  1  0.52526800  0.25078400  0.99997500  1
  O  O13  1  0.02524100  0.75078800  0.50001800  1
  O  O14  1  0.97475600  0.25078800  0.99999400  1
  O  O15  1  0.47473400  0.75078400  0.49993500  1
  O  O16  1  0.02524200  0.74921200  0.00000600  1
  O  O17  1  0.52526600  0.24921500  0.50006600  1
  O  O18  1  0.47473100  0.74921600  0.00002500  1
  O  O19  1  0.97475700  0.24921200  0.49998300  1
  O  O20  1  0.74997700  0.46975500  0.23524600  1
  O  O21  1  0.25009300  0.96977300  0.73522000  1
  O  O22  1  0.75002800  0.46979700  0.76482100  1
  O  O23  1  0.24990400  0.96978200  0.26479500  1
  O  O24  1  0.25002300  0.53024400  0.76475500  1
  O  O25  1  0.74990700  0.03022600  0.26478000  1
  O  O26  1  0.24997100  0.53020200  0.23517900  1
  O  O27  1  0.75009600  0.03021800  0.73520500  1
