# generated using pymatgen
data_V2SiO4
_symmetry_space_group_name_H-M   'P 1'
_cell_length_a   4.91625600
_cell_length_b   10.67302189
_cell_length_c   6.21067222
_cell_angle_alpha   89.85173764
_cell_angle_beta   90.00009277
_cell_angle_gamma   90.00004484
_symmetry_Int_Tables_number   1
_chemical_formula_structural   V2SiO4
_chemical_formula_sum   'V8 Si4 O16'
_cell_volume   325.88100349
_cell_formula_units_Z   4
loop_
 _symmetry_equiv_pos_site_id
 _symmetry_equiv_pos_as_xyz
  1  'x, y, z'
loop_
 _atom_site_type_symbol
 _atom_site_label
 _atom_site_symmetry_multiplicity
 _atom_site_fract_x
 _atom_site_fract_y
 _atom_site_fract_z
 _atom_site_occupancy
  V  V0  1  0.99999600  0.99999500  0.50001100  1
  V  V1  1  0.49999600  0.49999900  0.49993300  1
  V  V2  1  0.00000200  0.00001200  0.00001900  1
  V  V3  1  0.49999300  0.49998900  0.99999800  1
  V  V4  1  0.00589400  0.72598700  0.74889200  1
  V  V5  1  0.49410600  0.22598700  0.74889600  1
  V  V6  1  0.50589400  0.77401400  0.25111200  1
  V  V7  1  0.99411000  0.27401400  0.25111100  1
  Si  Si8  1  0.07175100  0.59504700  0.24965200  1
  Si  Si9  1  0.42825200  0.09504500  0.24965700  1
  Si  Si10  1  0.57174900  0.90495500  0.75035300  1
  Si  Si11  1  0.92825100  0.40495600  0.75034800  1
  O  O12  1  0.20684200  0.45126600  0.25002500  1
  O  O13  1  0.29315600  0.95126700  0.25003300  1
  O  O14  1  0.70684600  0.04873300  0.74997500  1
  O  O15  1  0.79314700  0.54873200  0.74996800  1
  O  O16  1  0.26101600  0.40468700  0.75051300  1
  O  O17  1  0.23898700  0.90468700  0.75052200  1
  O  O18  1  0.76101500  0.09531400  0.24948800  1
  O  O19  1  0.73898900  0.59531400  0.24947900  1
  O  O20  1  0.22029700  0.66182300  0.03800600  1
  O  O21  1  0.21869800  0.66159500  0.46162700  1
  O  O22  1  0.27970500  0.16182500  0.03801000  1
  O  O23  1  0.28130300  0.16159700  0.46163000  1
  O  O24  1  0.72029700  0.83817800  0.96199900  1
  O  O25  1  0.71869600  0.83840400  0.53837700  1
  O  O26  1  0.77970600  0.33817500  0.96199600  1
  O  O27  1  0.78130600  0.33840300  0.53837200  1
