# generated using pymatgen
data_Rb4Ge9(H3N)5
_symmetry_space_group_name_H-M   'P 1'
_cell_length_a   15.33013300
_cell_length_b   9.18025700
_cell_length_c   17.29504082
_cell_angle_alpha   88.07328081
_cell_angle_beta   90.00000000
_cell_angle_gamma   90.00000000
_symmetry_Int_Tables_number   1
_chemical_formula_structural   Rb4Ge9(H3N)5
_chemical_formula_sum   'Rb16 Ge36 H60 N20'
_cell_volume   2432.63389634
_cell_formula_units_Z   4
loop_
 _symmetry_equiv_pos_site_id
 _symmetry_equiv_pos_as_xyz
  1  'x, y, z'
loop_
 _atom_site_type_symbol
 _atom_site_label
 _atom_site_symmetry_multiplicity
 _atom_site_fract_x
 _atom_site_fract_y
 _atom_site_fract_z
 _atom_site_occupancy
  Rb  Rb0  1  0.27933100  0.81328300  0.90733500  1
  Rb  Rb1  1  0.22066900  0.81328300  0.40733500  1
  Rb  Rb2  1  0.55082900  0.74691400  0.75322400  1
  Rb  Rb3  1  0.94917100  0.74691400  0.25322400  1
  Rb  Rb4  1  0.22692800  0.72331400  0.64724300  1
  Rb  Rb5  1  0.27307200  0.72331400  0.14724300  1
  Rb  Rb6  1  0.64756200  0.55056300  0.55018600  1
  Rb  Rb7  1  0.85243800  0.55056300  0.05018600  1
  Rb  Rb8  1  0.14756200  0.44943700  0.94981400  1
  Rb  Rb9  1  0.35243800  0.44943700  0.44981400  1
  Rb  Rb10  1  0.72692800  0.27668600  0.85275700  1
  Rb  Rb11  1  0.77307200  0.27668600  0.35275700  1
  Rb  Rb12  1  0.05082900  0.25308600  0.74677600  1
  Rb  Rb13  1  0.44917100  0.25308600  0.24677600  1
  Rb  Rb14  1  0.77933100  0.18671700  0.59266500  1
  Rb  Rb15  1  0.72066900  0.18671700  0.09266500  1
  Ge  Ge16  1  0.84505500  0.95955500  0.76471900  1
  Ge  Ge17  1  0.65494500  0.95955500  0.26471900  1
  Ge  Ge18  1  0.99085800  0.89649100  0.69039400  1
  Ge  Ge19  1  0.50914200  0.89649100  0.19039400  1
  Ge  Ge20  1  0.92027100  0.81704500  0.88022900  1
  Ge  Ge21  1  0.57972900  0.81704500  0.38022900  1
  Ge  Ge22  1  0.84149200  0.77566100  0.65245300  1
  Ge  Ge23  1  0.65850800  0.77566100  0.15245300  1
  Ge  Ge24  1  0.05719300  0.72761700  0.80168500  1
  Ge  Ge25  1  0.78203600  0.70459300  0.81053600  1
  Ge  Ge26  1  0.44280700  0.72761700  0.30168500  1
  Ge  Ge27  1  0.71796400  0.70459300  0.31053600  1
  Ge  Ge28  1  0.99288200  0.61596500  0.67453900  1
  Ge  Ge29  1  0.50711800  0.61596500  0.17453900  1
  Ge  Ge30  1  0.93161600  0.54623500  0.83909300  1
  Ge  Ge31  1  0.56838400  0.54623500  0.33909300  1
  Ge  Ge32  1  0.83947400  0.51242100  0.71331300  1
  Ge  Ge33  1  0.33947400  0.48757900  0.78668700  1
  Ge  Ge34  1  0.66052600  0.51242100  0.21331300  1
  Ge  Ge35  1  0.16052600  0.48757900  0.28668700  1
  Ge  Ge36  1  0.43161600  0.45376500  0.66090700  1
  Ge  Ge37  1  0.06838400  0.45376500  0.16090700  1
  Ge  Ge38  1  0.49288200  0.38403500  0.82546100  1
  Ge  Ge39  1  0.00711800  0.38403500  0.32546100  1
  Ge  Ge40  1  0.28203600  0.29540700  0.68946400  1
  Ge  Ge41  1  0.55719300  0.27238300  0.69831500  1
  Ge  Ge42  1  0.21796400  0.29540700  0.18946400  1
  Ge  Ge43  1  0.94280700  0.27238300  0.19831500  1
  Ge  Ge44  1  0.34149200  0.22433900  0.84754700  1
  Ge  Ge45  1  0.15850800  0.22433900  0.34754700  1
  Ge  Ge46  1  0.42027100  0.18295500  0.61977100  1
  Ge  Ge47  1  0.07972900  0.18295500  0.11977100  1
  Ge  Ge48  1  0.49085800  0.10350900  0.80960600  1
  Ge  Ge49  1  0.00914200  0.10350900  0.30960600  1
  Ge  Ge50  1  0.34505500  0.04044500  0.73528100  1
  Ge  Ge51  1  0.15494500  0.04044500  0.23528100  1
  H  H52  1  0.13416700  0.99554400  0.58552000  1
  H  H53  1  0.58026900  0.97752600  0.60746300  1
  H  H54  1  0.36583300  0.99554400  0.08552000  1
  H  H55  1  0.91973100  0.97752600  0.10746300  1
  H  H56  1  0.65949200  0.92599400  0.99781200  1
  H  H57  1  0.72827900  0.92048500  0.92584600  1
  H  H58  1  0.84050800  0.92599400  0.49781200  1
  H  H59  1  0.77172100  0.92048500  0.42584600  1
  H  H60  1  0.67111500  0.87921200  0.60940500  1
  H  H61  1  0.37725300  0.87862200  0.54699800  1
  H  H62  1  0.82888500  0.87921200  0.10940500  1
  H  H63  1  0.50018100  0.83406200  0.99867400  1
  H  H64  1  0.59594000  0.85515100  0.54190600  1
  H  H65  1  0.12274700  0.87862200  0.04699800  1
  H  H66  1  0.47892000  0.83869200  0.90585700  1
  H  H67  1  0.99981900  0.83406200  0.49867400  1
  H  H68  1  0.90406000  0.85515100  0.04190600  1
  H  H69  1  0.02108000  0.83869200  0.40585700  1
  H  H70  1  0.07497400  0.79618800  0.97626400  1
  H  H71  1  0.42502600  0.79618800  0.47626400  1
  H  H72  1  0.41392800  0.71166500  0.56057800  1
  H  H73  1  0.51047900  0.68497900  0.95046800  1
  H  H74  1  0.08607200  0.71166500  0.06057800  1
  H  H75  1  0.98952100  0.68497900  0.45046800  1
  H  H76  1  0.66093200  0.57496500  0.94532600  1
  H  H77  1  0.83906800  0.57496500  0.44532600  1
  H  H78  1  0.11139100  0.57313300  0.52063400  1
  H  H79  1  0.38860900  0.57313300  0.02063400  1
  H  H80  1  0.84586500  0.54093400  0.53908900  1
  H  H81  1  0.65413500  0.54093400  0.03908900  1
  H  H82  1  0.34586500  0.45906600  0.96091100  1
  H  H83  1  0.15413500  0.45906600  0.46091100  1
  H  H84  1  0.61139100  0.42686700  0.97936600  1
  H  H85  1  0.88860900  0.42686700  0.47936600  1
  H  H86  1  0.16093200  0.42503500  0.55467400  1
  H  H87  1  0.33906800  0.42503500  0.05467400  1
  H  H88  1  0.01047900  0.31502100  0.54953200  1
  H  H89  1  0.91392800  0.28833500  0.93942200  1
  H  H90  1  0.48952100  0.31502100  0.04953200  1
  H  H91  1  0.58607200  0.28833500  0.43942200  1
  H  H92  1  0.57497400  0.20381200  0.52373600  1
  H  H93  1  0.92502600  0.20381200  0.02373600  1
  H  H94  1  0.97892000  0.16130800  0.59414300  1
  H  H95  1  0.09594000  0.14484900  0.95809400  1
  H  H96  1  0.00018100  0.16593800  0.50132600  1
  H  H97  1  0.52108000  0.16130800  0.09414300  1
  H  H98  1  0.87725300  0.12137800  0.95300200  1
  H  H99  1  0.40406000  0.14484900  0.45809400  1
  H  H100  1  0.49981900  0.16593800  0.00132600  1
  H  H101  1  0.17111500  0.12078800  0.89059500  1
  H  H102  1  0.62274700  0.12137800  0.45300200  1
  H  H103  1  0.32888500  0.12078800  0.39059500  1
  H  H104  1  0.22827900  0.07951500  0.57415400  1
  H  H105  1  0.15949200  0.07400600  0.50218800  1
  H  H106  1  0.27172100  0.07951500  0.07415400  1
  H  H107  1  0.34050800  0.07400600  0.00218800  1
  H  H108  1  0.08026900  0.02247400  0.89253700  1
  H  H109  1  0.63416700  0.00445600  0.91448000  1
  H  H110  1  0.41973100  0.02247400  0.39253700  1
  H  H111  1  0.86583300  0.00445600  0.41448000  1
  N  N112  1  0.68509100  0.98796800  0.95266600  1
  N  N113  1  0.81490900  0.98796800  0.45266600  1
  N  N114  1  0.60497600  0.87493800  0.59974600  1
  N  N115  1  0.89502400  0.87493800  0.09974600  1
  N  N116  1  0.47221300  0.77540500  0.95578900  1
  N  N117  1  0.38187500  0.77950800  0.52109900  1
  N  N118  1  0.02778700  0.77540500  0.45578900  1
  N  N119  1  0.11812500  0.77950800  0.02109900  1
  N  N120  1  0.66449700  0.49263200  0.98680600  1
  N  N121  1  0.16449700  0.50736800  0.51319400  1
  N  N122  1  0.83550300  0.49263200  0.48680600  1
  N  N123  1  0.33550300  0.50736800  0.01319400  1
  N  N124  1  0.88187500  0.22049200  0.97890100  1
  N  N125  1  0.97221300  0.22459500  0.54421100  1
  N  N126  1  0.61812500  0.22049200  0.47890100  1
  N  N127  1  0.52778700  0.22459500  0.04421100  1
  N  N128  1  0.10497600  0.12506200  0.90025400  1
  N  N129  1  0.39502400  0.12506200  0.40025400  1
  N  N130  1  0.18509100  0.01203200  0.54733400  1
  N  N131  1  0.31490900  0.01203200  0.04733400  1
