# generated using pymatgen
data_Mg3Ti9O20
_symmetry_space_group_name_H-M   'P 1'
_cell_length_a   10.80624818
_cell_length_b   10.80624818
_cell_length_c   5.26478587
_cell_angle_alpha   82.72896174
_cell_angle_beta   82.72896174
_cell_angle_gamma   138.94368209
_symmetry_Int_Tables_number   1
_chemical_formula_structural   Mg3Ti9O20
_chemical_formula_sum   'Mg3 Ti9 O20'
_cell_volume   376.58054639
_cell_formula_units_Z   1
loop_
 _symmetry_equiv_pos_site_id
 _symmetry_equiv_pos_as_xyz
  1  'x, y, z'
loop_
 _atom_site_type_symbol
 _atom_site_label
 _atom_site_symmetry_multiplicity
 _atom_site_fract_x
 _atom_site_fract_y
 _atom_site_fract_z
 _atom_site_occupancy
  Mg  Mg0  1  0.22234000  0.72362900  0.61002900  1
  Mg  Mg1  1  0.72362900  0.22234000  0.61002900  1
  Mg  Mg2  1  0.27943900  0.27943900  0.38818400  1
  Ti  Ti3  1  0.96376600  0.64522400  0.27738800  1
  Ti  Ti4  1  0.53226500  0.34656300  0.73403100  1
  Ti  Ti5  1  0.34656300  0.53226500  0.73403100  1
  Ti  Ti6  1  0.85265600  0.04058700  0.72849300  1
  Ti  Ti7  1  0.46605700  0.15120800  0.26686600  1
  Ti  Ti8  1  0.64522400  0.96376600  0.27738800  1
  Ti  Ti9  1  0.15120800  0.46605700  0.26686600  1
  Ti  Ti10  1  0.77919600  0.77919600  0.38748900  1
  Ti  Ti11  1  0.04058700  0.85265600  0.72849300  1
  O  O12  1  0.37447500  0.68919900  0.37412900  1
  O  O13  1  0.01359000  0.51557500  0.44157000  1
  O  O14  1  0.50093100  0.50093100  0.54293700  1
  O  O15  1  0.30792800  0.12911100  0.62751900  1
  O  O16  1  0.12911100  0.30792800  0.62751900  1
  O  O17  1  0.81072600  0.62911000  0.62168700  1
  O  O18  1  0.57752300  0.21436400  0.90804800  1
  O  O19  1  0.71885500  0.07937000  0.91071800  1
  O  O20  1  0.21436400  0.57752300  0.90804800  1
  O  O21  1  0.07937000  0.71885500  0.91071800  1
  O  O22  1  0.28694800  0.42418700  0.08979100  1
  O  O23  1  0.78846800  0.91900500  0.09804400  1
  O  O24  1  0.91900500  0.78846800  0.09804400  1
  O  O25  1  0.42418700  0.28694800  0.08979100  1
  O  O26  1  0.68919800  0.37447500  0.37412900  1
  O  O27  1  0.18712400  0.87476900  0.38063000  1
  O  O28  1  0.87476900  0.18712400  0.38063000  1
  O  O29  1  0.51557500  0.01359000  0.44157000  1
  O  O30  1  0.97885000  0.97885000  0.54786500  1
  O  O31  1  0.62911000  0.81072600  0.62168700  1
