# generated using pymatgen
data_La26B8O51
_symmetry_space_group_name_H-M   'P 1'
_cell_length_a   6.95586400
_cell_length_b   13.00753710
_cell_length_c   14.70877751
_cell_angle_alpha   90.06870193
_cell_angle_beta   99.36272060
_cell_angle_gamma   90.31220154
_symmetry_Int_Tables_number   1
_chemical_formula_structural   La26B8O51
_chemical_formula_sum   'La26 B8 O51'
_cell_volume   1313.07900873
_cell_formula_units_Z   1
loop_
 _symmetry_equiv_pos_site_id
 _symmetry_equiv_pos_as_xyz
  1  'x, y, z'
loop_
 _atom_site_type_symbol
 _atom_site_label
 _atom_site_symmetry_multiplicity
 _atom_site_fract_x
 _atom_site_fract_y
 _atom_site_fract_z
 _atom_site_occupancy
  La  La0  1  0.84797200  0.30885800  0.02888900  1
  La  La1  1  0.93451000  0.28953700  0.29712600  1
  La  La2  1  0.99999500  0.50235500  0.49919100  1
  La  La3  1  0.85544900  0.20623600  0.53703000  1
  La  La4  1  0.94492000  0.21240300  0.80075100  1
  La  La5  1  0.67654500  0.61157400  0.05863300  1
  La  La6  1  0.77551100  0.98970800  0.31584700  1
  La  La7  1  0.00046500  0.99937800  0.99888700  1
  La  La8  1  0.62524500  0.69772200  0.34044900  1
  La  La9  1  0.68372100  0.87518200  0.56897500  1
  La  La10  1  0.51327900  0.88856900  0.08473500  1
  La  La11  1  0.76856500  0.49972200  0.83242700  1
  La  La12  1  0.48175300  0.38883400  0.41242200  1
  La  La13  1  0.62610600  0.80098700  0.84437200  1
  La  La14  1  0.37333600  0.20084600  0.15451400  1
  La  La15  1  0.51445400  0.60644200  0.58674000  1
  La  La16  1  0.23172900  0.50080100  0.16767500  1
  La  La17  1  0.48418800  0.11021900  0.91305300  1
  La  La18  1  0.29061800  0.11716900  0.43810800  1
  La  La19  1  0.37681900  0.30075400  0.66311600  1
  La  La20  1  0.23849600  0.00044100  0.66793900  1
  La  La21  1  0.32276600  0.38836300  0.94071700  1
  La  La22  1  0.05939600  0.78461600  0.19956700  1
  La  La23  1  0.15602800  0.80928300  0.47058900  1
  La  La24  1  0.06337300  0.71137700  0.70244000  1
  La  La25  1  0.15115800  0.69099300  0.97004200  1
  B  B26  1  0.86325200  0.09895100  0.16127700  1
  B  B27  1  0.86243000  0.40466000  0.66257800  1
  B  B28  1  0.67106500  0.44906000  0.21112000  1
  B  B29  1  0.66917000  0.05132600  0.70723900  1
  B  B30  1  0.33397900  0.94875400  0.29458000  1
  B  B31  1  0.32873400  0.55118900  0.78902500  1
  B  B32  1  0.13819800  0.59748600  0.33786900  1
  B  B33  1  0.13752000  0.90334200  0.83647400  1
  O  O34  1  0.99131500  0.65144400  0.37007500  1
  O  O35  1  0.93760400  0.12812100  0.40029800  1
  O  O36  1  0.84285800  0.99156400  0.15367300  1
  O  O37  1  0.84214900  0.42987500  0.17505000  1
  O  O38  1  0.99048300  0.85028900  0.86927500  1
  O  O39  1  0.83878300  0.34623900  0.43133600  1
  O  O40  1  0.80804900  0.85523000  0.41415800  1
  O  O41  1  0.72834900  0.76548200  0.18261600  1
  O  O42  1  0.73463700  0.15144400  0.20808400  1
  O  O43  1  0.97050700  0.36193400  0.89251300  1
  O  O44  1  0.84272400  0.51009000  0.65279600  1
  O  O45  1  0.83221600  0.06927400  0.66432900  1
  O  O46  1  0.59497200  0.54719100  0.21441800  1
  O  O47  1  0.83605200  0.15448000  0.93105000  1
  O  O48  1  0.51365400  0.25070500  0.01865600  1
  O  O49  1  0.65742200  0.55314200  0.45091200  1
  O  O50  1  0.81214300  0.65530700  0.91028300  1
  O  O51  1  0.72934100  0.73931200  0.67461600  1
  O  O52  1  0.57201700  0.36708700  0.24358100  1
  O  O53  1  0.73399700  0.34762700  0.70625300  1
  O  O54  1  0.59466100  0.95251800  0.71436000  1
  O  O55  1  0.42741200  0.86885300  0.25815900  1
  O  O56  1  0.52017700  0.23847700  0.51297200  1
  O  O57  1  0.33693300  0.54543200  0.03317100  1
  O  O58  1  0.65820500  0.94593900  0.95256000  1
  O  O59  1  0.34240400  0.05427200  0.04894700  1
  O  O60  1  0.66323800  0.45468400  0.96687500  1
  O  O61  1  0.48490500  0.74922700  0.48362100  1
  O  O62  1  0.57336900  0.13245600  0.74113800  1
  O  O63  1  0.42686200  0.04477700  0.30310500  1
  O  O64  1  0.26799300  0.65131200  0.29240700  1
  O  O65  1  0.42730700  0.63296400  0.75683200  1
  O  O66  1  0.35989200  0.96155900  0.52934400  1
  O  O67  1  0.25993700  0.25985400  0.32498900  1
  O  O68  1  0.18784300  0.34429900  0.08972000  1
  O  O69  1  0.34471200  0.44234300  0.54774000  1
  O  O70  1  0.48583300  0.74894900  0.98135500  1
  O  O71  1  0.16382600  0.84513000  0.06845000  1
  O  O72  1  0.40550900  0.45287300  0.78524100  1
  O  O73  1  0.15434900  0.93323600  0.32478300  1
  O  O74  1  0.15625400  0.49136200  0.34808000  1
  O  O75  1  0.02833400  0.63684600  0.10656300  1
  O  O76  1  0.26608300  0.84956300  0.79075500  1
  O  O77  1  0.27378400  0.23784100  0.81918900  1
  O  O78  1  0.18584900  0.15728000  0.58908300  1
  O  O79  1  0.16455200  0.65538700  0.56917700  1
  O  O80  1  0.01067200  0.15003500  0.12982300  1
  O  O81  1  0.15797800  0.56936600  0.82556900  1
  O  O82  1  0.15699900  0.00986300  0.84591600  1
  O  O83  1  0.03823600  0.86332000  0.60585800  1
  O  O84  1  0.01109400  0.35240600  0.63002300  1
