# generated using pymatgen
data_BaBePO4F
_symmetry_space_group_name_H-M   'P 1'
_cell_length_a   4.93334936
_cell_length_b   4.93334936
_cell_length_c   9.14937088
_cell_angle_alpha   74.65341806
_cell_angle_beta   74.65341806
_cell_angle_gamma   90.11592510
_symmetry_Int_Tables_number   1
_chemical_formula_structural   BaBePO4F
_chemical_formula_sum   'Ba2 Be2 P2 O8 F2'
_cell_volume   206.45702199
_cell_formula_units_Z   2
loop_
 _symmetry_equiv_pos_site_id
 _symmetry_equiv_pos_as_xyz
  1  'x, y, z'
loop_
 _atom_site_type_symbol
 _atom_site_label
 _atom_site_symmetry_multiplicity
 _atom_site_fract_x
 _atom_site_fract_y
 _atom_site_fract_z
 _atom_site_occupancy
  Ba  Ba0  1  0.00049500  0.75046100  0.99939600  1
  Ba  Ba1  1  0.75046100  0.00049500  0.49939600  1
  Be  Be2  1  0.16739000  0.40097500  0.66353800  1
  Be  Be3  1  0.40097500  0.16739000  0.16353800  1
  P  P4  1  0.58280900  0.31223900  0.83449300  1
  P  P5  1  0.31223900  0.58280900  0.33449300  1
  O  O6  1  0.84014100  0.48599500  0.70301800  1
  O  O7  1  0.60232400  0.35406800  0.99498400  1
  O  O8  1  0.99916900  0.58301800  0.34102200  1
  O  O9  1  0.30691000  0.43611800  0.80132100  1
  O  O10  1  0.35406800  0.60232400  0.49498400  1
  O  O11  1  0.58301800  0.99916900  0.84102200  1
  O  O12  1  0.43611800  0.30691000  0.30132100  1
  O  O13  1  0.48599500  0.84014100  0.20301800  1
  F  F14  1  0.17364200  0.08695300  0.65179800  1
  F  F15  1  0.08695300  0.17364200  0.15179800  1
