# generated using pymatgen
data_CrH18(O3F)3
_symmetry_space_group_name_H-M   'P 1'
_cell_length_a   8.32960697
_cell_length_b   10.87888104
_cell_length_c   13.62832921
_cell_angle_alpha   66.47712332
_cell_angle_beta   82.79662885
_cell_angle_gamma   90.00924609
_symmetry_Int_Tables_number   1
_chemical_formula_structural   CrH18(O3F)3
_chemical_formula_sum   'Cr4 H72 O36 F12'
_cell_volume   1121.68228126
_cell_formula_units_Z   4
loop_
 _symmetry_equiv_pos_site_id
 _symmetry_equiv_pos_as_xyz
  1  'x, y, z'
loop_
 _atom_site_type_symbol
 _atom_site_label
 _atom_site_symmetry_multiplicity
 _atom_site_fract_x
 _atom_site_fract_y
 _atom_site_fract_z
 _atom_site_occupancy
  Cr  Cr0  1  0.49809400  0.49943400  0.00115600  1
  Cr  Cr1  1  0.74789100  0.24919100  0.50140000  1
  Cr  Cr2  1  0.99810800  0.99941600  0.00128000  1
  Cr  Cr3  1  0.24815300  0.74956200  0.50108000  1
  H  H4  1  0.95604200  0.47469600  0.15479900  1
  H  H5  1  0.20606200  0.22470100  0.65480900  1
  H  H6  1  0.45610400  0.97473000  0.15478900  1
  H  H7  1  0.70608000  0.72472200  0.65476100  1
  H  H8  1  0.22900900  0.46147500  0.33673400  1
  H  H9  1  0.47900500  0.21143500  0.83676400  1
  H  H10  1  0.72901600  0.96142800  0.33673500  1
  H  H11  1  0.97901600  0.71146200  0.83671500  1
  H  H12  1  0.15074400  0.17571500  0.28462800  1
  H  H13  1  0.40071400  0.92573100  0.78461600  1
  H  H14  1  0.65073000  0.67577700  0.28458200  1
  H  H15  1  0.90075900  0.42576200  0.78459300  1
  H  H16  1  0.98083200  0.32704800  0.15880000  1
  H  H17  1  0.23090600  0.07709200  0.65875900  1
  H  H18  1  0.48092600  0.82711200  0.15875400  1
  H  H19  1  0.73088600  0.57706600  0.65879100  1
  H  H20  1  0.12143500  0.56096600  0.25254500  1
  H  H21  1  0.37149700  0.31097100  0.75253300  1
  H  H22  1  0.62153700  0.06100100  0.25249800  1
  H  H23  1  0.87143400  0.81096800  0.75253600  1
  H  H24  1  0.26165500  0.23323500  0.34605300  1
  H  H25  1  0.51171100  0.98324800  0.84602000  1
  H  H26  1  0.76172200  0.73328000  0.34597600  1
  H  H27  1  0.01166000  0.48326500  0.84603800  1
  H  H28  1  0.20341900  0.58677600  0.04974300  1
  H  H29  1  0.45340300  0.33676400  0.54979400  1
  H  H30  1  0.70349600  0.08678700  0.04972000  1
  H  H31  1  0.95354200  0.83678800  0.54982400  1
  H  H32  1  0.45372000  0.44687700  0.21653000  1
  H  H33  1  0.70371900  0.19684300  0.71658700  1
  H  H34  1  0.95376600  0.94686700  0.21642500  1
  H  H35  1  0.20379600  0.69680300  0.71645100  1
  H  H36  1  0.28619700  0.28073900  0.10486100  1
  H  H37  1  0.53615100  0.03073800  0.60490200  1
  H  H38  1  0.78621800  0.78086600  0.10479500  1
  H  H39  1  0.03615400  0.53084300  0.60478300  1
  H  H40  1  0.46754100  0.33472000  0.42804800  1
  H  H41  1  0.71757300  0.08473800  0.92799000  1
  H  H42  1  0.96765700  0.83474300  0.42779400  1
  H  H43  1  0.21754100  0.58473800  0.92800100  1
  H  H44  1  0.04705200  0.09709500  0.14754700  1
  H  H45  1  0.29710700  0.84712200  0.64747600  1
  H  H46  1  0.54695500  0.59704300  0.14758600  1
  H  H47  1  0.79701600  0.34709900  0.64760500  1
  H  H48  1  0.97396500  0.73106600  0.09883000  1
  H  H49  1  0.22409000  0.48102100  0.59881300  1
  H  H50  1  0.47382900  0.23101900  0.09885700  1
  H  H51  1  0.72385200  0.98096000  0.59889600  1
  H  H52  1  0.27831300  0.01858000  0.40039600  1
  H  H53  1  0.52800600  0.76854100  0.90048500  1
  H  H54  1  0.77802900  0.51851100  0.40051800  1
  H  H55  1  0.02815400  0.26864300  0.90041100  1
  H  H56  1  0.78302600  0.41595800  0.07051100  1
  H  H57  1  0.03307300  0.16597200  0.57052600  1
  H  H58  1  0.28312600  0.91601800  0.07045800  1
  H  H59  1  0.53319400  0.66599700  0.57028800  1
  H  H60  1  0.20499000  0.65420700  0.35156700  1
  H  H61  1  0.45482800  0.40412700  0.85171600  1
  H  H62  1  0.70487300  0.15416100  0.35173900  1
  H  H63  1  0.95489400  0.90417600  0.85165700  1
  H  H64  1  0.96296800  0.46375900  0.39546100  1
  H  H65  1  0.21308600  0.21391500  0.89533600  1
  H  H66  1  0.46304000  0.96389200  0.39531800  1
  H  H67  1  0.71303200  0.71376700  0.89541000  1
  H  H68  1  0.04197100  0.16713700  0.44813700  1
  H  H69  1  0.29211200  0.91716900  0.94804600  1
  H  H70  1  0.54219900  0.66717800  0.44817700  1
  H  H71  1  0.79200500  0.41715600  0.94808900  1
  H  H72  1  0.79970800  0.30396600  0.28669100  1
  H  H73  1  0.04977900  0.05402900  0.78652600  1
  H  H74  1  0.29982800  0.80397900  0.28650000  1
  H  H75  1  0.54972400  0.55403400  0.78659300  1
  O  O76  1  0.34577300  0.93731800  0.42685900  1
  O  O77  1  0.59567900  0.68733500  0.92699000  1
  O  O78  1  0.84560600  0.43723500  0.42708300  1
  O  O79  1  0.09574200  0.18740900  0.92691300  1
  O  O80  1  0.71914400  0.42688200  0.00930200  1
  O  O81  1  0.96911300  0.17688100  0.50935100  1
  O  O82  1  0.21924700  0.92695900  0.00924300  1
  O  O83  1  0.46916500  0.67706900  0.50917300  1
  O  O84  1  0.24302900  0.73848400  0.35839900  1
  O  O85  1  0.49282000  0.48847400  0.85847300  1
  O  O86  1  0.74280400  0.23842700  0.35858500  1
  O  O87  1  0.99287900  0.98848000  0.85844700  1
  O  O88  1  0.52690200  0.32229500  0.49132100  1
  O  O89  1  0.77702200  0.07235200  0.99123600  1
  O  O90  1  0.02692000  0.82246400  0.49114000  1
  O  O91  1  0.27692200  0.57231300  0.99125600  1
  O  O92  1  0.00533900  0.01239900  0.14325300  1
  O  O93  1  0.25541600  0.76240500  0.64322400  1
  O  O94  1  0.50524400  0.51238500  0.14328300  1
  O  O95  1  0.75525400  0.26236900  0.64338000  1
  O  O96  1  0.90319500  0.81033700  0.07524600  1
  O  O97  1  0.15320600  0.56026200  0.57520500  1
  O  O98  1  0.40312300  0.31028700  0.07530100  1
  O  O99  1  0.65307500  0.06017900  0.57540400  1
  O  O100  1  0.89512600  0.38992300  0.16479200  1
  O  O101  1  0.14519200  0.13995500  0.66471400  1
  O  O102  1  0.39519600  0.88998700  0.16467900  1
  O  O103  1  0.64519000  0.63991000  0.66483500  1
  O  O104  1  0.14261100  0.52770000  0.32983900  1
  O  O105  1  0.39276100  0.27778900  0.82981000  1
  O  O106  1  0.64280300  0.02782000  0.32977900  1
  O  O107  1  0.89263500  0.77770900  0.82983000  1
  O  O108  1  0.18398900  0.15628200  0.35750000  1
  O  O109  1  0.43413900  0.90622900  0.85744500  1
  O  O110  1  0.68427200  0.65622100  0.35738400  1
  O  O111  1  0.93404100  0.40629500  0.85745300  1
  F  F112  1  0.07096500  0.60303800  0.13579900  1
  F  F113  1  0.32095300  0.35303600  0.63583400  1
  F  F114  1  0.57107900  0.10299300  0.13581800  1
  F  F115  1  0.82117100  0.85298500  0.63574000  1
  F  F116  1  0.36815400  0.36036600  0.33386000  1
  F  F117  1  0.61814600  0.11031700  0.83389000  1
  F  F118  1  0.86823900  0.86033100  0.33386900  1
  F  F119  1  0.11818000  0.61039800  0.83377500  1
  F  F120  1  0.11172800  0.22026100  0.16305800  1
  F  F121  1  0.36170800  0.97028200  0.66304900  1
  F  F122  1  0.61179600  0.72037100  0.16301500  1
  F  F123  1  0.86185700  0.47038100  0.66300900  1
