# generated using pymatgen
data_NaHoO2
_symmetry_space_group_name_H-M   'P 1'
_cell_length_a   7.41264007
_cell_length_b   7.41264007
_cell_length_c   5.96043418
_cell_angle_alpha   76.02654218
_cell_angle_beta   76.02654218
_cell_angle_gamma   126.63078204
_symmetry_Int_Tables_number   1
_chemical_formula_structural   NaHoO2
_chemical_formula_sum   'Na4 Ho4 O8'
_cell_volume   221.59655820
_cell_formula_units_Z   4
loop_
 _symmetry_equiv_pos_site_id
 _symmetry_equiv_pos_as_xyz
  1  'x, y, z'
loop_
 _atom_site_type_symbol
 _atom_site_label
 _atom_site_symmetry_multiplicity
 _atom_site_fract_x
 _atom_site_fract_y
 _atom_site_fract_z
 _atom_site_occupancy
  Na  Na0  1  0.05573800  0.94426200  0.25000000  1
  Na  Na1  1  0.81991100  0.18008900  0.25000000  1
  Na  Na2  1  0.18008900  0.81991100  0.75000000  1
  Na  Na3  1  0.94426200  0.05573800  0.75000000  1
  Ho  Ho4  1  0.56715300  0.43284700  0.25000000  1
  Ho  Ho5  1  0.30680200  0.69319800  0.25000000  1
  Ho  Ho6  1  0.43284700  0.56715300  0.75000000  1
  Ho  Ho7  1  0.69319800  0.30680200  0.75000000  1
  O  O8  1  0.53952100  0.91573100  0.79421800  1
  O  O9  1  0.35983000  0.23284900  0.70377500  1
  O  O10  1  0.91573100  0.53952100  0.29421800  1
  O  O11  1  0.23284900  0.35983000  0.20377500  1
  O  O12  1  0.76715100  0.64017000  0.79622500  1
  O  O13  1  0.08426900  0.46047900  0.70578200  1
  O  O14  1  0.64017000  0.76715100  0.29622500  1
  O  O15  1  0.46047900  0.08426900  0.20578200  1
