# generated using pymatgen
data_Cs6Co2O7
_symmetry_space_group_name_H-M   'P 1'
_cell_length_a   9.86186000
_cell_length_b   7.34690700
_cell_length_c   12.35722139
_cell_angle_alpha   54.21656816
_cell_angle_beta   90.00000000
_cell_angle_gamma   90.00000000
_symmetry_Int_Tables_number   1
_chemical_formula_structural   Cs6Co2O7
_chemical_formula_sum   'Cs12 Co4 O14'
_cell_volume   726.32296840
_cell_formula_units_Z   2
loop_
 _symmetry_equiv_pos_site_id
 _symmetry_equiv_pos_as_xyz
  1  'x, y, z'
loop_
 _atom_site_type_symbol
 _atom_site_label
 _atom_site_symmetry_multiplicity
 _atom_site_fract_x
 _atom_site_fract_y
 _atom_site_fract_z
 _atom_site_occupancy
  Cs  Cs0  1  0.29092000  0.91054700  0.71680300  1
  Cs  Cs1  1  0.85697600  0.45003700  0.91597500  1
  Cs  Cs2  1  0.96981800  0.70007600  0.55122300  1
  Cs  Cs3  1  0.46981800  0.29992400  0.94877700  1
  Cs  Cs4  1  0.20908000  0.91054700  0.21680300  1
  Cs  Cs5  1  0.35697600  0.54996300  0.58402500  1
  Cs  Cs6  1  0.64302400  0.45003700  0.41597500  1
  Cs  Cs7  1  0.79092000  0.08945300  0.78319700  1
  Cs  Cs8  1  0.53018200  0.70007600  0.05122300  1
  Cs  Cs9  1  0.03018200  0.29992400  0.44877700  1
  Cs  Cs10  1  0.14302400  0.54996300  0.08402500  1
  Cs  Cs11  1  0.70908000  0.08945300  0.28319700  1
  Co  Co12  1  0.63668300  0.82698800  0.62803700  1
  Co  Co13  1  0.13668300  0.17301200  0.87196300  1
  Co  Co14  1  0.86331700  0.82698800  0.12803700  1
  Co  Co15  1  0.36331700  0.17301200  0.37196300  1
  O  O16  1  0.28779700  0.00279100  0.92734700  1
  O  O17  1  0.58855500  0.75879700  0.78835800  1
  O  O18  1  0.50000000  0.00000000  0.50000000  1
  O  O19  1  0.21220300  0.00279100  0.42734700  1
  O  O20  1  0.16556200  0.42532700  0.86212500  1
  O  O21  1  0.66556200  0.57467300  0.63787500  1
  O  O22  1  0.91144500  0.75879700  0.28835800  1
  O  O23  1  0.00000000  0.00000000  0.00000000  1
  O  O24  1  0.08855500  0.24120300  0.71164200  1
  O  O25  1  0.33443800  0.42532700  0.36212500  1
  O  O26  1  0.83443800  0.57467300  0.13787500  1
  O  O27  1  0.78779700  0.99720900  0.57265300  1
  O  O28  1  0.41144500  0.24120300  0.21164200  1
  O  O29  1  0.71220300  0.99720900  0.07265300  1
