# generated using pymatgen
data_Li9(NbS2)14
_symmetry_space_group_name_H-M   'P 1'
_cell_length_a   5.85020000
_cell_length_b   12.18916599
_cell_length_c   13.38202288
_cell_angle_alpha   104.18959768
_cell_angle_beta   90.02755605
_cell_angle_gamma   103.84882449
_symmetry_Int_Tables_number   1
_chemical_formula_structural   Li9(NbS2)14
_chemical_formula_sum   'Li9 Nb14 S28'
_cell_volume   896.47599292
_cell_formula_units_Z   1
loop_
 _symmetry_equiv_pos_site_id
 _symmetry_equiv_pos_as_xyz
  1  'x, y, z'
loop_
 _atom_site_type_symbol
 _atom_site_label
 _atom_site_symmetry_multiplicity
 _atom_site_fract_x
 _atom_site_fract_y
 _atom_site_fract_z
 _atom_site_occupancy
  Li  Li0  1  0.57124700  0.64271700  0.99997300  1
  Li  Li1  1  0.07251100  0.64487000  0.49999300  1
  Li  Li2  1  0.42875300  0.35728300  0.00002700  1
  Li  Li3  1  0.50000000  0.50000000  0.50000000  1
  Li  Li4  1  0.92748900  0.35513000  0.50000700  1
  Li  Li5  1  0.28575700  0.07150600  0.99992400  1
  Li  Li6  1  0.71424300  0.92849400  0.00007600  1
  Li  Li7  1  0.78553400  0.07130500  0.49993100  1
  Li  Li8  1  0.21446600  0.92869500  0.50006900  1
  Nb  Nb9  1  0.03462500  0.57150500  0.24899100  1
  Nb  Nb10  1  0.53587800  0.57171100  0.75009700  1
  Nb  Nb11  1  0.46412200  0.42828900  0.24990300  1
  Nb  Nb12  1  0.89226700  0.28550000  0.24911600  1
  Nb  Nb13  1  0.96537500  0.42849500  0.75100900  1
  Nb  Nb14  1  0.39088700  0.28557400  0.74943600  1
  Nb  Nb15  1  0.32108400  0.14301800  0.25060400  1
  Nb  Nb16  1  0.75001300  0.00012400  0.24999400  1
  Nb  Nb17  1  0.82284100  0.14356500  0.75075000  1
  Nb  Nb18  1  0.24998700  0.99987600  0.75000600  1
  Nb  Nb19  1  0.17715900  0.85643500  0.24925000  1
  Nb  Nb20  1  0.60911300  0.71442600  0.25056400  1
  Nb  Nb21  1  0.67891600  0.85698200  0.74939600  1
  Nb  Nb22  1  0.10773300  0.71450000  0.75088400  1
  S  S23  1  0.35122300  0.53709600  0.12909900  1
  S  S24  1  0.38663800  0.60644300  0.37096800  1
  S  S25  1  0.78132000  0.39423400  0.12940400  1
  S  S26  1  0.81538900  0.46331200  0.37166500  1
  S  S27  1  0.18461100  0.53668800  0.62833500  1
  S  S28  1  0.21868000  0.60576600  0.87059600  1
  S  S29  1  0.20788600  0.25100400  0.12890600  1
  S  S30  1  0.24321300  0.31989900  0.37116600  1
  S  S31  1  0.64877700  0.46290400  0.87090100  1
  S  S32  1  0.61336200  0.39355700  0.62903200  1
  S  S33  1  0.63765600  0.10873500  0.12879400  1
  S  S34  1  0.07598600  0.32029400  0.87087200  1
  S  S35  1  0.67118000  0.17755800  0.37100400  1
  S  S36  1  0.04250400  0.25090700  0.62873900  1
  S  S37  1  0.06621400  0.96498600  0.12886900  1
  S  S38  1  0.10144400  0.03495600  0.37106900  1
  S  S39  1  0.47057800  0.10869500  0.62909600  1
  S  S40  1  0.50629500  0.17756200  0.87088500  1
  S  S41  1  0.49370500  0.82243800  0.12911500  1
  S  S42  1  0.93378600  0.03501400  0.87113100  1
  S  S43  1  0.89855600  0.96504400  0.62893100  1
  S  S44  1  0.52942200  0.89130500  0.37090400  1
  S  S45  1  0.92401400  0.67970600  0.12912800  1
  S  S46  1  0.95749600  0.74909300  0.37126100  1
  S  S47  1  0.32882000  0.82244200  0.62899600  1
  S  S48  1  0.36234400  0.89126500  0.87120600  1
  S  S49  1  0.75678700  0.68010100  0.62883400  1
  S  S50  1  0.79211400  0.74899600  0.87109400  1
