# generated using pymatgen
data_Ba3AlHO4
_symmetry_space_group_name_H-M   'P 1'
_cell_length_a   7.33996100
_cell_length_b   8.27268400
_cell_length_c   10.62661900
_cell_angle_alpha   90.00000000
_cell_angle_beta   90.00000000
_cell_angle_gamma   90.00000000
_symmetry_Int_Tables_number   1
_chemical_formula_structural   Ba3AlHO4
_chemical_formula_sum   'Ba12 Al4 H4 O16'
_cell_volume   645.26082304
_cell_formula_units_Z   4
loop_
 _symmetry_equiv_pos_site_id
 _symmetry_equiv_pos_as_xyz
  1  'x, y, z'
loop_
 _atom_site_type_symbol
 _atom_site_label
 _atom_site_symmetry_multiplicity
 _atom_site_fract_x
 _atom_site_fract_y
 _atom_site_fract_z
 _atom_site_occupancy
  Ba  Ba0  1  0.39901700  0.02585100  0.83444900  1
  Ba  Ba1  1  0.10098300  0.47414900  0.33444900  1
  Ba  Ba2  1  0.60098300  0.52585100  0.16555100  1
  Ba  Ba3  1  0.89901700  0.97414900  0.66555100  1
  Ba  Ba4  1  0.60098300  0.97414900  0.16555100  1
  Ba  Ba5  1  0.89901700  0.52585100  0.66555100  1
  Ba  Ba6  1  0.39901700  0.47414900  0.83444900  1
  Ba  Ba7  1  0.10098300  0.02585100  0.33444900  1
  Ba  Ba8  1  0.90176100  0.25000000  0.96331600  1
  Ba  Ba9  1  0.59823900  0.25000000  0.46331600  1
  Ba  Ba10  1  0.09823900  0.75000000  0.03668400  1
  Ba  Ba11  1  0.40176100  0.75000000  0.53668400  1
  Al  Al12  1  0.18925700  0.25000000  0.60359600  1
  Al  Al13  1  0.31074300  0.25000000  0.10359600  1
  Al  Al14  1  0.81074300  0.75000000  0.39640400  1
  Al  Al15  1  0.68925700  0.75000000  0.89640400  1
  H  H16  1  0.66077200  0.25000000  0.73076200  1
  H  H17  1  0.83922800  0.25000000  0.23076200  1
  H  H18  1  0.33922800  0.75000000  0.26923800  1
  H  H19  1  0.16077200  0.75000000  0.76923800  1
  O  O20  1  0.30586500  0.06615300  0.57242600  1
  O  O21  1  0.19413500  0.43384700  0.07242600  1
  O  O22  1  0.69413500  0.56615300  0.42757400  1
  O  O23  1  0.80586500  0.93384700  0.92757400  1
  O  O24  1  0.69413500  0.93384700  0.42757400  1
  O  O25  1  0.80586500  0.56615300  0.92757400  1
  O  O26  1  0.30586500  0.43384700  0.57242600  1
  O  O27  1  0.19413500  0.06615300  0.07242600  1
  O  O28  1  0.98335400  0.25000000  0.51200100  1
  O  O29  1  0.51664600  0.25000000  0.01200100  1
  O  O30  1  0.01664600  0.75000000  0.48799900  1
  O  O31  1  0.48335400  0.75000000  0.98799900  1
  O  O32  1  0.12916100  0.25000000  0.76748700  1
  O  O33  1  0.37083900  0.25000000  0.26748700  1
  O  O34  1  0.87083900  0.75000000  0.23251300  1
  O  O35  1  0.62916100  0.75000000  0.73251300  1
