# generated using pymatgen
data_Sr5Si3
_symmetry_space_group_name_H-M   'P 1'
_cell_length_a   9.77850817
_cell_length_b   9.77850817
_cell_length_c   9.77850817
_cell_angle_alpha   131.20679476
_cell_angle_beta   131.20679476
_cell_angle_gamma   71.48473087
_symmetry_Int_Tables_number   1
_chemical_formula_structural   Sr5Si3
_chemical_formula_sum   'Sr10 Si6'
_cell_volume   517.90931936
_cell_formula_units_Z   2
loop_
 _symmetry_equiv_pos_site_id
 _symmetry_equiv_pos_as_xyz
  1  'x, y, z'
loop_
 _atom_site_type_symbol
 _atom_site_label
 _atom_site_symmetry_multiplicity
 _atom_site_fract_x
 _atom_site_fract_y
 _atom_site_fract_z
 _atom_site_occupancy
  Sr  Sr0  1  0.03897500  0.17897100  0.50000000  1
  Sr  Sr1  1  0.53897500  0.03897500  0.86000400  1
  Sr  Sr2  1  0.17897100  0.67897100  0.13999600  1
  Sr  Sr3  1  0.46102500  0.96102500  0.13999600  1
  Sr  Sr4  1  0.67897100  0.53897500  0.50000000  1
  Sr  Sr5  1  0.96102500  0.82102900  0.50000000  1
  Sr  Sr6  1  0.32102900  0.46102500  0.50000000  1
  Sr  Sr7  1  0.82102900  0.32102900  0.86000400  1
  Sr  Sr8  1  0.50000000  0.50000000  0.00000000  1
  Sr  Sr9  1  0.00000000  0.00000000  0.00000000  1
  Si  Si10  1  0.10767000  0.60767000  0.71534000  1
  Si  Si11  1  0.60767000  0.89233000  0.50000000  1
  Si  Si12  1  0.39233000  0.10767000  0.50000000  1
  Si  Si13  1  0.89233000  0.39233000  0.28466000  1
  Si  Si14  1  0.75000000  0.75000000  0.00000000  1
  Si  Si15  1  0.25000000  0.25000000  0.00000000  1
