# generated using pymatgen
data_LiGaGe
_symmetry_space_group_name_H-M   'P 1'
_cell_length_a   4.23132480
_cell_length_b   4.23132480
_cell_length_c   6.86463900
_cell_angle_alpha   90.00000000
_cell_angle_beta   90.00000000
_cell_angle_gamma   120.00001252
_symmetry_Int_Tables_number   1
_chemical_formula_structural   LiGaGe
_chemical_formula_sum   'Li2 Ga2 Ge2'
_cell_volume   106.43905429
_cell_formula_units_Z   2
loop_
 _symmetry_equiv_pos_site_id
 _symmetry_equiv_pos_as_xyz
  1  'x, y, z'
loop_
 _atom_site_type_symbol
 _atom_site_label
 _atom_site_symmetry_multiplicity
 _atom_site_fract_x
 _atom_site_fract_y
 _atom_site_fract_z
 _atom_site_occupancy
  Li  Li0  1  0.00000000  0.00000000  0.75542900  1
  Li  Li1  1  0.00000000  0.00000000  0.25542900  1
  Ga  Ga2  1  0.66666700  0.33333300  0.55475900  1
  Ga  Ga3  1  0.33333300  0.66666700  0.05475900  1
  Ge  Ge4  1  0.33333300  0.66666700  0.43981200  1
  Ge  Ge5  1  0.66666700  0.33333300  0.93981200  1
