# generated using pymatgen
data_SmAgO2
_symmetry_space_group_name_H-M   'P 1'
_cell_length_a   3.65861789
_cell_length_b   3.65861789
_cell_length_c   12.53514700
_cell_angle_alpha   90.00000000
_cell_angle_beta   90.00000000
_cell_angle_gamma   119.99999795
_symmetry_Int_Tables_number   1
_chemical_formula_structural   SmAgO2
_chemical_formula_sum   'Sm2 Ag2 O4'
_cell_volume   145.30955693
_cell_formula_units_Z   2
loop_
 _symmetry_equiv_pos_site_id
 _symmetry_equiv_pos_as_xyz
  1  'x, y, z'
loop_
 _atom_site_type_symbol
 _atom_site_label
 _atom_site_symmetry_multiplicity
 _atom_site_fract_x
 _atom_site_fract_y
 _atom_site_fract_z
 _atom_site_occupancy
  Sm  Sm0  1  0.00000000  0.00000000  0.00000000  1
  Sm  Sm1  1  0.00000000  0.00000000  0.50000000  1
  Ag  Ag2  1  0.33333300  0.66666700  0.25000000  1
  Ag  Ag3  1  0.66666700  0.33333300  0.75000000  1
  O  O4  1  0.33333300  0.66666700  0.08422200  1
  O  O5  1  0.33333300  0.66666700  0.41577800  1
  O  O6  1  0.66666700  0.33333300  0.58422200  1
  O  O7  1  0.66666700  0.33333300  0.91577800  1
