# generated using pymatgen
data_ZrH6NOF5
_symmetry_space_group_name_H-M   'P 1'
_cell_length_a   7.60824900
_cell_length_b   6.87155200
_cell_length_c   11.45931395
_cell_angle_alpha   66.39236782
_cell_angle_beta   90.00000000
_cell_angle_gamma   90.00000000
_symmetry_Int_Tables_number   1
_chemical_formula_structural   ZrH6NOF5
_chemical_formula_sum   'Zr4 H24 N4 O4 F20'
_cell_volume   548.95950733
_cell_formula_units_Z   4
loop_
 _symmetry_equiv_pos_site_id
 _symmetry_equiv_pos_as_xyz
  1  'x, y, z'
loop_
 _atom_site_type_symbol
 _atom_site_label
 _atom_site_symmetry_multiplicity
 _atom_site_fract_x
 _atom_site_fract_y
 _atom_site_fract_z
 _atom_site_occupancy
  Zr  Zr0  1  0.55813800  0.72135400  0.54372500  1
  Zr  Zr1  1  0.94186200  0.72135400  0.04372500  1
  Zr  Zr2  1  0.44186200  0.27864600  0.45627500  1
  Zr  Zr3  1  0.05813800  0.27864600  0.95627500  1
  H  H4  1  0.45359400  0.46324800  0.80710600  1
  H  H5  1  0.04640600  0.46324800  0.30710600  1
  H  H6  1  0.54640600  0.53675200  0.19289400  1
  H  H7  1  0.95359400  0.53675200  0.69289400  1
  H  H8  1  0.65782600  0.50248400  0.80764400  1
  H  H9  1  0.84217400  0.50248400  0.30764400  1
  H  H10  1  0.34217400  0.49751600  0.19235600  1
  H  H11  1  0.15782600  0.49751600  0.69235600  1
  H  H12  1  0.06587500  0.83378100  0.29517400  1
  H  H13  1  0.43412500  0.83378100  0.79517400  1
  H  H14  1  0.93412500  0.16621900  0.70482600  1
  H  H15  1  0.56587500  0.16621900  0.20482600  1
  H  H16  1  0.93599700  0.88404600  0.39404100  1
  H  H17  1  0.56400300  0.88404600  0.89404100  1
  H  H18  1  0.06400300  0.11595400  0.60595900  1
  H  H19  1  0.43599700  0.11595400  0.10595900  1
  H  H20  1  0.15197700  0.82322400  0.43444200  1
  H  H21  1  0.34802300  0.82322400  0.93444200  1
  H  H22  1  0.84802300  0.17677600  0.56555800  1
  H  H23  1  0.65197700  0.17677600  0.06555800  1
  H  H24  1  0.10184800  0.05705700  0.31844700  1
  H  H25  1  0.39815200  0.05705700  0.81844700  1
  H  H26  1  0.89815200  0.94294300  0.68155300  1
  H  H27  1  0.60184800  0.94294300  0.18155300  1
  N  N28  1  0.06477800  0.90039500  0.36135200  1
  N  N29  1  0.43522200  0.90039500  0.86135200  1
  N  N30  1  0.93522200  0.09960500  0.63864800  1
  N  N31  1  0.56477800  0.09960500  0.13864800  1
  O  O32  1  0.54689800  0.57134600  0.76532700  1
  O  O33  1  0.95310200  0.57134600  0.26532700  1
  O  O34  1  0.45310200  0.42865400  0.23467300  1
  O  O35  1  0.04689800  0.42865400  0.73467300  1
  F  F36  1  0.57110200  0.98866200  0.59669500  1
  F  F37  1  0.92889800  0.98866200  0.09669500  1
  F  F38  1  0.42889800  0.01133800  0.40330500  1
  F  F39  1  0.07110200  0.01133800  0.90330500  1
  F  F40  1  0.29738200  0.69191500  0.60067700  1
  F  F41  1  0.20261800  0.69191500  0.10067700  1
  F  F42  1  0.70261800  0.30808500  0.39932300  1
  F  F43  1  0.79738200  0.30808500  0.89932300  1
  F  F44  1  0.81689700  0.71341600  0.61125600  1
  F  F45  1  0.68310300  0.71341600  0.11125600  1
  F  F46  1  0.18310300  0.28658400  0.38874400  1
  F  F47  1  0.31689700  0.28658400  0.88874400  1
  F  F48  1  0.70823900  0.80791300  0.38366700  1
  F  F49  1  0.79176100  0.80791300  0.88366700  1
  F  F50  1  0.29176100  0.19208700  0.61633300  1
  F  F51  1  0.20823900  0.19208700  0.11633300  1
  F  F52  1  0.59824300  0.39635200  0.58772900  1
  F  F53  1  0.90175700  0.39635200  0.08772900  1
  F  F54  1  0.40175700  0.60364800  0.41227100  1
  F  F55  1  0.09824300  0.60364800  0.91227100  1
