# generated using pymatgen
data_SrH4(SO4)3
_symmetry_space_group_name_H-M   'P 1'
_cell_length_a   6.04084300
_cell_length_b   8.57448285
_cell_length_c   10.39035331
_cell_angle_alpha   81.46723579
_cell_angle_beta   83.52796782
_cell_angle_gamma   70.83111192
_symmetry_Int_Tables_number   1
_chemical_formula_structural   SrH4(SO4)3
_chemical_formula_sum   'Sr2 H8 S6 O24'
_cell_volume   501.54200514
_cell_formula_units_Z   2
loop_
 _symmetry_equiv_pos_site_id
 _symmetry_equiv_pos_as_xyz
  1  'x, y, z'
loop_
 _atom_site_type_symbol
 _atom_site_label
 _atom_site_symmetry_multiplicity
 _atom_site_fract_x
 _atom_site_fract_y
 _atom_site_fract_z
 _atom_site_occupancy
  Sr  Sr0  1  0.00216000  0.76118100  0.44063400  1
  Sr  Sr1  1  0.99784000  0.23881900  0.55936600  1
  H  H2  1  0.99263200  0.52246600  0.13297400  1
  H  H3  1  0.24358000  0.09585100  0.13126100  1
  H  H4  1  0.55896500  0.27949400  0.34482300  1
  H  H5  1  0.49922600  0.65231900  0.08488100  1
  H  H6  1  0.50077400  0.34768100  0.91511900  1
  H  H7  1  0.44103500  0.72050600  0.65517700  1
  H  H8  1  0.75642000  0.90414900  0.86873900  1
  H  H9  1  0.00736800  0.47753400  0.86702600  1
  S  S10  1  0.38217800  0.04504300  0.32404500  1
  S  S11  1  0.12347800  0.72422100  0.06479000  1
  S  S12  1  0.33809100  0.49235300  0.67792000  1
  S  S13  1  0.66190900  0.50764700  0.32208000  1
  S  S14  1  0.87652200  0.27577900  0.93521000  1
  S  S15  1  0.61782200  0.95495700  0.67595500  1
  O  O16  1  0.01131600  0.20513700  0.04721800  1
  O  O17  1  0.15112900  0.53415400  0.09846300  1
  O  O18  1  0.38973400  0.02763600  0.17574700  1
  O  O19  1  0.04350500  0.80549700  0.18187300  1
  O  O20  1  0.15837200  0.47106400  0.60363100  1
  O  O21  1  0.34363700  0.22158900  0.34116900  1
  O  O22  1  0.39082400  0.06583300  0.63774400  1
  O  O23  1  0.28677800  0.45633200  0.82016000  1
  O  O24  1  0.37974800  0.71414600  0.01826500  1
  O  O25  1  0.18053700  0.99872400  0.39306600  1
  O  O26  1  0.29515300  0.68591500  0.64521100  1
  O  O27  1  0.42061700  0.59503900  0.36210300  1
  O  O28  1  0.57938300  0.40496100  0.63789700  1
  O  O29  1  0.70484700  0.31408500  0.35478900  1
  O  O30  1  0.81946300  0.00127600  0.60693400  1
  O  O31  1  0.62025200  0.28585400  0.98173500  1
  O  O32  1  0.71322200  0.54366800  0.17984000  1
  O  O33  1  0.60917600  0.93416700  0.36225600  1
  O  O34  1  0.65636300  0.77841100  0.65883100  1
  O  O35  1  0.84162800  0.52893600  0.39636900  1
  O  O36  1  0.95649500  0.19450300  0.81812700  1
  O  O37  1  0.61026600  0.97236400  0.82425300  1
  O  O38  1  0.84887100  0.46584600  0.90153700  1
  O  O39  1  0.98868400  0.79486300  0.95278200  1
