# generated using pymatgen
data_K2CrPCO7
_symmetry_space_group_name_H-M   'P 1'
_cell_length_a   9.72505197
_cell_length_b   6.69843600
_cell_length_c   5.58592246
_cell_angle_alpha   90.00090122
_cell_angle_beta   89.55253879
_cell_angle_gamma   89.99744909
_symmetry_Int_Tables_number   1
_chemical_formula_structural   K2CrPCO7
_chemical_formula_sum   'K4 Cr2 P2 C2 O14'
_cell_volume   363.87062926
_cell_formula_units_Z   2
loop_
 _symmetry_equiv_pos_site_id
 _symmetry_equiv_pos_as_xyz
  1  'x, y, z'
loop_
 _atom_site_type_symbol
 _atom_site_label
 _atom_site_symmetry_multiplicity
 _atom_site_fract_x
 _atom_site_fract_y
 _atom_site_fract_z
 _atom_site_occupancy
  K  K0  1  0.24160900  0.47569900  0.24393900  1
  K  K1  1  0.24162200  0.02430400  0.24395800  1
  K  K2  1  0.75834300  0.52429500  0.75601900  1
  K  K3  1  0.75835000  0.97569200  0.75602300  1
  Cr  Cr4  1  0.35770800  0.75002900  0.77163900  1
  Cr  Cr5  1  0.64234000  0.24998200  0.22842600  1
  P  P6  1  0.43315800  0.25000400  0.72437900  1
  P  P7  1  0.56685200  0.75000100  0.27568100  1
  C  C8  1  0.10513200  0.74999000  0.72881300  1
  C  C9  1  0.89486100  0.24999800  0.27106000  1
  O  O10  1  0.02187800  0.25000100  0.29569900  1
  O  O11  1  0.16931400  0.75001100  0.93626500  1
  O  O12  1  0.19467500  0.75000200  0.54774800  1
  O  O13  1  0.34355700  0.06099300  0.77112300  1
  O  O14  1  0.34356700  0.43902500  0.77112000  1
  O  O15  1  0.44012100  0.75001300  0.10750000  1
  O  O16  1  0.47995900  0.24999800  0.45548300  1
  O  O17  1  0.52011400  0.75001800  0.54462000  1
  O  O18  1  0.55982500  0.24999700  0.89265400  1
  O  O19  1  0.65641500  0.56096200  0.22896800  1
  O  O20  1  0.65642200  0.93902600  0.22896600  1
  O  O21  1  0.80539300  0.24999100  0.45222100  1
  O  O22  1  0.83064100  0.24999400  0.06365900  1
  O  O23  1  0.97814200  0.74997300  0.70403700  1
