# generated using pymatgen
data_Tm6WO12
_symmetry_space_group_name_H-M   'P 1'
_cell_length_a   6.39377542
_cell_length_b   6.39377542
_cell_length_c   6.39377607
_cell_angle_alpha   98.71375647
_cell_angle_beta   98.71375647
_cell_angle_gamma   98.71374879
_symmetry_Int_Tables_number   1
_chemical_formula_structural   Tm6WO12
_chemical_formula_sum   'Tm6 W1 O12'
_cell_volume   251.27713649
_cell_formula_units_Z   1
loop_
 _symmetry_equiv_pos_site_id
 _symmetry_equiv_pos_as_xyz
  1  'x, y, z'
loop_
 _atom_site_type_symbol
 _atom_site_label
 _atom_site_symmetry_multiplicity
 _atom_site_fract_x
 _atom_site_fract_y
 _atom_site_fract_z
 _atom_site_occupancy
  Tm  Tm0  1  0.85559100  0.38888200  0.68121200  1
  Tm  Tm1  1  0.61111800  0.31878800  0.14440900  1
  Tm  Tm2  1  0.31878800  0.14440900  0.61111800  1
  Tm  Tm3  1  0.68121200  0.85559100  0.38888200  1
  Tm  Tm4  1  0.38888200  0.68121200  0.85559100  1
  Tm  Tm5  1  0.14440900  0.61111800  0.31878800  1
  W  W6  1  0.00000000  0.00000000  0.00000000  1
  O  O7  1  0.92072900  0.03572700  0.69978300  1
  O  O8  1  0.96427300  0.30021700  0.07927100  1
  O  O9  1  0.59014500  0.17737000  0.42982500  1
  O  O10  1  0.82263000  0.57017500  0.40985500  1
  O  O11  1  0.30021700  0.07927100  0.96427300  1
  O  O12  1  0.57017500  0.40985500  0.82263000  1
  O  O13  1  0.42982500  0.59014500  0.17737000  1
  O  O14  1  0.69978300  0.92072900  0.03572700  1
  O  O15  1  0.17737000  0.42982500  0.59014500  1
  O  O16  1  0.40985500  0.82263000  0.57017500  1
  O  O17  1  0.03572700  0.69978300  0.92072900  1
  O  O18  1  0.07927100  0.96427300  0.30021700  1
