# generated using pymatgen
data_KTa2PO8
_symmetry_space_group_name_H-M   'P 1'
_cell_length_a   8.46414530
_cell_length_b   8.46414530
_cell_length_c   8.46414604
_cell_angle_alpha   104.05720470
_cell_angle_beta   104.05720470
_cell_angle_gamma   104.05720324
_symmetry_Int_Tables_number   1
_chemical_formula_structural   KTa2PO8
_chemical_formula_sum   'K3 Ta6 P3 O24'
_cell_volume   540.45095203
_cell_formula_units_Z   3
loop_
 _symmetry_equiv_pos_site_id
 _symmetry_equiv_pos_as_xyz
  1  'x, y, z'
loop_
 _atom_site_type_symbol
 _atom_site_label
 _atom_site_symmetry_multiplicity
 _atom_site_fract_x
 _atom_site_fract_y
 _atom_site_fract_z
 _atom_site_occupancy
  K  K0  1  0.60142500  0.30095300  0.91153800  1
  K  K1  1  0.91153800  0.60142500  0.30095300  1
  K  K2  1  0.30095300  0.91153800  0.60142500  1
  Ta  Ta3  1  0.35147300  0.03435800  0.16118400  1
  Ta  Ta4  1  0.03435800  0.16118400  0.35147300  1
  Ta  Ta5  1  0.96711000  0.64977300  0.83976200  1
  Ta  Ta6  1  0.16118400  0.35147300  0.03435800  1
  Ta  Ta7  1  0.64977300  0.83976200  0.96711000  1
  Ta  Ta8  1  0.83976200  0.96711000  0.64977300  1
  P  P9  1  0.72325900  0.27600500  0.50007600  1
  P  P10  1  0.27600500  0.50007600  0.72325900  1
  P  P11  1  0.50007600  0.72325900  0.27600500  1
  O  O12  1  0.97405000  0.02468800  0.49943400  1
  O  O13  1  0.84668700  0.99983800  0.15350100  1
  O  O14  1  0.70692200  0.13099100  0.58334100  1
  O  O15  1  0.20757800  0.06358700  0.31565500  1
  O  O16  1  0.99983800  0.15350100  0.84668700  1
  O  O17  1  0.86903700  0.29298900  0.41777500  1
  O  O18  1  0.55264000  0.23414300  0.35656500  1
  O  O19  1  0.76456200  0.44652900  0.64352300  1
  O  O20  1  0.31565500  0.20757800  0.06358700  1
  O  O21  1  0.29298900  0.41777500  0.86903700  1
  O  O22  1  0.23414300  0.35656500  0.55264000  1
  O  O23  1  0.06358700  0.31565500  0.20757800  1
  O  O24  1  0.02468800  0.49943400  0.97405000  1
  O  O25  1  0.79197300  0.68300500  0.93645500  1
  O  O26  1  0.44652900  0.64352300  0.76456200  1
  O  O27  1  0.13099100  0.58334100  0.70692200  1
  O  O28  1  0.93645500  0.79197300  0.68300500  1
  O  O29  1  0.35656500  0.55264000  0.23414300  1
  O  O30  1  0.64352300  0.76456200  0.44652900  1
  O  O31  1  0.58334100  0.70692200  0.13099100  1
  O  O32  1  0.68300500  0.93645500  0.79197300  1
  O  O33  1  0.41777500  0.86903700  0.29298900  1
  O  O34  1  0.15350100  0.84668700  0.99983800  1
  O  O35  1  0.49943400  0.97405000  0.02468800  1
