# generated using pymatgen
data_Na3CoAsCO7
_symmetry_space_group_name_H-M   'P 1'
_cell_length_a   8.64793008
_cell_length_b   8.64878474
_cell_length_c   10.47551156
_cell_angle_alpha   107.21084240
_cell_angle_beta   107.20871460
_cell_angle_gamma   105.02355929
_symmetry_Int_Tables_number   1
_chemical_formula_structural   Na3CoAsCO7
_chemical_formula_sum   'Na12 Co4 As4 C4 O28'
_cell_volume   661.28311028
_cell_formula_units_Z   4
loop_
 _symmetry_equiv_pos_site_id
 _symmetry_equiv_pos_as_xyz
  1  'x, y, z'
loop_
 _atom_site_type_symbol
 _atom_site_label
 _atom_site_symmetry_multiplicity
 _atom_site_fract_x
 _atom_site_fract_y
 _atom_site_fract_z
 _atom_site_occupancy
  Na  Na0  1  0.54633300  0.29633900  0.08063000  1
  Na  Na1  1  0.04636400  0.79637400  0.08061900  1
  Na  Na2  1  0.95366500  0.20364700  0.91937300  1
  Na  Na3  1  0.45367300  0.70368100  0.91938000  1
  Na  Na4  1  0.25742000  0.25309000  0.25948600  1
  Na  Na5  1  0.75734700  0.75307000  0.25946700  1
  Na  Na6  1  0.50308900  0.00740700  0.25949200  1
  Na  Na7  1  0.00309100  0.50739000  0.25947400  1
  Na  Na8  1  0.99689800  0.49254600  0.74048800  1
  Na  Na9  1  0.49687600  0.99258200  0.74052900  1
  Na  Na10  1  0.24263100  0.24694000  0.74051100  1
  Na  Na11  1  0.74265500  0.74694500  0.74054900  1
  Co  Co12  1  0.43728500  0.68725000  0.34143200  1
  Co  Co13  1  0.06269900  0.81274800  0.65856800  1
  Co  Co14  1  0.93729000  0.18725300  0.34142700  1
  Co  Co15  1  0.56270800  0.31274700  0.65857600  1
  As  As16  1  0.68437700  0.43435600  0.41713500  1
  As  As17  1  0.18437200  0.93435500  0.41713000  1
  As  As18  1  0.81562200  0.06564000  0.58286800  1
  As  As19  1  0.31562800  0.56564300  0.58286700  1
  C  C20  1  0.76807100  0.01806900  0.05881900  1
  C  C21  1  0.26807000  0.51806700  0.05881400  1
  C  C22  1  0.73193100  0.48193200  0.94118100  1
  C  C23  1  0.23192900  0.98193400  0.94118400  1
  O  O24  1  0.31194100  0.06194400  0.08203100  1
  O  O25  1  0.81193900  0.56194600  0.08202800  1
  O  O26  1  0.18805900  0.43805100  0.91796800  1
  O  O27  1  0.68805900  0.93805600  0.91797300  1
  O  O28  1  0.90973100  0.15964700  0.11968200  1
  O  O29  1  0.40974000  0.65963500  0.11967900  1
  O  O30  1  0.59026300  0.34035900  0.88031900  1
  O  O31  1  0.09024200  0.84038100  0.88031700  1
  O  O32  1  0.70966800  0.95974300  0.14368500  1
  O  O33  1  0.20966400  0.45975400  0.14368500  1
  O  O34  1  0.79034000  0.54024900  0.85631600  1
  O  O35  1  0.29035600  0.04023400  0.85631900  1
  O  O36  1  0.53613000  0.28614200  0.44661000  1
  O  O37  1  0.03611900  0.78614900  0.44661000  1
  O  O38  1  0.96386400  0.21385000  0.55338400  1
  O  O39  1  0.46387900  0.71385600  0.55339100  1
  O  O40  1  0.66029700  0.91027200  0.41698100  1
  O  O41  1  0.16030100  0.41027200  0.41697600  1
  O  O42  1  0.83969200  0.58972900  0.58302300  1
  O  O43  1  0.33969500  0.08972500  0.58301900  1
  O  O44  1  0.56901700  0.51612000  0.30680300  1
  O  O45  1  0.06902600  0.01612800  0.30679700  1
  O  O46  1  0.76620000  0.31912900  0.30678000  1
  O  O47  1  0.26620700  0.81913000  0.30678400  1
  O  O48  1  0.73380000  0.18087200  0.69322000  1
  O  O49  1  0.23379000  0.68086900  0.69321400  1
  O  O50  1  0.93098200  0.98388000  0.69320300  1
  O  O51  1  0.43097700  0.48387400  0.69320300  1
