# generated using pymatgen
data_Th4P6O23
_symmetry_space_group_name_H-M   'P 1'
_cell_length_a   7.16150100
_cell_length_b   10.50477800
_cell_length_c   12.96819800
_cell_angle_alpha   90.00000000
_cell_angle_beta   90.00000000
_cell_angle_gamma   90.00000000
_symmetry_Int_Tables_number   1
_chemical_formula_structural   Th4P6O23
_chemical_formula_sum   'Th8 P12 O46'
_cell_volume   975.59725221
_cell_formula_units_Z   2
loop_
 _symmetry_equiv_pos_site_id
 _symmetry_equiv_pos_as_xyz
  1  'x, y, z'
loop_
 _atom_site_type_symbol
 _atom_site_label
 _atom_site_symmetry_multiplicity
 _atom_site_fract_x
 _atom_site_fract_y
 _atom_site_fract_z
 _atom_site_occupancy
  Th  Th0  1  0.00000000  0.48859700  0.91435600  1
  Th  Th1  1  0.50000000  0.02239300  0.81642700  1
  Th  Th2  1  0.00000000  0.02150900  0.68393300  1
  Th  Th3  1  0.50000000  0.49052000  0.58847200  1
  Th  Th4  1  0.00000000  0.51140300  0.41435600  1
  Th  Th5  1  0.50000000  0.97760700  0.31642700  1
  Th  Th6  1  0.00000000  0.97849100  0.18393300  1
  Th  Th7  1  0.50000000  0.50948000  0.08847200  1
  P  P8  1  0.00000000  0.12494200  0.91691200  1
  P  P9  1  0.50000000  0.37506700  0.86511700  1
  P  P10  1  0.21098200  0.72337300  0.74341200  1
  P  P11  1  0.78901800  0.72337300  0.74341200  1
  P  P12  1  0.00000000  0.37383600  0.63570800  1
  P  P13  1  0.50000000  0.12564200  0.58282100  1
  P  P14  1  0.00000000  0.87505800  0.41691200  1
  P  P15  1  0.50000000  0.62493300  0.36511700  1
  P  P16  1  0.78901800  0.27662700  0.24341200  1
  P  P17  1  0.21098200  0.27662700  0.24341200  1
  P  P18  1  0.00000000  0.62616400  0.13570800  1
  P  P19  1  0.50000000  0.87435800  0.08282100  1
  O  O20  1  0.50000000  0.94915900  0.98025000  1
  O  O21  1  0.00000000  0.26742500  0.93758200  1
  O  O22  1  0.66856000  0.42452700  0.92997700  1
  O  O23  1  0.33144000  0.42452700  0.92997700  1
  O  O24  1  0.50000000  0.22934600  0.86044600  1
  O  O25  1  0.16716600  0.08212800  0.84683000  1
  O  O26  1  0.83283400  0.08212800  0.84683000  1
  O  O27  1  0.80374700  0.65347300  0.84527800  1
  O  O28  1  0.19625300  0.65347300  0.84527800  1
  O  O29  1  0.50000000  0.42884000  0.75560700  1
  O  O30  1  0.27681600  0.86308000  0.75550500  1
  O  O31  1  0.72318400  0.86308000  0.75550500  1
  O  O32  1  0.00000000  0.42940800  0.74493600  1
  O  O33  1  0.00000000  0.75124500  0.69856700  1
  O  O34  1  0.69001100  0.65366200  0.65783000  1
  O  O35  1  0.30998900  0.65366200  0.65783000  1
  O  O36  1  0.66918000  0.08260000  0.65197800  1
  O  O37  1  0.33082000  0.08260000  0.65197800  1
  O  O38  1  0.00000000  0.22765000  0.64111100  1
  O  O39  1  0.83200800  0.42376800  0.57088300  1
  O  O40  1  0.16799200  0.42376800  0.57088300  1
  O  O41  1  0.50000000  0.26832100  0.56301800  1
  O  O42  1  0.00000000  0.95024400  0.51965400  1
  O  O43  1  0.50000000  0.05084100  0.48025000  1
  O  O44  1  0.00000000  0.73257500  0.43758200  1
  O  O45  1  0.66856000  0.57547300  0.42997700  1
  O  O46  1  0.33144000  0.57547300  0.42997700  1
  O  O47  1  0.50000000  0.77065400  0.36044600  1
  O  O48  1  0.16716600  0.91787200  0.34683000  1
  O  O49  1  0.83283400  0.91787200  0.34683000  1
  O  O50  1  0.19625300  0.34652700  0.34527800  1
  O  O51  1  0.80374700  0.34652700  0.34527800  1
  O  O52  1  0.50000000  0.57116000  0.25560700  1
  O  O53  1  0.72318400  0.13692000  0.25550500  1
  O  O54  1  0.27681600  0.13692000  0.25550500  1
  O  O55  1  0.00000000  0.57059200  0.24493600  1
  O  O56  1  0.00000000  0.24875500  0.19856700  1
  O  O57  1  0.69001100  0.34633800  0.15783000  1
  O  O58  1  0.30998900  0.34633800  0.15783000  1
  O  O59  1  0.66918000  0.91740000  0.15197800  1
  O  O60  1  0.33082000  0.91740000  0.15197800  1
  O  O61  1  0.00000000  0.77235000  0.14111100  1
  O  O62  1  0.16799200  0.57623200  0.07088300  1
  O  O63  1  0.83200800  0.57623200  0.07088300  1
  O  O64  1  0.50000000  0.73167900  0.06301800  1
  O  O65  1  0.00000000  0.04975600  0.01965400  1
