# generated using pymatgen
data_KMn6O12
_symmetry_space_group_name_H-M   'P 1'
_cell_length_a   8.34087920
_cell_length_b   8.34087920
_cell_length_c   8.34087920
_cell_angle_alpha   106.39079426
_cell_angle_beta   106.39079426
_cell_angle_gamma   115.82509320
_symmetry_Int_Tables_number   1
_chemical_formula_structural   KMn6O12
_chemical_formula_sum   'K2 Mn12 O24'
_cell_volume   442.53269554
_cell_formula_units_Z   2
loop_
 _symmetry_equiv_pos_site_id
 _symmetry_equiv_pos_as_xyz
  1  'x, y, z'
loop_
 _atom_site_type_symbol
 _atom_site_label
 _atom_site_symmetry_multiplicity
 _atom_site_fract_x
 _atom_site_fract_y
 _atom_site_fract_z
 _atom_site_occupancy
  K  K0  1  0.28957700  0.28957700  0.00000000  1
  K  K1  1  0.71042300  0.71042300  0.00000000  1
  Mn  Mn2  1  0.66637600  0.84932600  0.51570200  1
  Mn  Mn3  1  0.48466400  0.99915900  0.81667700  1
  Mn  Mn4  1  0.81751800  0.33201300  0.81667700  1
  Mn  Mn5  1  0.51533600  0.00084100  0.18332300  1
  Mn  Mn6  1  0.66798700  0.48466400  0.48550500  1
  Mn  Mn7  1  0.33362400  0.15067400  0.48429800  1
  Mn  Mn8  1  0.33201300  0.51533600  0.51449500  1
  Mn  Mn9  1  0.99915900  0.18248200  0.51449500  1
  Mn  Mn10  1  0.15067400  0.66637600  0.81705000  1
  Mn  Mn11  1  0.18248200  0.66798700  0.18332300  1
  Mn  Mn12  1  0.84932600  0.33362400  0.18295000  1
  Mn  Mn13  1  0.00084100  0.81751800  0.48550500  1
  O  O14  1  0.66513100  0.04258300  0.70771400  1
  O  O15  1  0.32251600  0.96303700  0.95124100  1
  O  O16  1  0.65463100  0.29724400  0.95187500  1
  O  O17  1  0.70939100  0.99942700  0.37508000  1
  O  O18  1  0.62434700  0.33431100  0.62492000  1
  O  O19  1  0.29060900  0.00057300  0.62492000  1
  O  O20  1  0.67748300  0.03696300  0.04875900  1
  O  O21  1  0.33486900  0.95741700  0.29228600  1
  O  O22  1  0.66568900  0.29060900  0.29003600  1
  O  O23  1  0.29724400  0.34536900  0.64261300  1
  O  O24  1  0.96303700  0.01179600  0.64052000  1
  O  O25  1  0.62872500  0.67748400  0.64052000  1
  O  O26  1  0.03696300  0.98820400  0.35948000  1
  O  O27  1  0.70275600  0.65463100  0.35738700  1
  O  O28  1  0.37127500  0.32251700  0.35948000  1
  O  O29  1  0.00057300  0.37565300  0.70996400  1
  O  O30  1  0.33431100  0.70939100  0.70996400  1
  O  O31  1  0.98820400  0.62872500  0.95124100  1
  O  O32  1  0.37565300  0.66568900  0.37508000  1
  O  O33  1  0.04258300  0.33486900  0.37745200  1
  O  O34  1  0.95741700  0.66513100  0.62254800  1
  O  O35  1  0.01179600  0.37127500  0.04875900  1
  O  O36  1  0.34536900  0.70275600  0.04812500  1
  O  O37  1  0.99942700  0.62434700  0.29003600  1
