# generated using pymatgen
data_Ca6Al7O16
_symmetry_space_group_name_H-M   'P 1'
_cell_length_a   10.47892124
_cell_length_b   10.47892124
_cell_length_c   10.47892124
_cell_angle_alpha   109.47122063
_cell_angle_beta   109.47122063
_cell_angle_gamma   109.47122063
_symmetry_Int_Tables_number   1
_chemical_formula_structural   Ca6Al7O16
_chemical_formula_sum   'Ca12 Al14 O32'
_cell_volume   885.78401384
_cell_formula_units_Z   2
loop_
 _symmetry_equiv_pos_site_id
 _symmetry_equiv_pos_as_xyz
  1  'x, y, z'
loop_
 _atom_site_type_symbol
 _atom_site_label
 _atom_site_symmetry_multiplicity
 _atom_site_fract_x
 _atom_site_fract_y
 _atom_site_fract_z
 _atom_site_occupancy
  Ca  Ca0  1  0.64049300  0.25000000  0.89049300  1
  Ca  Ca1  1  0.85950700  0.75000000  0.60950700  1
  Ca  Ca2  1  0.39049300  0.75000000  0.14049300  1
  Ca  Ca3  1  0.10950700  0.25000000  0.35950700  1
  Ca  Ca4  1  0.89049300  0.64049300  0.25000000  1
  Ca  Ca5  1  0.60950700  0.85950700  0.75000000  1
  Ca  Ca6  1  0.14049300  0.39049300  0.75000000  1
  Ca  Ca7  1  0.35950700  0.10950700  0.25000000  1
  Ca  Ca8  1  0.25000000  0.89049300  0.64049300  1
  Ca  Ca9  1  0.75000000  0.60950700  0.85950700  1
  Ca  Ca10  1  0.75000000  0.14049300  0.39049300  1
  Ca  Ca11  1  0.25000000  0.35950700  0.10950700  1
  Al  Al12  1  0.37500000  0.25000000  0.62500000  1
  Al  Al13  1  0.12500000  0.75000000  0.87500000  1
  Al  Al14  1  0.62500000  0.37500000  0.25000000  1
  Al  Al15  1  0.87500000  0.12500000  0.75000000  1
  Al  Al16  1  0.25000000  0.62500000  0.37500000  1
  Al  Al17  1  0.75000000  0.87500000  0.12500000  1
  Al  Al18  1  0.50000000  0.00000000  0.03649600  1
  Al  Al19  1  0.03649600  0.50000000  0.00000000  1
  Al  Al20  1  0.00000000  0.03649600  0.50000000  1
  Al  Al21  1  0.46350400  0.46350400  0.46350400  1
  Al  Al22  1  0.53649600  0.50000000  0.00000000  1
  Al  Al23  1  0.50000000  0.00000000  0.53649600  1
  Al  Al24  1  0.00000000  0.53649600  0.50000000  1
  Al  Al25  1  0.96350400  0.96350400  0.96350400  1
  O  O26  1  0.50000000  0.00000000  0.87068700  1
  O  O27  1  0.87068700  0.50000000  0.00000000  1
  O  O28  1  0.00000000  0.87068700  0.50000000  1
  O  O29  1  0.62931300  0.62931300  0.62931300  1
  O  O30  1  0.37068700  0.50000000  0.00000000  1
  O  O31  1  0.50000000  0.00000000  0.37068700  1
  O  O32  1  0.00000000  0.37068700  0.50000000  1
  O  O33  1  0.12931300  0.12931300  0.12931300  1
  O  O34  1  0.40805300  0.09379800  0.61689200  1
  O  O35  1  0.52309400  0.40620200  0.81425400  1
  O  O36  1  0.09194700  0.70883900  0.68574600  1
  O  O37  1  0.97690600  0.79116100  0.88310800  1
  O  O38  1  0.11689200  0.59379800  0.90805300  1
  O  O39  1  0.31425400  0.90620200  0.02309400  1
  O  O40  1  0.18574600  0.20883900  0.59194700  1
  O  O41  1  0.38310800  0.29116100  0.47690600  1
  O  O42  1  0.61689200  0.40805300  0.09379800  1
  O  O43  1  0.81425400  0.52309400  0.40620200  1
  O  O44  1  0.68574600  0.09194700  0.70883900  1
  O  O45  1  0.88310800  0.97690600  0.79116100  1
  O  O46  1  0.90805300  0.11689200  0.59379800  1
  O  O47  1  0.02309400  0.31425400  0.90620200  1
  O  O48  1  0.59194700  0.18574600  0.20883900  1
  O  O49  1  0.47690600  0.38310800  0.29116100  1
  O  O50  1  0.09379800  0.61689200  0.40805300  1
  O  O51  1  0.40620200  0.81425400  0.52309400  1
  O  O52  1  0.70883900  0.68574600  0.09194700  1
  O  O53  1  0.79116100  0.88310800  0.97690600  1
  O  O54  1  0.59379800  0.90805300  0.11689200  1
  O  O55  1  0.90620200  0.02309400  0.31425400  1
  O  O56  1  0.20883900  0.59194700  0.18574600  1
  O  O57  1  0.29116100  0.47690600  0.38310800  1
