# generated using pymatgen
data_Ba3Nb2ZnO9
_symmetry_space_group_name_H-M   'P 1'
_cell_length_a   5.87142730
_cell_length_b   5.87142730
_cell_length_c   7.21180700
_cell_angle_alpha   90.00000000
_cell_angle_beta   90.00000000
_cell_angle_gamma   119.99999215
_symmetry_Int_Tables_number   1
_chemical_formula_structural   Ba3Nb2ZnO9
_chemical_formula_sum   'Ba3 Nb2 Zn1 O9'
_cell_volume   215.30897722
_cell_formula_units_Z   1
loop_
 _symmetry_equiv_pos_site_id
 _symmetry_equiv_pos_as_xyz
  1  'x, y, z'
loop_
 _atom_site_type_symbol
 _atom_site_label
 _atom_site_symmetry_multiplicity
 _atom_site_fract_x
 _atom_site_fract_y
 _atom_site_fract_z
 _atom_site_occupancy
  Ba  Ba0  1  0.66666700  0.33333300  0.33445300  1
  Ba  Ba1  1  0.33333300  0.66666700  0.66554700  1
  Ba  Ba2  1  0.00000000  0.00000000  0.00000000  1
  Nb  Nb3  1  0.33333300  0.66666700  0.17726500  1
  Nb  Nb4  1  0.66666700  0.33333300  0.82273500  1
  Zn  Zn5  1  0.00000000  0.00000000  0.50000000  1
  O  O6  1  0.82801000  0.17199000  0.67551000  1
  O  O7  1  0.82801000  0.65602000  0.67551000  1
  O  O8  1  0.34398000  0.17199000  0.67551000  1
  O  O9  1  0.65602000  0.82801000  0.32449000  1
  O  O10  1  0.17199000  0.34398000  0.32449000  1
  O  O11  1  0.17199000  0.82801000  0.32449000  1
  O  O12  1  0.50000000  0.00000000  0.00000000  1
  O  O13  1  0.00000000  0.50000000  0.00000000  1
  O  O14  1  0.50000000  0.50000000  0.00000000  1
