# generated using pymatgen
data_TcAgO4
_symmetry_space_group_name_H-M   'P 1'
_cell_length_a   7.04956909
_cell_length_b   7.04956909
_cell_length_c   7.04956909
_cell_angle_alpha   134.66045293
_cell_angle_beta   134.66045293
_cell_angle_gamma   66.05823922
_symmetry_Int_Tables_number   1
_chemical_formula_structural   TcAgO4
_chemical_formula_sum   'Tc2 Ag2 O8'
_cell_volume   174.52699457
_cell_formula_units_Z   2
loop_
 _symmetry_equiv_pos_site_id
 _symmetry_equiv_pos_as_xyz
  1  'x, y, z'
loop_
 _atom_site_type_symbol
 _atom_site_label
 _atom_site_symmetry_multiplicity
 _atom_site_fract_x
 _atom_site_fract_y
 _atom_site_fract_z
 _atom_site_occupancy
  Tc  Tc0  1  0.50000000  0.50000000  0.00000000  1
  Tc  Tc1  1  0.25000000  0.75000000  0.50000000  1
  Ag  Ag2  1  0.00000000  0.00000000  0.00000000  1
  Ag  Ag3  1  0.75000000  0.25000000  0.50000000  1
  O  O4  1  0.18437400  0.28576500  0.63660100  1
  O  O5  1  0.29777300  0.43437400  0.39860900  1
  O  O6  1  0.03576500  0.89916400  0.60139100  1
  O  O7  1  0.64916400  0.54777300  0.36339900  1
  O  O8  1  0.10083600  0.70222700  0.13660100  1
  O  O9  1  0.71423500  0.35083600  0.89860900  1
  O  O10  1  0.45222700  0.81562600  0.10139100  1
  O  O11  1  0.56562600  0.96423500  0.86339900  1
