# generated using pymatgen
data_K3Ta8O21
_symmetry_space_group_name_H-M   'P 1'
_cell_length_a   9.24753901
_cell_length_b   9.24753901
_cell_length_c   12.21774000
_cell_angle_alpha   90.00000000
_cell_angle_beta   90.00000000
_cell_angle_gamma   120.00000725
_symmetry_Int_Tables_number   1
_chemical_formula_structural   K3Ta8O21
_chemical_formula_sum   'K6 Ta16 O42'
_cell_volume   904.84423386
_cell_formula_units_Z   2
loop_
 _symmetry_equiv_pos_site_id
 _symmetry_equiv_pos_as_xyz
  1  'x, y, z'
loop_
 _atom_site_type_symbol
 _atom_site_label
 _atom_site_symmetry_multiplicity
 _atom_site_fract_x
 _atom_site_fract_y
 _atom_site_fract_z
 _atom_site_occupancy
  K  K0  1  0.00000000  0.58998300  0.25000000  1
  K  K1  1  0.00000000  0.41001700  0.75000000  1
  K  K2  1  0.41001700  0.41001700  0.25000000  1
  K  K3  1  0.58998300  0.58998300  0.75000000  1
  K  K4  1  0.41001700  0.00000000  0.75000000  1
  K  K5  1  0.58998300  0.00000000  0.25000000  1
  Ta  Ta6  1  0.00000000  0.75252500  0.59450700  1
  Ta  Ta7  1  0.00000000  0.75252500  0.90549300  1
  Ta  Ta8  1  0.00000000  0.24747500  0.40549300  1
  Ta  Ta9  1  0.00000000  0.24747500  0.09450700  1
  Ta  Ta10  1  0.33333300  0.66666700  0.50000000  1
  Ta  Ta11  1  0.33333300  0.66666700  0.00000000  1
  Ta  Ta12  1  0.24747500  0.24747500  0.90549300  1
  Ta  Ta13  1  0.24747500  0.24747500  0.59450700  1
  Ta  Ta14  1  0.24747500  0.00000000  0.09450700  1
  Ta  Ta15  1  0.24747500  0.00000000  0.40549300  1
  Ta  Ta16  1  0.75252500  0.75252500  0.09450700  1
  Ta  Ta17  1  0.75252500  0.75252500  0.40549300  1
  Ta  Ta18  1  0.66666700  0.33333300  0.50000000  1
  Ta  Ta19  1  0.66666700  0.33333300  0.00000000  1
  Ta  Ta20  1  0.75252500  0.00000000  0.59450700  1
  Ta  Ta21  1  0.75252500  0.00000000  0.90549300  1
  O  O22  1  0.00000000  0.80163400  0.07391200  1
  O  O23  1  0.00000000  0.80163400  0.42608800  1
  O  O24  1  0.00000000  0.79098700  0.75000000  1
  O  O25  1  0.16789600  0.68683900  0.90551700  1
  O  O26  1  0.16789600  0.68683900  0.59448300  1
  O  O27  1  0.00000000  0.20901300  0.25000000  1
  O  O28  1  0.31316100  0.83210400  0.09448300  1
  O  O29  1  0.31316100  0.83210400  0.40551700  1
  O  O30  1  0.00000000  0.19836600  0.57391200  1
  O  O31  1  0.00000000  0.19836600  0.92608800  1
  O  O32  1  0.16789600  0.48105700  0.09448300  1
  O  O33  1  0.16789600  0.48105700  0.40551700  1
  O  O34  1  0.31316100  0.48105700  0.90551700  1
  O  O35  1  0.31316100  0.48105700  0.59448300  1
  O  O36  1  0.19836600  0.19836600  0.07391200  1
  O  O37  1  0.19836600  0.19836600  0.42608800  1
  O  O38  1  0.51894300  0.83210400  0.59448300  1
  O  O39  1  0.51894300  0.83210400  0.90551700  1
  O  O40  1  0.20901300  0.20901300  0.75000000  1
  O  O41  1  0.51894300  0.68683900  0.40551700  1
  O  O42  1  0.51894300  0.68683900  0.09448300  1
  O  O43  1  0.19836600  0.00000000  0.92608800  1
  O  O44  1  0.19836600  0.00000000  0.57391200  1
  O  O45  1  0.20901300  0.00000000  0.25000000  1
  O  O46  1  0.48105700  0.31316100  0.90551700  1
  O  O47  1  0.48105700  0.31316100  0.59448300  1
  O  O48  1  0.79098700  0.79098700  0.25000000  1
  O  O49  1  0.48105700  0.16789600  0.09448300  1
  O  O50  1  0.48105700  0.16789600  0.40551700  1
  O  O51  1  0.80163400  0.80163400  0.57391200  1
  O  O52  1  0.80163400  0.80163400  0.92608800  1
  O  O53  1  0.68683900  0.51894300  0.09448300  1
  O  O54  1  0.68683900  0.51894300  0.40551700  1
  O  O55  1  0.83210400  0.51894300  0.59448300  1
  O  O56  1  0.83210400  0.51894300  0.90551700  1
  O  O57  1  0.68683900  0.16789600  0.59448300  1
  O  O58  1  0.68683900  0.16789600  0.90551700  1
  O  O59  1  0.83210400  0.31316100  0.40551700  1
  O  O60  1  0.83210400  0.31316100  0.09448300  1
  O  O61  1  0.79098700  0.00000000  0.75000000  1
  O  O62  1  0.80163400  0.00000000  0.42608800  1
  O  O63  1  0.80163400  0.00000000  0.07391200  1
