# generated using pymatgen
data_CsCeS2
_symmetry_space_group_name_H-M   'P 1'
_cell_length_a   8.43639255
_cell_length_b   8.43639255
_cell_length_c   8.43639264
_cell_angle_alpha   29.38267178
_cell_angle_beta   29.38267178
_cell_angle_gamma   29.38267687
_symmetry_Int_Tables_number   1
_chemical_formula_structural   CsCeS2
_chemical_formula_sum   'Cs1 Ce1 S2'
_cell_volume   127.91749859
_cell_formula_units_Z   1
loop_
 _symmetry_equiv_pos_site_id
 _symmetry_equiv_pos_as_xyz
  1  'x, y, z'
loop_
 _atom_site_type_symbol
 _atom_site_label
 _atom_site_symmetry_multiplicity
 _atom_site_fract_x
 _atom_site_fract_y
 _atom_site_fract_z
 _atom_site_occupancy
  Cs  Cs0  1  0.00000000  0.00000000  0.00000000  1
  Ce  Ce1  1  0.50000000  0.50000000  0.50000000  1
  S  S2  1  0.77169800  0.77169800  0.77169800  1
  S  S3  1  0.22830200  0.22830200  0.22830200  1
