# generated using pymatgen
data_Al2HgS4
_symmetry_space_group_name_H-M   'P 1'
_cell_length_a   6.51838457
_cell_length_b   6.51838457
_cell_length_c   6.51838457
_cell_angle_alpha   128.79592737
_cell_angle_beta   128.79592737
_cell_angle_gamma   75.33915754
_symmetry_Int_Tables_number   1
_chemical_formula_structural   Al2HgS4
_chemical_formula_sum   'Al2 Hg1 S4'
_cell_volume   163.74255369
_cell_formula_units_Z   1
loop_
 _symmetry_equiv_pos_site_id
 _symmetry_equiv_pos_as_xyz
  1  'x, y, z'
loop_
 _atom_site_type_symbol
 _atom_site_label
 _atom_site_symmetry_multiplicity
 _atom_site_fract_x
 _atom_site_fract_y
 _atom_site_fract_z
 _atom_site_occupancy
  Al  Al0  1  0.25000000  0.75000000  0.50000000  1
  Al  Al1  1  0.50000000  0.50000000  0.00000000  1
  Hg  Hg2  1  0.00000000  0.00000000  0.00000000  1
  S  S3  1  0.86845400  0.41681200  0.01446800  1
  S  S4  1  0.40234400  0.85398600  0.98553200  1
  S  S5  1  0.14601400  0.13154600  0.54835800  1
  S  S6  1  0.58318800  0.59765600  0.45164200  1
