# generated using pymatgen
data_Y4H9NO13
_symmetry_space_group_name_H-M   'P 1'
_cell_length_a   16.66607800
_cell_length_b   3.66030200
_cell_length_c   9.47365245
_cell_angle_alpha   80.05649717
_cell_angle_beta   90.00000000
_cell_angle_gamma   90.00000000
_symmetry_Int_Tables_number   1
_chemical_formula_structural   Y4H9NO13
_chemical_formula_sum   'Y8 H18 N2 O26'
_cell_volume   569.23884554
_cell_formula_units_Z   2
loop_
 _symmetry_equiv_pos_site_id
 _symmetry_equiv_pos_as_xyz
  1  'x, y, z'
loop_
 _atom_site_type_symbol
 _atom_site_label
 _atom_site_symmetry_multiplicity
 _atom_site_fract_x
 _atom_site_fract_y
 _atom_site_fract_z
 _atom_site_occupancy
  Y  Y0  1  0.50057200  0.63113900  0.73101300  1
  Y  Y1  1  0.00057200  0.36886100  0.26898700  1
  Y  Y2  1  0.79027400  0.88197400  0.26816400  1
  Y  Y3  1  0.29027400  0.11802600  0.73183600  1
  Y  Y4  1  0.68963700  0.54667600  0.93934200  1
  Y  Y5  1  0.18963700  0.45332400  0.06065800  1
  Y  Y6  1  0.68217200  0.19945900  0.59653300  1
  Y  Y7  1  0.18217200  0.80054100  0.40346700  1
  H  H8  1  0.52395400  0.52082600  0.04232600  1
  H  H9  1  0.02395400  0.47917400  0.95767400  1
  H  H10  1  0.81084500  0.08990500  0.82519500  1
  H  H11  1  0.31084500  0.91009500  0.17480500  1
  H  H12  1  0.51147800  0.26538900  0.48579200  1
  H  H13  1  0.01147800  0.73461100  0.51420800  1
  H  H14  1  0.64932200  0.33473100  0.29336100  1
  H  H15  1  0.14932200  0.66526900  0.70663900  1
  H  H16  1  0.85334800  0.46800500  0.04974400  1
  H  H17  1  0.35334800  0.53199500  0.95025600  1
  H  H18  1  0.62018200  0.95739100  0.13867500  1
  H  H19  1  0.12018200  0.04260900  0.86132500  1
  H  H20  1  0.81911000  0.70946400  0.59372300  1
  H  H21  1  0.31911000  0.29053600  0.40627700  1
  H  H22  1  0.94015900  0.95800300  0.06518600  1
  H  H23  1  0.44015900  0.04199700  0.93481400  1
  H  H24  1  0.86385700  0.32071800  0.46681100  1
  H  H25  1  0.36385700  0.67928200  0.53318900  1
  N  N26  1  0.96084200  0.17472200  0.74681700  1
  N  N27  1  0.46084200  0.82527800  0.25318300  1
  O  O28  1  0.55438200  0.55206700  0.95419800  1
  O  O29  1  0.05438200  0.44793300  0.04580200  1
  O  O30  1  0.63632900  0.64474000  0.71363400  1
  O  O31  1  0.13632900  0.35526000  0.28636600  1
  O  O32  1  0.75164700  0.10052200  0.81766400  1
  O  O33  1  0.25164700  0.89947800  0.18233600  1
  O  O34  1  0.53668900  0.19050100  0.57962700  1
  O  O35  1  0.03668900  0.80949900  0.42037300  1
  O  O36  1  0.69807000  0.33553600  0.34906600  1
  O  O37  1  0.19807000  0.66446400  0.65093400  1
  O  O38  1  0.80022000  0.46404100  0.09242600  1
  O  O39  1  0.30022000  0.53595900  0.90757400  1
  O  O40  1  0.67415300  0.97259000  0.09771100  1
  O  O41  1  0.17415300  0.02741000  0.90228900  1
  O  O42  1  0.77170800  0.74463900  0.53245400  1
  O  O43  1  0.27170800  0.25536100  0.46754600  1
  O  O44  1  0.93192100  0.91595000  0.16856300  1
  O  O45  1  0.43192100  0.08405000  0.83143700  1
  O  O46  1  0.86841200  0.34205300  0.36352600  1
  O  O47  1  0.36841200  0.65794700  0.63647400  1
  O  O48  1  0.91894800  0.04296500  0.85631900  1
  O  O49  1  0.41894800  0.95703500  0.14368100  1
  O  O50  1  0.03208300  0.06523500  0.73466800  1
  O  O51  1  0.53208300  0.93476500  0.26533200  1
  O  O52  1  0.93068600  0.41645600  0.64929400  1
  O  O53  1  0.43068600  0.58354400  0.35070600  1
