# generated using pymatgen
data_CaFeSn(PO4)3
_symmetry_space_group_name_H-M   'P 1'
_cell_length_a   8.96791799
_cell_length_b   8.96791799
_cell_length_c   8.96791802
_cell_angle_alpha   58.14976364
_cell_angle_beta   58.14976364
_cell_angle_gamma   58.14976126
_symmetry_Int_Tables_number   1
_chemical_formula_structural   CaFeSn(PO4)3
_chemical_formula_sum   'Ca2 Fe2 Sn2 P6 O24'
_cell_volume   488.36041475
_cell_formula_units_Z   2
loop_
 _symmetry_equiv_pos_site_id
 _symmetry_equiv_pos_as_xyz
  1  'x, y, z'
loop_
 _atom_site_type_symbol
 _atom_site_label
 _atom_site_symmetry_multiplicity
 _atom_site_fract_x
 _atom_site_fract_y
 _atom_site_fract_z
 _atom_site_occupancy
  Ca  Ca0  1  0.99719100  0.99719100  0.99719100  1
  Ca  Ca1  1  0.49719100  0.49719100  0.49719100  1
  Fe  Fe2  1  0.35226500  0.35226500  0.35226500  1
  Fe  Fe3  1  0.85226500  0.85226500  0.85226500  1
  Sn  Sn4  1  0.14757600  0.14757600  0.14757600  1
  Sn  Sn5  1  0.64757600  0.64757600  0.64757600  1
  P  P6  1  0.74822800  0.04515000  0.46044300  1
  P  P7  1  0.04515000  0.46044300  0.74822800  1
  P  P8  1  0.46044300  0.74822800  0.04515000  1
  P  P9  1  0.54515000  0.24822800  0.96044300  1
  P  P10  1  0.96044300  0.54515000  0.24822800  1
  P  P11  1  0.24822800  0.96044300  0.54515000  1
  O  O12  1  0.29171100  0.12179400  0.50834700  1
  O  O13  1  0.50834700  0.29171100  0.12179400  1
  O  O14  1  0.91775100  0.06427000  0.27065000  1
  O  O15  1  0.12179400  0.50834700  0.29171100  1
  O  O16  1  0.79171100  0.00834700  0.62179400  1
  O  O17  1  0.58010700  0.22952200  0.43811600  1
  O  O18  1  0.06427000  0.27065000  0.91775100  1
  O  O19  1  0.22952200  0.43811600  0.58010700  1
  O  O20  1  0.43811600  0.58010700  0.22952200  1
  O  O21  1  0.38348400  0.21147400  0.98192100  1
  O  O22  1  0.72952200  0.08010700  0.93811600  1
  O  O23  1  0.98192100  0.38348400  0.21147400  1
  O  O24  1  0.00834700  0.62179400  0.79171100  1
  O  O25  1  0.27065000  0.91775100  0.06427000  1
  O  O26  1  0.62179400  0.79171100  0.00834700  1
  O  O27  1  0.56427000  0.41775100  0.77065000  1
  O  O28  1  0.77065000  0.56427000  0.41775100  1
  O  O29  1  0.93811600  0.72952200  0.08010700  1
  O  O30  1  0.41775100  0.77065000  0.56427000  1
  O  O31  1  0.21147400  0.98192100  0.38348400  1
  O  O32  1  0.88348400  0.48192100  0.71147400  1
  O  O33  1  0.08010700  0.93811600  0.72952200  1
  O  O34  1  0.48192100  0.71147400  0.88348400  1
  O  O35  1  0.71147400  0.88348400  0.48192100  1
