# generated using pymatgen
data_CaPdF6
_symmetry_space_group_name_H-M   'P 1'
_cell_length_a   5.81178146
_cell_length_b   5.81178146
_cell_length_c   5.81178092
_cell_angle_alpha   55.03706423
_cell_angle_beta   55.03706423
_cell_angle_gamma   55.03705776
_symmetry_Int_Tables_number   1
_chemical_formula_structural   CaPdF6
_chemical_formula_sum   'Ca1 Pd1 F6'
_cell_volume   122.78142731
_cell_formula_units_Z   1
loop_
 _symmetry_equiv_pos_site_id
 _symmetry_equiv_pos_as_xyz
  1  'x, y, z'
loop_
 _atom_site_type_symbol
 _atom_site_label
 _atom_site_symmetry_multiplicity
 _atom_site_fract_x
 _atom_site_fract_y
 _atom_site_fract_z
 _atom_site_occupancy
  Ca  Ca0  1  0.50000000  0.50000000  0.50000000  1
  Pd  Pd1  1  0.00000000  0.00000000  0.00000000  1
  F  F2  1  0.08389900  0.36822500  0.77931400  1
  F  F3  1  0.77931400  0.08389900  0.36822500  1
  F  F4  1  0.63177500  0.22068600  0.91610100  1
  F  F5  1  0.22068600  0.91610100  0.63177500  1
  F  F6  1  0.91610100  0.63177500  0.22068600  1
  F  F7  1  0.36822500  0.77931400  0.08389900  1
