# generated using pymatgen
data_Dy2WO6
_symmetry_space_group_name_H-M   'P 1'
_cell_length_a   5.39953500
_cell_length_b   7.70792900
_cell_length_c   11.48583223
_cell_angle_alpha   75.47027691
_cell_angle_beta   90.00000000
_cell_angle_gamma   90.00000000
_symmetry_Int_Tables_number   1
_chemical_formula_structural   Dy2WO6
_chemical_formula_sum   'Dy8 W4 O24'
_cell_volume   462.74293615
_cell_formula_units_Z   4
loop_
 _symmetry_equiv_pos_site_id
 _symmetry_equiv_pos_as_xyz
  1  'x, y, z'
loop_
 _atom_site_type_symbol
 _atom_site_label
 _atom_site_symmetry_multiplicity
 _atom_site_fract_x
 _atom_site_fract_y
 _atom_site_fract_z
 _atom_site_occupancy
  Dy  Dy0  1  0.73794900  0.00000000  0.75000000  1
  Dy  Dy1  1  0.26205100  0.00000000  0.25000000  1
  Dy  Dy2  1  0.18820800  0.79674000  0.57786700  1
  Dy  Dy3  1  0.81179200  0.79674000  0.07786700  1
  Dy  Dy4  1  0.68370100  0.50000000  0.75000000  1
  Dy  Dy5  1  0.31629900  0.50000000  0.25000000  1
  Dy  Dy6  1  0.18820800  0.20326000  0.92213300  1
  Dy  Dy7  1  0.81179200  0.20326000  0.42213300  1
  W  W8  1  0.25422100  0.72151200  0.88631500  1
  W  W9  1  0.74577900  0.72151200  0.38631500  1
  W  W10  1  0.25422100  0.27848800  0.61368500  1
  W  W11  1  0.74577900  0.27848800  0.11368500  1
  O  O12  1  0.03875000  0.93844700  0.89587300  1
  O  O13  1  0.52614200  0.85113100  0.93084600  1
  O  O14  1  0.96125000  0.93844700  0.39587300  1
  O  O15  1  0.46343900  0.78662700  0.72826700  1
  O  O16  1  0.47385800  0.85113100  0.43084600  1
  O  O17  1  0.98523900  0.70948000  0.77104800  1
  O  O18  1  0.53656100  0.78662700  0.22826700  1
  O  O19  1  0.85224300  0.63404500  0.54819900  1
  O  O20  1  0.36362600  0.48942100  0.88762800  1
  O  O21  1  0.01476100  0.70948000  0.27104800  1
  O  O22  1  0.36362600  0.51057900  0.61237200  1
  O  O23  1  0.85224300  0.36595500  0.95180100  1
  O  O24  1  0.14775700  0.63404500  0.04819900  1
  O  O25  1  0.63637400  0.48942100  0.38762800  1
  O  O26  1  0.98523900  0.29052000  0.72895200  1
  O  O27  1  0.63637400  0.51057900  0.11237200  1
  O  O28  1  0.14775700  0.36595500  0.45180100  1
  O  O29  1  0.46343900  0.21337300  0.77173300  1
  O  O30  1  0.01476100  0.29052000  0.22895200  1
  O  O31  1  0.52614200  0.14886900  0.56915400  1
  O  O32  1  0.53656100  0.21337300  0.27173300  1
  O  O33  1  0.03875000  0.06155300  0.60412700  1
  O  O34  1  0.47385800  0.14886900  0.06915400  1
  O  O35  1  0.96125000  0.06155300  0.10412700  1
