# generated using pymatgen
data_Ba2CaP4(H3O8)2
_symmetry_space_group_name_H-M   'P 1'
_cell_length_a   10.38231700
_cell_length_b   5.55757500
_cell_length_c   12.42323451
_cell_angle_alpha   79.53416237
_cell_angle_beta   90.00000000
_cell_angle_gamma   90.00000000
_symmetry_Int_Tables_number   1
_chemical_formula_structural   Ba2CaP4(H3O8)2
_chemical_formula_sum   'Ba4 Ca2 P8 H12 O32'
_cell_volume   704.90134006
_cell_formula_units_Z   2
loop_
 _symmetry_equiv_pos_site_id
 _symmetry_equiv_pos_as_xyz
  1  'x, y, z'
loop_
 _atom_site_type_symbol
 _atom_site_label
 _atom_site_symmetry_multiplicity
 _atom_site_fract_x
 _atom_site_fract_y
 _atom_site_fract_z
 _atom_site_occupancy
  Ba  Ba0  1  0.65505200  0.85889600  0.82107000  1
  Ba  Ba1  1  0.84494800  0.85889600  0.32107000  1
  Ba  Ba2  1  0.15505200  0.14110400  0.67893000  1
  Ba  Ba3  1  0.34494800  0.14110400  0.17893000  1
  Ca  Ca4  1  0.50000000  0.00000000  0.50000000  1
  Ca  Ca5  1  0.00000000  0.00000000  0.00000000  1
  P  P6  1  0.30615400  0.76608000  0.94566800  1
  P  P7  1  0.19384600  0.76608000  0.44566800  1
  P  P8  1  0.99264200  0.58871100  0.79825800  1
  P  P9  1  0.50735800  0.58871100  0.29825800  1
  P  P10  1  0.49264200  0.41128900  0.70174200  1
  P  P11  1  0.00735800  0.41128900  0.20174200  1
  P  P12  1  0.80615400  0.23392000  0.55433200  1
  P  P13  1  0.69384600  0.23392000  0.05433200  1
  H  H14  1  0.03359000  0.71136900  0.56481100  1
  H  H15  1  0.32718100  0.61361500  0.75836200  1
  H  H16  1  0.18596900  0.43862800  0.93913900  1
  H  H17  1  0.68596900  0.56137200  0.56086100  1
  H  H18  1  0.46641000  0.71136900  0.06481100  1
  H  H19  1  0.82718100  0.38638500  0.74163800  1
  H  H20  1  0.17281900  0.61361500  0.25836200  1
  H  H21  1  0.53359000  0.28863100  0.93518900  1
  H  H22  1  0.31403100  0.43862800  0.43913900  1
  H  H23  1  0.81403100  0.56137200  0.06086100  1
  H  H24  1  0.67281900  0.38638500  0.24163800  1
  H  H25  1  0.96641000  0.28863100  0.43518900  1
  O  O26  1  0.30499100  0.83378900  0.82124300  1
  O  O27  1  0.99194000  0.81924100  0.84864000  1
  O  O28  1  0.45361800  0.76251500  0.98103900  1
  O  O29  1  0.27085300  0.93060100  0.50730100  1
  O  O30  1  0.19500900  0.83378900  0.32124300  1
  O  O31  1  0.50806000  0.81924100  0.34864000  1
  O  O32  1  0.04638200  0.76251500  0.48103900  1
  O  O33  1  0.22914700  0.93060100  0.00730100  1
  O  O34  1  0.05827300  0.63196400  0.68493400  1
  O  O35  1  0.55717200  0.63511000  0.62845100  1
  O  O36  1  0.26329500  0.48536400  0.98122700  1
  O  O37  1  0.84341200  0.52847600  0.78169500  1
  O  O38  1  0.34341200  0.47152400  0.71830500  1
  O  O39  1  0.76329500  0.51463600  0.51877300  1
  O  O40  1  0.05717200  0.36489000  0.87154900  1
  O  O41  1  0.55827300  0.36803600  0.81506600  1
  O  O42  1  0.44172700  0.63196400  0.18493400  1
  O  O43  1  0.94282800  0.63511000  0.12845100  1
  O  O44  1  0.23670500  0.48536400  0.48122700  1
  O  O45  1  0.65658800  0.52847600  0.28169500  1
  O  O46  1  0.15658800  0.47152400  0.21830500  1
  O  O47  1  0.73670500  0.51463600  0.01877300  1
  O  O48  1  0.44282800  0.36489000  0.37154900  1
  O  O49  1  0.94172700  0.36803600  0.31506600  1
  O  O50  1  0.77085300  0.06939900  0.99269900  1
  O  O51  1  0.95361800  0.23748500  0.51896100  1
  O  O52  1  0.49194000  0.18075900  0.65136000  1
  O  O53  1  0.80499100  0.16621100  0.67875700  1
  O  O54  1  0.72914700  0.06939900  0.49269900  1
  O  O55  1  0.54638200  0.23748500  0.01896100  1
  O  O56  1  0.00806000  0.18075900  0.15136000  1
  O  O57  1  0.69500900  0.16621100  0.17875700  1
