# generated using pymatgen
data_NbVO5
_symmetry_space_group_name_H-M   'P 1'
_cell_length_a   5.63166200
_cell_length_b   7.11290100
_cell_length_c   12.14019100
_cell_angle_alpha   90.00000000
_cell_angle_beta   90.00000000
_cell_angle_gamma   90.00000000
_symmetry_Int_Tables_number   1
_chemical_formula_structural   NbVO5
_chemical_formula_sum   'Nb4 V4 O20'
_cell_volume   486.30514583
_cell_formula_units_Z   4
loop_
 _symmetry_equiv_pos_site_id
 _symmetry_equiv_pos_as_xyz
  1  'x, y, z'
loop_
 _atom_site_type_symbol
 _atom_site_label
 _atom_site_symmetry_multiplicity
 _atom_site_fract_x
 _atom_site_fract_y
 _atom_site_fract_z
 _atom_site_occupancy
  Nb  Nb0  1  0.75000000  0.84308500  0.05891600  1
  Nb  Nb1  1  0.25000000  0.34308500  0.44108400  1
  Nb  Nb2  1  0.75000000  0.65691500  0.55891600  1
  Nb  Nb3  1  0.25000000  0.15691500  0.94108400  1
  V  V4  1  0.25000000  0.52827500  0.15411900  1
  V  V5  1  0.75000000  0.02827500  0.34588100  1
  V  V6  1  0.25000000  0.97172500  0.65411900  1
  V  V7  1  0.75000000  0.47172500  0.84588100  1
  O  O8  1  0.00000000  0.00000000  0.00000000  1
  O  O9  1  0.50000000  0.00000000  0.00000000  1
  O  O10  1  0.25000000  0.32327800  0.07453600  1
  O  O11  1  0.00005700  0.65676000  0.12475700  1
  O  O12  1  0.49994300  0.65676000  0.12475700  1
  O  O13  1  0.75000000  0.96565000  0.20488000  1
  O  O14  1  0.25000000  0.46565000  0.29512000  1
  O  O15  1  0.99994300  0.15676000  0.37524300  1
  O  O16  1  0.50005700  0.15676000  0.37524300  1
  O  O17  1  0.75000000  0.82327800  0.42546400  1
  O  O18  1  0.00000000  0.50000000  0.50000000  1
  O  O19  1  0.50000000  0.50000000  0.50000000  1
  O  O20  1  0.25000000  0.17672200  0.57453600  1
  O  O21  1  0.00005700  0.84324000  0.62475700  1
  O  O22  1  0.49994300  0.84324000  0.62475700  1
  O  O23  1  0.75000000  0.53435000  0.70488000  1
  O  O24  1  0.25000000  0.03435000  0.79512000  1
  O  O25  1  0.50005700  0.34324000  0.87524300  1
  O  O26  1  0.99994300  0.34324000  0.87524300  1
  O  O27  1  0.75000000  0.67672200  0.92546400  1
