# generated using pymatgen
data_Na2CrPCO7
_symmetry_space_group_name_H-M   'P 1'
_cell_length_a   5.24091795
_cell_length_b   11.13706096
_cell_length_c   11.13647260
_cell_angle_alpha   108.09231274
_cell_angle_beta   91.44241203
_cell_angle_gamma   88.55516261
_symmetry_Int_Tables_number   1
_chemical_formula_structural   Na2CrPCO7
_chemical_formula_sum   'Na8 Cr4 P4 C4 O28'
_cell_volume   617.58043252
_cell_formula_units_Z   4
loop_
 _symmetry_equiv_pos_site_id
 _symmetry_equiv_pos_as_xyz
  1  'x, y, z'
loop_
 _atom_site_type_symbol
 _atom_site_label
 _atom_site_symmetry_multiplicity
 _atom_site_fract_x
 _atom_site_fract_y
 _atom_site_fract_z
 _atom_site_occupancy
  Na  Na0  1  0.23866200  0.36192800  0.12931100  1
  Na  Na1  1  0.23889700  0.86193100  0.62925000  1
  Na  Na2  1  0.23887400  0.12074300  0.88802200  1
  Na  Na3  1  0.23868600  0.62066100  0.38800500  1
  Na  Na4  1  0.76090800  0.63806200  0.87072100  1
  Na  Na5  1  0.76102600  0.13800200  0.37077000  1
  Na  Na6  1  0.76099100  0.87928400  0.11187100  1
  Na  Na7  1  0.76105600  0.37924100  0.61204700  1
  Cr  Cr8  1  0.78612200  0.05077900  0.69928400  1
  Cr  Cr9  1  0.21392600  0.94935300  0.30079300  1
  Cr  Cr10  1  0.78635500  0.55058400  0.19931500  1
  Cr  Cr11  1  0.21389900  0.44926400  0.80059000  1
  P  P12  1  0.71698400  0.33746300  0.91259100  1
  P  P13  1  0.71701100  0.83743700  0.41253000  1
  P  P14  1  0.28304000  0.66256600  0.08746800  1
  P  P15  1  0.28304400  0.16257800  0.58743400  1
  C  C16  1  0.72428200  0.41597500  0.33402500  1
  C  C17  1  0.72436300  0.91603200  0.83393200  1
  C  C18  1  0.27574600  0.58401300  0.66600000  1
  C  C19  1  0.27566500  0.08401300  0.16599100  1
  O  O20  1  0.30875400  0.15230600  0.09766400  1
  O  O21  1  0.30881200  0.65227900  0.59762400  1
  O  O22  1  0.69134900  0.84770600  0.90227100  1
  O  O23  1  0.69134800  0.34768000  0.40237500  1
  O  O24  1  0.94932900  0.44671000  0.30329800  1
  O  O25  1  0.94931600  0.94679700  0.80318700  1
  O  O26  1  0.05073800  0.55330300  0.69673900  1
  O  O27  1  0.05069800  0.05326900  0.19674300  1
  O  O28  1  0.53457600  0.46655800  0.28336200  1
  O  O29  1  0.53456700  0.96664400  0.78330600  1
  O  O30  1  0.46542000  0.53339800  0.71668000  1
  O  O31  1  0.46538300  0.03338700  0.21667300  1
  O  O32  1  0.14983300  0.58667300  0.16339700  1
  O  O33  1  0.14982600  0.08673300  0.66336400  1
  O  O34  1  0.85019100  0.41331800  0.83666300  1
  O  O35  1  0.85014100  0.91329400  0.33660800  1
  O  O36  1  0.42004700  0.35169800  0.89862000  1
  O  O37  1  0.42002000  0.85163900  0.39857200  1
  O  O38  1  0.57999600  0.64829300  0.10145800  1
  O  O39  1  0.58003600  0.14839000  0.60137300  1
  O  O40  1  0.79717400  0.19620200  0.86296700  1
  O  O41  1  0.79718700  0.69617600  0.36295800  1
  O  O42  1  0.79768300  0.38685800  0.05376800  1
  O  O43  1  0.79754400  0.88697000  0.55375300  1
  O  O44  1  0.20239600  0.61308900  0.94626400  1
  O  O45  1  0.20241900  0.11308800  0.44624000  1
  O  O46  1  0.20281900  0.80381300  0.13706200  1
  O  O47  1  0.20286100  0.30382100  0.63705900  1
