# generated using pymatgen
data_Ba4IrO6
_symmetry_space_group_name_H-M   'P 1'
_cell_length_a   7.35815423
_cell_length_b   7.35815423
_cell_length_c   7.35815429
_cell_angle_alpha   89.78389427
_cell_angle_beta   89.78389427
_cell_angle_gamma   89.78388811
_symmetry_Int_Tables_number   1
_chemical_formula_structural   Ba4IrO6
_chemical_formula_sum   'Ba8 Ir2 O12'
_cell_volume   398.37990017
_cell_formula_units_Z   2
loop_
 _symmetry_equiv_pos_site_id
 _symmetry_equiv_pos_as_xyz
  1  'x, y, z'
loop_
 _atom_site_type_symbol
 _atom_site_label
 _atom_site_symmetry_multiplicity
 _atom_site_fract_x
 _atom_site_fract_y
 _atom_site_fract_z
 _atom_site_occupancy
  Ba  Ba0  1  0.75000000  0.12009200  0.37990800  1
  Ba  Ba1  1  0.62009200  0.25000000  0.87990800  1
  Ba  Ba2  1  0.87990800  0.62009200  0.25000000  1
  Ba  Ba3  1  0.75000000  0.75000000  0.75000000  1
  Ba  Ba4  1  0.25000000  0.25000000  0.25000000  1
  Ba  Ba5  1  0.12009200  0.37990800  0.75000000  1
  Ba  Ba6  1  0.37990800  0.75000000  0.12009200  1
  Ba  Ba7  1  0.25000000  0.87990800  0.62009200  1
  Ir  Ir8  1  0.00000000  0.00000000  0.00000000  1
  Ir  Ir9  1  0.50000000  0.50000000  0.50000000  1
  O  O10  1  0.93028900  0.05945400  0.72943300  1
  O  O11  1  0.94054600  0.27056700  0.06971100  1
  O  O12  1  0.77056700  0.44054600  0.56971100  1
  O  O13  1  0.43028900  0.22943300  0.55945400  1
  O  O14  1  0.27056700  0.06971100  0.94054600  1
  O  O15  1  0.55945400  0.43028900  0.22943300  1
  O  O16  1  0.44054600  0.56971100  0.77056700  1
  O  O17  1  0.56971100  0.77056700  0.44054600  1
  O  O18  1  0.72943300  0.93028900  0.05945400  1
  O  O19  1  0.22943300  0.55945400  0.43028900  1
  O  O20  1  0.05945400  0.72943300  0.93028900  1
  O  O21  1  0.06971100  0.94054600  0.27056700  1
