# generated using pymatgen
data_TiP2H4O9
_symmetry_space_group_name_H-M   'P 1'
_cell_length_a   5.05859200
_cell_length_b   8.75582400
_cell_length_c   16.43686584
_cell_angle_alpha   70.16596652
_cell_angle_beta   90.00000000
_cell_angle_gamma   90.00000000
_symmetry_Int_Tables_number   1
_chemical_formula_structural   TiP2H4O9
_chemical_formula_sum   'Ti4 P8 H16 O36'
_cell_volume   684.83715956
_cell_formula_units_Z   4
loop_
 _symmetry_equiv_pos_site_id
 _symmetry_equiv_pos_as_xyz
  1  'x, y, z'
loop_
 _atom_site_type_symbol
 _atom_site_label
 _atom_site_symmetry_multiplicity
 _atom_site_fract_x
 _atom_site_fract_y
 _atom_site_fract_z
 _atom_site_occupancy
  Ti  Ti0  1  0.75213800  0.24136500  0.01130800  1
  Ti  Ti1  1  0.74786200  0.24136500  0.51130800  1
  Ti  Ti2  1  0.24786200  0.75863500  0.98869200  1
  Ti  Ti3  1  0.25213800  0.75863500  0.48869200  1
  P  P4  1  0.25246000  0.00449500  0.10750200  1
  P  P5  1  0.24754000  0.00449500  0.60750200  1
  P  P6  1  0.74754000  0.99550500  0.89249800  1
  P  P7  1  0.75246000  0.99550500  0.39249800  1
  P  P8  1  0.74432900  0.53204100  0.09859800  1
  P  P9  1  0.75567100  0.53204100  0.59859800  1
  P  P10  1  0.25567100  0.46795900  0.90140200  1
  P  P11  1  0.24432900  0.46795900  0.40140200  1
  H  H12  1  0.42441800  0.84808300  0.22975300  1
  H  H13  1  0.07558200  0.84808300  0.72975300  1
  H  H14  1  0.57558200  0.15191700  0.77024700  1
  H  H15  1  0.92441800  0.15191700  0.27024700  1
  H  H16  1  0.73440300  0.57903500  0.22263700  1
  H  H17  1  0.76559700  0.57903500  0.72263700  1
  H  H18  1  0.26559700  0.42096500  0.77736300  1
  H  H19  1  0.23440300  0.42096500  0.27736300  1
  H  H20  1  0.38127000  0.19666000  0.25022300  1
  H  H21  1  0.11873000  0.19666000  0.75022300  1
  H  H22  1  0.61873000  0.80334000  0.74977700  1
  H  H23  1  0.88127000  0.80334000  0.24977700  1
  H  H24  1  0.19549300  0.30066000  0.17524100  1
  H  H25  1  0.30450700  0.30066000  0.67524100  1
  H  H26  1  0.80450700  0.69934000  0.82475900  1
  H  H27  1  0.69549300  0.69934000  0.32475900  1
  O  O28  1  0.33163800  0.88601900  0.06097800  1
  O  O29  1  0.16836200  0.88601900  0.56097800  1
  O  O30  1  0.66836200  0.11398100  0.93902200  1
  O  O31  1  0.83163800  0.11398100  0.43902200  1
  O  O32  1  0.96673200  0.06407400  0.08899100  1
  O  O33  1  0.53326800  0.06407400  0.58899100  1
  O  O34  1  0.03326800  0.93592600  0.91100900  1
  O  O35  1  0.46673200  0.93592600  0.41100900  1
  O  O36  1  0.44752700  0.14782400  0.08653800  1
  O  O37  1  0.05247300  0.14782400  0.58653800  1
  O  O38  1  0.55247300  0.85217600  0.91346200  1
  O  O39  1  0.94752700  0.85217600  0.41346200  1
  O  O40  1  0.25462100  0.90883700  0.20856300  1
  O  O41  1  0.24537900  0.90883700  0.70856300  1
  O  O42  1  0.74537900  0.09116300  0.79143700  1
  O  O43  1  0.75462100  0.09116300  0.29143700  1
  O  O44  1  0.93754000  0.67332300  0.05866700  1
  O  O45  1  0.56246000  0.67332300  0.55866700  1
  O  O46  1  0.06246000  0.32667700  0.94133300  1
  O  O47  1  0.43754000  0.32667700  0.44133300  1
  O  O48  1  0.46264600  0.58000800  0.06363900  1
  O  O49  1  0.03735400  0.58000800  0.56363900  1
  O  O50  1  0.53735400  0.41999200  0.93636100  1
  O  O51  1  0.96264600  0.41999200  0.43636100  1
  O  O52  1  0.83542300  0.37533700  0.08430900  1
  O  O53  1  0.66457700  0.37533700  0.58430900  1
  O  O54  1  0.16457700  0.62466300  0.91569100  1
  O  O55  1  0.33542300  0.62466300  0.41569100  1
  O  O56  1  0.74629400  0.48646300  0.19983100  1
  O  O57  1  0.75370600  0.48646300  0.69983100  1
  O  O58  1  0.25370600  0.51353700  0.80016900  1
  O  O59  1  0.24629400  0.51353700  0.30016900  1
  O  O60  1  0.21505400  0.25865900  0.23848100  1
  O  O61  1  0.28494600  0.25865900  0.73848100  1
  O  O62  1  0.78494600  0.74134100  0.76151900  1
  O  O63  1  0.71505400  0.74134100  0.26151900  1
