# generated using pymatgen
data_K4Sb2O5
_symmetry_space_group_name_H-M   'P 1'
_cell_length_a   6.45030200
_cell_length_b   7.97489900
_cell_length_c   18.36148700
_cell_angle_alpha   90.00000000
_cell_angle_beta   90.00000000
_cell_angle_gamma   90.00000000
_symmetry_Int_Tables_number   1
_chemical_formula_structural   K4Sb2O5
_chemical_formula_sum   'K16 Sb8 O20'
_cell_volume   944.52419999
_cell_formula_units_Z   4
loop_
 _symmetry_equiv_pos_site_id
 _symmetry_equiv_pos_as_xyz
  1  'x, y, z'
loop_
 _atom_site_type_symbol
 _atom_site_label
 _atom_site_symmetry_multiplicity
 _atom_site_fract_x
 _atom_site_fract_y
 _atom_site_fract_z
 _atom_site_occupancy
  K  K0  1  0.25000000  0.62490600  0.84775800  1
  K  K1  1  0.75000000  0.62507700  0.98674000  1
  K  K2  1  0.75000000  0.62507700  0.65189900  1
  K  K3  1  0.25000000  0.62492400  0.51206700  1
  K  K4  1  0.25000000  0.87507600  0.01206700  1
  K  K5  1  0.75000000  0.87492300  0.15189900  1
  K  K6  1  0.25000000  0.87509400  0.34775800  1
  K  K7  1  0.75000000  0.87492300  0.48674000  1
  K  K8  1  0.25000000  0.12507700  0.84810100  1
  K  K9  1  0.75000000  0.12492400  0.98793300  1
  K  K10  1  0.75000000  0.12490600  0.65224200  1
  K  K11  1  0.25000000  0.12507700  0.51326000  1
  K  K12  1  0.25000000  0.37492300  0.34810100  1
  K  K13  1  0.75000000  0.37507600  0.48793300  1
  K  K14  1  0.75000000  0.37509400  0.15224200  1
  K  K15  1  0.25000000  0.37492300  0.01326000  1
  Sb  Sb16  1  0.25000000  0.62185000  0.16751100  1
  Sb  Sb17  1  0.75000000  0.62815900  0.33247600  1
  Sb  Sb18  1  0.75000000  0.87184100  0.83247600  1
  Sb  Sb19  1  0.25000000  0.87815000  0.66751100  1
  Sb  Sb20  1  0.25000000  0.12815900  0.16752400  1
  Sb  Sb21  1  0.75000000  0.12185000  0.33248900  1
  Sb  Sb22  1  0.25000000  0.37184100  0.66752400  1
  Sb  Sb23  1  0.75000000  0.37815000  0.83248900  1
  O  O24  1  0.75000000  0.62503100  0.80266000  1
  O  O25  1  0.47800700  0.62591900  0.09834700  1
  O  O26  1  0.52201200  0.62409700  0.40165100  1
  O  O27  1  0.02199300  0.62591900  0.09834700  1
  O  O28  1  0.97798800  0.62409700  0.40165100  1
  O  O29  1  0.75000000  0.87496900  0.30266000  1
  O  O30  1  0.02199300  0.87408100  0.59834700  1
  O  O31  1  0.47800700  0.87408100  0.59834700  1
  O  O32  1  0.97798800  0.87590300  0.90165100  1
  O  O33  1  0.52201200  0.87590300  0.90165100  1
  O  O34  1  0.52199300  0.12591900  0.40165300  1
  O  O35  1  0.02201200  0.12409700  0.09834900  1
  O  O36  1  0.47798800  0.12409700  0.09834900  1
  O  O37  1  0.97800700  0.12591900  0.40165300  1
  O  O38  1  0.25000000  0.12503100  0.69734000  1
  O  O39  1  0.02201200  0.37590300  0.59834900  1
  O  O40  1  0.47798800  0.37590300  0.59834900  1
  O  O41  1  0.52199300  0.37408100  0.90165300  1
  O  O42  1  0.97800700  0.37408100  0.90165300  1
  O  O43  1  0.25000000  0.37496900  0.19734000  1
