# generated using pymatgen
data_LuH6(ClO5)3
_symmetry_space_group_name_H-M   'P 1'
_cell_length_a   7.57200500
_cell_length_b   8.50178949
_cell_length_c   10.65389275
_cell_angle_alpha   79.66596565
_cell_angle_beta   78.40469728
_cell_angle_gamma   63.82220640
_symmetry_Int_Tables_number   1
_chemical_formula_structural   LuH6(ClO5)3
_chemical_formula_sum   'Lu2 H12 Cl6 O30'
_cell_volume   599.72257776
_cell_formula_units_Z   2
loop_
 _symmetry_equiv_pos_site_id
 _symmetry_equiv_pos_as_xyz
  1  'x, y, z'
loop_
 _atom_site_type_symbol
 _atom_site_label
 _atom_site_symmetry_multiplicity
 _atom_site_fract_x
 _atom_site_fract_y
 _atom_site_fract_z
 _atom_site_occupancy
  Lu  Lu0  1  0.78344000  0.01655400  0.25290400  1
  Lu  Lu1  1  0.21656000  0.98344600  0.74709600  1
  H  H2  1  0.05366100  0.29167100  0.55040600  1
  H  H3  1  0.14472000  0.17358100  0.97482900  1
  H  H4  1  0.19566200  0.28267200  0.84769200  1
  H  H5  1  0.36652800  0.29102800  0.29595000  1
  H  H6  1  0.42733800  0.26373100  0.14824700  1
  H  H7  1  0.10803000  0.78172100  0.39478200  1
  H  H8  1  0.89197000  0.21827900  0.60521800  1
  H  H9  1  0.57266200  0.73626900  0.85175300  1
  H  H10  1  0.63347200  0.70897200  0.70405000  1
  H  H11  1  0.80433800  0.71732800  0.15230800  1
  H  H12  1  0.85528000  0.82641900  0.02517100  1
  H  H13  1  0.94633900  0.70832900  0.44959400  1
  Cl  Cl14  1  0.03563000  0.65729900  0.75610800  1
  Cl  Cl15  1  0.26935300  0.77365300  0.07060000  1
  Cl  Cl16  1  0.51326100  0.21198200  0.55554500  1
  Cl  Cl17  1  0.48673900  0.78801800  0.44445500  1
  Cl  Cl18  1  0.73064700  0.22634700  0.92940000  1
  Cl  Cl19  1  0.96437000  0.34270100  0.24389200  1
  O  O20  1  0.11327100  0.28710000  0.13234400  1
  O  O21  1  0.02107600  0.21033000  0.61776100  1
  O  O22  1  0.04859200  0.37493500  0.34226600  1
  O  O23  1  0.19022000  0.16892300  0.88204800  1
  O  O24  1  0.27321200  0.60461400  0.12250900  1
  O  O25  1  0.13699100  0.90880600  0.15788100  1
  O  O26  1  0.35015300  0.33629100  0.48840200  1
  O  O27  1  0.47923800  0.23432000  0.23074200  1
  O  O28  1  0.21075000  0.50331200  0.79025400  1
  O  O29  1  0.09752800  0.80280300  0.69895600  1
  O  O30  1  0.43723600  0.12343800  0.67082600  1
  O  O31  1  0.65458200  0.07410200  0.47274000  1
  O  O32  1  0.38295700  0.70304700  0.40395100  1
  O  O33  1  0.18444000  0.82617800  0.94629300  1
  O  O34  1  0.46247100  0.77496100  0.04682300  1
  O  O35  1  0.53752900  0.22503900  0.95317700  1
  O  O36  1  0.81556000  0.17382200  0.05370700  1
  O  O37  1  0.61704300  0.29695300  0.59604900  1
  O  O38  1  0.34541800  0.92589800  0.52726000  1
  O  O39  1  0.56276400  0.87656200  0.32917400  1
  O  O40  1  0.90247200  0.19719700  0.30104400  1
  O  O41  1  0.78925000  0.49668800  0.20974600  1
  O  O42  1  0.52076200  0.76568000  0.76925800  1
  O  O43  1  0.64984700  0.66370900  0.51159800  1
  O  O44  1  0.86300900  0.09119400  0.84211900  1
  O  O45  1  0.72678800  0.39538600  0.87749100  1
  O  O46  1  0.80978000  0.83107700  0.11795200  1
  O  O47  1  0.95140800  0.62506500  0.65773400  1
  O  O48  1  0.97892400  0.78967000  0.38223900  1
  O  O49  1  0.88672900  0.71290000  0.86765600  1
