# generated using pymatgen
data_K11Mn4O16
_symmetry_space_group_name_H-M   'P 1'
_cell_length_a   10.47038707
_cell_length_b   10.47038707
_cell_length_c   10.47038707
_cell_angle_alpha   135.17378267
_cell_angle_beta   135.17378267
_cell_angle_gamma   65.26030009
_symmetry_Int_Tables_number   1
_chemical_formula_structural   K11Mn4O16
_chemical_formula_sum   'K11 Mn4 O16'
_cell_volume   562.13379659
_cell_formula_units_Z   1
loop_
 _symmetry_equiv_pos_site_id
 _symmetry_equiv_pos_as_xyz
  1  'x, y, z'
loop_
 _atom_site_type_symbol
 _atom_site_label
 _atom_site_symmetry_multiplicity
 _atom_site_fract_x
 _atom_site_fract_y
 _atom_site_fract_z
 _atom_site_occupancy
  K  K0  1  0.57091700  0.57091700  0.35174500  1
  K  K1  1  0.75000000  0.25000000  0.50000000  1
  K  K2  1  0.50000000  0.00000000  0.50000000  1
  K  K3  1  0.78924900  0.78924900  0.00000000  1
  K  K4  1  0.00000000  0.00000000  0.00000000  1
  K  K5  1  0.21075100  0.21075100  0.00000000  1
  K  K6  1  0.78082800  0.42908300  0.00000000  1
  K  K7  1  0.21917200  0.21917200  0.64825500  1
  K  K8  1  0.42908300  0.78082800  0.00000000  1
  K  K9  1  0.25000000  0.75000000  0.50000000  1
  K  K10  1  0.00000000  0.50000000  0.50000000  1
  Mn  Mn11  1  0.88636900  0.88636900  0.52568900  1
  Mn  Mn12  1  0.36068000  0.36068000  0.47431100  1
  Mn  Mn13  1  0.11363100  0.63932000  0.00000000  1
  Mn  Mn14  1  0.63932000  0.11363100  0.00000000  1
  O  O15  1  0.71354100  0.71354100  0.31656400  1
  O  O16  1  0.51118000  0.51118000  0.59768500  1
  O  O17  1  0.08595300  0.83931000  0.69738800  1
  O  O18  1  0.91404700  0.61143500  0.75335700  1
  O  O19  1  0.60302300  0.28645900  0.00000000  1
  O  O20  1  0.91349400  0.91349400  0.40231500  1
  O  O21  1  0.48882000  0.08650600  0.00000000  1
  O  O22  1  0.61143500  0.91404700  0.75335700  1
  O  O23  1  0.83931000  0.08595300  0.69738800  1
  O  O24  1  0.38856500  0.14192200  0.30261200  1
  O  O25  1  0.16069000  0.85807800  0.24664300  1
  O  O26  1  0.08650600  0.48882000  0.00000000  1
  O  O27  1  0.39697700  0.39697700  0.68343600  1
  O  O28  1  0.28645900  0.60302300  0.00000000  1
  O  O29  1  0.85807800  0.16069000  0.24664300  1
  O  O30  1  0.14192200  0.38856500  0.30261200  1
