# generated using pymatgen
data_P3(WO6)2
_symmetry_space_group_name_H-M   'P 1'
_cell_length_a   9.09629386
_cell_length_b   9.09629386
_cell_length_c   9.09629328
_cell_angle_alpha   57.17694788
_cell_angle_beta   57.17694788
_cell_angle_gamma   57.17694621
_symmetry_Int_Tables_number   1
_chemical_formula_structural   P3(WO6)2
_chemical_formula_sum   'P6 W4 O24'
_cell_volume   497.59206783
_cell_formula_units_Z   2
loop_
 _symmetry_equiv_pos_site_id
 _symmetry_equiv_pos_as_xyz
  1  'x, y, z'
loop_
 _atom_site_type_symbol
 _atom_site_label
 _atom_site_symmetry_multiplicity
 _atom_site_fract_x
 _atom_site_fract_y
 _atom_site_fract_z
 _atom_site_occupancy
  P  P0  1  0.24799100  0.53454100  0.96715600  1
  P  P1  1  0.96715600  0.24799100  0.53454100  1
  P  P2  1  0.53454100  0.96715600  0.24799100  1
  P  P3  1  0.46545900  0.03284400  0.75200900  1
  P  P4  1  0.03284400  0.75200900  0.46545900  1
  P  P5  1  0.75200900  0.46545900  0.03284400  1
  W  W6  1  0.85621600  0.85621600  0.85621600  1
  W  W7  1  0.64559100  0.64559100  0.64559100  1
  W  W8  1  0.35440900  0.35440900  0.35440900  1
  W  W9  1  0.14378400  0.14378400  0.14378400  1
  O  O10  1  0.76557900  0.48513700  0.84801500  1
  O  O11  1  0.48513700  0.84801500  0.76557900  1
  O  O12  1  0.84801500  0.76557900  0.48513700  1
  O  O13  1  0.43877500  0.53030700  0.81330500  1
  O  O14  1  0.09144300  0.72014800  0.90898400  1
  O  O15  1  0.20610300  0.37446100  0.99506000  1
  O  O16  1  0.90898400  0.09144300  0.72014800  1
  O  O17  1  0.81330500  0.43877500  0.53030700  1
  O  O18  1  0.53030700  0.81330500  0.43877500  1
  O  O19  1  0.62553900  0.00494000  0.79389700  1
  O  O20  1  0.27985200  0.09101600  0.90855700  1
  O  O21  1  0.00494000  0.79389700  0.62553900  1
  O  O22  1  0.99506000  0.20610300  0.37446100  1
  O  O23  1  0.72014800  0.90898400  0.09144300  1
  O  O24  1  0.37446100  0.99506000  0.20610300  1
  O  O25  1  0.46969300  0.18669500  0.56122500  1
  O  O26  1  0.18669500  0.56122500  0.46969300  1
  O  O27  1  0.09101600  0.90855700  0.27985200  1
  O  O28  1  0.79389700  0.62553900  0.00494000  1
  O  O29  1  0.90855700  0.27985200  0.09101600  1
  O  O30  1  0.56122500  0.46969300  0.18669500  1
  O  O31  1  0.15198500  0.23442100  0.51486300  1
  O  O32  1  0.51486300  0.15198500  0.23442100  1
  O  O33  1  0.23442100  0.51486300  0.15198500  1
