# generated using pymatgen
data_ZnH12N3Cl5
_symmetry_space_group_name_H-M   'P 1'
_cell_length_a   8.84860200
_cell_length_b   9.97809500
_cell_length_c   12.59119400
_cell_angle_alpha   90.00000000
_cell_angle_beta   90.00000000
_cell_angle_gamma   90.00000000
_symmetry_Int_Tables_number   1
_chemical_formula_structural   ZnH12N3Cl5
_chemical_formula_sum   'Zn4 H48 N12 Cl20'
_cell_volume   1111.70411026
_cell_formula_units_Z   4
loop_
 _symmetry_equiv_pos_site_id
 _symmetry_equiv_pos_as_xyz
  1  'x, y, z'
loop_
 _atom_site_type_symbol
 _atom_site_label
 _atom_site_symmetry_multiplicity
 _atom_site_fract_x
 _atom_site_fract_y
 _atom_site_fract_z
 _atom_site_occupancy
  Zn  Zn0  1  0.81504600  0.25000000  0.39360100  1
  Zn  Zn1  1  0.31504600  0.25000000  0.10639900  1
  Zn  Zn2  1  0.18495400  0.75000000  0.60639900  1
  Zn  Zn3  1  0.68495400  0.75000000  0.89360100  1
  H  H4  1  0.00361300  0.25000000  0.89330300  1
  H  H5  1  0.50361300  0.25000000  0.60669700  1
  H  H6  1  0.99638700  0.75000000  0.10669700  1
  H  H7  1  0.49638700  0.75000000  0.39330300  1
  H  H8  1  0.81428000  0.25000000  0.91822500  1
  H  H9  1  0.31428000  0.25000000  0.58177500  1
  H  H10  1  0.18572000  0.75000000  0.08177500  1
  H  H11  1  0.68572000  0.75000000  0.41822500  1
  H  H12  1  0.93411000  0.16584000  0.99877200  1
  H  H13  1  0.43411000  0.33416000  0.50122800  1
  H  H14  1  0.06589000  0.66584000  0.00122800  1
  H  H15  1  0.56589000  0.83416000  0.49877200  1
  H  H16  1  0.06589000  0.83416000  0.00122800  1
  H  H17  1  0.56589000  0.66584000  0.49877200  1
  H  H18  1  0.93411000  0.33416000  0.99877200  1
  H  H19  1  0.43411000  0.16584000  0.50122800  1
  H  H20  1  0.00533800  0.07629400  0.66401000  1
  H  H21  1  0.50533800  0.42370600  0.83599000  1
  H  H22  1  0.99466200  0.57629400  0.33599000  1
  H  H23  1  0.49466200  0.92370600  0.16401000  1
  H  H24  1  0.99466200  0.92370600  0.33599000  1
  H  H25  1  0.49466200  0.57629400  0.16401000  1
  H  H26  1  0.00533800  0.42370600  0.66401000  1
  H  H27  1  0.50533800  0.07629400  0.83599000  1
  H  H28  1  0.89115200  0.96229200  0.60548200  1
  H  H29  1  0.39115200  0.53770800  0.89451800  1
  H  H30  1  0.10884800  0.46229200  0.39451800  1
  H  H31  1  0.60884800  0.03770800  0.10548200  1
  H  H32  1  0.10884800  0.03770800  0.39451800  1
  H  H33  1  0.60884800  0.46229200  0.10548200  1
  H  H34  1  0.89115200  0.53770800  0.60548200  1
  H  H35  1  0.39115200  0.96229200  0.89451800  1
  H  H36  1  0.81803700  0.08382000  0.68696100  1
  H  H37  1  0.31803700  0.41618000  0.81303900  1
  H  H38  1  0.18196300  0.58382000  0.31303900  1
  H  H39  1  0.68196300  0.91618000  0.18696100  1
  H  H40  1  0.18196300  0.91618000  0.31303900  1
  H  H41  1  0.68196300  0.58382000  0.18696100  1
  H  H42  1  0.81803700  0.41618000  0.68696100  1
  H  H43  1  0.31803700  0.08382000  0.81303900  1
  H  H44  1  0.92122700  0.95531200  0.73715500  1
  H  H45  1  0.42122700  0.54468800  0.76284500  1
  H  H46  1  0.07877300  0.45531200  0.26284500  1
  H  H47  1  0.57877300  0.04468800  0.23715500  1
  H  H48  1  0.07877300  0.04468800  0.26284500  1
  H  H49  1  0.57877300  0.45531200  0.23715500  1
  H  H50  1  0.92122700  0.54468800  0.73715500  1
  H  H51  1  0.42122700  0.95531200  0.76284500  1
  N  N52  1  0.92042700  0.25000000  0.95232600  1
  N  N53  1  0.42042700  0.25000000  0.54767400  1
  N  N54  1  0.07957300  0.75000000  0.04767400  1
  N  N55  1  0.57957300  0.75000000  0.45232600  1
  N  N56  1  0.90871500  0.01883200  0.67309400  1
  N  N57  1  0.40871500  0.48116800  0.82690600  1
  N  N58  1  0.09128500  0.51883200  0.32690600  1
  N  N59  1  0.59128500  0.98116800  0.17309400  1
  N  N60  1  0.09128500  0.98116800  0.32690600  1
  N  N61  1  0.59128500  0.51883200  0.17309400  1
  N  N62  1  0.90871500  0.48116800  0.67309400  1
  N  N63  1  0.40871500  0.01883200  0.82690600  1
  Cl  Cl64  1  0.87320400  0.25000000  0.21807500  1
  Cl  Cl65  1  0.37320400  0.25000000  0.28192500  1
  Cl  Cl66  1  0.12679600  0.75000000  0.78192500  1
  Cl  Cl67  1  0.62679600  0.75000000  0.71807500  1
  Cl  Cl68  1  0.03928300  0.25000000  0.48852500  1
  Cl  Cl69  1  0.53928300  0.25000000  0.01147500  1
  Cl  Cl70  1  0.96071700  0.75000000  0.51147500  1
  Cl  Cl71  1  0.46071700  0.75000000  0.98852500  1
  Cl  Cl72  1  0.66713400  0.25000000  0.73615900  1
  Cl  Cl73  1  0.16713400  0.25000000  0.76384100  1
  Cl  Cl74  1  0.33286600  0.75000000  0.26384100  1
  Cl  Cl75  1  0.83286600  0.75000000  0.23615900  1
  Cl  Cl76  1  0.69092300  0.05711400  0.43620500  1
  Cl  Cl77  1  0.19092300  0.44288600  0.06379500  1
  Cl  Cl78  1  0.30907700  0.55711400  0.56379500  1
  Cl  Cl79  1  0.80907700  0.94288600  0.93620500  1
  Cl  Cl80  1  0.30907700  0.94288600  0.56379500  1
  Cl  Cl81  1  0.80907700  0.55711400  0.93620500  1
  Cl  Cl82  1  0.69092300  0.44288600  0.43620500  1
  Cl  Cl83  1  0.19092300  0.05711400  0.06379500  1
