# generated using pymatgen
data_Ho2WO6
_symmetry_space_group_name_H-M   'P 1'
_cell_length_a   5.38062200
_cell_length_b   7.68227700
_cell_length_c   11.45835314
_cell_angle_alpha   75.36446600
_cell_angle_beta   90.00000000
_cell_angle_gamma   90.00000000
_symmetry_Int_Tables_number   1
_chemical_formula_structural   Ho2WO6
_chemical_formula_sum   'Ho8 W4 O24'
_cell_volume   458.26770970
_cell_formula_units_Z   4
loop_
 _symmetry_equiv_pos_site_id
 _symmetry_equiv_pos_as_xyz
  1  'x, y, z'
loop_
 _atom_site_type_symbol
 _atom_site_label
 _atom_site_symmetry_multiplicity
 _atom_site_fract_x
 _atom_site_fract_y
 _atom_site_fract_z
 _atom_site_occupancy
  Ho  Ho0  1  0.73705400  0.00000000  0.75000000  1
  Ho  Ho1  1  0.26294600  0.00000000  0.25000000  1
  Ho  Ho2  1  0.18862600  0.79824000  0.57817100  1
  Ho  Ho3  1  0.81137400  0.79824000  0.07817100  1
  Ho  Ho4  1  0.68340900  0.50000000  0.75000000  1
  Ho  Ho5  1  0.31659100  0.50000000  0.25000000  1
  Ho  Ho6  1  0.18862600  0.20176000  0.92182900  1
  Ho  Ho7  1  0.81137400  0.20176000  0.42182900  1
  W  W8  1  0.25338400  0.72088200  0.88683000  1
  W  W9  1  0.74661600  0.72088200  0.38683000  1
  W  W10  1  0.25338400  0.27911800  0.61317000  1
  W  W11  1  0.74661600  0.27911800  0.11317000  1
  O  O12  1  0.03626900  0.93820700  0.89598700  1
  O  O13  1  0.52450100  0.85276600  0.93109200  1
  O  O14  1  0.96373100  0.93820700  0.39598700  1
  O  O15  1  0.46407300  0.78612000  0.72857900  1
  O  O16  1  0.47549900  0.85276600  0.43109200  1
  O  O17  1  0.98528800  0.70916300  0.77086000  1
  O  O18  1  0.53592700  0.78612000  0.22857900  1
  O  O19  1  0.85274300  0.63325800  0.54949300  1
  O  O20  1  0.36330100  0.48737300  0.88852900  1
  O  O21  1  0.01471200  0.70916300  0.27086000  1
  O  O22  1  0.36330100  0.51262700  0.61147100  1
  O  O23  1  0.85274300  0.36674200  0.95050700  1
  O  O24  1  0.14725700  0.63325800  0.04949300  1
  O  O25  1  0.63669900  0.48737300  0.38852900  1
  O  O26  1  0.98528800  0.29083700  0.72914000  1
  O  O27  1  0.63669900  0.51262700  0.11147100  1
  O  O28  1  0.14725700  0.36674200  0.45050700  1
  O  O29  1  0.46407300  0.21388000  0.77142100  1
  O  O30  1  0.01471200  0.29083700  0.22914000  1
  O  O31  1  0.52450100  0.14723400  0.56890800  1
  O  O32  1  0.53592700  0.21388000  0.27142100  1
  O  O33  1  0.03626900  0.06179300  0.60401300  1
  O  O34  1  0.47549900  0.14723400  0.06890800  1
  O  O35  1  0.96373100  0.06179300  0.10401300  1
