# generated using pymatgen
data_Li2Fe3SbO8
_symmetry_space_group_name_H-M   'P 1'
_cell_length_a   6.00636776
_cell_length_b   6.00636776
_cell_length_c   9.77889800
_cell_angle_alpha   90.00000000
_cell_angle_beta   90.00000000
_cell_angle_gamma   119.99999740
_symmetry_Int_Tables_number   1
_chemical_formula_structural   Li2Fe3SbO8
_chemical_formula_sum   'Li4 Fe6 Sb2 O16'
_cell_volume   305.52334446
_cell_formula_units_Z   2
loop_
 _symmetry_equiv_pos_site_id
 _symmetry_equiv_pos_as_xyz
  1  'x, y, z'
loop_
 _atom_site_type_symbol
 _atom_site_label
 _atom_site_symmetry_multiplicity
 _atom_site_fract_x
 _atom_site_fract_y
 _atom_site_fract_z
 _atom_site_occupancy
  Li  Li0  1  0.33333300  0.66666700  0.90284400  1
  Li  Li1  1  0.00000000  0.00000000  0.98860200  1
  Li  Li2  1  0.00000000  0.00000000  0.48860200  1
  Li  Li3  1  0.66666700  0.33333300  0.40284400  1
  Fe  Fe4  1  0.17025700  0.82974300  0.21324500  1
  Fe  Fe5  1  0.17025700  0.34051500  0.21324500  1
  Fe  Fe6  1  0.65948500  0.82974300  0.21324500  1
  Fe  Fe7  1  0.34051500  0.17025700  0.71324500  1
  Fe  Fe8  1  0.82974300  0.65948500  0.71324500  1
  Fe  Fe9  1  0.82974300  0.17025700  0.71324500  1
  Sb  Sb10  1  0.33333300  0.66666700  0.48624100  1
  Sb  Sb11  1  0.66666700  0.33333300  0.98624100  1
  O  O12  1  0.16773900  0.83226100  0.59528200  1
  O  O13  1  0.03667900  0.51834000  0.34707700  1
  O  O14  1  0.33333300  0.66666700  0.10699900  1
  O  O15  1  0.00000000  0.00000000  0.30240200  1
  O  O16  1  0.00000000  0.00000000  0.80240200  1
  O  O17  1  0.16773900  0.33547800  0.59528200  1
  O  O18  1  0.48166000  0.96332100  0.34707700  1
  O  O19  1  0.48166000  0.51834000  0.34707700  1
  O  O20  1  0.33547800  0.16773900  0.09528200  1
  O  O21  1  0.66452200  0.83226100  0.59528200  1
  O  O22  1  0.51834000  0.48166000  0.84707700  1
  O  O23  1  0.51834000  0.03667900  0.84707700  1
  O  O24  1  0.66666700  0.33333300  0.60699900  1
  O  O25  1  0.83226100  0.66452200  0.09528200  1
  O  O26  1  0.96332100  0.48166000  0.84707700  1
  O  O27  1  0.83226100  0.16773900  0.09528200  1
