# generated using pymatgen
data_NaMnPO4
_symmetry_space_group_name_H-M   'P 1'
_cell_length_a   5.06494200
_cell_length_b   6.40786300
_cell_length_c   10.64574100
_cell_angle_alpha   90.00000000
_cell_angle_beta   90.00000000
_cell_angle_gamma   90.00000000
_symmetry_Int_Tables_number   1
_chemical_formula_structural   NaMnPO4
_chemical_formula_sum   'Na4 Mn4 P4 O16'
_cell_volume   345.51236199
_cell_formula_units_Z   4
loop_
 _symmetry_equiv_pos_site_id
 _symmetry_equiv_pos_as_xyz
  1  'x, y, z'
loop_
 _atom_site_type_symbol
 _atom_site_label
 _atom_site_symmetry_multiplicity
 _atom_site_fract_x
 _atom_site_fract_y
 _atom_site_fract_z
 _atom_site_occupancy
  Na  Na0  1  0.00000000  0.50000000  0.50000000  1
  Na  Na1  1  0.50000000  0.50000000  0.00000000  1
  Na  Na2  1  0.00000000  0.00000000  0.50000000  1
  Na  Na3  1  0.50000000  0.00000000  0.00000000  1
  Mn  Mn4  1  0.98381100  0.75000000  0.21697500  1
  Mn  Mn5  1  0.51618900  0.75000000  0.71697500  1
  Mn  Mn6  1  0.48381100  0.25000000  0.28302500  1
  Mn  Mn7  1  0.01618900  0.25000000  0.78302500  1
  P  P8  1  0.42990900  0.75000000  0.39591100  1
  P  P9  1  0.07009100  0.75000000  0.89591100  1
  P  P10  1  0.92990900  0.25000000  0.10408900  1
  P  P11  1  0.57009100  0.25000000  0.60408900  1
  O  O12  1  0.30016800  0.55707100  0.32808700  1
  O  O13  1  0.19983200  0.55707100  0.82808700  1
  O  O14  1  0.16559500  0.75000000  0.03511400  1
  O  O15  1  0.33440500  0.75000000  0.53511400  1
  O  O16  1  0.73408400  0.75000000  0.38734700  1
  O  O17  1  0.76591600  0.75000000  0.88734700  1
  O  O18  1  0.30016800  0.94292900  0.32808700  1
  O  O19  1  0.19983200  0.94292900  0.82808700  1
  O  O20  1  0.69983200  0.05707100  0.67191300  1
  O  O21  1  0.80016800  0.05707100  0.17191300  1
  O  O22  1  0.66559500  0.25000000  0.46488600  1
  O  O23  1  0.23408400  0.25000000  0.11265300  1
  O  O24  1  0.83440500  0.25000000  0.96488600  1
  O  O25  1  0.26591600  0.25000000  0.61265300  1
  O  O26  1  0.80016800  0.44292900  0.17191300  1
  O  O27  1  0.69983200  0.44292900  0.67191300  1
