# generated using pymatgen
data_Ni(IO3)2
_symmetry_space_group_name_H-M   'P 1'
_cell_length_a   5.32103404
_cell_length_b   9.35908694
_cell_length_c   10.97314730
_cell_angle_alpha   89.87543716
_cell_angle_beta   89.98919624
_cell_angle_gamma   89.99088963
_symmetry_Int_Tables_number   1
_chemical_formula_structural   Ni(IO3)2
_chemical_formula_sum   'Ni4 I8 O24'
_cell_volume   546.46164914
_cell_formula_units_Z   4
loop_
 _symmetry_equiv_pos_site_id
 _symmetry_equiv_pos_as_xyz
  1  'x, y, z'
loop_
 _atom_site_type_symbol
 _atom_site_label
 _atom_site_symmetry_multiplicity
 _atom_site_fract_x
 _atom_site_fract_y
 _atom_site_fract_z
 _atom_site_occupancy
  Ni  Ni0  1  0.41433100  0.74687300  0.38344200  1
  Ni  Ni1  1  0.91445300  0.25307400  0.61666800  1
  Ni  Ni2  1  0.41440500  0.74671900  0.88323100  1
  Ni  Ni3  1  0.91419200  0.25317000  0.11669600  1
  I  I4  1  0.48840300  0.93377400  0.63162100  1
  I  I5  1  0.48838400  0.93377300  0.13162900  1
  I  I6  1  0.98840200  0.06630300  0.36844600  1
  I  I7  1  0.98836700  0.06623200  0.86844900  1
  I  I8  1  0.01627300  0.59985400  0.63543900  1
  I  I9  1  0.01603300  0.59996000  0.13537200  1
  I  I10  1  0.51632400  0.40019900  0.36466700  1
  I  I11  1  0.51611700  0.40008100  0.86469300  1
  O  O12  1  0.20250900  0.91947100  0.82517800  1
  O  O13  1  0.20247200  0.91948400  0.32520300  1
  O  O14  1  0.70248800  0.08050000  0.17484000  1
  O  O15  1  0.70247900  0.08049700  0.67481600  1
  O  O16  1  0.20216000  0.59976300  0.77762100  1
  O  O17  1  0.20204200  0.59990100  0.27754500  1
  O  O18  1  0.70202100  0.40012100  0.22238800  1
  O  O19  1  0.70196000  0.40004900  0.72246100  1
  O  O20  1  0.63285600  0.79979400  0.73345800  1
  O  O21  1  0.63278300  0.79980600  0.23346200  1
  O  O22  1  0.13282200  0.20020500  0.26653900  1
  O  O23  1  0.13279000  0.20018500  0.76655500  1
  O  O24  1  0.13113500  0.43069600  0.57176400  1
  O  O25  1  0.13098500  0.43070700  0.07169800  1
  O  O26  1  0.63123200  0.56944300  0.42804800  1
  O  O27  1  0.63164100  0.56934100  0.92797700  1
  O  O28  1  0.20398100  0.72767600  0.54480300  1
  O  O29  1  0.20295600  0.72806400  0.04460000  1
  O  O30  1  0.70432000  0.27251200  0.45526000  1
  O  O31  1  0.70285800  0.27184400  0.95542100  1
  O  O32  1  0.14609900  0.12204900  0.51053300  1
  O  O33  1  0.14588000  0.12208500  0.01051300  1
  O  O34  1  0.64594200  0.87792000  0.48949700  1
  O  O35  1  0.64590200  0.87787300  0.98946700  1
