# generated using pymatgen
data_Li2CoSiO4
_symmetry_space_group_name_H-M   'P 1'
_cell_length_a   7.36449452
_cell_length_b   7.36864969
_cell_length_c   8.05571282
_cell_angle_alpha   65.04460436
_cell_angle_beta   65.08152850
_cell_angle_gamma   94.29182380
_symmetry_Int_Tables_number   1
_chemical_formula_structural   Li2CoSiO4
_chemical_formula_sum   'Li8 Co4 Si4 O16'
_cell_volume   342.06189480
_cell_formula_units_Z   4
loop_
 _symmetry_equiv_pos_site_id
 _symmetry_equiv_pos_as_xyz
  1  'x, y, z'
loop_
 _atom_site_type_symbol
 _atom_site_label
 _atom_site_symmetry_multiplicity
 _atom_site_fract_x
 _atom_site_fract_y
 _atom_site_fract_z
 _atom_site_occupancy
  Li  Li0  1  0.33284800  0.16103200  0.00091800  1
  Li  Li1  1  0.83284200  0.66104300  0.00092100  1
  Li  Li2  1  0.65720600  0.83805400  0.50073500  1
  Li  Li3  1  0.15720000  0.33806000  0.50073600  1
  Li  Li4  1  0.44774500  0.79633000  0.25239400  1
  Li  Li5  1  0.94773400  0.29632900  0.25239900  1
  Li  Li6  1  0.29143600  0.95230900  0.75243200  1
  Li  Li7  1  0.79144400  0.45231900  0.75242500  1
  Co  Co8  1  0.07611200  0.91076500  0.50748000  1
  Co  Co9  1  0.90603600  0.08051000  0.00724200  1
  Co  Co10  1  0.57610500  0.41075500  0.50748500  1
  Co  Co11  1  0.40603100  0.58050500  0.00724200  1
  Si  Si12  1  0.52952800  0.20710900  0.25258700  1
  Si  Si13  1  0.02950400  0.70710600  0.25259100  1
  Si  Si14  1  0.20244800  0.53378600  0.75284300  1
  Si  Si15  1  0.70244200  0.03378400  0.75284600  1
  O  O16  1  0.11983900  0.94009800  0.03649400  1
  O  O17  1  0.61985700  0.44011300  0.03652500  1
  O  O18  1  0.43567500  0.62440000  0.53693000  1
  O  O19  1  0.93567400  0.12439600  0.53691400  1
  O  O20  1  0.22807800  0.61549700  0.25182600  1
  O  O21  1  0.72809300  0.11548800  0.25184100  1
  O  O22  1  0.11071500  0.73219800  0.75228000  1
  O  O23  1  0.61073000  0.23220200  0.75226600  1
  O  O24  1  0.36034300  0.04520900  0.25346100  1
  O  O25  1  0.86032900  0.54522500  0.25345300  1
  O  O26  1  0.04059300  0.36493500  0.75338100  1
  O  O27  1  0.54060400  0.86493200  0.75336900  1
  O  O28  1  0.90300500  0.72383700  0.46901000  1
  O  O29  1  0.40300500  0.22385200  0.46899700  1
  O  O30  1  0.21900800  0.40687400  0.96939000  1
  O  O31  1  0.71897200  0.90689900  0.96940800  1
