# generated using pymatgen
data_K3CuB2P4H3O17
_symmetry_space_group_name_H-M   'P 1'
_cell_length_a   17.84098700
_cell_length_b   9.49098400
_cell_length_c   9.70173649
_cell_angle_alpha   67.94028874
_cell_angle_beta   90.00000000
_cell_angle_gamma   90.00000000
_symmetry_Int_Tables_number   1
_chemical_formula_structural   K3CuB2P4H3O17
_chemical_formula_sum   'K12 Cu4 B8 P16 H12 O68'
_cell_volume   1522.51757634
_cell_formula_units_Z   4
loop_
 _symmetry_equiv_pos_site_id
 _symmetry_equiv_pos_as_xyz
  1  'x, y, z'
loop_
 _atom_site_type_symbol
 _atom_site_label
 _atom_site_symmetry_multiplicity
 _atom_site_fract_x
 _atom_site_fract_y
 _atom_site_fract_z
 _atom_site_occupancy
  K  K0  1  0.86875200  0.05532000  0.01577400  1
  K  K1  1  0.63124800  0.55532000  0.01577400  1
  K  K2  1  0.13086300  0.46399400  0.37206000  1
  K  K3  1  0.88800600  0.09832500  0.54330100  1
  K  K4  1  0.38800600  0.40167500  0.45669900  1
  K  K5  1  0.63086300  0.03600600  0.62794000  1
  K  K6  1  0.36913700  0.96399400  0.37206000  1
  K  K7  1  0.61199400  0.59832500  0.54330100  1
  K  K8  1  0.11199400  0.90167500  0.45669900  1
  K  K9  1  0.86913700  0.53600600  0.62794000  1
  K  K10  1  0.36875200  0.44468000  0.98422600  1
  K  K11  1  0.13124800  0.94468000  0.98422600  1
  Cu  Cu12  1  0.83230200  0.43666000  0.02591800  1
  Cu  Cu13  1  0.66769800  0.93666000  0.02591800  1
  Cu  Cu14  1  0.33230200  0.06334000  0.97408200  1
  Cu  Cu15  1  0.16769800  0.56334000  0.97408200  1
  B  B16  1  0.58669200  0.20699300  0.01114200  1
  B  B17  1  0.91330800  0.70699300  0.01114200  1
  B  B18  1  0.90839100  0.49261500  0.27669800  1
  B  B19  1  0.59160900  0.99261500  0.27669800  1
  B  B20  1  0.40839100  0.00738500  0.72330200  1
  B  B21  1  0.09160900  0.50738500  0.72330200  1
  B  B22  1  0.08669200  0.29300700  0.98885800  1
  B  B23  1  0.41330800  0.79300700  0.98885800  1
  P  P24  1  0.21949500  0.22296200  0.14171500  1
  P  P25  1  0.97766800  0.26991000  0.20378400  1
  P  P26  1  0.51872400  0.25649900  0.24688200  1
  P  P27  1  0.28050500  0.72296200  0.14171500  1
  P  P28  1  0.52233200  0.76991000  0.20378400  1
  P  P29  1  0.75918400  0.39349800  0.34917200  1
  P  P30  1  0.98127600  0.75649900  0.24688200  1
  P  P31  1  0.74081600  0.89349800  0.34917200  1
  P  P32  1  0.25918400  0.10650200  0.65082800  1
  P  P33  1  0.01872400  0.24350100  0.75311800  1
  P  P34  1  0.24081600  0.60650200  0.65082800  1
  P  P35  1  0.47766800  0.23009000  0.79621600  1
  P  P36  1  0.71949500  0.27703800  0.85828500  1
  P  P37  1  0.48127600  0.74350100  0.75311800  1
  P  P38  1  0.02233200  0.73009000  0.79621600  1
  P  P39  1  0.78050500  0.77703800  0.85828500  1
  H  H40  1  0.75960900  0.15199500  0.27073300  1
  H  H41  1  0.22263900  0.16726200  0.39220300  1
  H  H42  1  0.53448100  0.47468100  0.29693900  1
  H  H43  1  0.74039100  0.65199500  0.27073300  1
  H  H44  1  0.27736100  0.66726200  0.39220300  1
  H  H45  1  0.96551900  0.97468100  0.29693900  1
  H  H46  1  0.03448100  0.02531900  0.70306100  1
  H  H47  1  0.72263900  0.33273800  0.60779700  1
  H  H48  1  0.25960900  0.34800500  0.72926700  1
  H  H49  1  0.46551900  0.52531900  0.70306100  1
  H  H50  1  0.77736100  0.83273800  0.60779700  1
  H  H51  1  0.24039100  0.84800500  0.72926700  1
  O  O52  1  0.14850700  0.18494400  0.06511000  1
  O  O53  1  0.61824200  0.06815700  0.12353800  1
  O  O54  1  0.29170700  0.18912600  0.07614300  1
  O  O55  1  0.53743300  0.29108600  0.07751300  1
  O  O56  1  0.90614100  0.27352300  0.11572900  1
  O  O57  1  0.04627700  0.33871800  0.09824300  1
  O  O58  1  0.21713100  0.38900400  0.12907600  1
  O  O59  1  0.35149300  0.68494400  0.06511000  1
  O  O60  1  0.88175800  0.56815700  0.12353800  1
  O  O61  1  0.20829300  0.68912600  0.07614300  1
  O  O62  1  0.78227000  0.04922700  0.32703400  1
  O  O63  1  0.74798500  0.34901600  0.21544900  1
  O  O64  1  0.99584000  0.10998600  0.31441800  1
  O  O65  1  0.21559400  0.11506700  0.31065500  1
  O  O66  1  0.43594200  0.25593500  0.27224500  1
  O  O67  1  0.96256700  0.79108600  0.07751300  1
  O  O68  1  0.56034600  0.10344200  0.33706600  1
  O  O69  1  0.59385900  0.77352300  0.11572900  1
  O  O70  1  0.45372300  0.83871800  0.09824300  1
  O  O71  1  0.56127200  0.37740000  0.29208400  1
  O  O72  1  0.96957800  0.37885200  0.29285500  1
  O  O73  1  0.28286900  0.88900400  0.12907600  1
  O  O74  1  0.71773000  0.54922700  0.32703400  1
  O  O75  1  0.75201500  0.84901600  0.21544900  1
  O  O76  1  0.84582700  0.41450000  0.37685900  1
  O  O77  1  0.50416000  0.60998600  0.31441800  1
  O  O78  1  0.28440600  0.61506700  0.31065500  1
  O  O79  1  0.06405800  0.75593500  0.27224500  1
  O  O80  1  0.93965400  0.60344200  0.33706600  1
  O  O81  1  0.22975500  0.22268700  0.50478300  1
  O  O82  1  0.72975500  0.27731300  0.49521700  1
  O  O83  1  0.93872800  0.87740000  0.29208400  1
  O  O84  1  0.53042200  0.87885200  0.29285500  1
  O  O85  1  0.34582700  0.08550000  0.62314100  1
  O  O86  1  0.65417300  0.91450000  0.37685900  1
  O  O87  1  0.46957800  0.12114800  0.70714500  1
  O  O88  1  0.06127200  0.12260000  0.70791600  1
  O  O89  1  0.27024500  0.72268700  0.50478300  1
  O  O90  1  0.77024500  0.77731300  0.49521700  1
  O  O91  1  0.06034600  0.39655800  0.66293400  1
  O  O92  1  0.93594200  0.24406500  0.72775500  1
  O  O93  1  0.71559400  0.38493300  0.68934500  1
  O  O94  1  0.49584000  0.39001400  0.68558200  1
  O  O95  1  0.15417300  0.58550000  0.62314100  1
  O  O96  1  0.24798500  0.15098400  0.78455100  1
  O  O97  1  0.28227000  0.45077300  0.67296600  1
  O  O98  1  0.71713100  0.11099600  0.87092400  1
  O  O99  1  0.03042200  0.62114800  0.70714500  1
  O  O100  1  0.43872800  0.62260000  0.70791600  1
  O  O101  1  0.54627700  0.16128200  0.90175700  1
  O  O102  1  0.40614100  0.22647700  0.88427100  1
  O  O103  1  0.43965400  0.89655800  0.66293400  1
  O  O104  1  0.03743300  0.20891400  0.92248700  1
  O  O105  1  0.56405800  0.74406500  0.72775500  1
  O  O106  1  0.78440600  0.88493300  0.68934500  1
  O  O107  1  0.00416000  0.89001400  0.68558200  1
  O  O108  1  0.25201500  0.65098400  0.78455100  1
  O  O109  1  0.21773000  0.95077300  0.67296600  1
  O  O110  1  0.79170700  0.31087400  0.92385700  1
  O  O111  1  0.11824200  0.43184300  0.87646200  1
  O  O112  1  0.64850700  0.31505600  0.93489000  1
  O  O113  1  0.78286900  0.61099600  0.87092400  1
  O  O114  1  0.95372300  0.66128200  0.90175700  1
  O  O115  1  0.09385900  0.72647700  0.88427100  1
  O  O116  1  0.46256700  0.70891400  0.92248700  1
  O  O117  1  0.70829300  0.81087400  0.92385700  1
  O  O118  1  0.38175800  0.93184300  0.87646200  1
  O  O119  1  0.85149300  0.81505600  0.93489000  1
