# generated using pymatgen
data_La2WO6
_symmetry_space_group_name_H-M   'P 1'
_cell_length_a   5.52686000
_cell_length_b   9.54162200
_cell_length_c   10.47634900
_cell_angle_alpha   90.00000000
_cell_angle_beta   90.00000000
_cell_angle_gamma   90.00000000
_symmetry_Int_Tables_number   1
_chemical_formula_structural   La2WO6
_chemical_formula_sum   'La8 W4 O24'
_cell_volume   552.47245373
_cell_formula_units_Z   4
loop_
 _symmetry_equiv_pos_site_id
 _symmetry_equiv_pos_as_xyz
  1  'x, y, z'
loop_
 _atom_site_type_symbol
 _atom_site_label
 _atom_site_symmetry_multiplicity
 _atom_site_fract_x
 _atom_site_fract_y
 _atom_site_fract_z
 _atom_site_occupancy
  La  La0  1  0.02331200  0.39546000  0.03568800  1
  La  La1  1  0.03151200  0.28137000  0.63274200  1
  La  La2  1  0.46848800  0.71863000  0.13274200  1
  La  La3  1  0.47668800  0.60454000  0.53568800  1
  La  La4  1  0.52331200  0.10454000  0.96431200  1
  La  La5  1  0.53151200  0.21863000  0.36725800  1
  La  La6  1  0.96848800  0.78137000  0.86725800  1
  La  La7  1  0.97668800  0.89546000  0.46431200  1
  W  W8  1  0.04045700  0.00267400  0.15002400  1
  W  W9  1  0.45954300  0.99732600  0.65002400  1
  W  W10  1  0.54045700  0.49732600  0.84997600  1
  W  W11  1  0.95954300  0.50267400  0.34997600  1
  O  O12  1  0.07554000  0.65002600  0.46791200  1
  O  O13  1  0.16726000  0.54837200  0.21064000  1
  O  O14  1  0.19589600  0.86579200  0.67936600  1
  O  O15  1  0.18668500  0.86477800  0.25992100  1
  O  O16  1  0.22138300  0.38906800  0.43058600  1
  O  O17  1  0.25517800  0.08823900  0.51219600  1
  O  O18  1  0.24482200  0.91176100  0.01219600  1
  O  O19  1  0.27861700  0.61093200  0.93058600  1
  O  O20  1  0.31331500  0.13522200  0.75992100  1
  O  O21  1  0.30410400  0.13420800  0.17936600  1
  O  O22  1  0.33274000  0.45162800  0.71064000  1
  O  O23  1  0.42446000  0.34997400  0.96791200  1
  O  O24  1  0.57554000  0.84997400  0.53208800  1
  O  O25  1  0.66726000  0.95162800  0.78936000  1
  O  O26  1  0.69589600  0.63420800  0.32063400  1
  O  O27  1  0.68668500  0.63522200  0.74007900  1
  O  O28  1  0.72138300  0.11093200  0.56941400  1
  O  O29  1  0.75517800  0.41176100  0.48780400  1
  O  O30  1  0.74482200  0.58823900  0.98780400  1
  O  O31  1  0.77861700  0.88906800  0.06941400  1
  O  O32  1  0.81331500  0.36477800  0.24007900  1
  O  O33  1  0.80410400  0.36579200  0.82063400  1
  O  O34  1  0.83274000  0.04837200  0.28936000  1
  O  O35  1  0.92446000  0.15002600  0.03208800  1
