# generated using pymatgen
data_Ca9La5Cl33
_symmetry_space_group_name_H-M   'P 1'
_cell_length_a   11.10640100
_cell_length_b   11.18086410
_cell_length_c   21.12025657
_cell_angle_alpha   99.29898061
_cell_angle_beta   100.50629603
_cell_angle_gamma   109.56803763
_symmetry_Int_Tables_number   1
_chemical_formula_structural   Ca9La5Cl33
_chemical_formula_sum   'Ca18 La10 Cl66'
_cell_volume   2358.57295237
_cell_formula_units_Z   2
loop_
 _symmetry_equiv_pos_site_id
 _symmetry_equiv_pos_as_xyz
  1  'x, y, z'
loop_
 _atom_site_type_symbol
 _atom_site_label
 _atom_site_symmetry_multiplicity
 _atom_site_fract_x
 _atom_site_fract_y
 _atom_site_fract_z
 _atom_site_occupancy
  Ca  Ca0  1  0.91776200  0.23855300  0.93008800  1
  Ca  Ca1  1  0.31972100  0.08373900  0.97283400  1
  Ca  Ca2  1  0.47526300  0.02107700  0.19319800  1
  Ca  Ca3  1  0.86988900  0.26778800  0.33657300  1
  Ca  Ca4  1  0.23721300  0.14160000  0.38104900  1
  Ca  Ca5  1  0.68648800  0.40504400  0.53950600  1
  Ca  Ca6  1  0.06611300  0.25225100  0.55987200  1
  Ca  Ca7  1  0.76346700  0.34811900  0.11930900  1
  Ca  Ca8  1  0.13001900  0.20575700  0.15425400  1
  Ca  Ca9  1  0.86998100  0.79424300  0.84574600  1
  Ca  Ca10  1  0.23653300  0.65188100  0.88069100  1
  Ca  Ca11  1  0.93388700  0.74774900  0.44012800  1
  Ca  Ca12  1  0.31351200  0.59495600  0.46049400  1
  Ca  Ca13  1  0.76278700  0.85840000  0.61895100  1
  Ca  Ca14  1  0.13011100  0.73221200  0.66342700  1
  Ca  Ca15  1  0.52473700  0.97892300  0.80680200  1
  Ca  Ca16  1  0.68027900  0.91626100  0.02716600  1
  Ca  Ca17  1  0.08223800  0.76144700  0.06991200  1
  La  La18  1  0.37960100  0.04402100  0.58488700  1
  La  La19  1  0.17386700  0.13888700  0.76502800  1
  La  La20  1  0.85953500  0.35451500  0.73443600  1
  La  La21  1  0.63047000  0.45673000  0.92888800  1
  La  La22  1  0.46433000  0.54511500  0.68526900  1
  La  La23  1  0.53567000  0.45488500  0.31473100  1
  La  La24  1  0.36953000  0.54327000  0.07111200  1
  La  La25  1  0.14046500  0.64548500  0.26556400  1
  La  La26  1  0.82613300  0.86111300  0.23497200  1
  La  La27  1  0.62039900  0.95597900  0.41511300  1
  Cl  Cl28  1  0.77014800  0.13861400  0.79193300  1
  Cl  Cl29  1  0.93541500  0.13995500  0.66929300  1
  Cl  Cl30  1  0.62846800  0.19899400  0.91601900  1
  Cl  Cl31  1  0.73219800  0.04660500  0.19305600  1
  Cl  Cl32  1  0.15108000  0.99644600  0.63514600  1
  Cl  Cl33  1  0.05060000  0.06483900  0.87704500  1
  Cl  Cl34  1  0.65746000  0.19284800  0.62001100  1
  Cl  Cl35  1  0.44934600  0.18848000  0.73912700  1
  Cl  Cl36  1  0.81719500  0.22944000  0.47959400  1
  Cl  Cl37  1  0.59733000  0.12449600  0.33080000  1
  Cl  Cl38  1  0.47363600  0.12264700  0.46646700  1
  Cl  Cl39  1  0.15007500  0.04691500  0.48516900  1
  Cl  Cl40  1  0.35479400  0.28297000  0.89006000  1
  Cl  Cl41  1  0.88445700  0.17955100  0.05886800  1
  Cl  Cl42  1  0.82932100  0.46065400  0.85969100  1
  Cl  Cl43  1  0.55793300  0.10630800  0.07078200  1
  Cl  Cl44  1  0.95452100  0.44050100  0.62427500  1
  Cl  Cl45  1  0.24918900  0.04314400  0.09304600  1
  Cl  Cl46  1  0.39275600  0.30608100  0.58599400  1
  Cl  Cl47  1  0.97230100  0.36663400  0.22086000  1
  Cl  Cl48  1  0.33835100  0.19261800  0.26333100  1
  Cl  Cl49  1  0.66185400  0.31778700  0.23335900  1
  Cl  Cl50  1  0.03917400  0.13169300  0.27651100  1
  Cl  Cl51  1  0.23399800  0.35209800  0.70062400  1
  Cl  Cl52  1  0.70909300  0.50408700  0.68544800  1
  Cl  Cl53  1  0.08841400  0.36064800  0.82719900  1
  Cl  Cl54  1  0.75960000  0.46440900  0.41381600  1
  Cl  Cl55  1  0.58649200  0.57388800  0.82126000  1
  Cl  Cl56  1  0.44222700  0.38736700  0.42927700  1
  Cl  Cl57  1  0.81280000  0.72686700  0.97299100  1
  Cl  Cl58  1  0.46232500  0.61384400  0.95627200  1
  Cl  Cl59  1  0.11959900  0.32025700  0.43644400  1
  Cl  Cl60  1  0.14016700  0.53527600  0.97778300  1
  Cl  Cl61  1  0.85983300  0.46472400  0.02221700  1
  Cl  Cl62  1  0.88040100  0.67974300  0.56355600  1
  Cl  Cl63  1  0.53767500  0.38615600  0.04372800  1
  Cl  Cl64  1  0.18720000  0.27313300  0.02700900  1
  Cl  Cl65  1  0.55777300  0.61263300  0.57072300  1
  Cl  Cl66  1  0.41350800  0.42611200  0.17874000  1
  Cl  Cl67  1  0.24040000  0.53559100  0.58618400  1
  Cl  Cl68  1  0.91158600  0.63935200  0.17280100  1
  Cl  Cl69  1  0.29090700  0.49591300  0.31455200  1
  Cl  Cl70  1  0.76600200  0.64790200  0.29937600  1
  Cl  Cl71  1  0.96082600  0.86830700  0.72348900  1
  Cl  Cl72  1  0.33814600  0.68221300  0.76664100  1
  Cl  Cl73  1  0.66164900  0.80738200  0.73666900  1
  Cl  Cl74  1  0.02769900  0.63336600  0.77914000  1
  Cl  Cl75  1  0.60724400  0.69391900  0.41400600  1
  Cl  Cl76  1  0.75081100  0.95685600  0.90695400  1
  Cl  Cl77  1  0.04547900  0.55949900  0.37572500  1
  Cl  Cl78  1  0.44206700  0.89369200  0.92921800  1
  Cl  Cl79  1  0.17067900  0.53934600  0.14030900  1
  Cl  Cl80  1  0.11554300  0.82044900  0.94113200  1
  Cl  Cl81  1  0.64520600  0.71703000  0.10994000  1
  Cl  Cl82  1  0.84992500  0.95308500  0.51483100  1
  Cl  Cl83  1  0.52636400  0.87735300  0.53353300  1
  Cl  Cl84  1  0.40267000  0.87550400  0.66920000  1
  Cl  Cl85  1  0.18280500  0.77056000  0.52040600  1
  Cl  Cl86  1  0.55065400  0.81152000  0.26087300  1
  Cl  Cl87  1  0.34254000  0.80715200  0.37998900  1
  Cl  Cl88  1  0.94940000  0.93516100  0.12295500  1
  Cl  Cl89  1  0.84892000  0.00355400  0.36485400  1
  Cl  Cl90  1  0.26780200  0.95339500  0.80694400  1
  Cl  Cl91  1  0.37153200  0.80100600  0.08398100  1
  Cl  Cl92  1  0.06458500  0.86004500  0.33070700  1
  Cl  Cl93  1  0.22985200  0.86138600  0.20806700  1
