# generated using pymatgen
data_Cs3TlO3
_symmetry_space_group_name_H-M   'P 1'
_cell_length_a   7.49379600
_cell_length_b   8.35796000
_cell_length_c   12.19125665
_cell_angle_alpha   85.11541791
_cell_angle_beta   90.00000000
_cell_angle_gamma   90.00000000
_symmetry_Int_Tables_number   1
_chemical_formula_structural   Cs3TlO3
_chemical_formula_sum   'Cs12 Tl4 O12'
_cell_volume   760.80000511
_cell_formula_units_Z   4
loop_
 _symmetry_equiv_pos_site_id
 _symmetry_equiv_pos_as_xyz
  1  'x, y, z'
loop_
 _atom_site_type_symbol
 _atom_site_label
 _atom_site_symmetry_multiplicity
 _atom_site_fract_x
 _atom_site_fract_y
 _atom_site_fract_z
 _atom_site_occupancy
  Cs  Cs0  1  0.32015400  0.35437200  0.07445800  1
  Cs  Cs1  1  0.62780700  0.94433500  0.15519300  1
  Cs  Cs2  1  0.80688800  0.37023100  0.19166400  1
  Cs  Cs3  1  0.30688800  0.62976900  0.30833600  1
  Cs  Cs4  1  0.12780700  0.05566500  0.34480700  1
  Cs  Cs5  1  0.82015400  0.64562800  0.42554200  1
  Cs  Cs6  1  0.17984600  0.35437200  0.57445800  1
  Cs  Cs7  1  0.87219300  0.94433500  0.65519300  1
  Cs  Cs8  1  0.69311200  0.37023100  0.69166400  1
  Cs  Cs9  1  0.19311200  0.62976900  0.80833600  1
  Cs  Cs10  1  0.37219300  0.05566500  0.84480700  1
  Cs  Cs11  1  0.67984600  0.64562800  0.92554200  1
  Tl  Tl12  1  0.09006400  0.83789000  0.06753800  1
  Tl  Tl13  1  0.59006400  0.16211000  0.43246200  1
  Tl  Tl14  1  0.40993600  0.83789000  0.56753800  1
  Tl  Tl15  1  0.90993600  0.16211000  0.93246200  1
  O  O16  1  0.35470700  0.74630500  0.03705800  1
  O  O17  1  0.04213100  0.10083300  0.09895200  1
  O  O18  1  0.93706200  0.69527400  0.19090800  1
  O  O19  1  0.43706200  0.30472600  0.30909200  1
  O  O20  1  0.54213100  0.89916700  0.40104800  1
  O  O21  1  0.85470700  0.25369500  0.46294200  1
  O  O22  1  0.14529300  0.74630500  0.53705800  1
  O  O23  1  0.45786900  0.10083300  0.59895200  1
  O  O24  1  0.56293800  0.69527400  0.69090800  1
  O  O25  1  0.06293800  0.30472600  0.80909200  1
  O  O26  1  0.95786900  0.89916700  0.90104800  1
  O  O27  1  0.64529300  0.25369500  0.96294200  1
