# generated using pymatgen
data_FeAg(SeO3)2
_symmetry_space_group_name_H-M   'P 1'
_cell_length_a   5.36774900
_cell_length_b   7.77060200
_cell_length_c   14.16388400
_cell_angle_alpha   90.00000000
_cell_angle_beta   90.00000000
_cell_angle_gamma   90.00000000
_symmetry_Int_Tables_number   1
_chemical_formula_structural   FeAg(SeO3)2
_chemical_formula_sum   'Fe4 Ag4 Se8 O24'
_cell_volume   590.78468232
_cell_formula_units_Z   4
loop_
 _symmetry_equiv_pos_site_id
 _symmetry_equiv_pos_as_xyz
  1  'x, y, z'
loop_
 _atom_site_type_symbol
 _atom_site_label
 _atom_site_symmetry_multiplicity
 _atom_site_fract_x
 _atom_site_fract_y
 _atom_site_fract_z
 _atom_site_occupancy
  Fe  Fe0  1  0.28987500  0.69459000  0.12607500  1
  Fe  Fe1  1  0.78987500  0.19459000  0.37392500  1
  Fe  Fe2  1  0.21012500  0.69459000  0.62607500  1
  Fe  Fe3  1  0.71012500  0.19459000  0.87392500  1
  Ag  Ag4  1  0.86768400  0.18366000  0.62112400  1
  Ag  Ag5  1  0.63231600  0.18366000  0.12112400  1
  Ag  Ag6  1  0.36768400  0.68366000  0.87887600  1
  Ag  Ag7  1  0.13231600  0.68366000  0.37887600  1
  Se  Se8  1  0.30245100  0.01254700  0.47275400  1
  Se  Se9  1  0.27107600  0.37396600  0.27812600  1
  Se  Se10  1  0.80245100  0.51254700  0.02724600  1
  Se  Se11  1  0.22892400  0.37396600  0.77812600  1
  Se  Se12  1  0.19754900  0.01254700  0.97275400  1
  Se  Se13  1  0.72892400  0.87396600  0.72187400  1
  Se  Se14  1  0.77107600  0.87396600  0.22187400  1
  Se  Se15  1  0.69754900  0.51254700  0.52724600  1
  O  O16  1  0.58812100  0.68072300  0.03657400  1
  O  O17  1  0.74400400  0.44986600  0.91228700  1
  O  O18  1  0.51247700  0.70502700  0.71445900  1
  O  O19  1  0.01247700  0.20502700  0.78554100  1
  O  O20  1  0.57780700  0.12768800  0.48803900  1
  O  O21  1  0.49677600  0.76286700  0.23857300  1
  O  O22  1  0.91187900  0.68072300  0.53657400  1
  O  O23  1  0.00322400  0.76286700  0.73857300  1
  O  O24  1  0.48752300  0.20502700  0.28554100  1
  O  O25  1  0.33118200  0.43946600  0.16369800  1
  O  O26  1  0.42219300  0.62768800  0.51196100  1
  O  O27  1  0.24400400  0.94986600  0.58771300  1
  O  O28  1  0.99677600  0.26286700  0.26142700  1
  O  O29  1  0.66881800  0.93946600  0.83630200  1
  O  O30  1  0.98752300  0.70502700  0.21445900  1
  O  O31  1  0.75599600  0.44986600  0.41228700  1
  O  O32  1  0.08812100  0.18072300  0.46342600  1
  O  O33  1  0.07780700  0.62768800  0.01196100  1
  O  O34  1  0.83118200  0.93946600  0.33630200  1
  O  O35  1  0.41187900  0.18072300  0.96342600  1
  O  O36  1  0.92219300  0.12768800  0.98803900  1
  O  O37  1  0.16881800  0.43946600  0.66369800  1
  O  O38  1  0.50322400  0.26286700  0.76142700  1
  O  O39  1  0.25599600  0.94986600  0.08771300  1
