# generated using pymatgen
data_KOsF6
_symmetry_space_group_name_H-M   'P 1'
_cell_length_a   5.12188611
_cell_length_b   5.12188611
_cell_length_c   5.12188663
_cell_angle_alpha   97.33913090
_cell_angle_beta   97.33913090
_cell_angle_gamma   97.33912590
_symmetry_Int_Tables_number   1
_chemical_formula_structural   KOsF6
_chemical_formula_sum   'K1 Os1 F6'
_cell_volume   130.74845714
_cell_formula_units_Z   1
loop_
 _symmetry_equiv_pos_site_id
 _symmetry_equiv_pos_as_xyz
  1  'x, y, z'
loop_
 _atom_site_type_symbol
 _atom_site_label
 _atom_site_symmetry_multiplicity
 _atom_site_fract_x
 _atom_site_fract_y
 _atom_site_fract_z
 _atom_site_occupancy
  K  K0  1  0.50000000  0.50000000  0.50000000  1
  Os  Os1  1  0.00000000  0.00000000  0.00000000  1
  F  F2  1  0.29841600  0.92098800  0.22684100  1
  F  F3  1  0.22684100  0.29841600  0.92098800  1
  F  F4  1  0.07901200  0.77315900  0.70158400  1
  F  F5  1  0.77315900  0.70158400  0.07901200  1
  F  F6  1  0.70158400  0.07901200  0.77315900  1
  F  F7  1  0.92098800  0.22684100  0.29841600  1
