# generated using pymatgen
data_TaCo3
_symmetry_space_group_name_H-M   'P 1'
_cell_length_a   6.92605947
_cell_length_b   6.92605947
_cell_length_c   6.92605963
_cell_angle_alpha   43.76579290
_cell_angle_beta   43.76579290
_cell_angle_gamma   43.76579060
_symmetry_Int_Tables_number   1
_chemical_formula_structural   TaCo3
_chemical_formula_sum   'Ta3 Co9'
_cell_volume   144.31583362
_cell_formula_units_Z   3
loop_
 _symmetry_equiv_pos_site_id
 _symmetry_equiv_pos_as_xyz
  1  'x, y, z'
loop_
 _atom_site_type_symbol
 _atom_site_label
 _atom_site_symmetry_multiplicity
 _atom_site_fract_x
 _atom_site_fract_y
 _atom_site_fract_z
 _atom_site_occupancy
  Ta  Ta0  1  0.00000000  0.00000000  0.00000000  1
  Ta  Ta1  1  0.21843100  0.21843100  0.21843100  1
  Ta  Ta2  1  0.78156900  0.78156900  0.78156900  1
  Co  Co3  1  0.50000000  0.50000000  0.00000000  1
  Co  Co4  1  0.50000000  0.00000000  0.50000000  1
  Co  Co5  1  0.00000000  0.50000000  0.50000000  1
  Co  Co6  1  0.24188200  0.71394100  0.71394100  1
  Co  Co7  1  0.71394100  0.71394100  0.24188200  1
  Co  Co8  1  0.71394100  0.24188200  0.71394100  1
  Co  Co9  1  0.28605900  0.75811800  0.28605900  1
  Co  Co10  1  0.75811800  0.28605900  0.28605900  1
  Co  Co11  1  0.28605900  0.28605900  0.75811800  1
