# generated using pymatgen
data_Y6TeO12
_symmetry_space_group_name_H-M   'P 1'
_cell_length_a   6.51615674
_cell_length_b   6.51615674
_cell_length_c   6.51615659
_cell_angle_alpha   98.67769680
_cell_angle_beta   98.67769680
_cell_angle_gamma   98.67769382
_symmetry_Int_Tables_number   1
_chemical_formula_structural   Y6TeO12
_chemical_formula_sum   'Y6 Te1 O12'
_cell_volume   266.07737033
_cell_formula_units_Z   1
loop_
 _symmetry_equiv_pos_site_id
 _symmetry_equiv_pos_as_xyz
  1  'x, y, z'
loop_
 _atom_site_type_symbol
 _atom_site_label
 _atom_site_symmetry_multiplicity
 _atom_site_fract_x
 _atom_site_fract_y
 _atom_site_fract_z
 _atom_site_occupancy
  Y  Y0  1  0.85542400  0.39037800  0.68452200  1
  Y  Y1  1  0.60962200  0.31547800  0.14457600  1
  Y  Y2  1  0.31547800  0.14457600  0.60962200  1
  Y  Y3  1  0.68452200  0.85542400  0.39037800  1
  Y  Y4  1  0.39037800  0.68452200  0.85542400  1
  Y  Y5  1  0.14457600  0.60962200  0.31547800  1
  Te  Te6  1  0.00000000  0.00000000  0.00000000  1
  O  O7  1  0.92845200  0.03407100  0.70317600  1
  O  O8  1  0.96592900  0.29682400  0.07154800  1
  O  O9  1  0.59346400  0.17709400  0.43257300  1
  O  O10  1  0.82290600  0.56742700  0.40653600  1
  O  O11  1  0.29682400  0.07154800  0.96592900  1
  O  O12  1  0.56742700  0.40653600  0.82290600  1
  O  O13  1  0.43257300  0.59346400  0.17709400  1
  O  O14  1  0.70317600  0.92845200  0.03407100  1
  O  O15  1  0.17709400  0.43257300  0.59346400  1
  O  O16  1  0.40653600  0.82290600  0.56742700  1
  O  O17  1  0.03407100  0.70317600  0.92845200  1
  O  O18  1  0.07154800  0.96592900  0.29682400  1
