# generated using pymatgen
data_La3PO7
_symmetry_space_group_name_H-M   'P 1'
_cell_length_a   9.52870376
_cell_length_b   9.52870376
_cell_length_c   12.54082992
_cell_angle_alpha   77.16001983
_cell_angle_beta   77.16001983
_cell_angle_gamma   91.61185465
_symmetry_Int_Tables_number   1
_chemical_formula_structural   La3PO7
_chemical_formula_sum   'La18 P6 O42'
_cell_volume   1078.82166226
_cell_formula_units_Z   6
loop_
 _symmetry_equiv_pos_site_id
 _symmetry_equiv_pos_as_xyz
  1  'x, y, z'
loop_
 _atom_site_type_symbol
 _atom_site_label
 _atom_site_symmetry_multiplicity
 _atom_site_fract_x
 _atom_site_fract_y
 _atom_site_fract_z
 _atom_site_occupancy
  La  La0  1  0.14792700  0.49185100  0.05325200  1
  La  La1  1  0.49185100  0.14792700  0.05325200  1
  La  La2  1  0.19042900  0.49998700  0.38104900  1
  La  La3  1  0.49998700  0.19042900  0.38104900  1
  La  La4  1  0.18688900  0.84361400  0.16234900  1
  La  La5  1  0.84361400  0.18688900  0.16234900  1
  La  La6  1  0.50525000  0.19165800  0.71994600  1
  La  La7  1  0.19165800  0.50525000  0.71994600  1
  La  La8  1  0.14175100  0.83184000  0.49834600  1
  La  La9  1  0.83184000  0.14175100  0.49834600  1
  La  La10  1  0.14533400  0.83693500  0.83553300  1
  La  La11  1  0.83693500  0.14533400  0.83553300  1
  La  La12  1  0.84453200  0.50021600  0.29619200  1
  La  La13  1  0.50021600  0.84453200  0.29619200  1
  La  La14  1  0.48061000  0.85550600  0.60837700  1
  La  La15  1  0.85550600  0.48061000  0.60837700  1
  La  La16  1  0.49145300  0.83343600  0.92096100  1
  La  La17  1  0.83343600  0.49145300  0.92096100  1
  P  P18  1  0.17307900  0.17307900  0.28494900  1
  P  P19  1  0.16454500  0.16454500  0.92387400  1
  P  P20  1  0.50518500  0.50518500  0.49312300  1
  P  P21  1  0.50292600  0.50292600  0.87186000  1
  P  P22  1  0.83678200  0.83678200  0.34228700  1
  P  P23  1  0.83476600  0.83476600  0.72194600  1
  O  O24  1  0.07761300  0.07761300  0.39529500  1
  O  O25  1  0.26464000  0.07791600  0.21653200  1
  O  O26  1  0.07791600  0.26464000  0.21653200  1
  O  O27  1  0.05624800  0.05624800  0.89831300  1
  O  O28  1  0.27934400  0.27934400  0.31446400  1
  O  O29  1  0.58719100  0.09309800  0.22042000  1
  O  O30  1  0.09309800  0.58719200  0.22042000  1
  O  O31  1  0.07430100  0.26252600  0.99014400  1
  O  O32  1  0.26252600  0.07430100  0.99014400  1
  O  O33  1  0.25672100  0.25672100  0.81062500  1
  O  O34  1  0.10946100  0.56476500  0.55314200  1
  O  O35  1  0.56476500  0.10946100  0.55314200  1
  O  O36  1  0.40267700  0.40267700  0.59701300  1
  O  O37  1  0.47198800  0.47198800  0.38395100  1
  O  O38  1  0.58788000  0.07252500  0.88626300  1
  O  O39  1  0.07252500  0.58788000  0.88626300  1
  O  O40  1  0.25954600  0.75075900  0.33153000  1
  O  O41  1  0.75075900  0.25954600  0.33153000  1
  O  O42  1  0.39678600  0.39678600  0.97234500  1
  O  O43  1  0.88223800  0.45032500  0.10850100  1
  O  O44  1  0.45032500  0.88223800  0.10850100  1
  O  O45  1  0.22760500  0.77105600  0.66433000  1
  O  O46  1  0.77105600  0.22760500  0.66433000  1
  O  O47  1  0.66326100  0.47624700  0.49527100  1
  O  O48  1  0.47624700  0.66326100  0.49527100  1
  O  O49  1  0.60683900  0.41868200  0.80057600  1
  O  O50  1  0.41868200  0.60683900  0.80057600  1
  O  O51  1  0.74727200  0.24167000  0.99598100  1
  O  O52  1  0.24167000  0.74727200  0.99598100  1
  O  O53  1  0.95343500  0.38567700  0.44533600  1
  O  O54  1  0.38567700  0.95343600  0.44533600  1
  O  O55  1  0.74150600  0.74150600  0.29313600  1
  O  O56  1  0.59420300  0.59420300  0.92714000  1
  O  O57  1  0.94864800  0.38477500  0.77175100  1
  O  O58  1  0.38477500  0.94864800  0.77175100  1
  O  O59  1  0.92504900  0.73726800  0.41282100  1
  O  O60  1  0.73726800  0.92504900  0.41282100  1
  O  O61  1  0.86595300  0.67939600  0.71239800  1
  O  O62  1  0.67939600  0.86595300  0.71239800  1
  O  O63  1  0.93974200  0.93974200  0.23715700  1
  O  O64  1  0.85762400  0.85762400  0.83656200  1
  O  O65  1  0.94397900  0.94397900  0.62564000  1
