# generated using pymatgen
data_Lu6TeO12
_symmetry_space_group_name_H-M   'P 1'
_cell_length_a   6.36562968
_cell_length_b   6.36562968
_cell_length_c   6.36562966
_cell_angle_alpha   98.92041031
_cell_angle_beta   98.92041031
_cell_angle_gamma   98.92040371
_symmetry_Int_Tables_number   1
_chemical_formula_structural   Lu6TeO12
_chemical_formula_sum   'Lu6 Te1 O12'
_cell_volume   247.46560931
_cell_formula_units_Z   1
loop_
 _symmetry_equiv_pos_site_id
 _symmetry_equiv_pos_as_xyz
  1  'x, y, z'
loop_
 _atom_site_type_symbol
 _atom_site_label
 _atom_site_symmetry_multiplicity
 _atom_site_fract_x
 _atom_site_fract_y
 _atom_site_fract_z
 _atom_site_occupancy
  Lu  Lu0  1  0.85527100  0.67855900  0.39211700  1
  Lu  Lu1  1  0.60788300  0.14472900  0.32144100  1
  Lu  Lu2  1  0.67855900  0.39211700  0.85527100  1
  Lu  Lu3  1  0.32144100  0.60788300  0.14472900  1
  Lu  Lu4  1  0.39211700  0.85527100  0.67855900  1
  Lu  Lu5  1  0.14472900  0.32144100  0.60788300  1
  Te  Te6  1  0.00000000  0.00000000  0.00000000  1
  O  O7  1  0.95939700  0.08386800  0.29974900  1
  O  O8  1  0.91613200  0.70025100  0.04060300  1
  O  O9  1  0.82217800  0.40988600  0.57340100  1
  O  O10  1  0.70025100  0.04060300  0.91613200  1
  O  O11  1  0.59011400  0.42659900  0.17782200  1
  O  O12  1  0.57340100  0.82217800  0.40988600  1
  O  O13  1  0.42659900  0.17782200  0.59011400  1
  O  O14  1  0.40988600  0.57340100  0.82217800  1
  O  O15  1  0.29974900  0.95939700  0.08386800  1
  O  O16  1  0.17782200  0.59011400  0.42659900  1
  O  O17  1  0.08386800  0.29974900  0.95939700  1
  O  O18  1  0.04060300  0.91613200  0.70025100  1
