# generated using pymatgen
data_MnP6(WO8)3
_symmetry_space_group_name_H-M   'P 1'
_cell_length_a   8.98415404
_cell_length_b   8.98415404
_cell_length_c   8.98415425
_cell_angle_alpha   58.83083930
_cell_angle_beta   58.83083930
_cell_angle_gamma   58.83083575
_symmetry_Int_Tables_number   1
_chemical_formula_structural   MnP6(WO8)3
_chemical_formula_sum   'Mn1 P6 W3 O24'
_cell_volume   499.07451903
_cell_formula_units_Z   1
loop_
 _symmetry_equiv_pos_site_id
 _symmetry_equiv_pos_as_xyz
  1  'x, y, z'
loop_
 _atom_site_type_symbol
 _atom_site_label
 _atom_site_symmetry_multiplicity
 _atom_site_fract_x
 _atom_site_fract_y
 _atom_site_fract_z
 _atom_site_occupancy
  Mn  Mn0  1  0.13936700  0.13936700  0.13936700  1
  P  P1  1  0.53611300  0.96323200  0.24800600  1
  P  P2  1  0.24800600  0.53611300  0.96323200  1
  P  P3  1  0.96323200  0.24800600  0.53611300  1
  P  P4  1  0.03778900  0.74568500  0.46582000  1
  P  P5  1  0.74568500  0.46582000  0.03778900  1
  P  P6  1  0.46582000  0.03778900  0.74568500  1
  W  W7  1  0.85678300  0.85678300  0.85678300  1
  W  W8  1  0.64275200  0.64275200  0.64275200  1
  W  W9  1  0.35655200  0.35655200  0.35655200  1
  O  O10  1  0.51757600  0.86823900  0.69673500  1
  O  O11  1  0.86823900  0.69673500  0.51757600  1
  O  O12  1  0.71550200  0.93835300  0.07740100  1
  O  O13  1  0.69673500  0.51757600  0.86823900  1
  O  O14  1  0.58422400  0.78491700  0.41904500  1
  O  O15  1  0.37060400  0.97366400  0.23852900  1
  O  O16  1  0.07740100  0.71550200  0.93835300  1
  O  O17  1  0.41904500  0.58422400  0.78491700  1
  O  O18  1  0.78491700  0.41904500  0.58422400  1
  O  O19  1  0.00955800  0.77407800  0.63762600  1
  O  O20  1  0.04715400  0.90955200  0.29462800  1
  O  O21  1  0.77407800  0.63762600  0.00955800  1
  O  O22  1  0.23852900  0.37060400  0.97366400  1
  O  O23  1  0.93835300  0.07740100  0.71550200  1
  O  O24  1  0.97366400  0.23852900  0.37060400  1
  O  O25  1  0.21108500  0.56896600  0.44783600  1
  O  O26  1  0.56896600  0.44783600  0.21108500  1
  O  O27  1  0.90955200  0.29462800  0.04715400  1
  O  O28  1  0.63762600  0.00955800  0.77407800  1
  O  O29  1  0.44783600  0.21108500  0.56896600  1
  O  O30  1  0.28102400  0.51110500  0.13049700  1
  O  O31  1  0.29462800  0.04715400  0.90955200  1
  O  O32  1  0.13049700  0.28102400  0.51110500  1
  O  O33  1  0.51110500  0.13049700  0.28102400  1
