# generated using pymatgen
data_Ti2V(PO4)3
_symmetry_space_group_name_H-M   'P 1'
_cell_length_a   8.58437284
_cell_length_b   8.58437284
_cell_length_c   8.58437258
_cell_angle_alpha   60.90825014
_cell_angle_beta   60.90825014
_cell_angle_gamma   60.90825075
_symmetry_Int_Tables_number   1
_chemical_formula_structural   Ti2V(PO4)3
_chemical_formula_sum   'Ti4 V2 P6 O24'
_cell_volume   456.46903875
_cell_formula_units_Z   2
loop_
 _symmetry_equiv_pos_site_id
 _symmetry_equiv_pos_as_xyz
  1  'x, y, z'
loop_
 _atom_site_type_symbol
 _atom_site_label
 _atom_site_symmetry_multiplicity
 _atom_site_fract_x
 _atom_site_fract_y
 _atom_site_fract_z
 _atom_site_occupancy
  Ti  Ti0  1  0.35637500  0.35637500  0.35637500  1
  Ti  Ti1  1  0.85637500  0.85637500  0.85637500  1
  Ti  Ti2  1  0.14362500  0.14362500  0.14362500  1
  Ti  Ti3  1  0.64362500  0.64362500  0.64362500  1
  V  V4  1  0.00000000  0.00000000  0.00000000  1
  V  V5  1  0.50000000  0.50000000  0.50000000  1
  P  P6  1  0.75000000  0.04264400  0.45735600  1
  P  P7  1  0.04264400  0.45735600  0.75000000  1
  P  P8  1  0.45735600  0.75000000  0.04264400  1
  P  P9  1  0.54264400  0.25000000  0.95735600  1
  P  P10  1  0.95735600  0.54264400  0.25000000  1
  P  P11  1  0.25000000  0.95735600  0.54264400  1
  O  O12  1  0.88541300  0.50079600  0.68263200  1
  O  O13  1  0.50079600  0.68263200  0.88541300  1
  O  O14  1  0.68263200  0.88541300  0.50079600  1
  O  O15  1  0.90987000  0.05700200  0.26260700  1
  O  O16  1  0.81736800  0.99920400  0.61458700  1
  O  O17  1  0.59013000  0.23739300  0.44299800  1
  O  O18  1  0.05700200  0.26260700  0.90987000  1
  O  O19  1  0.23739300  0.44299800  0.59013000  1
  O  O20  1  0.38541300  0.18263200  0.00079600  1
  O  O21  1  0.44299800  0.59013000  0.23739300  1
  O  O22  1  0.73739300  0.09013000  0.94299800  1
  O  O23  1  0.00079600  0.38541300  0.18263200  1
  O  O24  1  0.99920400  0.61458700  0.81736800  1
  O  O25  1  0.26260700  0.90987000  0.05700200  1
  O  O26  1  0.55700200  0.40987000  0.76260700  1
  O  O27  1  0.61458700  0.81736800  0.99920400  1
  O  O28  1  0.76260700  0.55700200  0.40987000  1
  O  O29  1  0.94299800  0.73739300  0.09013000  1
  O  O30  1  0.40987000  0.76260700  0.55700200  1
  O  O31  1  0.18263200  0.00079600  0.38541300  1
  O  O32  1  0.09013000  0.94299800  0.73739300  1
  O  O33  1  0.31736800  0.11458700  0.49920400  1
  O  O34  1  0.49920400  0.31736800  0.11458700  1
  O  O35  1  0.11458700  0.49920400  0.31736800  1
