# generated using pymatgen
data_Co2HgO4
_symmetry_space_group_name_H-M   'P 1'
_cell_length_a   4.90378700
_cell_length_b   5.69076400
_cell_length_c   11.56496400
_cell_angle_alpha   90.00000000
_cell_angle_beta   90.00000000
_cell_angle_gamma   90.00000000
_symmetry_Int_Tables_number   1
_chemical_formula_structural   Co2HgO4
_chemical_formula_sum   'Co8 Hg4 O16'
_cell_volume   322.73529153
_cell_formula_units_Z   4
loop_
 _symmetry_equiv_pos_site_id
 _symmetry_equiv_pos_as_xyz
  1  'x, y, z'
loop_
 _atom_site_type_symbol
 _atom_site_label
 _atom_site_symmetry_multiplicity
 _atom_site_fract_x
 _atom_site_fract_y
 _atom_site_fract_z
 _atom_site_occupancy
  Co  Co0  1  0.50386100  0.00000000  0.75552800  1
  Co  Co1  1  0.49613900  0.50000000  0.74447200  1
  Co  Co2  1  0.50386100  0.00000000  0.24447200  1
  Co  Co3  1  0.49613900  0.50000000  0.25552800  1
  Co  Co4  1  0.00000000  0.75000000  0.75000000  1
  Co  Co5  1  0.00000000  0.75000000  0.25000000  1
  Co  Co6  1  0.00000000  0.25000000  0.75000000  1
  Co  Co7  1  0.00000000  0.25000000  0.25000000  1
  Hg  Hg8  1  0.56791400  0.50000000  0.00000000  1
  Hg  Hg9  1  0.88743600  0.50000000  0.50000000  1
  Hg  Hg10  1  0.11256400  0.00000000  0.00000000  1
  Hg  Hg11  1  0.43208600  0.00000000  0.50000000  1
  O  O12  1  0.66701400  0.74936000  0.66177200  1
  O  O13  1  0.66701400  0.74936000  0.33822800  1
  O  O14  1  0.66701400  0.25064000  0.33822800  1
  O  O15  1  0.66701400  0.25064000  0.66177200  1
  O  O16  1  0.84790200  0.00000000  0.83607900  1
  O  O17  1  0.84790200  0.00000000  0.16392100  1
  O  O18  1  0.82193100  0.50000000  0.83312100  1
  O  O19  1  0.82193100  0.50000000  0.16687900  1
  O  O20  1  0.17806900  0.00000000  0.33312100  1
  O  O21  1  0.17806900  0.00000000  0.66687900  1
  O  O22  1  0.15209800  0.50000000  0.33607900  1
  O  O23  1  0.15209800  0.50000000  0.66392100  1
  O  O24  1  0.33298600  0.75064000  0.83822800  1
  O  O25  1  0.33298600  0.75064000  0.16177200  1
  O  O26  1  0.33298600  0.24936000  0.83822800  1
  O  O27  1  0.33298600  0.24936000  0.16177200  1
