# generated using pymatgen
data_BaP2(HO2)4
_symmetry_space_group_name_H-M   'P 1'
_cell_length_a   7.78938500
_cell_length_b   8.62824400
_cell_length_c   10.57345300
_cell_angle_alpha   90.00000000
_cell_angle_beta   90.00000000
_cell_angle_gamma   90.00000000
_symmetry_Int_Tables_number   1
_chemical_formula_structural   BaP2(HO2)4
_chemical_formula_sum   'Ba4 P8 H16 O32'
_cell_volume   710.62818279
_cell_formula_units_Z   4
loop_
 _symmetry_equiv_pos_site_id
 _symmetry_equiv_pos_as_xyz
  1  'x, y, z'
loop_
 _atom_site_type_symbol
 _atom_site_label
 _atom_site_symmetry_multiplicity
 _atom_site_fract_x
 _atom_site_fract_y
 _atom_site_fract_z
 _atom_site_occupancy
  Ba  Ba0  1  0.75000000  0.89986600  0.25000000  1
  Ba  Ba1  1  0.25000000  0.60013400  0.75000000  1
  Ba  Ba2  1  0.25000000  0.10013400  0.75000000  1
  Ba  Ba3  1  0.75000000  0.39986600  0.25000000  1
  P  P4  1  0.07462500  0.70844400  0.42288900  1
  P  P5  1  0.42537500  0.70844400  0.07711100  1
  P  P6  1  0.57462500  0.79155600  0.57711100  1
  P  P7  1  0.92537500  0.79155600  0.92288900  1
  P  P8  1  0.92537500  0.29155600  0.57711100  1
  P  P9  1  0.57462500  0.29155600  0.92288900  1
  P  P10  1  0.42537500  0.20844400  0.42288900  1
  P  P11  1  0.07462500  0.20844400  0.07711100  1
  H  H12  1  0.91801400  0.80194900  0.57816300  1
  H  H13  1  0.58198600  0.80194900  0.92183700  1
  H  H14  1  0.41801400  0.69805100  0.42183700  1
  H  H15  1  0.08198600  0.69805100  0.07816200  1
  H  H16  1  0.08198600  0.19805100  0.42183700  1
  H  H17  1  0.41801400  0.19805100  0.07816200  1
  H  H18  1  0.58198600  0.30194900  0.57816300  1
  H  H19  1  0.91801400  0.30194900  0.92183700  1
  H  H20  1  0.18382800  0.94917200  0.38197900  1
  H  H21  1  0.31617200  0.94917200  0.11802100  1
  H  H22  1  0.68382800  0.55082800  0.61802100  1
  H  H23  1  0.81617200  0.55082800  0.88197900  1
  H  H24  1  0.81617200  0.05082800  0.61802100  1
  H  H25  1  0.68382800  0.05082800  0.88197900  1
  H  H26  1  0.31617200  0.44917200  0.38197900  1
  H  H27  1  0.18382800  0.44917200  0.11802100  1
  O  O28  1  0.23943100  0.61290700  0.42953100  1
  O  O29  1  0.26056900  0.61290700  0.07046900  1
  O  O30  1  0.73943100  0.88709300  0.57046900  1
  O  O31  1  0.76056900  0.88709300  0.92953100  1
  O  O32  1  0.76056900  0.38709300  0.57046900  1
  O  O33  1  0.73943100  0.38709300  0.92953100  1
  O  O34  1  0.26056900  0.11290700  0.42953100  1
  O  O35  1  0.23943100  0.11290700  0.07046900  1
  O  O36  1  0.03726000  0.75427800  0.56709800  1
  O  O37  1  0.46274000  0.75427800  0.93290200  1
  O  O38  1  0.53726000  0.74572200  0.43290200  1
  O  O39  1  0.96274000  0.74572200  0.06709800  1
  O  O40  1  0.96274000  0.24572200  0.43290200  1
  O  O41  1  0.53726000  0.24572200  0.06709800  1
  O  O42  1  0.46274000  0.25427800  0.56709800  1
  O  O43  1  0.03726000  0.25427800  0.93290200  1
  O  O44  1  0.91716900  0.63920600  0.36099600  1
  O  O45  1  0.58283100  0.63920600  0.13900400  1
  O  O46  1  0.41716900  0.86079400  0.63900400  1
  O  O47  1  0.08283100  0.86079400  0.86099600  1
  O  O48  1  0.08283100  0.36079400  0.63900400  1
  O  O49  1  0.41716900  0.36079400  0.86099600  1
  O  O50  1  0.58283100  0.13920600  0.36099600  1
  O  O51  1  0.91716900  0.13920600  0.13900400  1
  O  O52  1  0.10287000  0.86724800  0.34795200  1
  O  O53  1  0.39713000  0.86724800  0.15204800  1
  O  O54  1  0.60287000  0.63275200  0.65204800  1
  O  O55  1  0.89713000  0.63275200  0.84795200  1
  O  O56  1  0.89713000  0.13275200  0.65204800  1
  O  O57  1  0.60287000  0.13275200  0.84795200  1
  O  O58  1  0.39713000  0.36724800  0.34795200  1
  O  O59  1  0.10287000  0.36724800  0.15204800  1
