# generated using pymatgen
data_LiCuF4
_symmetry_space_group_name_H-M   'P 1'
_cell_length_a   4.99185900
_cell_length_b   5.62736300
_cell_length_c   5.86099958
_cell_angle_alpha   60.64362515
_cell_angle_beta   90.00000000
_cell_angle_gamma   90.00000000
_symmetry_Int_Tables_number   1
_chemical_formula_structural   LiCuF4
_chemical_formula_sum   'Li2 Cu2 F8'
_cell_volume   143.49931942
_cell_formula_units_Z   2
loop_
 _symmetry_equiv_pos_site_id
 _symmetry_equiv_pos_as_xyz
  1  'x, y, z'
loop_
 _atom_site_type_symbol
 _atom_site_label
 _atom_site_symmetry_multiplicity
 _atom_site_fract_x
 _atom_site_fract_y
 _atom_site_fract_z
 _atom_site_occupancy
  Li  Li0  1  0.00000000  0.50000000  0.50000000  1
  Li  Li1  1  0.50000000  0.50000000  0.00000000  1
  Cu  Cu2  1  0.50000000  0.00000000  0.50000000  1
  Cu  Cu3  1  0.00000000  0.00000000  0.00000000  1
  F  F4  1  0.68814600  0.85360400  0.80265100  1
  F  F5  1  0.81185400  0.85360400  0.30265100  1
  F  F6  1  0.33023600  0.67466700  0.63256900  1
  F  F7  1  0.83023600  0.32533300  0.86743100  1
  F  F8  1  0.16976400  0.67466700  0.13256900  1
  F  F9  1  0.66976400  0.32533300  0.36743100  1
  F  F10  1  0.18814600  0.14639600  0.69734900  1
  F  F11  1  0.31185400  0.14639600  0.19734900  1
