# generated using pymatgen
data_RbPH3O4F
_symmetry_space_group_name_H-M   'P 1'
_cell_length_a   4.65849000
_cell_length_b   9.17079500
_cell_length_c   12.11251400
_cell_angle_alpha   90.00000000
_cell_angle_beta   90.00000000
_cell_angle_gamma   90.00000000
_symmetry_Int_Tables_number   1
_chemical_formula_structural   RbPH3O4F
_chemical_formula_sum   'Rb4 P4 H12 O16 F4'
_cell_volume   517.47151109
_cell_formula_units_Z   4
loop_
 _symmetry_equiv_pos_site_id
 _symmetry_equiv_pos_as_xyz
  1  'x, y, z'
loop_
 _atom_site_type_symbol
 _atom_site_label
 _atom_site_symmetry_multiplicity
 _atom_site_fract_x
 _atom_site_fract_y
 _atom_site_fract_z
 _atom_site_occupancy
  Rb  Rb0  1  0.36763600  0.15463600  0.69909700  1
  Rb  Rb1  1  0.86763600  0.34536400  0.19909700  1
  Rb  Rb2  1  0.13236400  0.65463600  0.69909700  1
  Rb  Rb3  1  0.63236400  0.84536400  0.19909700  1
  P  P4  1  0.07931600  0.02224600  0.95553300  1
  P  P5  1  0.57931600  0.47775400  0.45553300  1
  P  P6  1  0.42068400  0.52224600  0.95553300  1
  P  P7  1  0.92068400  0.97775400  0.45553300  1
  H  H8  1  0.63677900  0.10310500  0.99296200  1
  H  H9  1  0.24854800  0.10087100  0.29528000  1
  H  H10  1  0.81644000  0.21322000  0.48975300  1
  H  H11  1  0.31644000  0.28678000  0.98975300  1
  H  H12  1  0.74854800  0.39912900  0.79528000  1
  H  H13  1  0.13677900  0.39689500  0.49296200  1
  H  H14  1  0.86322100  0.60310500  0.99296200  1
  H  H15  1  0.25145200  0.60087100  0.29528000  1
  H  H16  1  0.68356000  0.71322000  0.48975300  1
  H  H17  1  0.18356000  0.78678000  0.98975300  1
  H  H18  1  0.75145200  0.89912900  0.79528000  1
  H  H19  1  0.36322100  0.89689500  0.49296200  1
  O  O20  1  0.03441900  0.02499100  0.34405600  1
  O  O21  1  0.83739600  0.09790000  0.02842600  1
  O  O22  1  0.81657500  0.11245300  0.52763200  1
  O  O23  1  0.33181700  0.12951600  0.94757200  1
  O  O24  1  0.83181700  0.37048400  0.44757200  1
  O  O25  1  0.31657500  0.38754700  0.02763200  1
  O  O26  1  0.33739600  0.40210000  0.52842600  1
  O  O27  1  0.53441900  0.47500900  0.84405600  1
  O  O28  1  0.46558100  0.52499100  0.34405600  1
  O  O29  1  0.66260400  0.59790000  0.02842600  1
  O  O30  1  0.68342500  0.61245300  0.52763200  1
  O  O31  1  0.16818300  0.62951600  0.94757200  1
  O  O32  1  0.66818300  0.87048400  0.44757200  1
  O  O33  1  0.18342500  0.88754700  0.02763200  1
  O  O34  1  0.16260400  0.90210000  0.52842600  1
  O  O35  1  0.96558100  0.97500900  0.84405600  1
  F  F36  1  0.39844200  0.15615600  0.24772000  1
  F  F37  1  0.89844200  0.34384400  0.74772000  1
  F  F38  1  0.10155800  0.65615600  0.24772000  1
  F  F39  1  0.60155800  0.84384400  0.74772000  1
