# generated using pymatgen
data_SrSc2O4
_symmetry_space_group_name_H-M   'P 1'
_cell_length_a   3.20939100
_cell_length_b   9.76036500
_cell_length_c   11.34946800
_cell_angle_alpha   90.00000000
_cell_angle_beta   90.00000000
_cell_angle_gamma   90.00000000
_symmetry_Int_Tables_number   1
_chemical_formula_structural   SrSc2O4
_chemical_formula_sum   'Sr4 Sc8 O16'
_cell_volume   355.52012831
_cell_formula_units_Z   4
loop_
 _symmetry_equiv_pos_site_id
 _symmetry_equiv_pos_as_xyz
  1  'x, y, z'
loop_
 _atom_site_type_symbol
 _atom_site_label
 _atom_site_symmetry_multiplicity
 _atom_site_fract_x
 _atom_site_fract_y
 _atom_site_fract_z
 _atom_site_occupancy
  Sr  Sr0  1  0.75000000  0.24525600  0.65212600  1
  Sr  Sr1  1  0.25000000  0.25474400  0.15212600  1
  Sr  Sr2  1  0.75000000  0.74525600  0.84787400  1
  Sr  Sr3  1  0.25000000  0.75474400  0.34787400  1
  Sc  Sc4  1  0.75000000  0.07090400  0.89002800  1
  Sc  Sc5  1  0.75000000  0.07789000  0.39319400  1
  Sc  Sc6  1  0.25000000  0.42211000  0.89319400  1
  Sc  Sc7  1  0.25000000  0.42909600  0.39002800  1
  Sc  Sc8  1  0.75000000  0.57090400  0.60997200  1
  Sc  Sc9  1  0.75000000  0.57789000  0.10680600  1
  Sc  Sc10  1  0.25000000  0.92211000  0.60680600  1
  Sc  Sc11  1  0.25000000  0.92909600  0.10997200  1
  O  O12  1  0.25000000  0.02088400  0.28328100  1
  O  O13  1  0.75000000  0.07391000  0.07401600  1
  O  O14  1  0.25000000  0.11685100  0.52027900  1
  O  O15  1  0.25000000  0.20823100  0.84019300  1
  O  O16  1  0.75000000  0.29176900  0.34019300  1
  O  O17  1  0.75000000  0.38314900  0.02027900  1
  O  O18  1  0.25000000  0.42609000  0.57401600  1
  O  O19  1  0.75000000  0.47911600  0.78328100  1
  O  O20  1  0.25000000  0.52088400  0.21671900  1
  O  O21  1  0.75000000  0.57391000  0.42598400  1
  O  O22  1  0.25000000  0.61685100  0.97972100  1
  O  O23  1  0.25000000  0.70823100  0.65980700  1
  O  O24  1  0.75000000  0.79176900  0.15980700  1
  O  O25  1  0.75000000  0.88314900  0.47972100  1
  O  O26  1  0.25000000  0.92609000  0.92598400  1
  O  O27  1  0.75000000  0.97911600  0.71671900  1
