# generated using pymatgen
data_La(ClO4)3
_symmetry_space_group_name_H-M   'P 1'
_cell_length_a   9.86048384
_cell_length_b   9.86048384
_cell_length_c   9.86048365
_cell_angle_alpha   51.49624219
_cell_angle_beta   51.49624219
_cell_angle_gamma   51.49623972
_symmetry_Int_Tables_number   1
_chemical_formula_structural   La(ClO4)3
_chemical_formula_sum   'La2 Cl6 O24'
_cell_volume   542.19642848
_cell_formula_units_Z   2
loop_
 _symmetry_equiv_pos_site_id
 _symmetry_equiv_pos_as_xyz
  1  'x, y, z'
loop_
 _atom_site_type_symbol
 _atom_site_label
 _atom_site_symmetry_multiplicity
 _atom_site_fract_x
 _atom_site_fract_y
 _atom_site_fract_z
 _atom_site_occupancy
  La  La0  1  0.05881700  0.05881700  0.05881700  1
  La  La1  1  0.55881700  0.55881700  0.55881700  1
  Cl  Cl2  1  0.84599400  0.46811700  0.18688800  1
  Cl  Cl3  1  0.46811700  0.18688800  0.84599400  1
  Cl  Cl4  1  0.96811700  0.34599400  0.68688800  1
  Cl  Cl5  1  0.18688800  0.84599400  0.46811700  1
  Cl  Cl6  1  0.68688800  0.96811700  0.34599400  1
  Cl  Cl7  1  0.34599400  0.68688800  0.96811700  1
  O  O8  1  0.74485500  0.07549600  0.14019800  1
  O  O9  1  0.07549600  0.14019800  0.74485500  1
  O  O10  1  0.88438400  0.29022300  0.20110400  1
  O  O11  1  0.57040600  0.00324600  0.94652100  1
  O  O12  1  0.89366200  0.42198100  0.33060800  1
  O  O13  1  0.50324600  0.07040600  0.44652100  1
  O  O14  1  0.79022300  0.38438400  0.70110400  1
  O  O15  1  0.14019800  0.74485500  0.07549600  1
  O  O16  1  0.94652100  0.57040600  0.00324600  1
  O  O17  1  0.57549600  0.24485500  0.64019800  1
  O  O18  1  0.29022300  0.20110400  0.88438400  1
  O  O19  1  0.42198100  0.33060800  0.89366200  1
  O  O20  1  0.64019800  0.57549600  0.24485500  1
  O  O21  1  0.44652100  0.50324600  0.07040600  1
  O  O22  1  0.70110400  0.79022300  0.38438400  1
  O  O23  1  0.38438400  0.70110400  0.79022300  1
  O  O24  1  0.07040600  0.44652100  0.50324600  1
  O  O25  1  0.24485500  0.64019800  0.57549600  1
  O  O26  1  0.92198100  0.39366200  0.83060800  1
  O  O27  1  0.33060800  0.89366200  0.42198100  1
  O  O28  1  0.20110400  0.88438400  0.29022300  1
  O  O29  1  0.00324600  0.94652100  0.57040600  1
  O  O30  1  0.83060800  0.92198100  0.39366200  1
  O  O31  1  0.39366200  0.83060800  0.92198100  1
