# generated using pymatgen
data_SrV4O10
_symmetry_space_group_name_H-M   'P 1'
_cell_length_a   6.26925100
_cell_length_b   7.46832865
_cell_length_c   9.06207492
_cell_angle_alpha   89.95886308
_cell_angle_beta   92.08287313
_cell_angle_gamma   107.45334402
_symmetry_Int_Tables_number   1
_chemical_formula_structural   SrV4O10
_chemical_formula_sum   'Sr2 V8 O20'
_cell_volume   404.46948941
_cell_formula_units_Z   2
loop_
 _symmetry_equiv_pos_site_id
 _symmetry_equiv_pos_as_xyz
  1  'x, y, z'
loop_
 _atom_site_type_symbol
 _atom_site_label
 _atom_site_symmetry_multiplicity
 _atom_site_fract_x
 _atom_site_fract_y
 _atom_site_fract_z
 _atom_site_occupancy
  Sr  Sr0  1  0.81769100  0.70723000  0.01320200  1
  Sr  Sr1  1  0.18230900  0.29277000  0.98679800  1
  V  V2  1  0.87896600  0.46476100  0.66071800  1
  V  V3  1  0.54306200  0.88092100  0.34000100  1
  V  V4  1  0.45693800  0.11907900  0.65999900  1
  V  V5  1  0.12103400  0.53523900  0.33928200  1
  V  V6  1  0.86290700  0.97104000  0.66034200  1
  V  V7  1  0.52741200  0.38728400  0.33487800  1
  V  V8  1  0.47258800  0.61271600  0.66512200  1
  V  V9  1  0.13709300  0.02896000  0.33965800  1
  O  O10  1  0.92069300  0.99645600  0.84520900  1
  O  O11  1  0.91342300  0.46085100  0.84620500  1
  O  O12  1  0.84467700  0.46620400  0.39710300  1
  O  O13  1  0.82566800  0.95228700  0.41082900  1
  O  O14  1  0.80027700  0.69226900  0.65031400  1
  O  O15  1  0.79275200  0.20529600  0.62908700  1
  O  O16  1  0.56796300  0.86527500  0.16084000  1
  O  O17  1  0.55378400  0.41788500  0.15083500  1
  O  O18  1  0.53012500  0.37757500  0.60387800  1
  O  O19  1  0.52828300  0.88808300  0.63378000  1
  O  O20  1  0.47171700  0.11191700  0.36622000  1
  O  O21  1  0.46987500  0.62242500  0.39612200  1
  O  O22  1  0.44621600  0.58211500  0.84916500  1
  O  O23  1  0.43203700  0.13472500  0.83916000  1
  O  O24  1  0.20724800  0.79470400  0.37091300  1
  O  O25  1  0.19972300  0.30773100  0.34968600  1
  O  O26  1  0.17433200  0.04771300  0.58917100  1
  O  O27  1  0.15532300  0.53379600  0.60289700  1
  O  O28  1  0.08657700  0.53914900  0.15379500  1
  O  O29  1  0.07930700  0.00354400  0.15479100  1
