# generated using pymatgen
data_Ta2CS2
_symmetry_space_group_name_H-M   'P 1'
_cell_length_a   9.80703484
_cell_length_b   9.80703484
_cell_length_c   9.80703541
_cell_angle_alpha   19.29292872
_cell_angle_beta   19.29292872
_cell_angle_gamma   19.29292788
_symmetry_Int_Tables_number   1
_chemical_formula_structural   Ta2CS2
_chemical_formula_sum   'Ta2 C1 S2'
_cell_volume   90.01225442
_cell_formula_units_Z   1
loop_
 _symmetry_equiv_pos_site_id
 _symmetry_equiv_pos_as_xyz
  1  'x, y, z'
loop_
 _atom_site_type_symbol
 _atom_site_label
 _atom_site_symmetry_multiplicity
 _atom_site_fract_x
 _atom_site_fract_y
 _atom_site_fract_z
 _atom_site_occupancy
  Ta  Ta0  1  0.62566500  0.62566500  0.62566500  1
  Ta  Ta1  1  0.37433500  0.37433500  0.37433500  1
  C  C2  1  0.00000000  0.00000000  0.00000000  1
  S  S3  1  0.76416200  0.76416200  0.76416200  1
  S  S4  1  0.23583800  0.23583800  0.23583800  1
