# generated using pymatgen
data_Ba5Mn5O14
_symmetry_space_group_name_H-M   'P 1'
_cell_length_a   5.77281600
_cell_length_b   5.77281600
_cell_length_c   23.93085900
_cell_angle_alpha   90.00000000
_cell_angle_beta   90.00000000
_cell_angle_gamma   119.69096677
_symmetry_Int_Tables_number   1
_chemical_formula_structural   Ba5Mn5O14
_chemical_formula_sum   'Ba10 Mn10 O28'
_cell_volume   692.80074714
_cell_formula_units_Z   2
loop_
 _symmetry_equiv_pos_site_id
 _symmetry_equiv_pos_as_xyz
  1  'x, y, z'
loop_
 _atom_site_type_symbol
 _atom_site_label
 _atom_site_symmetry_multiplicity
 _atom_site_fract_x
 _atom_site_fract_y
 _atom_site_fract_z
 _atom_site_occupancy
  Ba  Ba0  1  0.33704300  0.66915900  0.04599900  1
  Ba  Ba1  1  0.33162000  0.66305500  0.63905700  1
  Ba  Ba2  1  0.00312200  0.00489400  0.75000000  1
  Ba  Ba3  1  0.33162000  0.66305500  0.86094300  1
  Ba  Ba4  1  0.00489400  0.00312200  0.25000000  1
  Ba  Ba5  1  0.33704300  0.66915900  0.45400100  1
  Ba  Ba6  1  0.66915900  0.33704300  0.95400100  1
  Ba  Ba7  1  0.66915900  0.33704300  0.54599900  1
  Ba  Ba8  1  0.66305500  0.33162000  0.13905700  1
  Ba  Ba9  1  0.66305500  0.33162000  0.36094300  1
  Mn  Mn10  1  0.34578600  0.67253600  0.19192700  1
  Mn  Mn11  1  0.01065600  0.01065600  0.50000000  1
  Mn  Mn12  1  0.00226700  0.00440000  0.60737900  1
  Mn  Mn13  1  0.00226700  0.00440000  0.89262100  1
  Mn  Mn14  1  0.01065600  0.01065600  0.00000000  1
  Mn  Mn15  1  0.00440000  0.00226700  0.10737900  1
  Mn  Mn16  1  0.00440000  0.00226700  0.39262100  1
  Mn  Mn17  1  0.34578600  0.67253600  0.30807300  1
  Mn  Mn18  1  0.67253600  0.34578600  0.69192700  1
  Mn  Mn19  1  0.67253600  0.34578600  0.80807300  1
  O  O20  1  0.15548400  0.30950400  0.55126500  1
  O  O21  1  0.15548400  0.30950400  0.94873500  1
  O  O22  1  0.15428400  0.33027300  0.15241500  1
  O  O23  1  0.93944000  0.44505700  0.75000000  1
  O  O24  1  0.15428400  0.33027300  0.34758500  1
  O  O25  1  0.15377000  0.82347200  0.15226500  1
  O  O26  1  0.15457000  0.86140000  0.94774100  1
  O  O27  1  0.15377000  0.82347200  0.34773500  1
  O  O28  1  0.15457000  0.86140000  0.55225900  1
  O  O29  1  0.33027300  0.15428400  0.84758500  1
  O  O30  1  0.33027300  0.15428400  0.65241500  1
  O  O31  1  0.30950400  0.15548400  0.05126500  1
  O  O32  1  0.30950400  0.15548400  0.44873500  1
  O  O33  1  0.44505700  0.93944000  0.25000000  1
  O  O34  1  0.71252900  0.86345100  0.55140000  1
  O  O35  1  0.68301900  0.84173400  0.14849900  1
  O  O36  1  0.71252900  0.86345100  0.94860000  1
  O  O37  1  0.68301900  0.84173400  0.35150100  1
  O  O38  1  0.82347200  0.15377000  0.65226500  1
  O  O39  1  0.44617500  0.50477600  0.25000000  1
  O  O40  1  0.50477600  0.44617500  0.75000000  1
  O  O41  1  0.82347200  0.15377000  0.84773500  1
  O  O42  1  0.86140000  0.15457000  0.44774100  1
  O  O43  1  0.86140000  0.15457000  0.05225900  1
  O  O44  1  0.84173400  0.68301900  0.64849900  1
  O  O45  1  0.86345100  0.71252900  0.44860000  1
  O  O46  1  0.84173400  0.68301900  0.85150100  1
  O  O47  1  0.86345100  0.71252900  0.05140000  1
