# generated using pymatgen
data_Sm(ClO4)3
_symmetry_space_group_name_H-M   'P 1'
_cell_length_a   9.64399697
_cell_length_b   9.64399697
_cell_length_c   9.64399662
_cell_angle_alpha   51.57614829
_cell_angle_beta   51.57614829
_cell_angle_gamma   51.57614760
_symmetry_Int_Tables_number   1
_chemical_formula_structural   Sm(ClO4)3
_chemical_formula_sum   'Sm2 Cl6 O24'
_cell_volume   508.48309903
_cell_formula_units_Z   2
loop_
 _symmetry_equiv_pos_site_id
 _symmetry_equiv_pos_as_xyz
  1  'x, y, z'
loop_
 _atom_site_type_symbol
 _atom_site_label
 _atom_site_symmetry_multiplicity
 _atom_site_fract_x
 _atom_site_fract_y
 _atom_site_fract_z
 _atom_site_occupancy
  Sm  Sm0  1  0.05831400  0.05831400  0.05831400  1
  Sm  Sm1  1  0.55831400  0.55831400  0.55831400  1
  Cl  Cl2  1  0.84490300  0.46699300  0.18883300  1
  Cl  Cl3  1  0.46699300  0.18883300  0.84490300  1
  Cl  Cl4  1  0.96699300  0.34490300  0.68883300  1
  Cl  Cl5  1  0.18883300  0.84490300  0.46699300  1
  Cl  Cl6  1  0.68883300  0.96699300  0.34490300  1
  Cl  Cl7  1  0.34490300  0.68883300  0.96699300  1
  O  O8  1  0.74940700  0.07607900  0.13493000  1
  O  O9  1  0.07607900  0.13493000  0.74940700  1
  O  O10  1  0.88473400  0.28546000  0.20248100  1
  O  O11  1  0.57240800  0.00181500  0.94708200  1
  O  O12  1  0.89236800  0.42009200  0.33662000  1
  O  O13  1  0.50181500  0.07240800  0.44708200  1
  O  O14  1  0.78546000  0.38473400  0.70248100  1
  O  O15  1  0.13493000  0.74940700  0.07607900  1
  O  O16  1  0.94708200  0.57240800  0.00181500  1
  O  O17  1  0.57607900  0.24940700  0.63493000  1
  O  O18  1  0.28546000  0.20248100  0.88473400  1
  O  O19  1  0.42009200  0.33662000  0.89236800  1
  O  O20  1  0.63493000  0.57607900  0.24940700  1
  O  O21  1  0.44708200  0.50181500  0.07240800  1
  O  O22  1  0.70248100  0.78546000  0.38473400  1
  O  O23  1  0.38473400  0.70248100  0.78546000  1
  O  O24  1  0.07240800  0.44708200  0.50181500  1
  O  O25  1  0.24940700  0.63493000  0.57607900  1
  O  O26  1  0.92009200  0.39236800  0.83662000  1
  O  O27  1  0.33662000  0.89236800  0.42009200  1
  O  O28  1  0.20248100  0.88473400  0.28546000  1
  O  O29  1  0.00181500  0.94708200  0.57240800  1
  O  O30  1  0.83662000  0.92009200  0.39236800  1
  O  O31  1  0.39236800  0.83662000  0.92009200  1
