# generated using pymatgen
data_KAlH6(OF3)2
_symmetry_space_group_name_H-M   'P 1'
_cell_length_a   8.72915600
_cell_length_b   8.72915600
_cell_length_c   8.72915600
_cell_angle_alpha   90.00000000
_cell_angle_beta   90.00000000
_cell_angle_gamma   90.00000000
_symmetry_Int_Tables_number   1
_chemical_formula_structural   KAlH6(OF3)2
_chemical_formula_sum   'K4 Al4 H24 O8 F24'
_cell_volume   665.14566459
_cell_formula_units_Z   4
loop_
 _symmetry_equiv_pos_site_id
 _symmetry_equiv_pos_as_xyz
  1  'x, y, z'
loop_
 _atom_site_type_symbol
 _atom_site_label
 _atom_site_symmetry_multiplicity
 _atom_site_fract_x
 _atom_site_fract_y
 _atom_site_fract_z
 _atom_site_occupancy
  K  K0  1  0.50000000  0.50000000  0.00000000  1
  K  K1  1  0.50000000  0.00000000  0.50000000  1
  K  K2  1  0.00000000  0.50000000  0.50000000  1
  K  K3  1  0.00000000  0.00000000  0.00000000  1
  Al  Al4  1  0.50000000  0.00000000  0.00000000  1
  Al  Al5  1  0.50000000  0.50000000  0.50000000  1
  Al  Al6  1  0.00000000  0.00000000  0.50000000  1
  Al  Al7  1  0.00000000  0.50000000  0.00000000  1
  H  H8  1  0.35901800  0.80218100  0.20220100  1
  H  H9  1  0.64098200  0.30218100  0.29779900  1
  H  H10  1  0.14098200  0.19781900  0.70220100  1
  H  H11  1  0.85901800  0.69781900  0.79779900  1
  H  H12  1  0.20220100  0.35901800  0.80218100  1
  H  H13  1  0.29779900  0.64098200  0.30218100  1
  H  H14  1  0.70220100  0.14098200  0.19781900  1
  H  H15  1  0.79779900  0.85901800  0.69781900  1
  H  H16  1  0.80218100  0.20220100  0.35901800  1
  H  H17  1  0.30218100  0.29779900  0.64098200  1
  H  H18  1  0.19781900  0.70220100  0.14098200  1
  H  H19  1  0.69781900  0.79779900  0.85901800  1
  H  H20  1  0.64098200  0.19781900  0.79779900  1
  H  H21  1  0.35901800  0.69781900  0.70220100  1
  H  H22  1  0.85901800  0.80218100  0.29779900  1
  H  H23  1  0.14098200  0.30218100  0.20220100  1
  H  H24  1  0.79779900  0.64098200  0.19781900  1
  H  H25  1  0.70220100  0.35901800  0.69781900  1
  H  H26  1  0.29779900  0.85901800  0.80218100  1
  H  H27  1  0.20220100  0.14098200  0.30218100  1
  H  H28  1  0.19781900  0.79779900  0.64098200  1
  H  H29  1  0.69781900  0.70220100  0.35901800  1
  H  H30  1  0.80218100  0.29779900  0.85901800  1
  H  H31  1  0.30218100  0.20220100  0.14098200  1
  O  O32  1  0.30240100  0.69759900  0.19759900  1
  O  O33  1  0.69759900  0.19759900  0.30240100  1
  O  O34  1  0.19759900  0.30240100  0.69759900  1
  O  O35  1  0.80240100  0.80240100  0.80240100  1
  O  O36  1  0.69759900  0.30240100  0.80240100  1
  O  O37  1  0.30240100  0.80240100  0.69759900  1
  O  O38  1  0.80240100  0.69759900  0.30240100  1
  O  O39  1  0.19759900  0.19759900  0.19759900  1
  F  F40  1  0.44997900  0.93853500  0.19520300  1
  F  F41  1  0.55002100  0.43853500  0.30479700  1
  F  F42  1  0.05002100  0.06146500  0.69520300  1
  F  F43  1  0.94997900  0.56146500  0.80479700  1
  F  F44  1  0.19520300  0.44997900  0.93853500  1
  F  F45  1  0.30479700  0.55002100  0.43853500  1
  F  F46  1  0.69520300  0.05002100  0.06146500  1
  F  F47  1  0.80479700  0.94997900  0.56146500  1
  F  F48  1  0.93853500  0.19520300  0.44997900  1
  F  F49  1  0.43853500  0.30479700  0.55002100  1
  F  F50  1  0.06146500  0.69520300  0.05002100  1
  F  F51  1  0.56146500  0.80479700  0.94997900  1
  F  F52  1  0.55002100  0.06146500  0.80479700  1
  F  F53  1  0.44997900  0.56146500  0.69520300  1
  F  F54  1  0.94997900  0.93853500  0.30479700  1
  F  F55  1  0.05002100  0.43853500  0.19520300  1
  F  F56  1  0.80479700  0.55002100  0.06146500  1
  F  F57  1  0.69520300  0.44997900  0.56146500  1
  F  F58  1  0.30479700  0.94997900  0.93853500  1
  F  F59  1  0.19520300  0.05002100  0.43853500  1
  F  F60  1  0.06146500  0.80479700  0.55002100  1
  F  F61  1  0.56146500  0.69520300  0.44997900  1
  F  F62  1  0.93853500  0.30479700  0.94997900  1
  F  F63  1  0.43853500  0.19520300  0.05002100  1
