# generated using pymatgen
data_Cs2SnF6
_symmetry_space_group_name_H-M   'P 1'
_cell_length_a   6.43988524
_cell_length_b   6.43988524
_cell_length_c   5.17475500
_cell_angle_alpha   90.00000000
_cell_angle_beta   90.00000000
_cell_angle_gamma   119.99999223
_symmetry_Int_Tables_number   1
_chemical_formula_structural   Cs2SnF6
_chemical_formula_sum   'Cs2 Sn1 F6'
_cell_volume   185.85605540
_cell_formula_units_Z   1
loop_
 _symmetry_equiv_pos_site_id
 _symmetry_equiv_pos_as_xyz
  1  'x, y, z'
loop_
 _atom_site_type_symbol
 _atom_site_label
 _atom_site_symmetry_multiplicity
 _atom_site_fract_x
 _atom_site_fract_y
 _atom_site_fract_z
 _atom_site_occupancy
  Cs  Cs0  1  0.66666700  0.33333300  0.69433000  1
  Cs  Cs1  1  0.33333300  0.66666700  0.30567000  1
  Sn  Sn2  1  0.00000000  0.00000000  0.00000000  1
  F  F3  1  0.30091500  0.15045800  0.21499900  1
  F  F4  1  0.84954200  0.69908500  0.21499900  1
  F  F5  1  0.84954200  0.15045800  0.21499900  1
  F  F6  1  0.69908500  0.84954200  0.78500100  1
  F  F7  1  0.15045800  0.30091500  0.78500100  1
  F  F8  1  0.15045800  0.84954200  0.78500100  1
