# generated using pymatgen
data_Ba(GaSe2)2
_symmetry_space_group_name_H-M   'P 1'
_cell_length_a   6.58439321
_cell_length_b   6.58439321
_cell_length_c   11.60787100
_cell_angle_alpha   90.00000000
_cell_angle_beta   90.00000000
_cell_angle_gamma   122.19262950
_symmetry_Int_Tables_number   1
_chemical_formula_structural   Ba(GaSe2)2
_chemical_formula_sum   'Ba2 Ga4 Se8'
_cell_volume   425.88150464
_cell_formula_units_Z   2
loop_
 _symmetry_equiv_pos_site_id
 _symmetry_equiv_pos_as_xyz
  1  'x, y, z'
loop_
 _atom_site_type_symbol
 _atom_site_label
 _atom_site_symmetry_multiplicity
 _atom_site_fract_x
 _atom_site_fract_y
 _atom_site_fract_z
 _atom_site_occupancy
  Ba  Ba0  1  0.50000000  0.50000000  0.75000000  1
  Ba  Ba1  1  0.50000000  0.50000000  0.25000000  1
  Ga  Ga2  1  0.24214100  0.75969500  0.00000000  1
  Ga  Ga3  1  0.75785900  0.24030500  0.00000000  1
  Ga  Ga4  1  0.24030500  0.75785900  0.50000000  1
  Ga  Ga5  1  0.75969500  0.24214100  0.50000000  1
  Se  Se6  1  0.50000000  0.00000000  0.83880700  1
  Se  Se7  1  0.00000000  0.50000000  0.66119300  1
  Se  Se8  1  0.64732500  0.82449800  0.50000000  1
  Se  Se9  1  0.35267500  0.17550200  0.50000000  1
  Se  Se10  1  0.82449800  0.64732500  0.00000000  1
  Se  Se11  1  0.17550200  0.35267500  0.00000000  1
  Se  Se12  1  0.50000000  0.00000000  0.16119300  1
  Se  Se13  1  0.00000000  0.50000000  0.33880700  1
