# generated using pymatgen
data_CrP4
_symmetry_space_group_name_H-M   'P 1'
_cell_length_a   5.97423625
_cell_length_b   5.97423625
_cell_length_c   5.72203895
_cell_angle_alpha   81.26808679
_cell_angle_beta   81.26808679
_cell_angle_gamma   128.43398719
_symmetry_Int_Tables_number   1
_chemical_formula_structural   CrP4
_chemical_formula_sum   'Cr2 P8'
_cell_volume   149.91684479
_cell_formula_units_Z   2
loop_
 _symmetry_equiv_pos_site_id
 _symmetry_equiv_pos_as_xyz
  1  'x, y, z'
loop_
 _atom_site_type_symbol
 _atom_site_label
 _atom_site_symmetry_multiplicity
 _atom_site_fract_x
 _atom_site_fract_y
 _atom_site_fract_z
 _atom_site_occupancy
  Cr  Cr0  1  0.06024600  0.93975400  0.75000000  1
  Cr  Cr1  1  0.93975400  0.06024600  0.25000000  1
  P  P2  1  0.94566400  0.50826600  0.69093400  1
  P  P3  1  0.49173400  0.05433600  0.80906600  1
  P  P4  1  0.63851700  0.81732500  0.67629100  1
  P  P5  1  0.18267500  0.36148300  0.82370900  1
  P  P6  1  0.36148300  0.18267500  0.32370900  1
  P  P7  1  0.81732500  0.63851700  0.17629100  1
  P  P8  1  0.50826600  0.94566400  0.19093400  1
  P  P9  1  0.05433600  0.49173400  0.30906600  1
