# generated using pymatgen
data_RbFeSe2
_symmetry_space_group_name_H-M   'P 1'
_cell_length_a   7.17751906
_cell_length_b   7.17751906
_cell_length_c   5.63660576
_cell_angle_alpha   78.73570913
_cell_angle_beta   78.73570913
_cell_angle_gamma   116.67070732
_symmetry_Int_Tables_number   1
_chemical_formula_structural   RbFeSe2
_chemical_formula_sum   'Rb2 Fe2 Se4'
_cell_volume   240.85036057
_cell_formula_units_Z   2
loop_
 _symmetry_equiv_pos_site_id
 _symmetry_equiv_pos_as_xyz
  1  'x, y, z'
loop_
 _atom_site_type_symbol
 _atom_site_label
 _atom_site_symmetry_multiplicity
 _atom_site_fract_x
 _atom_site_fract_y
 _atom_site_fract_z
 _atom_site_occupancy
  Rb  Rb0  1  0.14051000  0.85949000  0.25000000  1
  Rb  Rb1  1  0.85949000  0.14051000  0.75000000  1
  Fe  Fe2  1  0.50165800  0.49834200  0.25000000  1
  Fe  Fe3  1  0.49834200  0.50165800  0.75000000  1
  Se  Se4  1  0.20443600  0.42131500  0.09471900  1
  Se  Se5  1  0.57868500  0.79556400  0.40528100  1
  Se  Se6  1  0.79556400  0.57868500  0.90528100  1
  Se  Se7  1  0.42131500  0.20443600  0.59471900  1
