# generated using pymatgen
data_In2(MoO4)3
_symmetry_space_group_name_H-M   'P 1'
_cell_length_a   9.88499600
_cell_length_b   16.58889600
_cell_length_c   16.78781060
_cell_angle_alpha   71.37684193
_cell_angle_beta   90.00000000
_cell_angle_gamma   90.00000000
_symmetry_Int_Tables_number   1
_chemical_formula_structural   In2(MoO4)3
_chemical_formula_sum   'In16 Mo24 O96'
_cell_volume   2608.74217108
_cell_formula_units_Z   8
loop_
 _symmetry_equiv_pos_site_id
 _symmetry_equiv_pos_as_xyz
  1  'x, y, z'
loop_
 _atom_site_type_symbol
 _atom_site_label
 _atom_site_symmetry_multiplicity
 _atom_site_fract_x
 _atom_site_fract_y
 _atom_site_fract_z
 _atom_site_occupancy
  In  In0  1  0.96878800  0.06332800  0.31466100  1
  In  In1  1  0.03608800  0.31666500  0.56206000  1
  In  In2  1  0.53608800  0.18333500  0.43794000  1
  In  In3  1  0.53161300  0.68600200  0.93313000  1
  In  In4  1  0.96838700  0.18600200  0.93313000  1
  In  In5  1  0.03121200  0.93667200  0.68533900  1
  In  In6  1  0.96580200  0.56583900  0.81620300  1
  In  In7  1  0.46838700  0.31399800  0.06687000  1
  In  In8  1  0.53121200  0.56332800  0.31466100  1
  In  In9  1  0.46580200  0.93416100  0.18379700  1
  In  In10  1  0.03161300  0.81399800  0.06687000  1
  In  In11  1  0.96391200  0.68333500  0.43794000  1
  In  In12  1  0.03419800  0.43416100  0.18379700  1
  In  In13  1  0.46391200  0.81666500  0.56206000  1
  In  In14  1  0.46878800  0.43667200  0.68533900  1
  In  In15  1  0.53419800  0.06583900  0.81620300  1
  Mo  Mo16  1  0.38011200  0.87664900  0.76724000  1
  Mo  Mo17  1  0.88698700  0.13047100  0.72871200  1
  Mo  Mo18  1  0.88011200  0.62335100  0.23276000  1
  Mo  Mo19  1  0.24711800  0.51529000  0.98400100  1
  Mo  Mo20  1  0.61301300  0.63047100  0.72871200  1
  Mo  Mo21  1  0.38463900  0.23184300  0.62497000  1
  Mo  Mo22  1  0.11536100  0.73184300  0.62497000  1
  Mo  Mo23  1  0.38698700  0.36952900  0.27128800  1
  Mo  Mo24  1  0.61536100  0.76815700  0.37503000  1
  Mo  Mo25  1  0.11301300  0.86952900  0.27128800  1
  Mo  Mo26  1  0.75014100  0.48728300  0.51725000  1
  Mo  Mo27  1  0.87947200  0.77307900  0.87621000  1
  Mo  Mo28  1  0.74711800  0.98471000  0.01599900  1
  Mo  Mo29  1  0.25288200  0.01529000  0.98400100  1
  Mo  Mo30  1  0.12052800  0.22692100  0.12379000  1
  Mo  Mo31  1  0.37947200  0.72692100  0.12379000  1
  Mo  Mo32  1  0.74985900  0.98728300  0.51725000  1
  Mo  Mo33  1  0.11988800  0.37664900  0.76724000  1
  Mo  Mo34  1  0.24985900  0.51271700  0.48275000  1
  Mo  Mo35  1  0.75288200  0.48471000  0.01599900  1
  Mo  Mo36  1  0.61988800  0.12335100  0.23276000  1
  Mo  Mo37  1  0.25014100  0.01271700  0.48275000  1
  Mo  Mo38  1  0.88463900  0.26815700  0.37503000  1
  Mo  Mo39  1  0.62052800  0.27307900  0.87621000  1
  O  O40  1  0.00176900  0.94296200  0.29666500  1
  O  O41  1  0.91708400  0.68373800  0.84257500  1
  O  O42  1  0.78220600  0.59001000  0.74129800  1
  O  O43  1  0.65109500  0.95261900  0.11166300  1
  O  O44  1  0.92040800  0.18295100  0.33537100  1
  O  O45  1  0.60709700  0.22178600  0.14735600  1
  O  O46  1  0.39375400  0.26846900  0.35365900  1
  O  O47  1  0.87381300  0.90644900  0.01991000  1
  O  O48  1  0.91315000  0.87085300  0.79418700  1
  O  O49  1  0.57959200  0.68295100  0.33537100  1
  O  O50  1  0.79782600  0.27192900  0.90127200  1
  O  O51  1  0.39290300  0.77821400  0.85264400  1
  O  O52  1  0.34890500  0.04738100  0.88833700  1
  O  O53  1  0.43984600  0.35743100  0.17407500  1
  O  O54  1  0.42271300  0.13401700  0.70517500  1
  O  O55  1  0.82482100  0.08622400  0.00147300  1
  O  O56  1  0.51425800  0.75889000  0.46713400  1
  O  O57  1  0.08291600  0.31626200  0.15742500  1
  O  O58  1  0.28220600  0.90999000  0.25870200  1
  O  O59  1  0.84890500  0.45261900  0.11166300  1
  O  O60  1  0.99823100  0.05703800  0.70333500  1
  O  O61  1  0.20217400  0.72807100  0.09872800  1
  O  O62  1  0.56015400  0.64256900  0.82592500  1
  O  O63  1  0.35525900  0.49999000  0.57250700  1
  O  O64  1  0.34919700  0.55135000  0.38888200  1
  O  O65  1  0.49823100  0.44296200  0.29666500  1
  O  O66  1  0.92271300  0.36598300  0.29482500  1
  O  O67  1  0.08685000  0.12914700  0.20581300  1
  O  O68  1  0.01425800  0.74111000  0.53286600  1
  O  O69  1  0.11677600  0.58654100  0.48272700  1
  O  O70  1  0.00416200  0.45213100  0.78487600  1
  O  O71  1  0.31966100  0.91070700  0.48808800  1
  O  O72  1  0.93984600  0.14256900  0.82592500  1
  O  O73  1  0.37381300  0.59355100  0.98009000  1
  O  O74  1  0.10709700  0.27821400  0.85264400  1
  O  O75  1  0.36248300  0.00725500  0.07122700  1
  O  O76  1  0.18033900  0.41070700  0.48808800  1
  O  O77  1  0.20724100  0.23176300  0.60058400  1
  O  O78  1  0.98347700  0.76728200  0.96547200  1
  O  O79  1  0.14474100  0.99999000  0.57250700  1
  O  O80  1  0.98574200  0.25889000  0.46713400  1
  O  O81  1  0.49583800  0.95213100  0.78487600  1
  O  O82  1  0.64474100  0.50001000  0.42749300  1
  O  O83  1  0.57728700  0.86598300  0.29482500  1
  O  O84  1  0.38322400  0.08654100  0.48272700  1
  O  O85  1  0.32482100  0.41377600  0.99852700  1
  O  O86  1  0.48347700  0.73271800  0.03452800  1
  O  O87  1  0.71013300  0.58373500  0.23704700  1
  O  O88  1  0.71779400  0.09001000  0.74129800  1
  O  O89  1  0.29782600  0.22807100  0.09872800  1
  O  O90  1  0.78986700  0.08373500  0.23704700  1
  O  O91  1  0.62618700  0.40644900  0.01991000  1
  O  O92  1  0.12618700  0.09355100  0.98009000  1
  O  O93  1  0.88322400  0.41345900  0.51727300  1
  O  O94  1  0.51652300  0.26728200  0.96547200  1
  O  O95  1  0.63751700  0.99274500  0.92877300  1
  O  O96  1  0.41315000  0.62914700  0.20581300  1
  O  O97  1  0.50176900  0.55703800  0.70333500  1
  O  O98  1  0.42040800  0.31704900  0.66462900  1
  O  O99  1  0.50416200  0.04786900  0.21512400  1
  O  O100  1  0.01652300  0.23271800  0.03452800  1
  O  O101  1  0.61677600  0.91345900  0.51727300  1
  O  O102  1  0.06015400  0.85743100  0.17407500  1
  O  O103  1  0.99583800  0.54786900  0.21512400  1
  O  O104  1  0.41708400  0.81626200  0.15742500  1
  O  O105  1  0.21013300  0.91626500  0.76295300  1
  O  O106  1  0.58011300  0.13865800  0.33091800  1
  O  O107  1  0.28986700  0.41626500  0.76295300  1
  O  O108  1  0.79275900  0.76823700  0.39941600  1
  O  O109  1  0.89290300  0.72178600  0.14735600  1
  O  O110  1  0.91988700  0.63865800  0.33091800  1
  O  O111  1  0.68033900  0.08929300  0.51191200  1
  O  O112  1  0.89375400  0.23153100  0.64634100  1
  O  O113  1  0.08011300  0.36134200  0.66908200  1
  O  O114  1  0.60624600  0.73153100  0.64634100  1
  O  O115  1  0.21779400  0.40999000  0.25870200  1
  O  O116  1  0.07728700  0.63401700  0.70517500  1
  O  O117  1  0.70724100  0.26823700  0.39941600  1
  O  O118  1  0.17517900  0.91377600  0.99852700  1
  O  O119  1  0.81966100  0.58929300  0.51191200  1
  O  O120  1  0.15080300  0.05135000  0.38888200  1
  O  O121  1  0.84919700  0.94865000  0.61111800  1
  O  O122  1  0.48574200  0.24111000  0.53286600  1
  O  O123  1  0.58291600  0.18373800  0.84257500  1
  O  O124  1  0.15109500  0.54738100  0.88833700  1
  O  O125  1  0.70217400  0.77192900  0.90127200  1
  O  O126  1  0.58685000  0.37085300  0.79418700  1
  O  O127  1  0.10624600  0.76846900  0.35365900  1
  O  O128  1  0.65080300  0.44865000  0.61111800  1
  O  O129  1  0.85525900  0.00001000  0.42749300  1
  O  O130  1  0.67517900  0.58622400  0.00147300  1
  O  O131  1  0.29275900  0.73176300  0.60058400  1
  O  O132  1  0.13751700  0.50725500  0.07122700  1
  O  O133  1  0.41988700  0.86134200  0.66908200  1
  O  O134  1  0.07959200  0.81704900  0.66462900  1
  O  O135  1  0.86248300  0.49274500  0.92877300  1
