# generated using pymatgen
data_SiH10(O2F3)2
_symmetry_space_group_name_H-M   'P 1'
_cell_length_a   10.10890400
_cell_length_b   6.09031800
_cell_length_c   6.62261939
_cell_angle_alpha   75.82571319
_cell_angle_beta   90.00000000
_cell_angle_gamma   90.00000000
_symmetry_Int_Tables_number   1
_chemical_formula_structural   SiH10(O2F3)2
_chemical_formula_sum   'Si2 H20 O8 F12'
_cell_volume   395.31786492
_cell_formula_units_Z   2
loop_
 _symmetry_equiv_pos_site_id
 _symmetry_equiv_pos_as_xyz
  1  'x, y, z'
loop_
 _atom_site_type_symbol
 _atom_site_label
 _atom_site_symmetry_multiplicity
 _atom_site_fract_x
 _atom_site_fract_y
 _atom_site_fract_z
 _atom_site_occupancy
  Si  Si0  1  0.50000000  0.00000000  0.50000000  1
  Si  Si1  1  0.00000000  0.00000000  0.00000000  1
  H  H2  1  0.62237600  0.79460000  0.92186700  1
  H  H3  1  0.12237600  0.20540000  0.57813300  1
  H  H4  1  0.37762400  0.20540000  0.07813300  1
  H  H5  1  0.87762400  0.79460000  0.42186700  1
  H  H6  1  0.62477100  0.83365900  0.15695500  1
  H  H7  1  0.12477100  0.16634100  0.34304500  1
  H  H8  1  0.37522900  0.16634100  0.84304500  1
  H  H9  1  0.87522900  0.83365900  0.65695500  1
  H  H10  1  0.69530700  0.57611900  0.12625600  1
  H  H11  1  0.19530700  0.42388100  0.37374400  1
  H  H12  1  0.30469300  0.42388100  0.87374400  1
  H  H13  1  0.80469300  0.57611900  0.62625600  1
  H  H14  1  0.71989200  0.26620600  0.23447400  1
  H  H15  1  0.21989200  0.73379400  0.26552600  1
  H  H16  1  0.28010800  0.73379400  0.76552600  1
  H  H17  1  0.78010800  0.26620600  0.73447400  1
  H  H18  1  0.85044100  0.38463900  0.12465100  1
  H  H19  1  0.35044100  0.61536100  0.37534900  1
  H  H20  1  0.14955900  0.61536100  0.87534900  1
  H  H21  1  0.64955900  0.38463900  0.62465100  1
  O  O22  1  0.61874500  0.71820300  0.07389600  1
  O  O23  1  0.11874500  0.28179700  0.42610400  1
  O  O24  1  0.38125500  0.28179700  0.92610400  1
  O  O25  1  0.88125500  0.71820300  0.57389600  1
  O  O26  1  0.77123300  0.40870100  0.20493600  1
  O  O27  1  0.27123300  0.59129900  0.29506400  1
  O  O28  1  0.22876700  0.59129900  0.79506400  1
  O  O29  1  0.72876700  0.40870100  0.70493600  1
  F  F30  1  0.62378400  0.92199100  0.68120200  1
  F  F31  1  0.12378400  0.07800900  0.81879800  1
  F  F32  1  0.37621600  0.07800900  0.31879800  1
  F  F33  1  0.87621600  0.92199100  0.18120200  1
  F  F34  1  0.47553200  0.72435300  0.49996700  1
  F  F35  1  0.97553200  0.27564700  0.00003300  1
  F  F36  1  0.52446800  0.27564700  0.50003300  1
  F  F37  1  0.02446800  0.72435300  0.99996700  1
  F  F38  1  0.38435300  0.97417600  0.69984200  1
  F  F39  1  0.88435300  0.02582400  0.80015800  1
  F  F40  1  0.61564700  0.02582400  0.30015800  1
  F  F41  1  0.11564700  0.97417600  0.19984200  1
