# generated using pymatgen
data_Li8TiS6
_symmetry_space_group_name_H-M   'P 1'
_cell_length_a   6.89498237
_cell_length_b   6.89498237
_cell_length_c   13.46207700
_cell_angle_alpha   90.00000000
_cell_angle_beta   90.00000000
_cell_angle_gamma   120.00000357
_symmetry_Int_Tables_number   1
_chemical_formula_structural   Li8TiS6
_chemical_formula_sum   'Li16 Ti2 S12'
_cell_volume   554.25421779
_cell_formula_units_Z   2
loop_
 _symmetry_equiv_pos_site_id
 _symmetry_equiv_pos_as_xyz
  1  'x, y, z'
loop_
 _atom_site_type_symbol
 _atom_site_label
 _atom_site_symmetry_multiplicity
 _atom_site_fract_x
 _atom_site_fract_y
 _atom_site_fract_z
 _atom_site_occupancy
  Li  Li0  1  0.00000000  0.68308100  0.76607900  1
  Li  Li1  1  0.00000000  0.61971400  0.13068400  1
  Li  Li2  1  0.00000000  0.38028600  0.63068400  1
  Li  Li3  1  0.00000000  0.31691900  0.26607900  1
  Li  Li4  1  0.33333300  0.66666700  0.40148500  1
  Li  Li5  1  0.33333300  0.66666700  0.90148500  1
  Li  Li6  1  0.31691900  0.31691900  0.76607900  1
  Li  Li7  1  0.38028600  0.38028600  0.13068400  1
  Li  Li8  1  0.61971400  0.61971400  0.63068400  1
  Li  Li9  1  0.31691900  0.00000000  0.26607900  1
  Li  Li10  1  0.68308100  0.68308100  0.26607900  1
  Li  Li11  1  0.38028600  0.00000000  0.63068400  1
  Li  Li12  1  0.66666700  0.33333300  0.90148500  1
  Li  Li13  1  0.66666700  0.33333300  0.40148500  1
  Li  Li14  1  0.61971400  0.00000000  0.13068400  1
  Li  Li15  1  0.68308100  0.00000000  0.76607900  1
  Ti  Ti16  1  0.00000000  0.00000000  0.99799600  1
  Ti  Ti17  1  0.00000000  0.00000000  0.49799600  1
  S  S18  1  0.00000000  0.68558500  0.95012400  1
  S  S19  1  0.00000000  0.31441500  0.45012400  1
  S  S20  1  0.33333300  0.66666700  0.21732600  1
  S  S21  1  0.00000000  0.00000000  0.16937800  1
  S  S22  1  0.00000000  0.00000000  0.66937800  1
  S  S23  1  0.33333300  0.66666700  0.71732600  1
  S  S24  1  0.31441500  0.31441500  0.95012400  1
  S  S25  1  0.31441500  0.00000000  0.45012400  1
  S  S26  1  0.68558500  0.68558500  0.45012400  1
  S  S27  1  0.66666700  0.33333300  0.71732600  1
  S  S28  1  0.66666700  0.33333300  0.21732600  1
  S  S29  1  0.68558500  0.00000000  0.95012400  1
