# generated using pymatgen
data_InPO4
_symmetry_space_group_name_H-M   'P 1'
_cell_length_a   4.88789079
_cell_length_b   4.88789079
_cell_length_c   6.92836200
_cell_angle_alpha   90.00000000
_cell_angle_beta   90.00000000
_cell_angle_gamma   113.18836650
_symmetry_Int_Tables_number   1
_chemical_formula_structural   InPO4
_chemical_formula_sum   'In2 P2 O8'
_cell_volume   152.15660420
_cell_formula_units_Z   2
loop_
 _symmetry_equiv_pos_site_id
 _symmetry_equiv_pos_as_xyz
  1  'x, y, z'
loop_
 _atom_site_type_symbol
 _atom_site_label
 _atom_site_symmetry_multiplicity
 _atom_site_fract_x
 _atom_site_fract_y
 _atom_site_fract_z
 _atom_site_occupancy
  In  In0  1  0.00000000  0.00000000  0.00000000  1
  In  In1  1  0.00000000  0.00000000  0.50000000  1
  P  P2  1  0.65008000  0.34992000  0.75000000  1
  P  P3  1  0.34992000  0.65008000  0.25000000  1
  O  O4  1  0.25186000  0.74814000  0.06238400  1
  O  O5  1  0.74814000  0.25186000  0.56238400  1
  O  O6  1  0.74814000  0.25186000  0.93761600  1
  O  O7  1  0.25186000  0.74814000  0.43761600  1
  O  O8  1  0.70204000  0.77504600  0.25000000  1
  O  O9  1  0.29796000  0.22495400  0.75000000  1
  O  O10  1  0.77504600  0.70204000  0.75000000  1
  O  O11  1  0.22495400  0.29796000  0.25000000  1
