# generated using pymatgen
data_CaAs2H6F18
_symmetry_space_group_name_H-M   'P 1'
_cell_length_a   15.13080100
_cell_length_b   9.70463700
_cell_length_c   9.81053048
_cell_angle_alpha   71.50798739
_cell_angle_beta   90.00000000
_cell_angle_gamma   90.00000000
_symmetry_Int_Tables_number   1
_chemical_formula_structural   CaAs2H6F18
_chemical_formula_sum   'Ca4 As8 H24 F72'
_cell_volume   1366.18824140
_cell_formula_units_Z   4
loop_
 _symmetry_equiv_pos_site_id
 _symmetry_equiv_pos_as_xyz
  1  'x, y, z'
loop_
 _atom_site_type_symbol
 _atom_site_label
 _atom_site_symmetry_multiplicity
 _atom_site_fract_x
 _atom_site_fract_y
 _atom_site_fract_z
 _atom_site_occupancy
  Ca  Ca0  1  0.00780600  0.29741500  0.30947300  1
  Ca  Ca1  1  0.49219400  0.79741500  0.30947300  1
  Ca  Ca2  1  0.50780600  0.20258500  0.69052700  1
  Ca  Ca3  1  0.99219400  0.70258500  0.69052700  1
  As  As4  1  0.67773400  0.41612800  0.10008100  1
  As  As5  1  0.82226600  0.91612800  0.10008100  1
  As  As6  1  0.35024800  0.12310300  0.38750300  1
  As  As7  1  0.14975200  0.62310300  0.38750300  1
  As  As8  1  0.85024800  0.37689700  0.61249700  1
  As  As9  1  0.64975200  0.87689700  0.61249700  1
  As  As10  1  0.17773400  0.08387200  0.89991900  1
  As  As11  1  0.32226600  0.58387200  0.89991900  1
  H  H12  1  0.51973600  0.10896200  0.09295400  1
  H  H13  1  0.94712100  0.16205000  0.07406400  1
  H  H14  1  0.14707400  0.29415800  0.09448200  1
  H  H15  1  0.98026400  0.60896200  0.09295400  1
  H  H16  1  0.55287900  0.66205000  0.07406400  1
  H  H17  1  0.35292600  0.79415800  0.09448200  1
  H  H18  1  0.60061400  0.30964600  0.37521200  1
  H  H19  1  0.84010900  0.16296900  0.45607500  1
  H  H20  1  0.48781700  0.47276900  0.34539000  1
  H  H21  1  0.98781700  0.02723100  0.65461000  1
  H  H22  1  0.34010900  0.33703100  0.54392500  1
  H  H23  1  0.89938600  0.80964600  0.37521200  1
  H  H24  1  0.10061400  0.19035400  0.62478800  1
  H  H25  1  0.65989100  0.66296900  0.45607500  1
  H  H26  1  0.01218300  0.97276900  0.34539000  1
  H  H27  1  0.51218300  0.52723100  0.65461000  1
  H  H28  1  0.15989100  0.83703100  0.54392500  1
  H  H29  1  0.39938600  0.69035400  0.62478800  1
  H  H30  1  0.64707400  0.20584200  0.90551800  1
  H  H31  1  0.44712100  0.33795000  0.92593600  1
  H  H32  1  0.01973600  0.39103800  0.90704600  1
  H  H33  1  0.85292600  0.70584200  0.90551800  1
  H  H34  1  0.05287900  0.83795000  0.92593600  1
  H  H35  1  0.48026400  0.89103800  0.90704600  1
  F  F36  1  0.62419000  0.30122000  0.01233300  1
  F  F37  1  0.96123400  0.26138500  0.07025800  1
  F  F38  1  0.54598000  0.02028800  0.15028900  1
  F  F39  1  0.77834200  0.33572800  0.08555900  1
  F  F40  1  0.77635900  0.01682900  0.20085200  1
  F  F41  1  0.31195000  0.44489800  0.06244300  1
  F  F42  1  0.87581000  0.80122000  0.01233300  1
  F  F43  1  0.56851800  0.48945000  0.11875200  1
  F  F44  1  0.28584300  0.13103000  0.23858500  1
  F  F45  1  0.13118900  0.34951300  0.15693000  1
  F  F46  1  0.05029800  0.05647400  0.31673600  1
  F  F47  1  0.53876600  0.76138500  0.07025800  1
  F  F48  1  0.65240200  0.27251900  0.26930300  1
  F  F49  1  0.95402000  0.52028800  0.15028900  1
  F  F50  1  0.43629600  0.21926200  0.27721800  1
  F  F51  1  0.72165800  0.83572800  0.08555900  1
  F  F52  1  0.72364100  0.51682900  0.20085200  1
  F  F53  1  0.18805000  0.94489800  0.06244300  1
  F  F54  1  0.87963600  0.15223900  0.38234900  1
  F  F55  1  0.93148200  0.98945000  0.11875200  1
  F  F56  1  0.21415700  0.63103000  0.23858500  1
  F  F57  1  0.36881100  0.84951300  0.15693000  1
  F  F58  1  0.30665700  0.28903600  0.40490800  1
  F  F59  1  0.44970200  0.55647400  0.31673600  1
  F  F60  1  0.84759800  0.77251900  0.26930300  1
  F  F61  1  0.26918300  0.02506300  0.50528000  1
  F  F62  1  0.06370400  0.71926200  0.27721800  1
  F  F63  1  0.09975100  0.45423800  0.38623700  1
  F  F64  1  0.41979000  0.11007000  0.54184500  1
  F  F65  1  0.62036400  0.65223900  0.38234900  1
  F  F66  1  0.06064800  0.15988700  0.55776900  1
  F  F67  1  0.56064800  0.34011300  0.44223100  1
  F  F68  1  0.91979000  0.38993000  0.45815500  1
  F  F69  1  0.59975100  0.04576200  0.61376300  1
  F  F70  1  0.19334300  0.78903600  0.40490800  1
  F  F71  1  0.76918300  0.47493700  0.49472000  1
  F  F72  1  0.23081700  0.52506300  0.50528000  1
  F  F73  1  0.80665700  0.21096400  0.59509200  1
  F  F74  1  0.40024900  0.95423800  0.38623700  1
  F  F75  1  0.08021000  0.61007000  0.54184500  1
  F  F76  1  0.43935200  0.65988700  0.55776900  1
  F  F77  1  0.93935200  0.84011300  0.44223100  1
  F  F78  1  0.37963600  0.34776100  0.61765100  1
  F  F79  1  0.58021000  0.88993000  0.45815500  1
  F  F80  1  0.90024900  0.54576200  0.61376300  1
  F  F81  1  0.93629600  0.28073800  0.72278200  1
  F  F82  1  0.73081700  0.97493700  0.49472000  1
  F  F83  1  0.15240200  0.22748100  0.73069700  1
  F  F84  1  0.55029800  0.44352600  0.68326400  1
  F  F85  1  0.69334300  0.71096400  0.59509200  1
  F  F86  1  0.63118800  0.15048700  0.84307000  1
  F  F87  1  0.78584300  0.36897000  0.76141500  1
  F  F88  1  0.06851800  0.01055000  0.88124800  1
  F  F89  1  0.12036400  0.84776100  0.61765100  1
  F  F90  1  0.81195000  0.05510200  0.93755700  1
  F  F91  1  0.27635900  0.48317100  0.79914800  1
  F  F92  1  0.27834200  0.16427200  0.91444100  1
  F  F93  1  0.56370400  0.78073800  0.72278200  1
  F  F94  1  0.04598000  0.47971200  0.84971100  1
  F  F95  1  0.34759800  0.72748100  0.73069700  1
  F  F96  1  0.46123400  0.23861500  0.92974200  1
  F  F97  1  0.94970200  0.94352600  0.68326400  1
  F  F98  1  0.86881100  0.65048700  0.84307000  1
  F  F99  1  0.71415700  0.86897000  0.76141500  1
  F  F100  1  0.43148200  0.51055000  0.88124800  1
  F  F101  1  0.12419000  0.19878000  0.98766700  1
  F  F102  1  0.68805000  0.55510200  0.93755700  1
  F  F103  1  0.22364100  0.98317100  0.79914800  1
  F  F104  1  0.22165800  0.66427200  0.91444100  1
  F  F105  1  0.45402000  0.97971200  0.84971100  1
  F  F106  1  0.03876600  0.73861500  0.92974200  1
  F  F107  1  0.37581000  0.69878000  0.98766700  1
