# generated using pymatgen
data_Rb3ClO
_symmetry_space_group_name_H-M   'P 1'
_cell_length_a   4.35599400
_cell_length_b   9.06987500
_cell_length_c   15.94175200
_cell_angle_alpha   90.00000000
_cell_angle_beta   90.00000000
_cell_angle_gamma   90.00000000
_symmetry_Int_Tables_number   1
_chemical_formula_structural   Rb3ClO
_chemical_formula_sum   'Rb12 Cl4 O4'
_cell_volume   629.83185661
_cell_formula_units_Z   4
loop_
 _symmetry_equiv_pos_site_id
 _symmetry_equiv_pos_as_xyz
  1  'x, y, z'
loop_
 _atom_site_type_symbol
 _atom_site_label
 _atom_site_symmetry_multiplicity
 _atom_site_fract_x
 _atom_site_fract_y
 _atom_site_fract_z
 _atom_site_occupancy
  Rb  Rb0  1  0.25000000  0.02215500  0.59459800  1
  Rb  Rb1  1  0.25000000  0.17315200  0.99986000  1
  Rb  Rb2  1  0.75000000  0.21004800  0.79127000  1
  Rb  Rb3  1  0.25000000  0.28995200  0.29127000  1
  Rb  Rb4  1  0.75000000  0.32684800  0.49986000  1
  Rb  Rb5  1  0.75000000  0.47784500  0.09459800  1
  Rb  Rb6  1  0.25000000  0.52215500  0.90540200  1
  Rb  Rb7  1  0.25000000  0.67315200  0.50014000  1
  Rb  Rb8  1  0.75000000  0.71004800  0.70873000  1
  Rb  Rb9  1  0.25000000  0.78995200  0.20873000  1
  Rb  Rb10  1  0.75000000  0.82684800  0.00014000  1
  Rb  Rb11  1  0.75000000  0.97784500  0.40540200  1
  Cl  Cl12  1  0.75000000  0.07919900  0.17401200  1
  Cl  Cl13  1  0.25000000  0.42080100  0.67401200  1
  Cl  Cl14  1  0.75000000  0.57919900  0.32598800  1
  Cl  Cl15  1  0.25000000  0.92080100  0.82598800  1
  O  O16  1  0.25000000  0.16879800  0.43895100  1
  O  O17  1  0.75000000  0.33120200  0.93895100  1
  O  O18  1  0.25000000  0.66879800  0.06104900  1
  O  O19  1  0.75000000  0.83120200  0.56104900  1
