# generated using pymatgen
data_Dy2SiO5
_symmetry_space_group_name_H-M   'P 1'
_cell_length_a   8.03022753
_cell_length_b   8.03022753
_cell_length_c   10.52106354
_cell_angle_alpha   61.16754830
_cell_angle_beta   61.16754830
_cell_angle_gamma   50.23872249
_symmetry_Int_Tables_number   1
_chemical_formula_structural   Dy2SiO5
_chemical_formula_sum   'Dy8 Si4 O20'
_cell_volume   441.40042384
_cell_formula_units_Z   4
loop_
 _symmetry_equiv_pos_site_id
 _symmetry_equiv_pos_as_xyz
  1  'x, y, z'
loop_
 _atom_site_type_symbol
 _atom_site_label
 _atom_site_symmetry_multiplicity
 _atom_site_fract_x
 _atom_site_fract_y
 _atom_site_fract_z
 _atom_site_occupancy
  Dy  Dy0  1  0.76041200  0.52479500  0.16226200  1
  Dy  Dy1  1  0.21900800  0.70771200  0.46741000  1
  Dy  Dy2  1  0.29228800  0.78099200  0.03259000  1
  Dy  Dy3  1  0.52479500  0.76041200  0.66226200  1
  Dy  Dy4  1  0.47520500  0.23958800  0.33773800  1
  Dy  Dy5  1  0.70771200  0.21900800  0.96741000  1
  Dy  Dy6  1  0.78099200  0.29228800  0.53259000  1
  Dy  Dy7  1  0.23958800  0.47520500  0.83773800  1
  Si  Si8  1  0.90826800  0.72782800  0.30541200  1
  Si  Si9  1  0.72782800  0.90826800  0.80541200  1
  Si  Si10  1  0.27217200  0.09173200  0.19458800  1
  Si  Si11  1  0.09173200  0.27217200  0.69458800  1
  O  O12  1  0.72525600  0.87207700  0.43189000  1
  O  O13  1  0.91838900  0.89975500  0.13660300  1
  O  O14  1  0.85093000  0.55387000  0.32420500  1
  O  O15  1  0.87207700  0.72525600  0.93189000  1
  O  O16  1  0.89975500  0.91838900  0.63660300  1
  O  O17  1  0.40426800  0.83654500  0.17620200  1
  O  O18  1  0.55387000  0.85093000  0.82420500  1
  O  O19  1  0.57763300  0.38914100  0.39583100  1
  O  O20  1  0.61085900  0.42236700  0.10416900  1
  O  O21  1  0.83654500  0.40426800  0.67620200  1
  O  O22  1  0.16345500  0.59573200  0.32379800  1
  O  O23  1  0.38914100  0.57763300  0.89583100  1
  O  O24  1  0.42236700  0.61085900  0.60416900  1
  O  O25  1  0.44613000  0.14907000  0.17579500  1
  O  O26  1  0.59573200  0.16345500  0.82379800  1
  O  O27  1  0.10024500  0.08161100  0.36339700  1
  O  O28  1  0.12792300  0.27474400  0.06811000  1
  O  O29  1  0.14907000  0.44613000  0.67579500  1
  O  O30  1  0.08161100  0.10024500  0.86339700  1
  O  O31  1  0.27474400  0.12792300  0.56811000  1
