# generated using pymatgen
data_K2OsO5
_symmetry_space_group_name_H-M   'P 1'
_cell_length_a   10.92034955
_cell_length_b   10.92034955
_cell_length_c   8.29805400
_cell_angle_alpha   90.00000000
_cell_angle_beta   90.00000000
_cell_angle_gamma   119.99999728
_symmetry_Int_Tables_number   1
_chemical_formula_structural   K2OsO5
_chemical_formula_sum   'K12 Os6 O30'
_cell_volume   856.99833916
_cell_formula_units_Z   6
loop_
 _symmetry_equiv_pos_site_id
 _symmetry_equiv_pos_as_xyz
  1  'x, y, z'
loop_
 _atom_site_type_symbol
 _atom_site_label
 _atom_site_symmetry_multiplicity
 _atom_site_fract_x
 _atom_site_fract_y
 _atom_site_fract_z
 _atom_site_occupancy
  K  K0  1  0.29493300  0.96479600  0.50000000  1
  K  K1  1  0.03520400  0.33013700  0.50000000  1
  K  K2  1  0.33333300  0.66666700  0.75807300  1
  K  K3  1  0.00000000  0.00000000  0.75308400  1
  K  K4  1  0.00000000  0.00000000  0.24691600  1
  K  K5  1  0.33333300  0.66666700  0.24192700  1
  K  K6  1  0.36437200  0.33102000  0.00000000  1
  K  K7  1  0.66986300  0.70506700  0.50000000  1
  K  K8  1  0.66666700  0.33333300  0.25851100  1
  K  K9  1  0.66666700  0.33333300  0.74148900  1
  K  K10  1  0.96664800  0.63562800  0.00000000  1
  K  K11  1  0.66898000  0.03335200  0.00000000  1
  Os  Os12  1  0.30120400  0.96745900  0.00000000  1
  Os  Os13  1  0.03254100  0.33374600  0.00000000  1
  Os  Os14  1  0.36318400  0.32081000  0.50000000  1
  Os  Os15  1  0.66625400  0.69879600  0.00000000  1
  Os  Os16  1  0.67919000  0.04237400  0.50000000  1
  Os  Os17  1  0.95762600  0.63681600  0.50000000  1
  O  O18  1  0.01785500  0.82620100  0.50000000  1
  O  O19  1  0.21584600  0.88059900  0.81591900  1
  O  O20  1  0.21584600  0.88059900  0.18408100  1
  O  O21  1  0.13416900  0.66429000  0.50000000  1
  O  O22  1  0.13105600  0.52809500  0.00000000  1
  O  O23  1  0.11940100  0.33524700  0.18408100  1
  O  O24  1  0.11940100  0.33524700  0.81591900  1
  O  O25  1  0.39703900  0.86894400  0.00000000  1
  O  O26  1  0.17379900  0.19165400  0.50000000  1
  O  O27  1  0.33571000  0.46987900  0.50000000  1
  O  O28  1  0.53012100  0.86583100  0.50000000  1
  O  O29  1  0.47190500  0.60296100  0.00000000  1
  O  O30  1  0.20149700  0.06064900  0.00000000  1
  O  O31  1  0.37795400  0.24854900  0.31188900  1
  O  O32  1  0.37795400  0.24854900  0.68811100  1
  O  O33  1  0.66475300  0.78415400  0.18408100  1
  O  O34  1  0.66475300  0.78415400  0.81591900  1
  O  O35  1  0.80834600  0.98214500  0.50000000  1
  O  O36  1  0.55586700  0.43457100  0.50000000  1
  O  O37  1  0.46612500  0.13157300  0.00000000  1
  O  O38  1  0.66544800  0.53387500  0.00000000  1
  O  O39  1  0.85915100  0.79850300  0.00000000  1
  O  O40  1  0.56542900  0.12129600  0.50000000  1
  O  O41  1  0.87059500  0.62204600  0.31188900  1
  O  O42  1  0.87059500  0.62204600  0.68811100  1
  O  O43  1  0.87870400  0.44413300  0.50000000  1
  O  O44  1  0.75145100  0.12940500  0.31188900  1
  O  O45  1  0.75145100  0.12940500  0.68811100  1
  O  O46  1  0.86842700  0.33455200  0.00000000  1
  O  O47  1  0.93935100  0.14084900  0.00000000  1
