# generated using pymatgen
data_GdAsO4
_symmetry_space_group_name_H-M   'P 1'
_cell_length_a   6.04416155
_cell_length_b   6.04416155
_cell_length_c   6.04416155
_cell_angle_alpha   106.43469258
_cell_angle_beta   106.43469258
_cell_angle_gamma   115.73156673
_symmetry_Int_Tables_number   1
_chemical_formula_structural   GdAsO4
_chemical_formula_sum   'Gd2 As2 O8'
_cell_volume   168.43719020
_cell_formula_units_Z   2
loop_
 _symmetry_equiv_pos_site_id
 _symmetry_equiv_pos_as_xyz
  1  'x, y, z'
loop_
 _atom_site_type_symbol
 _atom_site_label
 _atom_site_symmetry_multiplicity
 _atom_site_fract_x
 _atom_site_fract_y
 _atom_site_fract_z
 _atom_site_occupancy
  Gd  Gd0  1  0.25000000  0.75000000  0.50000000  1
  Gd  Gd1  1  0.00000000  0.00000000  0.00000000  1
  As  As2  1  0.50000000  0.50000000  0.00000000  1
  As  As3  1  0.75000000  0.25000000  0.50000000  1
  O  O4  1  0.49381800  0.67426100  0.81955800  1
  O  O5  1  0.32573900  0.50618200  0.18044200  1
  O  O6  1  0.32573900  0.14529700  0.81955800  1
  O  O7  1  0.85470300  0.67426100  0.18044200  1
  O  O8  1  0.39529700  0.07573900  0.31955800  1
  O  O9  1  0.92426100  0.60470300  0.68044200  1
  O  O10  1  0.92426100  0.24381800  0.31955800  1
  O  O11  1  0.75618200  0.07573900  0.68044200  1
