# generated using pymatgen
data_Na2B3HO6
_symmetry_space_group_name_H-M   'P 1'
_cell_length_a   12.01714900
_cell_length_b   8.77616300
_cell_length_c   9.53377075
_cell_angle_alpha   84.03570863
_cell_angle_beta   90.00000000
_cell_angle_gamma   90.00000000
_symmetry_Int_Tables_number   1
_chemical_formula_structural   Na2B3HO6
_chemical_formula_sum   'Na16 B24 H8 O48'
_cell_volume   1000.03118544
_cell_formula_units_Z   8
loop_
 _symmetry_equiv_pos_site_id
 _symmetry_equiv_pos_as_xyz
  1  'x, y, z'
loop_
 _atom_site_type_symbol
 _atom_site_label
 _atom_site_symmetry_multiplicity
 _atom_site_fract_x
 _atom_site_fract_y
 _atom_site_fract_z
 _atom_site_occupancy
  Na  Na0  1  0.65657500  0.41044900  0.93050900  1
  Na  Na1  1  0.15657500  0.58955100  0.56949100  1
  Na  Na2  1  0.34342500  0.58955100  0.06949100  1
  Na  Na3  1  0.84342500  0.41044900  0.43050900  1
  Na  Na4  1  0.88227800  0.91193600  0.94212100  1
  Na  Na5  1  0.38227800  0.08806400  0.55787900  1
  Na  Na6  1  0.11772200  0.08806400  0.05787900  1
  Na  Na7  1  0.61772200  0.91193600  0.44212100  1
  Na  Na8  1  0.86509400  0.56706000  0.06703900  1
  Na  Na9  1  0.36509400  0.43294000  0.43296100  1
  Na  Na10  1  0.13490600  0.43294000  0.93296100  1
  Na  Na11  1  0.63490600  0.56706000  0.56703900  1
  Na  Na12  1  0.64838400  0.02476600  0.96359900  1
  Na  Na13  1  0.14838400  0.97523400  0.53640100  1
  Na  Na14  1  0.35161600  0.97523400  0.03640100  1
  Na  Na15  1  0.85161600  0.02476600  0.46359900  1
  B  B16  1  0.98631900  0.31299500  0.20666300  1
  B  B17  1  0.48631900  0.68700500  0.29333700  1
  B  B18  1  0.01368100  0.68700500  0.79333700  1
  B  B19  1  0.51368100  0.31299500  0.70666300  1
  B  B20  1  0.81985300  0.14516200  0.18165900  1
  B  B21  1  0.31985300  0.85483800  0.31834100  1
  B  B22  1  0.18014700  0.85483800  0.81834100  1
  B  B23  1  0.68014700  0.14516200  0.68165900  1
  B  B24  1  0.90649500  0.26415300  0.95669600  1
  B  B25  1  0.40649500  0.73584700  0.54330400  1
  B  B26  1  0.09350500  0.73584700  0.04330400  1
  B  B27  1  0.59350500  0.26415300  0.45669600  1
  B  B28  1  0.95690700  0.18338000  0.71948800  1
  B  B29  1  0.45690700  0.81662000  0.78051200  1
  B  B30  1  0.04309300  0.81662000  0.28051200  1
  B  B31  1  0.54309300  0.18338000  0.21948800  1
  B  B32  1  0.90740800  0.45278200  0.73624100  1
  B  B33  1  0.40740800  0.54721800  0.76375900  1
  B  B34  1  0.09259200  0.54721800  0.26375900  1
  B  B35  1  0.59259200  0.45278200  0.23624100  1
  B  B36  1  0.83228700  0.71416000  0.65121700  1
  B  B37  1  0.33228700  0.28584000  0.84878300  1
  B  B38  1  0.16771300  0.28584000  0.34878300  1
  B  B39  1  0.66771300  0.71416000  0.15121700  1
  H  H40  1  0.75323500  0.93511100  0.18470500  1
  H  H41  1  0.25323500  0.06488900  0.31529500  1
  H  H42  1  0.24676500  0.06488900  0.81529500  1
  H  H43  1  0.74676500  0.93511100  0.68470500  1
  H  H44  1  0.97153900  0.96098900  0.68279100  1
  H  H45  1  0.47153900  0.03901100  0.81720900  1
  H  H46  1  0.02846100  0.03901100  0.31720900  1
  H  H47  1  0.52846100  0.96098900  0.18279100  1
  O  O48  1  0.08276100  0.22275900  0.27156700  1
  O  O49  1  0.58276100  0.77724100  0.22843300  1
  O  O50  1  0.91723900  0.77724100  0.72843300  1
  O  O51  1  0.41723900  0.22275900  0.77156700  1
  O  O52  1  0.98542400  0.46704700  0.25019900  1
  O  O53  1  0.48542400  0.53295300  0.24980100  1
  O  O54  1  0.01457600  0.53295300  0.74980100  1
  O  O55  1  0.51457600  0.46704700  0.75019900  1
  O  O56  1  0.88251800  0.23105000  0.26499400  1
  O  O57  1  0.38251800  0.76895000  0.23500600  1
  O  O58  1  0.11748200  0.76895000  0.73500600  1
  O  O59  1  0.61748200  0.23105000  0.76499400  1
  O  O60  1  0.99237900  0.30550600  0.05444100  1
  O  O61  1  0.49237900  0.69449400  0.44555900  1
  O  O62  1  0.00762100  0.69449400  0.94555900  1
  O  O63  1  0.50762100  0.30550600  0.55444100  1
  O  O64  1  0.76107300  0.02215600  0.24913000  1
  O  O65  1  0.26107300  0.97784400  0.25087000  1
  O  O66  1  0.23892700  0.97784400  0.75087000  1
  O  O67  1  0.73892700  0.02215600  0.74913000  1
  O  O68  1  0.81702800  0.16966000  0.03683700  1
  O  O69  1  0.31702800  0.83034000  0.46316300  1
  O  O70  1  0.18297200  0.83034000  0.96316300  1
  O  O71  1  0.68297200  0.16966000  0.53683700  1
  O  O72  1  0.85601000  0.39556700  0.87337300  1
  O  O73  1  0.35601000  0.60443300  0.62662700  1
  O  O74  1  0.14399000  0.60443300  0.12662700  1
  O  O75  1  0.64399000  0.39556700  0.37337300  1
  O  O76  1  0.96132400  0.15532800  0.86375600  1
  O  O77  1  0.46132400  0.84467200  0.63624400  1
  O  O78  1  0.03867600  0.84467200  0.13624400  1
  O  O79  1  0.53867600  0.15532800  0.36375600  1
  O  O80  1  0.98293600  0.06644500  0.63564700  1
  O  O81  1  0.48293600  0.93355500  0.86435300  1
  O  O82  1  0.01706400  0.93355500  0.36435300  1
  O  O83  1  0.51706400  0.06644500  0.13564700  1
  O  O84  1  0.92855100  0.32175100  0.65069600  1
  O  O85  1  0.42855100  0.67824900  0.84930400  1
  O  O86  1  0.07144900  0.67824900  0.34930400  1
  O  O87  1  0.57144900  0.32175100  0.15069600  1
  O  O88  1  0.82642800  0.55500000  0.65159300  1
  O  O89  1  0.32642800  0.44500000  0.84840700  1
  O  O90  1  0.17357200  0.44500000  0.34840700  1
  O  O91  1  0.67357200  0.55500000  0.15159300  1
  O  O92  1  0.75532900  0.80633300  0.58319800  1
  O  O93  1  0.25532900  0.19366700  0.91680200  1
  O  O94  1  0.24467100  0.19366700  0.41680200  1
  O  O95  1  0.74467100  0.80633300  0.08319800  1
