# generated using pymatgen
data_K2PHO4
_symmetry_space_group_name_H-M   'P 1'
_cell_length_a   6.04479700
_cell_length_b   10.48376900
_cell_length_c   22.81466100
_cell_angle_alpha   90.00000000
_cell_angle_beta   90.00000000
_cell_angle_gamma   90.00000000
_symmetry_Int_Tables_number   1
_chemical_formula_structural   K2PHO4
_chemical_formula_sum   'K24 P12 H12 O48'
_cell_volume   1445.81652375
_cell_formula_units_Z   12
loop_
 _symmetry_equiv_pos_site_id
 _symmetry_equiv_pos_as_xyz
  1  'x, y, z'
loop_
 _atom_site_type_symbol
 _atom_site_label
 _atom_site_symmetry_multiplicity
 _atom_site_fract_x
 _atom_site_fract_y
 _atom_site_fract_z
 _atom_site_occupancy
  K  K0  1  0.75082800  0.59647600  0.45047900  1
  K  K1  1  0.25082800  0.40352400  0.54952100  1
  K  K2  1  0.25082800  0.09647600  0.04952100  1
  K  K3  1  0.75082800  0.90352400  0.95047900  1
  K  K4  1  0.74109500  0.63401600  0.09879900  1
  K  K5  1  0.24109500  0.36598400  0.90120100  1
  K  K6  1  0.24109500  0.13401600  0.40120100  1
  K  K7  1  0.74109500  0.86598400  0.59879900  1
  K  K8  1  0.73894400  0.36275600  0.32810900  1
  K  K9  1  0.23894400  0.63724400  0.67189100  1
  K  K10  1  0.23894400  0.86275600  0.17189100  1
  K  K11  1  0.73894400  0.13724400  0.82810900  1
  K  K12  1  0.77305600  0.27560900  0.16415100  1
  K  K13  1  0.27305600  0.72439100  0.83584900  1
  K  K14  1  0.27305600  0.77560900  0.33584900  1
  K  K15  1  0.77305600  0.22439100  0.66415100  1
  K  K16  1  0.79373000  0.00743000  0.28263300  1
  K  K17  1  0.29373000  0.99257000  0.71736700  1
  K  K18  1  0.29373000  0.50743000  0.21736700  1
  K  K19  1  0.79373000  0.49257000  0.78263300  1
  K  K20  1  0.73917400  0.24752900  0.48699500  1
  K  K21  1  0.23917400  0.75247100  0.51300500  1
  K  K22  1  0.23917400  0.74752900  0.01300500  1
  K  K23  1  0.73917400  0.25247100  0.98699500  1
  P  P24  1  0.74635300  0.95601100  0.09420000  1
  P  P25  1  0.24635300  0.04398900  0.90580000  1
  P  P26  1  0.24635300  0.45601100  0.40580000  1
  P  P27  1  0.74635300  0.54398900  0.59420000  1
  P  P28  1  0.76085400  0.93162700  0.42471000  1
  P  P29  1  0.26085400  0.06837300  0.57529000  1
  P  P30  1  0.26085400  0.43162700  0.07529000  1
  P  P31  1  0.76085400  0.56837300  0.92471000  1
  P  P32  1  0.78579400  0.65036800  0.24459000  1
  P  P33  1  0.28579400  0.34963200  0.75541000  1
  P  P34  1  0.28579400  0.15036800  0.25541000  1
  P  P35  1  0.78579400  0.84963200  0.74459000  1
  H  H36  1  0.69387300  0.86644800  0.18300800  1
  H  H37  1  0.19387300  0.13355200  0.81699200  1
  H  H38  1  0.19387300  0.36644800  0.31699200  1
  H  H39  1  0.69387300  0.63355200  0.68300800  1
  H  H40  1  0.46622000  0.97910800  0.47872500  1
  H  H41  1  0.96622000  0.02089200  0.52127500  1
  H  H42  1  0.96622000  0.47910800  0.02127500  1
  H  H43  1  0.46622000  0.52089200  0.97872500  1
  H  H44  1  0.73717600  0.70623800  0.33687300  1
  H  H45  1  0.23717600  0.29376200  0.66312700  1
  H  H46  1  0.23717600  0.20623800  0.16312700  1
  H  H47  1  0.73717600  0.79376200  0.83687300  1
  O  O48  1  0.73666200  0.95325900  0.16597200  1
  O  O49  1  0.23666200  0.04674100  0.83402800  1
  O  O50  1  0.23666200  0.45325900  0.33402800  1
  O  O51  1  0.73666200  0.54674100  0.66597200  1
  O  O52  1  0.75489000  0.09763000  0.07778900  1
  O  O53  1  0.25489000  0.90237000  0.92221100  1
  O  O54  1  0.25489000  0.59763000  0.42221100  1
  O  O55  1  0.75489000  0.40237000  0.57778900  1
  O  O56  1  0.53617600  0.88734200  0.07237400  1
  O  O57  1  0.03617600  0.11265800  0.92762600  1
  O  O58  1  0.03617600  0.38734200  0.42762600  1
  O  O59  1  0.53617600  0.61265800  0.57237400  1
  O  O60  1  0.95696000  0.88360300  0.07523000  1
  O  O61  1  0.45696000  0.11639700  0.92477000  1
  O  O62  1  0.45696000  0.38360300  0.42477000  1
  O  O63  1  0.95696000  0.61639700  0.57523000  1
  O  O64  1  0.90823300  0.90958800  0.47937700  1
  O  O65  1  0.40823300  0.09041200  0.52062300  1
  O  O66  1  0.40823300  0.40958800  0.02062300  1
  O  O67  1  0.90823300  0.59041200  0.97937700  1
  O  O68  1  0.78629100  0.06689600  0.40001800  1
  O  O69  1  0.28629100  0.93310400  0.59998200  1
  O  O70  1  0.28629100  0.56689600  0.09998200  1
  O  O71  1  0.78629100  0.43310400  0.90001800  1
  O  O72  1  0.79361300  0.82749300  0.37805000  1
  O  O73  1  0.29361300  0.17250700  0.62195000  1
  O  O74  1  0.29361300  0.32749300  0.12195000  1
  O  O75  1  0.79361300  0.67250700  0.87805000  1
  O  O76  1  0.50453300  0.91301000  0.44652600  1
  O  O77  1  0.00453300  0.08699000  0.55347400  1
  O  O78  1  0.00453300  0.41301000  0.05347400  1
  O  O79  1  0.50453300  0.58699000  0.94652600  1
  O  O80  1  0.70465000  0.62811500  0.31262500  1
  O  O81  1  0.20465000  0.37188500  0.68737500  1
  O  O82  1  0.20465000  0.12811500  0.18737500  1
  O  O83  1  0.70465000  0.87188500  0.81262500  1
  O  O84  1  0.78216200  0.51629500  0.21747800  1
  O  O85  1  0.28216200  0.48370500  0.78252200  1
  O  O86  1  0.28216200  0.01629500  0.28252200  1
  O  O87  1  0.78216200  0.98370500  0.71747800  1
  O  O88  1  0.61014200  0.73994500  0.21658000  1
  O  O89  1  0.11014200  0.26005500  0.78342000  1
  O  O90  1  0.11014200  0.23994500  0.28342000  1
  O  O91  1  0.61014200  0.76005500  0.71658000  1
  O  O92  1  0.01478900  0.71335700  0.24615500  1
  O  O93  1  0.51478900  0.28664300  0.75384500  1
  O  O94  1  0.51478900  0.21335700  0.25384500  1
  O  O95  1  0.01478900  0.78664300  0.74615500  1
