# generated using pymatgen
data_NaNbSe2
_symmetry_space_group_name_H-M   'P 1'
_cell_length_a   3.58305059
_cell_length_b   3.58305059
_cell_length_c   15.03327100
_cell_angle_alpha   90.00000000
_cell_angle_beta   90.00000000
_cell_angle_gamma   120.00001083
_symmetry_Int_Tables_number   1
_chemical_formula_structural   NaNbSe2
_chemical_formula_sum   'Na2 Nb2 Se4'
_cell_volume   167.14367626
_cell_formula_units_Z   2
loop_
 _symmetry_equiv_pos_site_id
 _symmetry_equiv_pos_as_xyz
  1  'x, y, z'
loop_
 _atom_site_type_symbol
 _atom_site_label
 _atom_site_symmetry_multiplicity
 _atom_site_fract_x
 _atom_site_fract_y
 _atom_site_fract_z
 _atom_site_occupancy
  Na  Na0  1  0.00000000  0.00000000  0.00000000  1
  Na  Na1  1  0.00000000  0.00000000  0.50000000  1
  Nb  Nb2  1  0.00000000  0.00000000  0.25000000  1
  Nb  Nb3  1  0.00000000  0.00000000  0.75000000  1
  Se  Se4  1  0.33333300  0.66666700  0.14027800  1
  Se  Se5  1  0.33333300  0.66666700  0.35972200  1
  Se  Se6  1  0.66666700  0.33333300  0.64027800  1
  Se  Se7  1  0.66666700  0.33333300  0.85972200  1
