# generated using pymatgen
data_Na6Mn2C4SO16
_symmetry_space_group_name_H-M   'P 1'
_cell_length_a   10.03038889
_cell_length_b   10.03038889
_cell_length_c   10.03038889
_cell_angle_alpha   60.00000000
_cell_angle_beta   60.00000000
_cell_angle_gamma   60.00000000
_symmetry_Int_Tables_number   1
_chemical_formula_structural   Na6Mn2C4SO16
_chemical_formula_sum   'Na12 Mn4 C8 S2 O32'
_cell_volume   713.57284753
_cell_formula_units_Z   2
loop_
 _symmetry_equiv_pos_site_id
 _symmetry_equiv_pos_as_xyz
  1  'x, y, z'
loop_
 _atom_site_type_symbol
 _atom_site_label
 _atom_site_symmetry_multiplicity
 _atom_site_fract_x
 _atom_site_fract_y
 _atom_site_fract_z
 _atom_site_occupancy
  Na  Na0  1  0.78561600  0.78561600  0.21438400  1
  Na  Na1  1  0.46438400  0.03561600  0.03561600  1
  Na  Na2  1  0.21438400  0.78561600  0.21438400  1
  Na  Na3  1  0.78561600  0.21438400  0.78561600  1
  Na  Na4  1  0.03561600  0.46438400  0.46438400  1
  Na  Na5  1  0.03561600  0.03561600  0.46438400  1
  Na  Na6  1  0.21438400  0.78561600  0.78561600  1
  Na  Na7  1  0.21438400  0.21438400  0.78561600  1
  Na  Na8  1  0.46438400  0.03561600  0.46438400  1
  Na  Na9  1  0.03561600  0.46438400  0.03561600  1
  Na  Na10  1  0.78561600  0.21438400  0.21438400  1
  Na  Na11  1  0.46438400  0.46438400  0.03561600  1
  Mn  Mn12  1  0.12500000  0.62500000  0.62500000  1
  Mn  Mn13  1  0.62500000  0.62500000  0.62500000  1
  Mn  Mn14  1  0.62500000  0.62500000  0.12500000  1
  Mn  Mn15  1  0.62500000  0.12500000  0.62500000  1
  C  C16  1  0.78762600  0.40412500  0.40412500  1
  C  C17  1  0.40412500  0.78762600  0.40412500  1
  C  C18  1  0.40412500  0.40412500  0.40412500  1
  C  C19  1  0.40412500  0.40412500  0.78762600  1
  C  C20  1  0.84587500  0.84587500  0.46237400  1
  C  C21  1  0.84587500  0.46237400  0.84587500  1
  C  C22  1  0.84587500  0.84587500  0.84587500  1
  C  C23  1  0.46237400  0.84587500  0.84587500  1
  S  S24  1  0.00000000  0.00000000  0.00000000  1
  S  S25  1  0.25000000  0.25000000  0.25000000  1
  O  O26  1  0.72797900  0.98496400  0.82611000  1
  O  O27  1  0.46094600  0.82611000  0.98496400  1
  O  O28  1  0.78905400  0.52202100  0.42389000  1
  O  O29  1  0.52202100  0.78905400  0.26503600  1
  O  O30  1  0.78905400  0.26503600  0.52202100  1
  O  O31  1  0.06095200  0.06095200  0.81714500  1
  O  O32  1  0.42389000  0.52202100  0.26503600  1
  O  O33  1  0.06095200  0.06095200  0.06095200  1
  O  O34  1  0.06095200  0.81714500  0.06095200  1
  O  O35  1  0.42389000  0.78905400  0.52202100  1
  O  O36  1  0.26503600  0.78905400  0.42389000  1
  O  O37  1  0.81714500  0.06095200  0.06095200  1
  O  O38  1  0.52202100  0.42389000  0.78905400  1
  O  O39  1  0.26503600  0.42389000  0.52202100  1
  O  O40  1  0.42389000  0.26503600  0.78905400  1
  O  O41  1  0.98496400  0.72797900  0.46094600  1
  O  O42  1  0.26503600  0.52202100  0.78905400  1
  O  O43  1  0.82611000  0.98496400  0.46094600  1
  O  O44  1  0.98496400  0.82611000  0.72797900  1
  O  O45  1  0.72797900  0.82611000  0.46094600  1
  O  O46  1  0.43285500  0.18904800  0.18904800  1
  O  O47  1  0.98496400  0.46094600  0.82611000  1
  O  O48  1  0.82611000  0.46094600  0.72797900  1
  O  O49  1  0.18904800  0.43285500  0.18904800  1
  O  O50  1  0.18904800  0.18904800  0.18904800  1
  O  O51  1  0.82611000  0.72797900  0.98496400  1
  O  O52  1  0.18904800  0.18904800  0.43285500  1
  O  O53  1  0.46094600  0.98496400  0.72797900  1
  O  O54  1  0.72797900  0.46094600  0.98496400  1
  O  O55  1  0.46094600  0.72797900  0.82611000  1
  O  O56  1  0.78905400  0.42389000  0.26503600  1
  O  O57  1  0.52202100  0.26503600  0.42389000  1
