# generated using pymatgen
data_Tb2SeO2
_symmetry_space_group_name_H-M   'P 1'
_cell_length_a   3.87354443
_cell_length_b   3.87354443
_cell_length_c   6.87125600
_cell_angle_alpha   90.00000000
_cell_angle_beta   90.00000000
_cell_angle_gamma   120.00000730
_symmetry_Int_Tables_number   1
_chemical_formula_structural   Tb2SeO2
_chemical_formula_sum   'Tb2 Se1 O2'
_cell_volume   89.28609144
_cell_formula_units_Z   1
loop_
 _symmetry_equiv_pos_site_id
 _symmetry_equiv_pos_as_xyz
  1  'x, y, z'
loop_
 _atom_site_type_symbol
 _atom_site_label
 _atom_site_symmetry_multiplicity
 _atom_site_fract_x
 _atom_site_fract_y
 _atom_site_fract_z
 _atom_site_occupancy
  Tb  Tb0  1  0.33333300  0.66666700  0.29068800  1
  Tb  Tb1  1  0.66666700  0.33333300  0.70931200  1
  Se  Se2  1  0.00000000  0.00000000  0.00000000  1
  O  O3  1  0.33333300  0.66666700  0.62550900  1
  O  O4  1  0.66666700  0.33333300  0.37449100  1
