# generated using pymatgen
data_CsU2O6
_symmetry_space_group_name_H-M   'P 1'
_cell_length_a   7.95327262
_cell_length_b   7.95327262
_cell_length_c   7.95327262
_cell_angle_alpha   60.00000000
_cell_angle_beta   60.00000000
_cell_angle_gamma   60.00000000
_symmetry_Int_Tables_number   1
_chemical_formula_structural   CsU2O6
_chemical_formula_sum   'Cs2 U4 O12'
_cell_volume   355.73173427
_cell_formula_units_Z   2
loop_
 _symmetry_equiv_pos_site_id
 _symmetry_equiv_pos_as_xyz
  1  'x, y, z'
loop_
 _atom_site_type_symbol
 _atom_site_label
 _atom_site_symmetry_multiplicity
 _atom_site_fract_x
 _atom_site_fract_y
 _atom_site_fract_z
 _atom_site_occupancy
  Cs  Cs0  1  0.25000000  0.25000000  0.25000000  1
  Cs  Cs1  1  0.00000000  0.00000000  0.00000000  1
  U  U2  1  0.62500000  0.62500000  0.12500000  1
  U  U3  1  0.62500000  0.12500000  0.62500000  1
  U  U4  1  0.12500000  0.62500000  0.62500000  1
  U  U5  1  0.62500000  0.62500000  0.62500000  1
  O  O6  1  0.55961300  0.94038700  0.94038700  1
  O  O7  1  0.30961300  0.69038700  0.69038700  1
  O  O8  1  0.94038700  0.55961300  0.94038700  1
  O  O9  1  0.94038700  0.94038700  0.55961300  1
  O  O10  1  0.55961300  0.55961300  0.94038700  1
  O  O11  1  0.55961300  0.94038700  0.55961300  1
  O  O12  1  0.94038700  0.55961300  0.55961300  1
  O  O13  1  0.30961300  0.69038700  0.30961300  1
  O  O14  1  0.69038700  0.30961300  0.69038700  1
  O  O15  1  0.69038700  0.69038700  0.30961300  1
  O  O16  1  0.30961300  0.30961300  0.69038700  1
  O  O17  1  0.69038700  0.30961300  0.30961300  1
