# generated using pymatgen
data_Hf3N4
_symmetry_space_group_name_H-M   'P 1'
_cell_length_a   3.24371800
_cell_length_b   9.80824900
_cell_length_c   10.72524200
_cell_angle_alpha   90.00000000
_cell_angle_beta   90.00000000
_cell_angle_gamma   90.00000000
_symmetry_Int_Tables_number   1
_chemical_formula_structural   Hf3N4
_chemical_formula_sum   'Hf12 N16'
_cell_volume   341.22565310
_cell_formula_units_Z   4
loop_
 _symmetry_equiv_pos_site_id
 _symmetry_equiv_pos_as_xyz
  1  'x, y, z'
loop_
 _atom_site_type_symbol
 _atom_site_label
 _atom_site_symmetry_multiplicity
 _atom_site_fract_x
 _atom_site_fract_y
 _atom_site_fract_z
 _atom_site_occupancy
  Hf  Hf0  1  0.75000000  0.07006700  0.87577000  1
  Hf  Hf1  1  0.75000000  0.10605700  0.40703100  1
  Hf  Hf2  1  0.75000000  0.22663100  0.14706800  1
  Hf  Hf3  1  0.25000000  0.27336900  0.64706800  1
  Hf  Hf4  1  0.25000000  0.39394300  0.90703100  1
  Hf  Hf5  1  0.25000000  0.42993300  0.37577000  1
  Hf  Hf6  1  0.75000000  0.57006700  0.62423000  1
  Hf  Hf7  1  0.75000000  0.60605700  0.09296900  1
  Hf  Hf8  1  0.75000000  0.72663100  0.35293200  1
  Hf  Hf9  1  0.25000000  0.77336900  0.85293200  1
  Hf  Hf10  1  0.25000000  0.89394300  0.59296900  1
  Hf  Hf11  1  0.25000000  0.92993300  0.12423000  1
  N  N12  1  0.75000000  0.00762400  0.22464600  1
  N  N13  1  0.25000000  0.10330300  0.53038900  1
  N  N14  1  0.25000000  0.14159700  0.01833200  1
  N  N15  1  0.25000000  0.23725000  0.28604800  1
  N  N16  1  0.75000000  0.26275000  0.78604800  1
  N  N17  1  0.75000000  0.35840300  0.51833200  1
  N  N18  1  0.75000000  0.39669700  0.03038900  1
  N  N19  1  0.25000000  0.49237600  0.72464600  1
  N  N20  1  0.75000000  0.50762400  0.27535400  1
  N  N21  1  0.25000000  0.60330300  0.96961100  1
  N  N22  1  0.25000000  0.64159700  0.48166800  1
  N  N23  1  0.25000000  0.73725000  0.21395200  1
  N  N24  1  0.75000000  0.76275000  0.71395200  1
  N  N25  1  0.75000000  0.85840300  0.98166800  1
  N  N26  1  0.75000000  0.89669700  0.46961100  1
  N  N27  1  0.25000000  0.99237600  0.77535400  1
