# generated using pymatgen
data_Ho2(SO4)3
_symmetry_space_group_name_H-M   'P 1'
_cell_length_a   9.53383987
_cell_length_b   9.53383987
_cell_length_c   9.53383978
_cell_angle_alpha   57.93141497
_cell_angle_beta   57.93141497
_cell_angle_gamma   57.93141864
_symmetry_Int_Tables_number   1
_chemical_formula_structural   Ho2(SO4)3
_chemical_formula_sum   'Ho4 S6 O24'
_cell_volume   583.67075465
_cell_formula_units_Z   2
loop_
 _symmetry_equiv_pos_site_id
 _symmetry_equiv_pos_as_xyz
  1  'x, y, z'
loop_
 _atom_site_type_symbol
 _atom_site_label
 _atom_site_symmetry_multiplicity
 _atom_site_fract_x
 _atom_site_fract_y
 _atom_site_fract_z
 _atom_site_occupancy
  Ho  Ho0  1  0.14391600  0.14391600  0.14391600  1
  Ho  Ho1  1  0.85608400  0.85608400  0.85608400  1
  Ho  Ho2  1  0.64391600  0.64391600  0.64391600  1
  Ho  Ho3  1  0.35608400  0.35608400  0.35608400  1
  S  S4  1  0.25000000  0.53743100  0.96256900  1
  S  S5  1  0.46256900  0.03743100  0.75000000  1
  S  S6  1  0.03743100  0.75000000  0.46256900  1
  S  S7  1  0.96256900  0.25000000  0.53743100  1
  S  S8  1  0.53743100  0.96256900  0.25000000  1
  S  S9  1  0.75000000  0.46256900  0.03743100  1
  O  O10  1  0.40697000  0.56433100  0.80337400  1
  O  O11  1  0.27450000  0.50871700  0.11823500  1
  O  O12  1  0.49128300  0.88176500  0.72550000  1
  O  O13  1  0.19662600  0.59303000  0.43566900  1
  O  O14  1  0.09303000  0.69662600  0.93566900  1
  O  O15  1  0.38176500  0.99128300  0.22550000  1
  O  O16  1  0.00871700  0.77450000  0.61823500  1
  O  O17  1  0.30337400  0.06433100  0.90697000  1
  O  O18  1  0.43566900  0.19662600  0.59303000  1
  O  O19  1  0.06433100  0.90697000  0.30337400  1
  O  O20  1  0.88176500  0.72550000  0.49128300  1
  O  O21  1  0.77450000  0.61823500  0.00871700  1
  O  O22  1  0.22550000  0.38176500  0.99128300  1
  O  O23  1  0.11823500  0.27450000  0.50871700  1
  O  O24  1  0.93566900  0.09303000  0.69662600  1
  O  O25  1  0.56433100  0.80337400  0.40697000  1
  O  O26  1  0.69662600  0.93566900  0.09303000  1
  O  O27  1  0.99128300  0.22550000  0.38176500  1
  O  O28  1  0.61823500  0.00871700  0.77450000  1
  O  O29  1  0.90697000  0.30337400  0.06433100  1
  O  O30  1  0.80337400  0.40697000  0.56433100  1
  O  O31  1  0.50871700  0.11823500  0.27450000  1
  O  O32  1  0.72550000  0.49128300  0.88176500  1
  O  O33  1  0.59303000  0.43566900  0.19662600  1
