# generated using pymatgen
data_Sr7W4O19
_symmetry_space_group_name_H-M   'P 1'
_cell_length_a   7.52605617
_cell_length_b   7.52605617
_cell_length_c   10.59431983
_cell_angle_alpha   82.48966548
_cell_angle_beta   82.48966548
_cell_angle_gamma   44.34576975
_symmetry_Int_Tables_number   1
_chemical_formula_structural   Sr7W4O19
_chemical_formula_sum   'Sr7 W4 O19'
_cell_volume   415.24789777
_cell_formula_units_Z   1
loop_
 _symmetry_equiv_pos_site_id
 _symmetry_equiv_pos_as_xyz
  1  'x, y, z'
loop_
 _atom_site_type_symbol
 _atom_site_label
 _atom_site_symmetry_multiplicity
 _atom_site_fract_x
 _atom_site_fract_y
 _atom_site_fract_z
 _atom_site_occupancy
  Sr  Sr0  1  0.85910900  0.85910900  0.95414400  1
  Sr  Sr1  1  0.41660100  0.41660100  0.16085000  1
  Sr  Sr2  1  0.79007700  0.79007700  0.58680700  1
  Sr  Sr3  1  0.20992300  0.20992300  0.41319300  1
  Sr  Sr4  1  0.58339900  0.58339900  0.83915000  1
  Sr  Sr5  1  0.14089100  0.14089100  0.04585600  1
  Sr  Sr6  1  0.50000000  0.50000000  0.50000000  1
  W  W7  1  0.96453700  0.96453700  0.31928500  1
  W  W8  1  0.32668600  0.32668600  0.78185400  1
  W  W9  1  0.67331400  0.67331400  0.21814600  1
  W  W10  1  0.03546300  0.03546300  0.68071500  1
  O  O11  1  0.68715900  0.16988500  0.71478900  1
  O  O12  1  0.16988500  0.68715900  0.71478900  1
  O  O13  1  0.39952600  0.39952600  0.92892100  1
  O  O14  1  0.95401500  0.95401500  0.14309500  1
  O  O15  1  0.63170200  0.12484100  0.37026700  1
  O  O16  1  0.12484100  0.63170200  0.37026700  1
  O  O17  1  0.30466100  0.30466100  0.60995200  1
  O  O18  1  0.99987100  0.48539300  0.84579900  1
  O  O19  1  0.48539300  0.99987100  0.84579900  1
  O  O20  1  0.51460700  0.00012900  0.15420100  1
  O  O21  1  0.00012900  0.51460700  0.15420100  1
  O  O22  1  0.69533900  0.69533900  0.39004800  1
  O  O23  1  0.36829800  0.87515900  0.62973300  1
  O  O24  1  0.87515900  0.36829800  0.62973300  1
  O  O25  1  0.04598500  0.04598500  0.85690500  1
  O  O26  1  0.60047400  0.60047400  0.07107900  1
  O  O27  1  0.83011500  0.31284100  0.28521100  1
  O  O28  1  0.31284100  0.83011500  0.28521100  1
  O  O29  1  0.00000000  0.00000000  0.50000000  1
