# generated using pymatgen
data_AsHPb4(ClO)4
_symmetry_space_group_name_H-M   'P 1'
_cell_length_a   8.04365100
_cell_length_b   10.98412100
_cell_length_c   14.06576357
_cell_angle_alpha   77.35095672
_cell_angle_beta   90.00000000
_cell_angle_gamma   90.00000000
_symmetry_Int_Tables_number   1
_chemical_formula_structural   AsHPb4(ClO)4
_chemical_formula_sum   'As4 H4 Pb16 Cl16 O16'
_cell_volume   1212.58266880
_cell_formula_units_Z   4
loop_
 _symmetry_equiv_pos_site_id
 _symmetry_equiv_pos_as_xyz
  1  'x, y, z'
loop_
 _atom_site_type_symbol
 _atom_site_label
 _atom_site_symmetry_multiplicity
 _atom_site_fract_x
 _atom_site_fract_y
 _atom_site_fract_z
 _atom_site_occupancy
  As  As0  1  0.55060000  0.15184900  0.79887800  1
  As  As1  1  0.05060000  0.34815100  0.20112200  1
  As  As2  1  0.44940000  0.84815100  0.20112200  1
  As  As3  1  0.94940000  0.65184900  0.79887800  1
  H  H4  1  0.75481900  0.19316600  0.20090000  1
  H  H5  1  0.25481900  0.30683400  0.79910000  1
  H  H6  1  0.24518100  0.80683400  0.79910000  1
  H  H7  1  0.74518100  0.69316600  0.20090000  1
  Pb  Pb8  1  0.72194000  0.63040000  0.58589900  1
  Pb  Pb9  1  0.22194000  0.86960000  0.41410100  1
  Pb  Pb10  1  0.27806000  0.36960000  0.41410100  1
  Pb  Pb11  1  0.77806000  0.13040000  0.58589900  1
  Pb  Pb12  1  0.59093400  0.84717600  0.81449500  1
  Pb  Pb13  1  0.09093400  0.65282400  0.18550500  1
  Pb  Pb14  1  0.40906600  0.15282400  0.18550500  1
  Pb  Pb15  1  0.90906600  0.34717600  0.81449500  1
  Pb  Pb16  1  0.74022100  0.01435400  0.05540700  1
  Pb  Pb17  1  0.24022100  0.48564600  0.94459300  1
  Pb  Pb18  1  0.25977900  0.98564600  0.94459300  1
  Pb  Pb19  1  0.75977900  0.51435400  0.05540700  1
  Pb  Pb20  1  0.74478300  0.94634400  0.33207300  1
  Pb  Pb21  1  0.24478300  0.55365600  0.66792700  1
  Pb  Pb22  1  0.25521700  0.05365600  0.66792700  1
  Pb  Pb23  1  0.75521700  0.44634400  0.33207300  1
  Cl  Cl24  1  0.05462800  0.93894200  0.21768500  1
  Cl  Cl25  1  0.55462800  0.56105800  0.78231500  1
  Cl  Cl26  1  0.94537200  0.06105800  0.78231500  1
  Cl  Cl27  1  0.44537200  0.43894200  0.21768500  1
  Cl  Cl28  1  0.44089100  0.72051100  0.00173000  1
  Cl  Cl29  1  0.94089100  0.77948900  0.99827000  1
  Cl  Cl30  1  0.55910900  0.27948900  0.99827000  1
  Cl  Cl31  1  0.05910900  0.22051100  0.00173000  1
  Cl  Cl32  1  0.93561500  0.65714400  0.41961300  1
  Cl  Cl33  1  0.43561500  0.84285600  0.58038700  1
  Cl  Cl34  1  0.06438500  0.34285600  0.58038700  1
  Cl  Cl35  1  0.56438500  0.15714400  0.41961300  1
  Cl  Cl36  1  0.60305100  0.37423600  0.59083700  1
  Cl  Cl37  1  0.10305100  0.12576400  0.40916300  1
  Cl  Cl38  1  0.39694900  0.62576400  0.40916300  1
  Cl  Cl39  1  0.89694900  0.87423600  0.59083700  1
  O  O40  1  0.55930400  0.06398000  0.70001200  1
  O  O41  1  0.05930400  0.43602000  0.29998800  1
  O  O42  1  0.44069600  0.93602000  0.29998800  1
  O  O43  1  0.94069600  0.56398000  0.70001200  1
  O  O44  1  0.55665300  0.01169800  0.89786800  1
  O  O45  1  0.05665300  0.48830200  0.10213200  1
  O  O46  1  0.44334700  0.98830200  0.10213200  1
  O  O47  1  0.94334700  0.51169800  0.89786800  1
  O  O48  1  0.32676900  0.16077000  0.79698600  1
  O  O49  1  0.82676900  0.33923000  0.20301400  1
  O  O50  1  0.67323100  0.83923000  0.20301400  1
  O  O51  1  0.17323100  0.66077000  0.79698600  1
  O  O52  1  0.69816900  0.11132600  0.19910000  1
  O  O53  1  0.19816900  0.38867400  0.80090000  1
  O  O54  1  0.30183100  0.88867400  0.80090000  1
  O  O55  1  0.80183100  0.61132600  0.19910000  1
