# generated using pymatgen
data_TiSnO3
_symmetry_space_group_name_H-M   'P 1'
_cell_length_a   7.42635376
_cell_length_b   7.42635376
_cell_length_c   7.42635353
_cell_angle_alpha   40.50845185
_cell_angle_beta   40.50845185
_cell_angle_gamma   40.50845866
_symmetry_Int_Tables_number   1
_chemical_formula_structural   TiSnO3
_chemical_formula_sum   'Ti2 Sn2 O6'
_cell_volume   155.85842313
_cell_formula_units_Z   2
loop_
 _symmetry_equiv_pos_site_id
 _symmetry_equiv_pos_as_xyz
  1  'x, y, z'
loop_
 _atom_site_type_symbol
 _atom_site_label
 _atom_site_symmetry_multiplicity
 _atom_site_fract_x
 _atom_site_fract_y
 _atom_site_fract_z
 _atom_site_occupancy
  Ti  Ti0  1  0.66527300  0.66527300  0.66527300  1
  Ti  Ti1  1  0.33472700  0.33472700  0.33472700  1
  Sn  Sn2  1  0.89190500  0.89190500  0.89190500  1
  Sn  Sn3  1  0.10809500  0.10809500  0.10809500  1
  O  O4  1  0.58904100  0.94679000  0.30568900  1
  O  O5  1  0.30568900  0.58904100  0.94679000  1
  O  O6  1  0.05321000  0.69431100  0.41095900  1
  O  O7  1  0.94679000  0.30568900  0.58904100  1
  O  O8  1  0.69431100  0.41095900  0.05321000  1
  O  O9  1  0.41095900  0.05321000  0.69431100  1
