# generated using pymatgen
data_Na3CuO2
_symmetry_space_group_name_H-M   'P 1'
_cell_length_a   9.51104600
_cell_length_b   9.51104600
_cell_length_c   4.59468900
_cell_angle_alpha   90.00000000
_cell_angle_beta   90.00000000
_cell_angle_gamma   90.00000000
_symmetry_Int_Tables_number   1
_chemical_formula_structural   Na3CuO2
_chemical_formula_sum   'Na12 Cu4 O8'
_cell_volume   415.63554863
_cell_formula_units_Z   4
loop_
 _symmetry_equiv_pos_site_id
 _symmetry_equiv_pos_as_xyz
  1  'x, y, z'
loop_
 _atom_site_type_symbol
 _atom_site_label
 _atom_site_symmetry_multiplicity
 _atom_site_fract_x
 _atom_site_fract_y
 _atom_site_fract_z
 _atom_site_occupancy
  Na  Na0  1  0.65602600  0.98620200  0.50000000  1
  Na  Na1  1  0.51379800  0.15602600  0.00000000  1
  Na  Na2  1  0.84177600  0.15822400  0.00000000  1
  Na  Na3  1  0.34177600  0.34177600  0.50000000  1
  Na  Na4  1  0.01379800  0.34397400  0.50000000  1
  Na  Na5  1  0.15602600  0.51379800  0.00000000  1
  Na  Na6  1  0.84397400  0.48620200  0.00000000  1
  Na  Na7  1  0.98620200  0.65602600  0.50000000  1
  Na  Na8  1  0.65822400  0.65822400  0.50000000  1
  Na  Na9  1  0.15822400  0.84177600  0.00000000  1
  Na  Na10  1  0.48620200  0.84397400  0.00000000  1
  Na  Na11  1  0.34397400  0.01379800  0.50000000  1
  Cu  Cu12  1  0.16658800  0.16658800  0.00000000  1
  Cu  Cu13  1  0.66658800  0.33341200  0.50000000  1
  Cu  Cu14  1  0.33341200  0.66658800  0.50000000  1
  Cu  Cu15  1  0.83341200  0.83341200  0.00000000  1
  O  O16  1  0.30047400  0.03008300  0.00000000  1
  O  O17  1  0.53008300  0.19952600  0.50000000  1
  O  O18  1  0.03008300  0.30047400  0.00000000  1
  O  O19  1  0.80047400  0.46991700  0.50000000  1
  O  O20  1  0.19952600  0.53008300  0.50000000  1
  O  O21  1  0.96991700  0.69952600  0.00000000  1
  O  O22  1  0.46991700  0.80047400  0.50000000  1
  O  O23  1  0.69952600  0.96991700  0.00000000  1
