# generated using pymatgen
data_BH4NF4
_symmetry_space_group_name_H-M   'P 1'
_cell_length_a   5.78110700
_cell_length_b   7.23209900
_cell_length_c   8.95012000
_cell_angle_alpha   90.00000000
_cell_angle_beta   90.00000000
_cell_angle_gamma   90.00000000
_symmetry_Int_Tables_number   1
_chemical_formula_structural   BH4NF4
_chemical_formula_sum   'B4 H16 N4 F16'
_cell_volume   374.20038362
_cell_formula_units_Z   4
loop_
 _symmetry_equiv_pos_site_id
 _symmetry_equiv_pos_as_xyz
  1  'x, y, z'
loop_
 _atom_site_type_symbol
 _atom_site_label
 _atom_site_symmetry_multiplicity
 _atom_site_fract_x
 _atom_site_fract_y
 _atom_site_fract_z
 _atom_site_occupancy
  B  B0  1  0.25000000  0.80908700  0.57318900  1
  B  B1  1  0.25000000  0.69091300  0.07318900  1
  B  B2  1  0.75000000  0.19091300  0.42681100  1
  B  B3  1  0.75000000  0.30908700  0.92681100  1
  H  H4  1  0.25000000  0.37903200  0.80435600  1
  H  H5  1  0.25000000  0.12096800  0.30435600  1
  H  H6  1  0.75000000  0.62096800  0.19564400  1
  H  H7  1  0.75000000  0.87903200  0.69564400  1
  H  H8  1  0.25000000  0.20212300  0.68155600  1
  H  H9  1  0.25000000  0.29787700  0.18155600  1
  H  H10  1  0.75000000  0.79787700  0.31844400  1
  H  H11  1  0.75000000  0.70212300  0.81844400  1
  H  H12  1  0.10535400  0.39903500  0.64282400  1
  H  H13  1  0.39464600  0.10096500  0.14282400  1
  H  H14  1  0.60535400  0.60096500  0.35717600  1
  H  H15  1  0.89464600  0.89903500  0.85717600  1
  H  H16  1  0.89464600  0.60096500  0.35717600  1
  H  H17  1  0.60535400  0.89903500  0.85717600  1
  H  H18  1  0.39464600  0.39903500  0.64282400  1
  H  H19  1  0.10535400  0.10096500  0.14282400  1
  N  N20  1  0.25000000  0.34393600  0.69255700  1
  N  N21  1  0.25000000  0.15606400  0.19255700  1
  N  N22  1  0.75000000  0.65606400  0.30744300  1
  N  N23  1  0.75000000  0.84393600  0.80744300  1
  F  F24  1  0.25000000  0.91681600  0.44195200  1
  F  F25  1  0.25000000  0.58318400  0.94195200  1
  F  F26  1  0.75000000  0.08318400  0.55804800  1
  F  F27  1  0.75000000  0.41681600  0.05804800  1
  F  F28  1  0.25000000  0.92657500  0.70093100  1
  F  F29  1  0.25000000  0.57342500  0.20093100  1
  F  F30  1  0.75000000  0.07342500  0.29906900  1
  F  F31  1  0.75000000  0.42657500  0.79906900  1
  F  F32  1  0.04988600  0.69496600  0.57600200  1
  F  F33  1  0.45011400  0.80503400  0.07600200  1
  F  F34  1  0.54988600  0.30503400  0.42399800  1
  F  F35  1  0.95011400  0.19496600  0.92399800  1
  F  F36  1  0.95011400  0.30503400  0.42399800  1
  F  F37  1  0.54988600  0.19496600  0.92399800  1
  F  F38  1  0.45011400  0.69496600  0.57600200  1
  F  F39  1  0.04988600  0.80503400  0.07600200  1
