# generated using pymatgen
data_Ho(ClO4)3
_symmetry_space_group_name_H-M   'P 1'
_cell_length_a   9.45682045
_cell_length_b   9.45682045
_cell_length_c   9.45682083
_cell_angle_alpha   51.73889500
_cell_angle_beta   51.73889500
_cell_angle_gamma   51.73889183
_symmetry_Int_Tables_number   1
_chemical_formula_structural   Ho(ClO4)3
_chemical_formula_sum   'Ho2 Cl6 O24'
_cell_volume   481.78973568
_cell_formula_units_Z   2
loop_
 _symmetry_equiv_pos_site_id
 _symmetry_equiv_pos_as_xyz
  1  'x, y, z'
loop_
 _atom_site_type_symbol
 _atom_site_label
 _atom_site_symmetry_multiplicity
 _atom_site_fract_x
 _atom_site_fract_y
 _atom_site_fract_z
 _atom_site_occupancy
  Ho  Ho0  1  0.94188200  0.94188200  0.94188200  1
  Ho  Ho1  1  0.44188200  0.44188200  0.44188200  1
  Cl  Cl2  1  0.65486600  0.03385300  0.31048900  1
  Cl  Cl3  1  0.53385300  0.15486600  0.81048900  1
  Cl  Cl4  1  0.81048900  0.53385300  0.15486600  1
  Cl  Cl5  1  0.03385300  0.31048900  0.65486600  1
  Cl  Cl6  1  0.31048900  0.65486600  0.03385300  1
  Cl  Cl7  1  0.15486600  0.81048900  0.53385300  1
  O  O8  1  0.92366000  0.24682400  0.86912200  1
  O  O9  1  0.71832200  0.11450500  0.79758300  1
  O  O10  1  0.00013700  0.42570200  0.05224400  1
  O  O11  1  0.60750600  0.08180700  0.15898500  1
  O  O12  1  0.58180700  0.10750600  0.65898500  1
  O  O13  1  0.92570200  0.50013700  0.55224400  1
  O  O14  1  0.61450500  0.21832200  0.29758300  1
  O  O15  1  0.42570200  0.05224400  0.00013700  1
  O  O16  1  0.74682400  0.42366000  0.36912200  1
  O  O17  1  0.79758300  0.71832200  0.11450500  1
  O  O18  1  0.65898500  0.58180700  0.10750600  1
  O  O19  1  0.42366000  0.36912200  0.74682400  1
  O  O20  1  0.50013700  0.55224400  0.92570200  1
  O  O21  1  0.86912200  0.92366000  0.24682400  1
  O  O22  1  0.08180700  0.15898500  0.60750600  1
  O  O23  1  0.21832200  0.29758300  0.61450500  1
  O  O24  1  0.29758300  0.61450500  0.21832200  1
  O  O25  1  0.55224400  0.92570200  0.50013700  1
  O  O26  1  0.36912200  0.74682400  0.42366000  1
  O  O27  1  0.15898500  0.60750600  0.08180700  1
  O  O28  1  0.10750600  0.65898500  0.58180700  1
  O  O29  1  0.24682400  0.86912200  0.92366000  1
  O  O30  1  0.11450500  0.79758300  0.71832200  1
  O  O31  1  0.05224400  0.00013700  0.42570200  1
