# generated using pymatgen
data_CrH14N4Cl3O
_symmetry_space_group_name_H-M   'P 1'
_cell_length_a   10.75180900
_cell_length_b   6.83469600
_cell_length_c   6.85833238
_cell_angle_alpha   81.86289041
_cell_angle_beta   90.00000000
_cell_angle_gamma   90.00000000
_symmetry_Int_Tables_number   1
_chemical_formula_structural   CrH14N4Cl3O
_chemical_formula_sum   'Cr2 H28 N8 Cl6 O2'
_cell_volume   498.91288360
_cell_formula_units_Z   2
loop_
 _symmetry_equiv_pos_site_id
 _symmetry_equiv_pos_as_xyz
  1  'x, y, z'
loop_
 _atom_site_type_symbol
 _atom_site_label
 _atom_site_symmetry_multiplicity
 _atom_site_fract_x
 _atom_site_fract_y
 _atom_site_fract_z
 _atom_site_occupancy
  Cr  Cr0  1  0.25000000  0.77433200  0.16370100  1
  Cr  Cr1  1  0.75000000  0.22566800  0.83629900  1
  H  H2  1  0.02188900  0.90864200  0.20892600  1
  H  H3  1  0.52188900  0.09135800  0.79107400  1
  H  H4  1  0.97811100  0.09135800  0.79107400  1
  H  H5  1  0.47811100  0.90864200  0.20892600  1
  H  H6  1  0.01693600  0.76389800  0.03572000  1
  H  H7  1  0.51693600  0.23610200  0.96428000  1
  H  H8  1  0.98306400  0.23610200  0.96428000  1
  H  H9  1  0.48306400  0.76389800  0.03572000  1
  H  H10  1  0.01901500  0.66574900  0.27101300  1
  H  H11  1  0.51901500  0.33425100  0.72898700  1
  H  H12  1  0.98098500  0.33425100  0.72898700  1
  H  H13  1  0.48098500  0.66574900  0.27101300  1
  H  H14  1  0.32723700  0.61862500  0.84886200  1
  H  H15  1  0.82723700  0.38137500  0.15113800  1
  H  H16  1  0.67276300  0.38137500  0.15113800  1
  H  H17  1  0.17276300  0.61862500  0.84886200  1
  H  H18  1  0.25000000  0.44242600  0.98987600  1
  H  H19  1  0.75000000  0.55757400  0.01012400  1
  H  H20  1  0.32724500  0.01625000  0.41275000  1
  H  H21  1  0.82724500  0.98375000  0.58725000  1
  H  H22  1  0.67275500  0.98375000  0.58725000  1
  H  H23  1  0.17275500  0.01625000  0.41275000  1
  H  H24  1  0.25000000  0.82139400  0.52453500  1
  H  H25  1  0.75000000  0.17860600  0.47546500  1
  H  H26  1  0.32521900  0.44208600  0.37142800  1
  H  H27  1  0.82521900  0.55791400  0.62857200  1
  H  H28  1  0.67478100  0.55791400  0.62857200  1
  H  H29  1  0.17478100  0.44208600  0.37142800  1
  N  N30  1  0.05444000  0.77808800  0.17102800  1
  N  N31  1  0.55444000  0.22191200  0.82897200  1
  N  N32  1  0.94556000  0.22191200  0.82897200  1
  N  N33  1  0.44556000  0.77808800  0.17102800  1
  N  N34  1  0.25000000  0.59094000  0.93769500  1
  N  N35  1  0.75000000  0.40906000  0.06230500  1
  N  N36  1  0.25000000  0.92934500  0.40493000  1
  N  N37  1  0.75000000  0.07065500  0.59507000  1
  Cl  Cl38  1  0.25000000  0.05551800  0.93003300  1
  Cl  Cl39  1  0.75000000  0.94448200  0.06996700  1
  Cl  Cl40  1  0.97983700  0.71724600  0.68538900  1
  Cl  Cl41  1  0.47983700  0.28275400  0.31461100  1
  Cl  Cl42  1  0.02016300  0.28275400  0.31461100  1
  Cl  Cl43  1  0.52016300  0.71724600  0.68538900  1
  O  O44  1  0.25000000  0.52846200  0.37691400  1
  O  O45  1  0.75000000  0.47153800  0.62308600  1
