# generated using pymatgen
data_Cs2Se3
_symmetry_space_group_name_H-M   'P 1'
_cell_length_a   7.14692745
_cell_length_b   7.14692745
_cell_length_c   8.53790200
_cell_angle_alpha   90.00000000
_cell_angle_beta   90.00000000
_cell_angle_gamma   110.70507332
_symmetry_Int_Tables_number   1
_chemical_formula_structural   Cs2Se3
_chemical_formula_sum   'Cs4 Se6'
_cell_volume   407.93708507
_cell_formula_units_Z   2
loop_
 _symmetry_equiv_pos_site_id
 _symmetry_equiv_pos_as_xyz
  1  'x, y, z'
loop_
 _atom_site_type_symbol
 _atom_site_label
 _atom_site_symmetry_multiplicity
 _atom_site_fract_x
 _atom_site_fract_y
 _atom_site_fract_z
 _atom_site_occupancy
  Cs  Cs0  1  0.58253100  0.41746900  0.17869600  1
  Cs  Cs1  1  0.41746900  0.58253100  0.67869600  1
  Cs  Cs2  1  0.09775000  0.90225000  0.45978700  1
  Cs  Cs3  1  0.90225000  0.09775000  0.95978700  1
  Se  Se4  1  0.07347300  0.39925100  0.33415200  1
  Se  Se5  1  0.92652700  0.60074900  0.83415200  1
  Se  Se6  1  0.60074900  0.92652700  0.33415200  1
  Se  Se7  1  0.39925100  0.07347300  0.83415200  1
  Se  Se8  1  0.20752600  0.79247400  0.99221300  1
  Se  Se9  1  0.79247400  0.20752600  0.49221300  1
