# generated using pymatgen
data_K2ReF6
_symmetry_space_group_name_H-M   'P 1'
_cell_length_a   5.97529812
_cell_length_b   5.97529812
_cell_length_c   4.69560100
_cell_angle_alpha   90.00000000
_cell_angle_beta   90.00000000
_cell_angle_gamma   120.00000131
_symmetry_Int_Tables_number   1
_chemical_formula_structural   K2ReF6
_chemical_formula_sum   'K2 Re1 F6'
_cell_volume   145.19142516
_cell_formula_units_Z   1
loop_
 _symmetry_equiv_pos_site_id
 _symmetry_equiv_pos_as_xyz
  1  'x, y, z'
loop_
 _atom_site_type_symbol
 _atom_site_label
 _atom_site_symmetry_multiplicity
 _atom_site_fract_x
 _atom_site_fract_y
 _atom_site_fract_z
 _atom_site_occupancy
  K  K0  1  0.66666700  0.33333300  0.70473500  1
  K  K1  1  0.33333300  0.66666700  0.29526500  1
  Re  Re2  1  0.00000000  0.00000000  0.00000000  1
  F  F3  1  0.83769200  0.16230800  0.22660800  1
  F  F4  1  0.83769200  0.67538400  0.22660800  1
  F  F5  1  0.32461600  0.16230800  0.22660800  1
  F  F6  1  0.16230800  0.83769200  0.77339200  1
  F  F7  1  0.16230800  0.32461600  0.77339200  1
  F  F8  1  0.67538400  0.83769200  0.77339200  1
