# generated using pymatgen
data_Na3Cr2P2O8F3
_symmetry_space_group_name_H-M   'P 1'
_cell_length_a   6.43040300
_cell_length_b   6.43354026
_cell_length_c   16.95396373
_cell_angle_alpha   100.67400247
_cell_angle_beta   100.59288128
_cell_angle_gamma   90.04798442
_symmetry_Int_Tables_number   1
_chemical_formula_structural   Na3Cr2P2O8F3
_chemical_formula_sum   'Na9 Cr6 P6 O24 F9'
_cell_volume   677.06550560
_cell_formula_units_Z   3
loop_
 _symmetry_equiv_pos_site_id
 _symmetry_equiv_pos_as_xyz
  1  'x, y, z'
loop_
 _atom_site_type_symbol
 _atom_site_label
 _atom_site_symmetry_multiplicity
 _atom_site_fract_x
 _atom_site_fract_y
 _atom_site_fract_z
 _atom_site_occupancy
  Na  Na0  1  0.89765400  0.56478800  0.66611600  1
  Na  Na1  1  0.84933200  0.10371500  0.66686600  1
  Na  Na2  1  0.30665300  0.83643900  0.66574100  1
  Na  Na3  1  0.95407700  0.95423900  0.32981800  1
  Na  Na4  1  0.30315400  0.44143800  0.33325800  1
  Na  Na5  1  0.44062200  0.98552400  0.33371100  1
  Na  Na6  1  0.28360800  0.31970800  0.99916200  1
  Na  Na7  1  0.79739000  0.42048300  0.00182100  1
  Na  Na8  1  0.54663700  0.83607800  0.00478600  1
  Cr  Cr9  1  0.40484300  0.39566800  0.78718200  1
  Cr  Cr10  1  0.74414000  0.72510600  0.45296300  1
  Cr  Cr11  1  0.95979300  0.93690000  0.88159700  1
  Cr  Cr12  1  0.07556900  0.06096400  0.12243200  1
  Cr  Cr13  1  0.28301200  0.27439700  0.54417500  1
  Cr  Cr14  1  0.61525700  0.60480700  0.21127700  1
  P  P15  1  0.43235800  0.92167800  0.83777100  1
  P  P16  1  0.75743200  0.25155200  0.49803200  1
  P  P17  1  0.92673800  0.41853700  0.83401300  1
  P  P18  1  0.09261200  0.59038300  0.16744400  1
  P  P19  1  0.25528900  0.75275100  0.49328300  1
  P  P20  1  0.59322200  0.09406500  0.16950700  1
  O  O21  1  0.27995200  0.95020200  0.90003100  1
  O  O22  1  0.39819800  0.70290600  0.77999500  1
  O  O23  1  0.39361900  0.08201700  0.77952800  1
  O  O24  1  0.65449400  0.94955600  0.89169400  1
  O  O25  1  0.60075100  0.26412500  0.55835600  1
  O  O26  1  0.71021700  0.38014700  0.77430500  1
  O  O27  1  0.74413000  0.03305300  0.43983400  1
  O  O28  1  0.71309400  0.41368200  0.44143200  1
  O  O29  1  0.96471900  0.25635000  0.89215300  1
  O  O30  1  0.94806100  0.63380500  0.89277800  1
  O  O31  1  0.97529000  0.28949500  0.55679800  1
  O  O32  1  0.08533700  0.39346700  0.77442200  1
  O  O33  1  0.93105900  0.60176900  0.22521000  1
  O  O34  1  0.04211800  0.71620700  0.43227900  1
  O  O35  1  0.08467700  0.37039000  0.11033400  1
  O  O36  1  0.04592100  0.74694100  0.10822500  1
  O  O37  1  0.28585100  0.58898600  0.55039100  1
  O  O38  1  0.26977600  0.96904400  0.55204400  1
  O  O39  1  0.31039200  0.63562700  0.22579800  1
  O  O40  1  0.42536800  0.73725000  0.43905000  1
  O  O41  1  0.38038400  0.04615100  0.10749600  1
  O  O42  1  0.63419400  0.92601800  0.22519300  1
  O  O43  1  0.59268800  0.30775700  0.22792800  1
  O  O44  1  0.76117800  0.08513900  0.11462400  1
  F  F45  1  0.32970500  0.33834000  0.66562900  1
  F  F46  1  0.47136000  0.45272900  0.90746300  1
  F  F47  1  0.66592200  0.68064300  0.33207500  1
  F  F48  1  0.82018900  0.78566900  0.57197700  1
  F  F49  1  0.92610300  0.87933000  0.76217900  1
  F  F50  1  0.00347400  0.01647600  0.00206500  1
  F  F51  1  0.14853900  0.10838800  0.24218900  1
  F  F52  1  0.24039400  0.20798500  0.42406800  1
  F  F53  1  0.56186000  0.54733600  0.09150100  1
