# generated using pymatgen
data_Er2GeO5
_symmetry_space_group_name_H-M   'P 1'
_cell_length_a   8.00020434
_cell_length_b   8.00020434
_cell_length_c   11.27475757
_cell_angle_alpha   86.72894055
_cell_angle_beta   86.72894055
_cell_angle_gamma   88.84622536
_symmetry_Int_Tables_number   1
_chemical_formula_structural   Er2GeO5
_chemical_formula_sum   'Er12 Ge6 O30'
_cell_volume   719.16873093
_cell_formula_units_Z   6
loop_
 _symmetry_equiv_pos_site_id
 _symmetry_equiv_pos_as_xyz
  1  'x, y, z'
loop_
 _atom_site_type_symbol
 _atom_site_label
 _atom_site_symmetry_multiplicity
 _atom_site_fract_x
 _atom_site_fract_y
 _atom_site_fract_z
 _atom_site_occupancy
  Er  Er0  1  0.00576600  0.29838500  0.06332000  1
  Er  Er1  1  0.99775200  0.63970200  0.24833400  1
  Er  Er2  1  0.29838500  0.00576600  0.56332000  1
  Er  Er3  1  0.34587000  0.62796000  0.42829000  1
  Er  Er4  1  0.37204000  0.65413000  0.07171000  1
  Er  Er5  1  0.36029800  0.00224800  0.25166600  1
  Er  Er6  1  0.63970200  0.99775200  0.74833400  1
  Er  Er7  1  0.62796000  0.34587000  0.92829000  1
  Er  Er8  1  0.65413000  0.37204000  0.57171000  1
  Er  Er9  1  0.70161500  0.99423400  0.43668000  1
  Er  Er10  1  0.00224800  0.36029800  0.75166600  1
  Er  Er11  1  0.99423400  0.70161500  0.93668000  1
  Ge  Ge12  1  0.06409900  0.27481300  0.45391100  1
  Ge  Ge13  1  0.27481300  0.06409900  0.95391100  1
  Ge  Ge14  1  0.35931900  0.64068100  0.75000000  1
  Ge  Ge15  1  0.64068100  0.35931900  0.25000000  1
  Ge  Ge16  1  0.72518700  0.93590100  0.04608900  1
  Ge  Ge17  1  0.93590100  0.72518700  0.54608900  1
  O  O18  1  0.12235500  0.54259900  0.07685700  1
  O  O19  1  0.12208400  0.47449400  0.39220700  1
  O  O20  1  0.11675200  0.18699300  0.88407200  1
  O  O21  1  0.14218600  0.59890700  0.77868300  1
  O  O22  1  0.18699300  0.11675200  0.38407200  1
  O  O23  1  0.15143700  0.77228100  0.53930700  1
  O  O24  1  0.14211000  0.23739600  0.60091800  1
  O  O25  1  0.25893200  0.74106800  0.25000000  1
  O  O26  1  0.22771900  0.84856300  0.96069300  1
  O  O27  1  0.23739600  0.14211000  0.10091800  1
  O  O28  1  0.40109300  0.85781400  0.72131700  1
  O  O29  1  0.44037200  0.54332000  0.61828200  1
  O  O30  1  0.45740100  0.87764500  0.42314300  1
  O  O31  1  0.47449400  0.12208400  0.89220700  1
  O  O32  1  0.45668000  0.55962800  0.88171800  1
  O  O33  1  0.54332000  0.44037200  0.11828200  1
  O  O34  1  0.52550600  0.87791600  0.10779300  1
  O  O35  1  0.54259900  0.12235500  0.57685700  1
  O  O36  1  0.55962800  0.45668000  0.38171800  1
  O  O37  1  0.59890700  0.14218600  0.27868300  1
  O  O38  1  0.76260400  0.85789000  0.89908200  1
  O  O39  1  0.77228100  0.15143700  0.03930700  1
  O  O40  1  0.74106800  0.25893200  0.75000000  1
  O  O41  1  0.85789000  0.76260400  0.39908200  1
  O  O42  1  0.84856300  0.22771900  0.46069300  1
  O  O43  1  0.81300700  0.88324800  0.61592800  1
  O  O44  1  0.85781400  0.40109300  0.22131700  1
  O  O45  1  0.88324800  0.81300700  0.11592800  1
  O  O46  1  0.87791600  0.52550600  0.60779300  1
  O  O47  1  0.87764500  0.45740100  0.92314300  1
