# generated using pymatgen
data_Pr20AlSi19N33Cl2O19
_symmetry_space_group_name_H-M   'P 1'
_cell_length_a   11.71260800
_cell_length_b   10.62744500
_cell_length_c   11.29521926
_cell_angle_alpha   89.89147739
_cell_angle_beta   90.00000000
_cell_angle_gamma   90.00000000
_symmetry_Int_Tables_number   1
_chemical_formula_structural   Pr20AlSi19N33Cl2O19
_chemical_formula_sum   'Pr20 Al1 Si19 N33 Cl2 O19'
_cell_volume   1405.97099485
_cell_formula_units_Z   1
loop_
 _symmetry_equiv_pos_site_id
 _symmetry_equiv_pos_as_xyz
  1  'x, y, z'
loop_
 _atom_site_type_symbol
 _atom_site_label
 _atom_site_symmetry_multiplicity
 _atom_site_fract_x
 _atom_site_fract_y
 _atom_site_fract_z
 _atom_site_occupancy
  Pr  Pr0  1  0.16481700  0.00343200  0.00093500  1
  Pr  Pr1  1  0.00000000  0.89787400  0.36251800  1
  Pr  Pr2  1  0.50000000  0.86913700  0.11835200  1
  Pr  Pr3  1  0.76866500  0.86087600  0.60502900  1
  Pr  Pr4  1  0.23133500  0.86087600  0.60502900  1
  Pr  Pr5  1  0.75668500  0.64531900  0.10377000  1
  Pr  Pr6  1  0.24331500  0.64531900  0.10377000  1
  Pr  Pr7  1  0.50000000  0.62455100  0.61898600  1
  Pr  Pr8  1  0.00000000  0.61117400  0.87338600  1
  Pr  Pr9  1  0.17275800  0.49885900  0.49774400  1
  Pr  Pr10  1  0.82724200  0.49885900  0.49774400  1
  Pr  Pr11  1  0.00000000  0.36431300  0.12453900  1
  Pr  Pr12  1  0.50000000  0.35989100  0.38442500  1
  Pr  Pr13  1  0.77235500  0.35322600  0.89582200  1
  Pr  Pr14  1  0.22764500  0.35322600  0.89582200  1
  Pr  Pr15  1  0.76318300  0.14129500  0.40078100  1
  Pr  Pr16  1  0.23681700  0.14129500  0.40078100  1
  Pr  Pr17  1  0.50000000  0.12614500  0.88072900  1
  Pr  Pr18  1  0.00000000  0.13931300  0.62683900  1
  Pr  Pr19  1  0.83518300  0.00343200  0.00093500  1
  Al  Al20  1  0.00000000  0.78087800  0.10842400  1
  Si  Si21  1  0.75076400  0.88440800  0.25710900  1
  Si  Si22  1  0.24923600  0.88440800  0.25710900  1
  Si  Si23  1  0.36410000  0.85006000  0.85540400  1
  Si  Si24  1  0.63590000  0.85006000  0.85540400  1
  Si  Si25  1  0.00000000  0.70660500  0.61070200  1
  Si  Si26  1  0.36673600  0.65034400  0.35625200  1
  Si  Si27  1  0.63326400  0.65034400  0.35625200  1
  Si  Si28  1  0.24664300  0.61620200  0.75698100  1
  Si  Si29  1  0.75335700  0.61620200  0.75698100  1
  Si  Si30  1  0.75455500  0.38672000  0.24339500  1
  Si  Si31  1  0.24544500  0.38672000  0.24339500  1
  Si  Si32  1  0.36401800  0.34843700  0.64779200  1
  Si  Si33  1  0.63598200  0.34843700  0.64779200  1
  Si  Si34  1  0.00000000  0.28154900  0.38488700  1
  Si  Si35  1  0.00000000  0.21545100  0.89306200  1
  Si  Si36  1  0.36497700  0.15268100  0.14516200  1
  Si  Si37  1  0.63502300  0.15268100  0.14516200  1
  Si  Si38  1  0.24282500  0.11372200  0.73874700  1
  Si  Si39  1  0.75717500  0.11372200  0.73874700  1
  N  N40  1  0.71503600  0.97646600  0.80769800  1
  N  N41  1  0.28496400  0.97646600  0.80769800  1
  N  N42  1  0.50000000  0.89905600  0.88496400  1
  N  N43  1  0.87116200  0.82874700  0.18636600  1
  N  N44  1  0.12883800  0.82874700  0.18636600  1
  N  N45  1  0.35575700  0.77224900  0.25555600  1
  N  N46  1  0.64424300  0.77224900  0.25555600  1
  N  N47  1  0.35037400  0.73047000  0.75156800  1
  N  N48  1  0.64962600  0.73047000  0.75156800  1
  N  N49  1  0.87814800  0.66718400  0.68513100  1
  N  N50  1  0.12185200  0.66718400  0.68513100  1
  N  N51  1  0.50000000  0.59577700  0.39082900  1
  N  N52  1  0.71824800  0.52790700  0.30588800  1
  N  N53  1  0.28175200  0.52790700  0.30588800  1
  N  N54  1  0.71585700  0.47631600  0.69516100  1
  N  N55  1  0.28414300  0.47631600  0.69516100  1
  N  N56  1  0.50000000  0.39850000  0.61905400  1
  N  N57  1  0.00000000  0.38099700  0.90186300  1
  N  N58  1  0.87692400  0.33700500  0.31838100  1
  N  N59  1  0.12307600  0.33700500  0.31838100  1
  N  N60  1  0.35072200  0.27470100  0.24590400  1
  N  N61  1  0.64927800  0.27470100  0.24590400  1
  N  N62  1  0.34857400  0.22979900  0.75049100  1
  N  N63  1  0.65142600  0.22979900  0.75049100  1
  N  N64  1  0.87736900  0.16766900  0.81859900  1
  N  N65  1  0.12263100  0.16766900  0.81859900  1
  N  N66  1  0.00000000  0.15342400  0.03509800  1
  N  N67  1  0.00000000  0.12099600  0.40147100  1
  N  N68  1  0.50000000  0.10380000  0.11011800  1
  N  N69  1  0.80209700  0.08027900  0.59935000  1
  N  N70  1  0.19790300  0.08027900  0.59935000  1
  N  N71  1  0.71384200  0.02523200  0.19461500  1
  N  N72  1  0.28615800  0.02523200  0.19461500  1
  Cl  Cl73  1  0.50000000  0.57711500  0.05078500  1
  Cl  Cl74  1  0.50000000  0.07948300  0.45072700  1
  O  O75  1  0.79404900  0.91377000  0.39606800  1
  O  O76  1  0.20595100  0.91377000  0.39606800  1
  O  O77  1  0.00000000  0.86156300  0.58115800  1
  O  O78  1  0.00000000  0.84933300  0.96366200  1
  O  O79  1  0.31338900  0.81812900  0.99085100  1
  O  O80  1  0.68661100  0.81812900  0.99085100  1
  O  O81  1  0.68586700  0.68207600  0.49185900  1
  O  O82  1  0.31413300  0.68207600  0.49185900  1
  O  O83  1  0.00000000  0.63938400  0.47751500  1
  O  O84  1  0.00000000  0.61384000  0.08379600  1
  O  O85  1  0.79475400  0.58450700  0.89586500  1
  O  O86  1  0.20524600  0.58450700  0.89586500  1
  O  O87  1  0.79752900  0.41893700  0.10480400  1
  O  O88  1  0.20247100  0.41893700  0.10480400  1
  O  O89  1  0.00000000  0.34812200  0.52281900  1
  O  O90  1  0.68727800  0.32341300  0.51061300  1
  O  O91  1  0.31272200  0.32341300  0.51061300  1
  O  O92  1  0.31264700  0.18592600  0.00995600  1
  O  O93  1  0.68735300  0.18592600  0.00995600  1
