# generated using pymatgen
data_Rb4PbO4
_symmetry_space_group_name_H-M   'P 1'
_cell_length_a   7.00551800
_cell_length_b   7.00976354
_cell_length_c   10.41168978
_cell_angle_alpha   79.19143062
_cell_angle_beta   71.54128640
_cell_angle_gamma   66.68161632
_symmetry_Int_Tables_number   1
_chemical_formula_structural   Rb4PbO4
_chemical_formula_sum   'Rb8 Pb2 O8'
_cell_volume   444.23202349
_cell_formula_units_Z   2
loop_
 _symmetry_equiv_pos_site_id
 _symmetry_equiv_pos_as_xyz
  1  'x, y, z'
loop_
 _atom_site_type_symbol
 _atom_site_label
 _atom_site_symmetry_multiplicity
 _atom_site_fract_x
 _atom_site_fract_y
 _atom_site_fract_z
 _atom_site_occupancy
  Rb  Rb0  1  0.23930800  0.76197000  0.96913000  1
  Rb  Rb1  1  0.49154100  0.72431700  0.55851900  1
  Rb  Rb2  1  0.59264000  0.73969200  0.16430500  1
  Rb  Rb3  1  0.03412500  0.78327500  0.37999200  1
  Rb  Rb4  1  0.96587500  0.21672500  0.62000800  1
  Rb  Rb5  1  0.40736000  0.26030800  0.83569500  1
  Rb  Rb6  1  0.50845900  0.27568300  0.44148100  1
  Rb  Rb7  1  0.76069200  0.23803000  0.03087000  1
  Pb  Pb8  1  0.84421200  0.72511800  0.75403700  1
  Pb  Pb9  1  0.15578800  0.27488200  0.24596300  1
  O  O10  1  0.84052000  0.87885600  0.91119400  1
  O  O11  1  0.69233700  0.97071000  0.62321000  1
  O  O12  1  0.65822300  0.53085700  0.81328200  1
  O  O13  1  0.84110800  0.45730000  0.35521200  1
  O  O14  1  0.15889200  0.54270000  0.64478800  1
  O  O15  1  0.34177700  0.46914300  0.18671800  1
  O  O16  1  0.30766300  0.02929000  0.37679000  1
  O  O17  1  0.15948000  0.12114400  0.08880600  1
