# generated using pymatgen
data_Dy2TiO5
_symmetry_space_group_name_H-M   'P 1'
_cell_length_a   3.72137500
_cell_length_b   10.44910000
_cell_length_c   11.30118700
_cell_angle_alpha   90.00000000
_cell_angle_beta   90.00000000
_cell_angle_gamma   90.00000000
_symmetry_Int_Tables_number   1
_chemical_formula_structural   Dy2TiO5
_chemical_formula_sum   'Dy8 Ti4 O20'
_cell_volume   439.44687701
_cell_formula_units_Z   4
loop_
 _symmetry_equiv_pos_site_id
 _symmetry_equiv_pos_as_xyz
  1  'x, y, z'
loop_
 _atom_site_type_symbol
 _atom_site_label
 _atom_site_symmetry_multiplicity
 _atom_site_fract_x
 _atom_site_fract_y
 _atom_site_fract_z
 _atom_site_occupancy
  Dy  Dy0  1  0.25000000  0.13607500  0.94478400  1
  Dy  Dy1  1  0.25000000  0.63607500  0.55521600  1
  Dy  Dy2  1  0.75000000  0.86392500  0.05521600  1
  Dy  Dy3  1  0.75000000  0.36392500  0.44478400  1
  Dy  Dy4  1  0.75000000  0.38560500  0.77679700  1
  Dy  Dy5  1  0.75000000  0.88560500  0.72320300  1
  Dy  Dy6  1  0.25000000  0.61439500  0.22320300  1
  Dy  Dy7  1  0.25000000  0.11439500  0.27679700  1
  Ti  Ti8  1  0.25000000  0.17552900  0.62069700  1
  Ti  Ti9  1  0.25000000  0.67552900  0.87930300  1
  Ti  Ti10  1  0.75000000  0.82447100  0.37930300  1
  Ti  Ti11  1  0.75000000  0.32447100  0.12069700  1
  O  O12  1  0.25000000  0.22592500  0.45806900  1
  O  O13  1  0.25000000  0.72592500  0.04193100  1
  O  O14  1  0.75000000  0.77407500  0.54193100  1
  O  O15  1  0.75000000  0.27407500  0.95806900  1
  O  O16  1  0.25000000  0.49434700  0.39530600  1
  O  O17  1  0.25000000  0.99434700  0.10469400  1
  O  O18  1  0.75000000  0.50565300  0.60469400  1
  O  O19  1  0.75000000  0.00565300  0.89530600  1
  O  O20  1  0.25000000  0.26281600  0.11819100  1
  O  O21  1  0.25000000  0.76281600  0.38180900  1
  O  O22  1  0.75000000  0.73718400  0.88180900  1
  O  O23  1  0.75000000  0.23718400  0.61819100  1
  O  O24  1  0.25000000  0.00906000  0.65665600  1
  O  O25  1  0.25000000  0.50906000  0.84334400  1
  O  O26  1  0.75000000  0.99094000  0.34334400  1
  O  O27  1  0.75000000  0.49094000  0.15665600  1
  O  O28  1  0.25000000  0.25908000  0.77209500  1
  O  O29  1  0.25000000  0.75908000  0.72790500  1
  O  O30  1  0.75000000  0.74092000  0.22790500  1
  O  O31  1  0.75000000  0.24092000  0.27209500  1
