# generated using pymatgen
data_Na3FeAsCO7
_symmetry_space_group_name_H-M   'P 1'
_cell_length_a   8.66210093
_cell_length_b   8.66815316
_cell_length_c   9.24176013
_cell_angle_alpha   89.26981257
_cell_angle_beta   89.28424148
_cell_angle_gamma   104.44627619
_symmetry_Int_Tables_number   1
_chemical_formula_structural   Na3FeAsCO7
_chemical_formula_sum   'Na12 Fe4 As4 C4 O28'
_cell_volume   671.82947987
_cell_formula_units_Z   4
loop_
 _symmetry_equiv_pos_site_id
 _symmetry_equiv_pos_as_xyz
  1  'x, y, z'
loop_
 _atom_site_type_symbol
 _atom_site_label
 _atom_site_symmetry_multiplicity
 _atom_site_fract_x
 _atom_site_fract_y
 _atom_site_fract_z
 _atom_site_occupancy
  Na  Na0  1  0.50636800  0.25633400  0.07979600  1
  Na  Na1  1  0.00638700  0.75636600  0.07983200  1
  Na  Na2  1  0.49364700  0.74362000  0.92018900  1
  Na  Na3  1  0.99362800  0.24359900  0.92018900  1
  Na  Na4  1  0.12592000  0.12337300  0.25683800  1
  Na  Na5  1  0.62581400  0.62340100  0.25693400  1
  Na  Na6  1  0.37335400  0.87593500  0.25692700  1
  Na  Na7  1  0.87339000  0.37590700  0.25696500  1
  Na  Na8  1  0.62667900  0.12422200  0.74301400  1
  Na  Na9  1  0.12665400  0.62403300  0.74305000  1
  Na  Na10  1  0.87413100  0.87657000  0.74310000  1
  Na  Na11  1  0.37404800  0.37659400  0.74311100  1
  Fe  Fe12  1  0.26611400  0.51598000  0.34462200  1
  Fe  Fe13  1  0.73399100  0.48405600  0.65534700  1
  Fe  Fe14  1  0.76606400  0.01601700  0.34453900  1
  Fe  Fe15  1  0.23397500  0.98407700  0.65546700  1
  As  As16  1  0.47479200  0.22470700  0.41579500  1
  As  As17  1  0.97506500  0.72487800  0.41584300  1
  As  As18  1  0.52499200  0.77525400  0.58424600  1
  As  As19  1  0.02511600  0.27523500  0.58416700  1
  C  C20  1  0.73687300  0.98702700  0.05599300  1
  C  C21  1  0.23694400  0.48710300  0.05608000  1
  C  C22  1  0.26312600  0.01293500  0.94399600  1
  C  C23  1  0.76303500  0.51283500  0.94391100  1
  O  O24  1  0.27166500  0.02159100  0.08377600  1
  O  O25  1  0.77165200  0.52160100  0.08368600  1
  O  O26  1  0.72837900  0.97840500  0.91621200  1
  O  O27  1  0.22832100  0.47834600  0.91631100  1
  O  O28  1  0.84714800  0.09727000  0.11621000  1
  O  O29  1  0.34723700  0.59741700  0.11615700  1
  O  O30  1  0.15283600  0.90268100  0.88382700  1
  O  O31  1  0.65273400  0.40255100  0.88381700  1
  O  O32  1  0.63557500  0.88583700  0.13849700  1
  O  O33  1  0.13570900  0.38592100  0.13865600  1
  O  O34  1  0.36439700  0.11411200  0.86145900  1
  O  O35  1  0.86428600  0.61401400  0.86133000  1
  O  O36  1  0.31271400  0.06274400  0.44065600  1
  O  O37  1  0.81307600  0.56283300  0.44061800  1
  O  O38  1  0.68700900  0.93729000  0.55952600  1
  O  O39  1  0.18724100  0.43714700  0.55930900  1
  O  O40  1  0.45553400  0.70581000  0.41885500  1
  O  O41  1  0.95565700  0.20570600  0.41880900  1
  O  O42  1  0.54431800  0.29438600  0.58108600  1
  O  O43  1  0.04448000  0.79429300  0.58124000  1
  O  O44  1  0.41718300  0.36428500  0.30752500  1
  O  O45  1  0.91735400  0.86450400  0.30766400  1
  O  O46  1  0.61451000  0.16747500  0.30743800  1
  O  O47  1  0.11479400  0.66780600  0.30739000  1
  O  O48  1  0.38525500  0.83231600  0.69268000  1
  O  O49  1  0.88548700  0.33247900  0.69254100  1
  O  O50  1  0.58257000  0.63545400  0.69232000  1
  O  O51  1  0.08276800  0.13566600  0.69245300  1
