# generated using pymatgen
data_Cd(CoO2)2
_symmetry_space_group_name_H-M   'P 1'
_cell_length_a   5.98218277
_cell_length_b   5.98218277
_cell_length_c   5.98218277
_cell_angle_alpha   60.00000000
_cell_angle_beta   60.00000000
_cell_angle_gamma   60.00000000
_symmetry_Int_Tables_number   1
_chemical_formula_structural   Cd(CoO2)2
_chemical_formula_sum   'Cd2 Co4 O8'
_cell_volume   151.37844306
_cell_formula_units_Z   2
loop_
 _symmetry_equiv_pos_site_id
 _symmetry_equiv_pos_as_xyz
  1  'x, y, z'
loop_
 _atom_site_type_symbol
 _atom_site_label
 _atom_site_symmetry_multiplicity
 _atom_site_fract_x
 _atom_site_fract_y
 _atom_site_fract_z
 _atom_site_occupancy
  Cd  Cd0  1  0.75000000  0.75000000  0.75000000  1
  Cd  Cd1  1  0.50000000  0.50000000  0.50000000  1
  Co  Co2  1  0.12500000  0.62500000  0.12500000  1
  Co  Co3  1  0.62500000  0.12500000  0.12500000  1
  Co  Co4  1  0.12500000  0.12500000  0.12500000  1
  Co  Co5  1  0.12500000  0.12500000  0.62500000  1
  O  O6  1  0.89613200  0.89613200  0.89613200  1
  O  O7  1  0.35386800  0.35386800  0.93839500  1
  O  O8  1  0.31160500  0.89613200  0.89613200  1
  O  O9  1  0.89613200  0.31160500  0.89613200  1
  O  O10  1  0.35386800  0.35386800  0.35386800  1
  O  O11  1  0.89613200  0.89613200  0.31160500  1
  O  O12  1  0.93839500  0.35386800  0.35386800  1
  O  O13  1  0.35386800  0.93839500  0.35386800  1
