# generated using pymatgen
data_Er2TeO6
_symmetry_space_group_name_H-M   'P 1'
_cell_length_a   5.28219600
_cell_length_b   9.07449200
_cell_length_c   9.95883000
_cell_angle_alpha   90.00000000
_cell_angle_beta   90.00000000
_cell_angle_gamma   90.00000000
_symmetry_Int_Tables_number   1
_chemical_formula_structural   Er2TeO6
_chemical_formula_sum   'Er8 Te4 O24'
_cell_volume   477.35904173
_cell_formula_units_Z   4
loop_
 _symmetry_equiv_pos_site_id
 _symmetry_equiv_pos_as_xyz
  1  'x, y, z'
loop_
 _atom_site_type_symbol
 _atom_site_label
 _atom_site_symmetry_multiplicity
 _atom_site_fract_x
 _atom_site_fract_y
 _atom_site_fract_z
 _atom_site_occupancy
  Er  Er0  1  0.02489200  0.39687700  0.03920600  1
  Er  Er1  1  0.03598500  0.28208000  0.63470200  1
  Er  Er2  1  0.46401500  0.71792000  0.13470200  1
  Er  Er3  1  0.47510800  0.60312300  0.53920600  1
  Er  Er4  1  0.52489200  0.10312300  0.96079400  1
  Er  Er5  1  0.53598500  0.21792000  0.36529800  1
  Er  Er6  1  0.96401500  0.78208000  0.86529800  1
  Er  Er7  1  0.97510800  0.89687700  0.46079400  1
  Te  Te8  1  0.04072500  0.00535700  0.14722900  1
  Te  Te9  1  0.45927500  0.99464300  0.64722900  1
  Te  Te10  1  0.54072500  0.49464300  0.85277100  1
  Te  Te11  1  0.95927500  0.50535700  0.35277100  1
  O  O12  1  0.08210000  0.65614300  0.47505800  1
  O  O13  1  0.17615500  0.54897600  0.20301300  1
  O  O14  1  0.18775900  0.85816000  0.26298100  1
  O  O15  1  0.17953100  0.85706200  0.67890700  1
  O  O16  1  0.22854300  0.38431800  0.43586700  1
  O  O17  1  0.24810500  0.08653800  0.50518000  1
  O  O18  1  0.25189500  0.91346200  0.00518000  1
  O  O19  1  0.27145700  0.61568200  0.93586700  1
  O  O20  1  0.32046900  0.14293800  0.17890700  1
  O  O21  1  0.31224100  0.14184000  0.76298100  1
  O  O22  1  0.32384500  0.45102400  0.70301300  1
  O  O23  1  0.41790000  0.34385700  0.97505800  1
  O  O24  1  0.58210000  0.84385700  0.52494200  1
  O  O25  1  0.67615500  0.95102400  0.79698700  1
  O  O26  1  0.68775900  0.64184000  0.73701900  1
  O  O27  1  0.67953100  0.64293800  0.32109300  1
  O  O28  1  0.72854300  0.11568200  0.56413300  1
  O  O29  1  0.74810500  0.41346200  0.49482000  1
  O  O30  1  0.75189500  0.58653800  0.99482000  1
  O  O31  1  0.77145700  0.88431800  0.06413300  1
  O  O32  1  0.82046900  0.35706200  0.82109300  1
  O  O33  1  0.81224100  0.35816000  0.23701900  1
  O  O34  1  0.82384500  0.04897600  0.29698700  1
  O  O35  1  0.91790000  0.15614300  0.02494200  1
