# generated using pymatgen
data_UAsH9O10
_symmetry_space_group_name_H-M   'P 1'
_cell_length_a   7.16654200
_cell_length_b   7.23755327
_cell_length_c   17.72373178
_cell_angle_alpha   89.99232357
_cell_angle_beta   89.81677262
_cell_angle_gamma   89.92457989
_symmetry_Int_Tables_number   1
_chemical_formula_structural   UAsH9O10
_chemical_formula_sum   'U4 As4 H36 O40'
_cell_volume   919.29308233
_cell_formula_units_Z   4
loop_
 _symmetry_equiv_pos_site_id
 _symmetry_equiv_pos_as_xyz
  1  'x, y, z'
loop_
 _atom_site_type_symbol
 _atom_site_label
 _atom_site_symmetry_multiplicity
 _atom_site_fract_x
 _atom_site_fract_y
 _atom_site_fract_z
 _atom_site_occupancy
  U  U0  1  0.74835900  0.25228700  0.55412500  1
  U  U1  1  0.25164100  0.74771300  0.44587500  1
  U  U2  1  0.24866500  0.75147200  0.94542800  1
  U  U3  1  0.75133500  0.24852800  0.05457200  1
  As  As4  1  0.25107200  0.25024600  0.49876900  1
  As  As5  1  0.74892800  0.74975400  0.50123100  1
  As  As6  1  0.25085200  0.24888500  0.99754100  1
  As  As7  1  0.74914800  0.75111500  0.00245900  1
  H  H8  1  0.04807500  0.73049600  0.68834800  1
  H  H9  1  0.95192500  0.26950400  0.31165200  1
  H  H10  1  0.94844600  0.23499400  0.81191400  1
  H  H11  1  0.05155400  0.76500600  0.18808600  1
  H  H12  1  0.36756000  0.58474200  0.68950600  1
  H  H13  1  0.63244000  0.41525800  0.31049400  1
  H  H14  1  0.62185300  0.09384900  0.80930600  1
  H  H15  1  0.37814700  0.90615100  0.19069400  1
  H  H16  1  0.19506300  0.00108600  0.69756300  1
  H  H17  1  0.80493700  0.99891400  0.30243700  1
  H  H18  1  0.80126300  0.49614600  0.80525700  1
  H  H19  1  0.19873700  0.50385400  0.19474300  1
  H  H20  1  0.92523100  0.87675500  0.64415200  1
  H  H21  1  0.07476900  0.12324500  0.35584800  1
  H  H22  1  0.05743000  0.38677900  0.86035200  1
  H  H23  1  0.94257000  0.61322100  0.13964800  1
  H  H24  1  0.56594900  0.62123400  0.64107400  1
  H  H25  1  0.43405100  0.37876600  0.35892600  1
  H  H26  1  0.42611700  0.12238500  0.85879100  1
  H  H27  1  0.57388300  0.87761500  0.14120900  1
  H  H28  1  0.34760600  0.12184300  0.65008700  1
  H  H29  1  0.65239400  0.87815700  0.34991300  1
  H  H30  1  0.64568800  0.61683100  0.84973300  1
  H  H31  1  0.35431200  0.38316900  0.15026700  1
  H  H32  1  0.13546100  0.43691900  0.64380800  1
  H  H33  1  0.86453900  0.56308100  0.35619200  1
  H  H34  1  0.85745800  0.94028200  0.85881800  1
  H  H35  1  0.14254200  0.05971800  0.14118200  1
  H  H36  1  0.58321800  0.60890100  0.73850500  1
  H  H37  1  0.41678200  0.39109900  0.26149500  1
  H  H38  1  0.40362400  0.11945700  0.76006600  1
  H  H39  1  0.59637600  0.88054300  0.23993400  1
  H  H40  1  0.11485900  0.44143100  0.73363800  1
  H  H41  1  0.88514100  0.55856900  0.26636200  1
  H  H42  1  0.87914600  0.93977200  0.76989100  1
  H  H43  1  0.12085400  0.06022800  0.23010900  1
  O  O44  1  0.74974300  0.25346200  0.65650600  1
  O  O45  1  0.25025700  0.74653800  0.34349400  1
  O  O46  1  0.24921200  0.74810500  0.84339100  1
  O  O47  1  0.75078800  0.25189500  0.15660900  1
  O  O48  1  0.25404000  0.74260700  0.54809000  1
  O  O49  1  0.74596000  0.25739300  0.45191000  1
  O  O50  1  0.74604200  0.24307300  0.95232400  1
  O  O51  1  0.25395800  0.75692700  0.04767600  1
  O  O52  1  0.79542900  0.93633000  0.55793300  1
  O  O53  1  0.20457100  0.06367000  0.44206700  1
  O  O54  1  0.19339200  0.43602400  0.94270500  1
  O  O55  1  0.80660800  0.56397600  0.05729500  1
  O  O56  1  0.69292700  0.57014100  0.56095100  1
  O  O57  1  0.30707300  0.42985900  0.43904900  1
  O  O58  1  0.30354400  0.07007100  0.93670600  1
  O  O59  1  0.69645600  0.92992900  0.06329400  1
  O  O60  1  0.43080400  0.20496200  0.56031100  1
  O  O61  1  0.56919600  0.79503800  0.43968900  1
  O  O62  1  0.56563300  0.70197000  0.94350100  1
  O  O63  1  0.43436700  0.29803000  0.05649900  1
  O  O64  1  0.06468000  0.30609000  0.55554400  1
  O  O65  1  0.93532000  0.69391000  0.44445600  1
  O  O66  1  0.93113600  0.81059800  0.94388900  1
  O  O67  1  0.06886400  0.18940200  0.05611100  1
  O  O68  1  0.99880600  0.85895500  0.69079400  1
  O  O69  1  0.00119400  0.14104500  0.30920600  1
  O  O70  1  0.99404900  0.36476600  0.81139300  1
  O  O71  1  0.00595100  0.63523400  0.18860700  1
  O  O72  1  0.49794900  0.64493900  0.68950100  1
  O  O73  1  0.50205100  0.35506100  0.31049900  1
  O  O74  1  0.49128400  0.15117500  0.80991000  1
  O  O75  1  0.50871600  0.84882500  0.19009000  1
  O  O76  1  0.29143900  0.10084100  0.70041400  1
  O  O77  1  0.70856100  0.89915900  0.29958600  1
  O  O78  1  0.69304400  0.58308000  0.79950400  1
  O  O79  1  0.30695600  0.41692000  0.20049600  1
  O  O80  1  0.16259900  0.51234200  0.68883500  1
  O  O81  1  0.83740100  0.48765800  0.31116500  1
  O  O82  1  0.83129200  0.01487900  0.81330000  1
  O  O83  1  0.16870800  0.98512100  0.18670000  1
