# generated using pymatgen
data_Nd3SbO7
_symmetry_space_group_name_H-M   'P 1'
_cell_length_a   6.69528107
_cell_length_b   6.69528107
_cell_length_c   7.77022300
_cell_angle_alpha   90.00000000
_cell_angle_beta   90.00000000
_cell_angle_gamma   109.61081526
_symmetry_Int_Tables_number   1
_chemical_formula_structural   Nd3SbO7
_chemical_formula_sum   'Nd6 Sb2 O14'
_cell_volume   328.10987425
_cell_formula_units_Z   2
loop_
 _symmetry_equiv_pos_site_id
 _symmetry_equiv_pos_as_xyz
  1  'x, y, z'
loop_
 _atom_site_type_symbol
 _atom_site_label
 _atom_site_symmetry_multiplicity
 _atom_site_fract_x
 _atom_site_fract_y
 _atom_site_fract_z
 _atom_site_occupancy
  Nd  Nd0  1  0.50000000  0.50000000  0.50000000  1
  Nd  Nd1  1  0.50000000  0.50000000  0.00000000  1
  Nd  Nd2  1  0.53257600  0.99928700  0.75000000  1
  Nd  Nd3  1  0.99928700  0.53257600  0.25000000  1
  Nd  Nd4  1  0.46742400  0.00071300  0.25000000  1
  Nd  Nd5  1  0.00071300  0.46742400  0.75000000  1
  Sb  Sb6  1  0.00000000  0.00000000  0.50000000  1
  Sb  Sb7  1  0.00000000  0.00000000  0.00000000  1
  O  O8  1  0.68580500  0.93137200  0.47312100  1
  O  O9  1  0.93137200  0.68580500  0.52687900  1
  O  O10  1  0.68580500  0.93137200  0.02687900  1
  O  O11  1  0.93137200  0.68580500  0.97312100  1
  O  O12  1  0.31419500  0.06862800  0.52687900  1
  O  O13  1  0.06862800  0.31419500  0.47312100  1
  O  O14  1  0.31419500  0.06862800  0.97312100  1
  O  O15  1  0.06862800  0.31419500  0.02687900  1
  O  O16  1  0.93836900  0.06163100  0.75000000  1
  O  O17  1  0.06163100  0.93836900  0.25000000  1
  O  O18  1  0.37024100  0.62975900  0.75000000  1
  O  O19  1  0.62975900  0.37024100  0.25000000  1
  O  O20  1  0.63480600  0.36519400  0.75000000  1
  O  O21  1  0.36519400  0.63480600  0.25000000  1
