# generated using pymatgen
data_Tl16O15F17
_symmetry_space_group_name_H-M   'P 1'
_cell_length_a   9.66335261
_cell_length_b   9.66335261
_cell_length_c   9.67471897
_cell_angle_alpha   70.37399827
_cell_angle_beta   70.37399827
_cell_angle_gamma   109.02090694
_symmetry_Int_Tables_number   1
_chemical_formula_structural   Tl16O15F17
_chemical_formula_sum   'Tl16 O15 F17'
_cell_volume   696.64597963
_cell_formula_units_Z   1
loop_
 _symmetry_equiv_pos_site_id
 _symmetry_equiv_pos_as_xyz
  1  'x, y, z'
loop_
 _atom_site_type_symbol
 _atom_site_label
 _atom_site_symmetry_multiplicity
 _atom_site_fract_x
 _atom_site_fract_y
 _atom_site_fract_z
 _atom_site_occupancy
  Tl  Tl0  1  0.24776400  0.00086100  0.27130100  1
  Tl  Tl1  1  0.00086100  0.24776400  0.27130100  1
  Tl  Tl2  1  0.97840200  0.97840200  0.99914900  1
  Tl  Tl3  1  0.03091300  0.53063400  0.48722500  1
  Tl  Tl4  1  0.53063400  0.03091300  0.48722500  1
  Tl  Tl5  1  0.23786900  0.23786900  0.49780500  1
  Tl  Tl6  1  0.76169900  0.01242600  0.73464100  1
  Tl  Tl7  1  0.48553100  0.77072800  0.26612600  1
  Tl  Tl8  1  0.77072800  0.48553100  0.26612600  1
  Tl  Tl9  1  0.01242600  0.76169900  0.73464100  1
  Tl  Tl10  1  0.23557800  0.50387600  0.74009800  1
  Tl  Tl11  1  0.50387600  0.23557800  0.74009800  1
  Tl  Tl12  1  0.76017500  0.26276900  0.01336000  1
  Tl  Tl13  1  0.26276900  0.76017500  0.01336000  1
  Tl  Tl14  1  0.47350900  0.47350900  0.01236500  1
  Tl  Tl15  1  0.78564900  0.78564900  0.47533400  1
  O  O16  1  0.98832100  0.98832100  0.21571700  1
  O  O17  1  0.24508000  0.24508000  0.22292500  1
  O  O18  1  0.95075300  0.95075300  0.79329700  1
  O  O19  1  0.25601900  0.01358900  0.50705600  1
  O  O20  1  0.01358900  0.25601900  0.50705600  1
  O  O21  1  0.53319500  0.02843200  0.25273400  1
  O  O22  1  0.02843200  0.53319500  0.25273400  1
  O  O23  1  0.26256500  0.53100300  0.49790900  1
  O  O24  1  0.53100300  0.26256500  0.49790900  1
  O  O25  1  0.75590000  0.99807700  0.50542600  1
  O  O26  1  0.99807700  0.75590000  0.50542600  1
  O  O27  1  0.28071800  0.80461100  0.22591900  1
  O  O28  1  0.50523500  0.98334600  0.78369800  1
  O  O29  1  0.80461100  0.28071800  0.22591900  1
  O  O30  1  0.98334600  0.50523500  0.78369800  1
  F  F31  1  0.24251600  0.00879700  0.96432000  1
  F  F32  1  0.00879700  0.24251600  0.96432000  1
  F  F33  1  0.23732500  0.23732500  0.73133200  1
  F  F34  1  0.47061600  0.47061600  0.27227000  1
  F  F35  1  0.44574400  0.44574400  0.77695200  1
  F  F36  1  0.72031100  0.99844300  0.00054800  1
  F  F37  1  0.23872800  0.50780700  0.97721900  1
  F  F38  1  0.99844300  0.72031100  0.00054800  1
  F  F39  1  0.50780700  0.23872800  0.97721900  1
  F  F40  1  0.71950500  0.71950500  0.23714800  1
  F  F41  1  0.74149200  0.52533000  0.50795500  1
  F  F42  1  0.52533000  0.74149200  0.50795500  1
  F  F43  1  0.76904900  0.27878900  0.72802500  1
  F  F44  1  0.27878900  0.76904900  0.72802500  1
  F  F45  1  0.69274800  0.69274800  0.77233000  1
  F  F46  1  0.70576100  0.48181400  0.03312800  1
  F  F47  1  0.48181400  0.70576100  0.03312800  1
