# generated using pymatgen
data_Ca3Mn2(GeO4)3
_symmetry_space_group_name_H-M   'P 1'
_cell_length_a   10.80830170
_cell_length_b   10.80830170
_cell_length_c   10.80830170
_cell_angle_alpha   109.54778654
_cell_angle_beta   109.54778654
_cell_angle_gamma   109.31819710
_symmetry_Int_Tables_number   1
_chemical_formula_structural   Ca3Mn2(GeO4)3
_chemical_formula_sum   'Ca12 Mn8 Ge12 O48'
_cell_volume   971.95948839
_cell_formula_units_Z   4
loop_
 _symmetry_equiv_pos_site_id
 _symmetry_equiv_pos_as_xyz
  1  'x, y, z'
loop_
 _atom_site_type_symbol
 _atom_site_label
 _atom_site_symmetry_multiplicity
 _atom_site_fract_x
 _atom_site_fract_y
 _atom_site_fract_z
 _atom_site_occupancy
  Ca  Ca0  1  0.49943500  0.87690200  0.12706900  1
  Ca  Ca1  1  0.25056500  0.37309800  0.37293100  1
  Ca  Ca2  1  0.49795600  0.99795600  0.50000000  1
  Ca  Ca3  1  0.74795600  0.74795600  0.00000000  1
  Ca  Ca4  1  0.00204400  0.50204400  0.50000000  1
  Ca  Ca5  1  0.00016700  0.87763400  0.62706900  1
  Ca  Ca6  1  0.62690200  0.99983300  0.87746700  1
  Ca  Ca7  1  0.12236600  0.74943500  0.12253300  1
  Ca  Ca8  1  0.12309800  0.25016700  0.62253300  1
  Ca  Ca9  1  0.74983300  0.37236600  0.87293100  1
  Ca  Ca10  1  0.25204400  0.25204400  0.00000000  1
  Ca  Ca11  1  0.62763400  0.50056500  0.37746700  1
  Mn  Mn12  1  0.37500000  0.62500000  0.25000000  1
  Mn  Mn13  1  0.87500000  0.12500000  0.25000000  1
  Mn  Mn14  1  0.87500000  0.62500000  0.25000000  1
  Mn  Mn15  1  0.37500000  0.12500000  0.75000000  1
  Mn  Mn16  1  0.37500000  0.62500000  0.75000000  1
  Mn  Mn17  1  0.87500000  0.12500000  0.75000000  1
  Mn  Mn18  1  0.87500000  0.62500000  0.75000000  1
  Mn  Mn19  1  0.37500000  0.12500000  0.25000000  1
  Ge  Ge20  1  0.74338600  0.87113600  0.37764900  1
  Ge  Ge21  1  0.62113600  0.74348700  0.62775000  1
  Ge  Ge22  1  0.00661400  0.37886400  0.12235100  1
  Ge  Ge23  1  0.00000000  0.00000000  0.00000000  1
  Ge  Ge24  1  0.50000000  0.50000000  0.00000000  1
  Ge  Ge25  1  0.49348700  0.36573700  0.62235100  1
  Ge  Ge26  1  0.75000000  0.25000000  0.50000000  1
  Ge  Ge27  1  0.12886400  0.50651300  0.87225000  1
  Ge  Ge28  1  0.25000000  0.75000000  0.50000000  1
  Ge  Ge29  1  0.25651300  0.88426300  0.87764900  1
  Ge  Ge30  1  0.63426300  0.25661400  0.12775000  1
  Ge  Ge31  1  0.11573700  0.99338600  0.37225000  1
  O  O32  1  0.06686300  0.13517400  0.35868300  1
  O  O33  1  0.59354800  0.21337000  0.94176200  1
  O  O34  1  0.78663000  0.72839200  0.38017800  1
  O  O35  1  0.27160800  0.65178600  0.05823800  1
  O  O36  1  0.74928200  0.91409200  0.23482600  1
  O  O37  1  0.29182000  0.93313700  0.06831100  1
  O  O38  1  0.68978900  0.54116100  0.05121200  1
  O  O39  1  0.45883900  0.51005100  0.14862700  1
  O  O40  1  0.26005100  0.61142300  0.55121200  1
  O  O41  1  0.29116100  0.73994900  0.35137300  1
  O  O42  1  0.26123000  0.03294300  0.83515100  1
  O  O43  1  0.18886400  0.14467700  0.14869300  1
  O  O44  1  0.97350900  0.54182000  0.85868300  1
  O  O45  1  0.48994900  0.63857700  0.94878800  1
  O  O46  1  0.79017100  0.43886400  0.54418700  1
  O  O47  1  0.96337000  0.52160800  0.11982200  1
  O  O48  1  0.07073400  0.73554500  0.73482600  1
  O  O49  1  0.56113600  0.10532300  0.35130700  1
  O  O50  1  0.08590800  0.32073400  0.83518900  1
  O  O51  1  0.89467700  0.24598400  0.45581300  1
  O  O52  1  0.06021100  0.70883900  0.44878800  1
  O  O53  1  0.96705700  0.80220800  0.22828700  1
  O  O54  1  0.45818000  0.31686300  0.43168900  1
  O  O55  1  0.95982900  0.81113600  0.95581300  1
  O  O56  1  0.68313700  0.11482600  0.14131700  1
  O  O57  1  0.48877000  0.21705700  0.66484900  1
  O  O58  1  0.17607900  0.51123000  0.72828700  1
  O  O59  1  0.38857700  0.93978900  0.64862700  1
  O  O60  1  0.40178600  0.84354800  0.88017800  1
  O  O61  1  0.99598400  0.04017100  0.85130700  1
  O  O62  1  0.66409200  0.92926600  0.66481100  1
  O  O63  1  0.78294300  0.44779200  0.27171300  1
  O  O64  1  0.55220800  0.82392100  0.33515100  1
  O  O65  1  0.26445500  0.99928200  0.33518900  1
  O  O66  1  0.88517400  0.02649100  0.56831100  1
  O  O67  1  0.86482600  0.22350900  0.93168900  1
  O  O68  1  0.77649100  0.70818000  0.64131700  1
  O  O69  1  0.15645200  0.03663000  0.55823800  1
  O  O70  1  0.85532300  0.00401600  0.04418700  1
  O  O71  1  0.48554500  0.25071800  0.16481100  1
  O  O72  1  0.00071800  0.33590800  0.26517400  1
  O  O73  1  0.36142300  0.31021100  0.85137300  1
  O  O74  1  0.34821400  0.40645200  0.61982200  1
  O  O75  1  0.19779200  0.42607900  0.16484900  1
  O  O76  1  0.75401600  0.20982900  0.64869300  1
  O  O77  1  0.67926600  0.51445500  0.76517400  1
  O  O78  1  0.47839200  0.59821400  0.44176200  1
  O  O79  1  0.57392100  0.73877000  0.77171300  1
