# generated using pymatgen
data_CrNi2
_symmetry_space_group_name_H-M   'P 1'
_cell_length_a   4.29592492
_cell_length_b   4.29592492
_cell_length_c   4.29592492
_cell_angle_alpha   146.52349699
_cell_angle_beta   131.13826588
_cell_angle_gamma   60.52850582
_symmetry_Int_Tables_number   1
_chemical_formula_structural   CrNi2
_chemical_formula_sum   'Cr1 Ni2'
_cell_volume   32.62613931
_cell_formula_units_Z   1
loop_
 _symmetry_equiv_pos_site_id
 _symmetry_equiv_pos_as_xyz
  1  'x, y, z'
loop_
 _atom_site_type_symbol
 _atom_site_label
 _atom_site_symmetry_multiplicity
 _atom_site_fract_x
 _atom_site_fract_y
 _atom_site_fract_z
 _atom_site_occupancy
  Cr  Cr0  1  0.00000000  0.00000000  0.00000000  1
  Ni  Ni1  1  0.66578100  0.66578100  0.00000000  1
  Ni  Ni2  1  0.33421900  0.33421900  0.00000000  1
