# generated using pymatgen
data_KRe3Os3(Se4Cl3)2
_symmetry_space_group_name_H-M   'P 1'
_cell_length_a   13.22772600
_cell_length_b   13.24614854
_cell_length_c   13.27007800
_cell_angle_alpha   90.00133312
_cell_angle_beta   90.00063901
_cell_angle_gamma   90.09324414
_symmetry_Int_Tables_number   1
_chemical_formula_structural   KRe3Os3(Se4Cl3)2
_chemical_formula_sum   'K4 Re12 Os12 Se32 Cl24'
_cell_volume   2325.13252711
_cell_formula_units_Z   4
loop_
 _symmetry_equiv_pos_site_id
 _symmetry_equiv_pos_as_xyz
  1  'x, y, z'
loop_
 _atom_site_type_symbol
 _atom_site_label
 _atom_site_symmetry_multiplicity
 _atom_site_fract_x
 _atom_site_fract_y
 _atom_site_fract_z
 _atom_site_occupancy
  K  K0  1  0.99959800  0.00001100  0.99962200  1
  K  K1  1  0.50054500  0.49986700  0.99964500  1
  K  K2  1  0.50015000  0.00017800  0.50043900  1
  K  K3  1  0.99990700  0.50006400  0.50015500  1
  Re  Re4  1  0.86837000  0.54145400  0.96842600  1
  Re  Re5  1  0.63168300  0.95856800  0.96843800  1
  Re  Re6  1  0.53170900  0.13167600  0.95847500  1
  Re  Re7  1  0.96834000  0.36831100  0.95842600  1
  Re  Re8  1  0.04178100  0.53148100  0.86853000  1
  Re  Re9  1  0.45835700  0.96848100  0.86857400  1
  Re  Re10  1  0.53146200  0.36854300  0.54153400  1
  Re  Re11  1  0.63127700  0.54160400  0.53144000  1
  Re  Re12  1  0.86863400  0.95831500  0.53135300  1
  Re  Re13  1  0.13140800  0.04149800  0.46853200  1
  Re  Re14  1  0.36853300  0.45837500  0.46862300  1
  Re  Re15  1  0.03148300  0.86840700  0.45841700  1
  Os  Os16  1  0.45789500  0.53219600  0.63179000  1
  Os  Os17  1  0.04177000  0.96883900  0.63211200  1
  Os  Os18  1  0.96852100  0.13126000  0.54144500  1
  Os  Os19  1  0.46845700  0.63144900  0.45849000  1
  Os  Os20  1  0.95802900  0.03217100  0.36820200  1
  Os  Os21  1  0.54164000  0.46887700  0.36789100  1
  Os  Os22  1  0.95907700  0.46874200  0.13167500  1
  Os  Os23  1  0.54105500  0.03122100  0.13174500  1
  Os  Os24  1  0.03216800  0.63122400  0.04216900  1
  Os  Os25  1  0.46788600  0.86877300  0.04220000  1
  Os  Os26  1  0.36828600  0.04117700  0.03216500  1
  Os  Os27  1  0.13177900  0.45882000  0.03218200  1
  Se  Se28  1  0.19550900  0.61654800  0.94505600  1
  Se  Se29  1  0.30451200  0.88340500  0.94506500  1
  Se  Se30  1  0.94506700  0.69572100  0.88439300  1
  Se  Se31  1  0.55504800  0.80422300  0.88442400  1
  Se  Se32  1  0.36319000  0.13558900  0.86542500  1
  Se  Se33  1  0.13686300  0.36437000  0.86542100  1
  Se  Se34  1  0.61742500  0.05617000  0.80448500  1
  Se  Se35  1  0.88268500  0.44377200  0.80440000  1
  Se  Se36  1  0.88468300  0.05588700  0.69507600  1
  Se  Se37  1  0.61535200  0.44495700  0.69583300  1
  Se  Se38  1  0.13464000  0.13538600  0.63650900  1
  Se  Se39  1  0.36422400  0.36526900  0.63695800  1
  Se  Se40  1  0.55428700  0.69508400  0.61672600  1
  Se  Se41  1  0.94503700  0.80512300  0.61786400  1
  Se  Se42  1  0.30571800  0.61742700  0.55679100  1
  Se  Se43  1  0.19476100  0.88316500  0.55734200  1
  Se  Se44  1  0.80578100  0.11736700  0.44318500  1
  Se  Se45  1  0.69474800  0.38326000  0.44259000  1
  Se  Se46  1  0.05437100  0.19505700  0.38330500  1
  Se  Se47  1  0.44494700  0.30519400  0.38214000  1
  Se  Se48  1  0.63462900  0.63543200  0.36339200  1
  Se  Se49  1  0.86423800  0.86523800  0.36289200  1
  Se  Se50  1  0.11528600  0.94474000  0.30411400  1
  Se  Se51  1  0.38475400  0.55611400  0.30485800  1
  Se  Se52  1  0.38327200  0.94417300  0.19445700  1
  Se  Se53  1  0.11678800  0.55580000  0.19445900  1
  Se  Se54  1  0.86538400  0.63530200  0.13594200  1
  Se  Se55  1  0.63466500  0.86464900  0.13596200  1
  Se  Se56  1  0.44374800  0.19416800  0.11708400  1
  Se  Se57  1  0.05629900  0.30576400  0.11706300  1
  Se  Se58  1  0.69522500  0.11689000  0.05685300  1
  Se  Se59  1  0.80479800  0.38307900  0.05680800  1
  Cl  Cl60  1  0.79938800  0.90429300  0.92338600  1
  Cl  Cl61  1  0.70078000  0.59590700  0.92380900  1
  Cl  Cl62  1  0.57621600  0.29902000  0.90301800  1
  Cl  Cl63  1  0.92377200  0.20094600  0.90299700  1
  Cl  Cl64  1  0.09703800  0.92400200  0.79918500  1
  Cl  Cl65  1  0.40323500  0.57497000  0.79959200  1
  Cl  Cl66  1  0.09588900  0.57491600  0.70021900  1
  Cl  Cl67  1  0.40458300  0.92521500  0.70062900  1
  Cl  Cl68  1  0.57562500  0.20084300  0.59604900  1
  Cl  Cl69  1  0.92440200  0.29838100  0.59611100  1
  Cl  Cl70  1  0.79922900  0.59589200  0.57541000  1
  Cl  Cl71  1  0.70105700  0.90266200  0.57499700  1
  Cl  Cl72  1  0.29942800  0.09576800  0.42416400  1
  Cl  Cl73  1  0.20086000  0.40280800  0.42459300  1
  Cl  Cl74  1  0.42425400  0.79887500  0.40339100  1
  Cl  Cl75  1  0.07575100  0.70034800  0.40332500  1
  Cl  Cl76  1  0.59728100  0.07574100  0.29831100  1
  Cl  Cl77  1  0.90306400  0.42436100  0.29786100  1
  Cl  Cl78  1  0.59638400  0.42375600  0.20112600  1
  Cl  Cl79  1  0.90383500  0.07519000  0.20068500  1
  Cl  Cl80  1  0.07507600  0.79901700  0.09577800  1
  Cl  Cl81  1  0.42493500  0.70098000  0.09580400  1
  Cl  Cl82  1  0.29934100  0.40302000  0.07521000  1
  Cl  Cl83  1  0.20084200  0.09718400  0.07477800  1
