# generated using pymatgen
data_Na4Be2Si6Sn(HO5)4
_symmetry_space_group_name_H-M   'P 1'
_cell_length_a   11.10730583
_cell_length_b   11.10730583
_cell_length_c   12.14400280
_cell_angle_alpha   64.34654205
_cell_angle_beta   64.34654205
_cell_angle_gamma   39.41619513
_symmetry_Int_Tables_number   1
_chemical_formula_structural   Na4Be2Si6Sn(HO5)4
_chemical_formula_sum   'Na8 Be4 Si12 Sn2 H8 O40'
_cell_volume   844.74519300
_cell_formula_units_Z   2
loop_
 _symmetry_equiv_pos_site_id
 _symmetry_equiv_pos_as_xyz
  1  'x, y, z'
loop_
 _atom_site_type_symbol
 _atom_site_label
 _atom_site_symmetry_multiplicity
 _atom_site_fract_x
 _atom_site_fract_y
 _atom_site_fract_z
 _atom_site_occupancy
  Na  Na0  1  0.20424800  0.30972800  0.26694600  1
  Na  Na1  1  0.69027200  0.79575200  0.23305400  1
  Na  Na2  1  0.79575200  0.69027200  0.73305400  1
  Na  Na3  1  0.30972800  0.20424800  0.76694600  1
  Na  Na4  1  0.20919500  0.68461600  0.19739200  1
  Na  Na5  1  0.31538400  0.79080500  0.30260800  1
  Na  Na6  1  0.79080500  0.31538400  0.80260800  1
  Na  Na7  1  0.68461600  0.20919500  0.69739200  1
  Be  Be8  1  0.60307600  0.39692400  0.25000000  1
  Be  Be9  1  0.39692400  0.60307600  0.75000000  1
  Be  Be10  1  0.91646600  0.08353400  0.25000000  1
  Be  Be11  1  0.08353400  0.91646600  0.75000000  1
  Si  Si12  1  0.65683700  0.54900600  0.00231000  1
  Si  Si13  1  0.45099400  0.34316300  0.49769000  1
  Si  Si14  1  0.34316300  0.45099400  0.99769000  1
  Si  Si15  1  0.54900600  0.65683700  0.50231000  1
  Si  Si16  1  0.85975700  0.37371300  0.30445200  1
  Si  Si17  1  0.62628700  0.14024300  0.19554800  1
  Si  Si18  1  0.14024300  0.62628700  0.69554800  1
  Si  Si19  1  0.37371300  0.85975700  0.80445200  1
  Si  Si20  1  0.93427400  0.85683000  0.99397000  1
  Si  Si21  1  0.14317000  0.06572600  0.50603000  1
  Si  Si22  1  0.06572600  0.14317000  0.00603000  1
  Si  Si23  1  0.85683000  0.93427400  0.49397000  1
  Sn  Sn24  1  0.00000000  0.50000000  0.00000000  1
  Sn  Sn25  1  0.50000000  0.00000000  0.50000000  1
  H  H26  1  0.96466800  0.65780100  0.39921600  1
  H  H27  1  0.34219900  0.03533200  0.10078400  1
  H  H28  1  0.03533200  0.34219900  0.60078400  1
  H  H29  1  0.65780100  0.96466800  0.89921600  1
  H  H30  1  0.17453600  0.45599100  0.41322200  1
  H  H31  1  0.54400900  0.82546400  0.08677800  1
  H  H32  1  0.82546400  0.54400900  0.58677800  1
  H  H33  1  0.45599100  0.17453600  0.91322200  1
  O  O34  1  0.43504700  0.47867000  0.36682400  1
  O  O35  1  0.52133000  0.56495300  0.13317600  1
  O  O36  1  0.56495300  0.52133000  0.63317600  1
  O  O37  1  0.47867000  0.43504700  0.86682400  1
  O  O38  1  0.86006700  0.77358000  0.99478100  1
  O  O39  1  0.22642000  0.13993300  0.50521900  1
  O  O40  1  0.13993300  0.22642000  0.00521900  1
  O  O41  1  0.77358000  0.86006700  0.49478100  1
  O  O42  1  0.92670100  0.47225600  0.19297900  1
  O  O43  1  0.52774400  0.07329900  0.30702100  1
  O  O44  1  0.07329900  0.52774400  0.80702100  1
  O  O45  1  0.47225600  0.92670100  0.69297900  1
  O  O46  1  0.99981400  0.91875100  0.36833200  1
  O  O47  1  0.08124900  0.00018600  0.13166800  1
  O  O48  1  0.00018600  0.08124900  0.63166800  1
  O  O49  1  0.91875100  0.99981400  0.86833200  1
  O  O50  1  0.15513300  0.67423500  0.02745900  1
  O  O51  1  0.32576500  0.84486700  0.47254100  1
  O  O52  1  0.84486700  0.32576500  0.97254100  1
  O  O53  1  0.67423500  0.15513300  0.52745900  1
  O  O54  1  0.73433900  0.63715300  0.98428200  1
  O  O55  1  0.36284700  0.26566100  0.51571800  1
  O  O56  1  0.26566100  0.36284700  0.01571800  1
  O  O57  1  0.63715300  0.73433900  0.48428200  1
  O  O58  1  0.08478800  0.55215800  0.35254700  1
  O  O59  1  0.44784200  0.91521200  0.14745300  1
  O  O60  1  0.91521200  0.44784200  0.64745300  1
  O  O61  1  0.55215800  0.08478800  0.85254700  1
  O  O62  1  0.81365000  0.29485400  0.26137700  1
  O  O63  1  0.70514600  0.18635000  0.23862300  1
  O  O64  1  0.18635000  0.70514600  0.73862300  1
  O  O65  1  0.29485400  0.81365000  0.76137700  1
  O  O66  1  0.66214200  0.54390700  0.38561500  1
  O  O67  1  0.45609300  0.33785800  0.11438500  1
  O  O68  1  0.33785800  0.45609300  0.61438500  1
  O  O69  1  0.54390700  0.66214200  0.88561500  1
  O  O70  1  0.03670600  0.19702800  0.38349100  1
  O  O71  1  0.80297200  0.96329400  0.11650900  1
  O  O72  1  0.96329400  0.80297200  0.61650900  1
  O  O73  1  0.19702800  0.03670600  0.88349100  1
