# generated using pymatgen
data_Os(OF2)2
_symmetry_space_group_name_H-M   'P 1'
_cell_length_a   5.02116127
_cell_length_b   5.02116127
_cell_length_c   27.87245700
_cell_angle_alpha   90.00000000
_cell_angle_beta   90.00000000
_cell_angle_gamma   119.99999032
_symmetry_Int_Tables_number   1
_chemical_formula_structural   Os(OF2)2
_chemical_formula_sum   'Os6 O12 F24'
_cell_volume   608.57522448
_cell_formula_units_Z   6
loop_
 _symmetry_equiv_pos_site_id
 _symmetry_equiv_pos_as_xyz
  1  'x, y, z'
loop_
 _atom_site_type_symbol
 _atom_site_label
 _atom_site_symmetry_multiplicity
 _atom_site_fract_x
 _atom_site_fract_y
 _atom_site_fract_z
 _atom_site_occupancy
  Os  Os0  1  0.00967100  0.46532300  0.83468400  1
  Os  Os1  1  0.45565200  0.99032900  0.50135000  1
  Os  Os2  1  0.46532300  0.45565200  0.66801700  1
  Os  Os3  1  0.53467700  0.54434800  0.16801700  1
  Os  Os4  1  0.54434800  0.00967100  0.00135000  1
  Os  Os5  1  0.99032900  0.53467700  0.33468400  1
  O  O6  1  0.17980000  0.73681000  0.54016000  1
  O  O7  1  0.25678400  0.73881300  0.79516200  1
  O  O8  1  0.26118700  0.51797000  0.12849600  1
  O  O9  1  0.26319000  0.44299000  0.87349300  1
  O  O10  1  0.48203000  0.74321600  0.46182900  1
  O  O11  1  0.55701000  0.82020000  0.20682700  1
  O  O12  1  0.44299000  0.17980000  0.70682700  1
  O  O13  1  0.51797000  0.25678400  0.96182900  1
  O  O14  1  0.73681000  0.55701000  0.37349300  1
  O  O15  1  0.73881300  0.48203000  0.62849600  1
  O  O16  1  0.74321600  0.26118700  0.29516200  1
  O  O17  1  0.82020000  0.26319000  0.04016000  1
  F  F18  1  0.04420700  0.86478600  0.29617500  1
  F  F19  1  0.21643900  0.96089000  0.03994100  1
  F  F20  1  0.22720100  0.66193300  0.96631000  1
  F  F21  1  0.32913900  0.85060800  0.37150500  1
  F  F22  1  0.14939200  0.47853100  0.70483800  1
  F  F23  1  0.03911000  0.25554900  0.37327500  1
  F  F24  1  0.13521400  0.17942100  0.62950800  1
  F  F25  1  0.43473200  0.77279900  0.63297600  1
  F  F26  1  0.33806700  0.56526800  0.29964300  1
  F  F27  1  0.25554900  0.21643900  0.20660800  1
  F  F28  1  0.17942100  0.04420700  0.46284100  1
  F  F29  1  0.52146900  0.67086100  0.03817200  1
  F  F30  1  0.47853100  0.32913900  0.53817200  1
  F  F31  1  0.82057900  0.95579300  0.96284100  1
  F  F32  1  0.74445100  0.78356100  0.70660800  1
  F  F33  1  0.66193300  0.43473200  0.79964300  1
  F  F34  1  0.56526800  0.22720100  0.13297600  1
  F  F35  1  0.86478600  0.82057900  0.12950800  1
  F  F36  1  0.96089000  0.74445100  0.87327500  1
  F  F37  1  0.85060800  0.52146900  0.20483800  1
  F  F38  1  0.67086100  0.14939200  0.87150500  1
  F  F39  1  0.77279900  0.33806700  0.46631000  1
  F  F40  1  0.78356100  0.03911000  0.53994100  1
  F  F41  1  0.95579300  0.13521400  0.79617500  1
