# generated using pymatgen
data_LiMnNbO4
_symmetry_space_group_name_H-M   'P 1'
_cell_length_a   6.28016200
_cell_length_b   6.28819800
_cell_length_c   8.63705800
_cell_angle_alpha   89.99903282
_cell_angle_beta   89.99966994
_cell_angle_gamma   90.00012764
_symmetry_Int_Tables_number   1
_chemical_formula_structural   LiMnNbO4
_chemical_formula_sum   'Li4 Mn4 Nb4 O16'
_cell_volume   341.08521212
_cell_formula_units_Z   4
loop_
 _symmetry_equiv_pos_site_id
 _symmetry_equiv_pos_as_xyz
  1  'x, y, z'
loop_
 _atom_site_type_symbol
 _atom_site_label
 _atom_site_symmetry_multiplicity
 _atom_site_fract_x
 _atom_site_fract_y
 _atom_site_fract_z
 _atom_site_occupancy
  Li  Li0  1  0.00000400  0.22259000  0.99999900  1
  Li  Li1  1  0.00000500  0.77741300  0.49999800  1
  Li  Li2  1  0.22253000  0.00000200  0.24999800  1
  Li  Li3  1  0.77748000  0.00000100  0.74999800  1
  Mn  Mn4  1  0.74396600  0.25571700  0.37576100  1
  Mn  Mn5  1  0.74396900  0.74429700  0.12423900  1
  Mn  Mn6  1  0.25602000  0.25567900  0.62429000  1
  Mn  Mn7  1  0.25600200  0.74429300  0.87573200  1
  Nb  Nb8  1  0.21914900  0.50000000  0.25000400  1
  Nb  Nb9  1  0.49999900  0.21935300  0.99999400  1
  Nb  Nb10  1  0.49999500  0.78064800  0.50000600  1
  Nb  Nb11  1  0.78085100  0.50000100  0.74999800  1
  O  O12  1  0.02698300  0.26559000  0.25329300  1
  O  O13  1  0.02698700  0.73441300  0.24670400  1
  O  O14  1  0.26543700  0.02726600  0.99678400  1
  O  O15  1  0.26543500  0.97273400  0.50321300  1
  O  O16  1  0.73457200  0.02728000  0.00319500  1
  O  O17  1  0.73457700  0.97272100  0.49680200  1
  O  O18  1  0.97302100  0.26559900  0.74670700  1
  O  O19  1  0.97301900  0.73440700  0.75329000  1
  O  O20  1  0.26878900  0.48211200  0.01953400  1
  O  O21  1  0.26879100  0.51788000  0.48046700  1
  O  O22  1  0.48231600  0.26879200  0.23052100  1
  O  O23  1  0.48231500  0.73121400  0.26947500  1
  O  O24  1  0.51768500  0.26879100  0.76946500  1
  O  O25  1  0.51767800  0.73120700  0.73053400  1
  O  O26  1  0.73121200  0.51790000  0.51954400  1
  O  O27  1  0.73121400  0.48210000  0.98045300  1
