# generated using pymatgen
data_Er3GaS6
_symmetry_space_group_name_H-M   'P 1'
_cell_length_a   8.47799217
_cell_length_b   8.47799217
_cell_length_c   6.42891100
_cell_angle_alpha   90.00000000
_cell_angle_beta   90.00000000
_cell_angle_gamma   102.43140896
_symmetry_Int_Tables_number   1
_chemical_formula_structural   Er3GaS6
_chemical_formula_sum   'Er6 Ga2 S12'
_cell_volume   451.25277305
_cell_formula_units_Z   2
loop_
 _symmetry_equiv_pos_site_id
 _symmetry_equiv_pos_as_xyz
  1  'x, y, z'
loop_
 _atom_site_type_symbol
 _atom_site_label
 _atom_site_symmetry_multiplicity
 _atom_site_fract_x
 _atom_site_fract_y
 _atom_site_fract_z
 _atom_site_occupancy
  Er  Er0  1  0.40260800  0.59739200  0.66334900  1
  Er  Er1  1  0.59739200  0.40260800  0.16334900  1
  Er  Er2  1  0.28425400  0.08567000  0.75330300  1
  Er  Er3  1  0.71574600  0.91433000  0.25330300  1
  Er  Er4  1  0.91432900  0.71574600  0.75330300  1
  Er  Er5  1  0.08567000  0.28425400  0.25330300  1
  Ga  Ga6  1  0.20109400  0.79890600  0.28889600  1
  Ga  Ga7  1  0.79890600  0.20109400  0.78889600  1
  S  S8  1  0.96039000  0.03961000  0.93643200  1
  S  S9  1  0.03961000  0.96039000  0.43643200  1
  S  S10  1  0.21741200  0.78258800  0.93537600  1
  S  S11  1  0.78258800  0.21741200  0.43537600  1
  S  S12  1  0.63221000  0.69311000  0.95716400  1
  S  S13  1  0.36779000  0.30689000  0.45716400  1
  S  S14  1  0.30689000  0.36779000  0.95716400  1
  S  S15  1  0.69311000  0.63221000  0.45716400  1
  S  S16  1  0.10166500  0.56577300  0.47120600  1
  S  S17  1  0.89833500  0.43422700  0.97120600  1
  S  S18  1  0.43422700  0.89833500  0.47120600  1
  S  S19  1  0.56577300  0.10166500  0.97120600  1
