# generated using pymatgen
data_KVPHO6
_symmetry_space_group_name_H-M   'P 1'
_cell_length_a   6.81190800
_cell_length_b   9.26802200
_cell_length_c   17.33849900
_cell_angle_alpha   90.00000000
_cell_angle_beta   90.00000000
_cell_angle_gamma   90.00000000
_symmetry_Int_Tables_number   1
_chemical_formula_structural   KVPHO6
_chemical_formula_sum   'K8 V8 P8 H8 O48'
_cell_volume   1094.62995249
_cell_formula_units_Z   8
loop_
 _symmetry_equiv_pos_site_id
 _symmetry_equiv_pos_as_xyz
  1  'x, y, z'
loop_
 _atom_site_type_symbol
 _atom_site_label
 _atom_site_symmetry_multiplicity
 _atom_site_fract_x
 _atom_site_fract_y
 _atom_site_fract_z
 _atom_site_occupancy
  K  K0  1  0.77399000  0.81390600  0.39726000  1
  K  K1  1  0.27399000  0.68609400  0.60274000  1
  K  K2  1  0.22601000  0.31390600  0.10274000  1
  K  K3  1  0.72601000  0.18609400  0.89726000  1
  K  K4  1  0.22601000  0.18609400  0.60274000  1
  K  K5  1  0.72601000  0.31390600  0.39726000  1
  K  K6  1  0.77399000  0.68609400  0.89726000  1
  K  K7  1  0.27399000  0.81390600  0.10274000  1
  V  V8  1  0.52288800  0.94712900  0.74048800  1
  V  V9  1  0.02288800  0.55287100  0.25951200  1
  V  V10  1  0.47711200  0.44712900  0.75951200  1
  V  V11  1  0.97711200  0.05287100  0.24048800  1
  V  V12  1  0.47711200  0.05287100  0.25951200  1
  V  V13  1  0.97711200  0.44712900  0.74048800  1
  V  V14  1  0.52288800  0.55287100  0.24048800  1
  V  V15  1  0.02288800  0.94712900  0.75951200  1
  P  P16  1  0.30443800  0.89004800  0.90487400  1
  P  P17  1  0.80443800  0.60995200  0.09512600  1
  P  P18  1  0.69556200  0.39004800  0.59512600  1
  P  P19  1  0.19556200  0.10995200  0.40487400  1
  P  P20  1  0.69556200  0.10995200  0.09512600  1
  P  P21  1  0.19556200  0.39004800  0.90487400  1
  P  P22  1  0.30443800  0.60995200  0.40487400  1
  P  P23  1  0.80443800  0.89004800  0.59512600  1
  H  H24  1  0.20990300  0.10685100  0.95366800  1
  H  H25  1  0.70990300  0.39314900  0.04633200  1
  H  H26  1  0.79009700  0.60685100  0.54633200  1
  H  H27  1  0.29009700  0.89314900  0.45366800  1
  H  H28  1  0.79009700  0.89314900  0.04633200  1
  H  H29  1  0.29009700  0.60685100  0.95366800  1
  H  H30  1  0.20990300  0.39314900  0.45366800  1
  H  H31  1  0.70990300  0.10685100  0.54633200  1
  O  O32  1  0.37356500  0.75556900  0.94673600  1
  O  O33  1  0.87356500  0.74443100  0.05326400  1
  O  O34  1  0.62643500  0.25556900  0.55326400  1
  O  O35  1  0.12643500  0.24443100  0.44673600  1
  O  O36  1  0.62643500  0.24443100  0.05326400  1
  O  O37  1  0.12643500  0.25556900  0.94673600  1
  O  O38  1  0.37356500  0.74443100  0.44673600  1
  O  O39  1  0.87356500  0.75556900  0.55326400  1
  O  O40  1  0.26084100  0.00565700  0.96948800  1
  O  O41  1  0.76084100  0.49434300  0.03051200  1
  O  O42  1  0.73915900  0.50565700  0.53051200  1
  O  O43  1  0.23915900  0.99434300  0.46948800  1
  O  O44  1  0.73915900  0.99434300  0.03051200  1
  O  O45  1  0.23915900  0.50565700  0.96948800  1
  O  O46  1  0.26084100  0.49434300  0.46948800  1
  O  O47  1  0.76084100  0.00565700  0.53051200  1
  O  O48  1  0.61235000  0.86428200  0.64276300  1
  O  O49  1  0.11235000  0.63571800  0.35723700  1
  O  O50  1  0.38765000  0.36428200  0.85723700  1
  O  O51  1  0.88765000  0.13571800  0.14276300  1
  O  O52  1  0.38765000  0.13571800  0.35723700  1
  O  O53  1  0.88765000  0.36428200  0.64276300  1
  O  O54  1  0.61235000  0.63571800  0.14276300  1
  O  O55  1  0.11235000  0.86428200  0.85723700  1
  O  O56  1  0.96641600  0.95401600  0.64843200  1
  O  O57  1  0.46641600  0.54598400  0.35156800  1
  O  O58  1  0.03358400  0.45401600  0.85156800  1
  O  O59  1  0.53358400  0.04598400  0.14843200  1
  O  O60  1  0.03358400  0.04598400  0.35156800  1
  O  O61  1  0.53358400  0.45401600  0.64843200  1
  O  O62  1  0.96641600  0.54598400  0.14843200  1
  O  O63  1  0.46641600  0.95401600  0.85156800  1
  O  O64  1  0.47162900  0.87992200  0.27727400  1
  O  O65  1  0.97162900  0.62007800  0.72272600  1
  O  O66  1  0.52837100  0.37992200  0.22272600  1
  O  O67  1  0.02837100  0.12007800  0.77727400  1
  O  O68  1  0.52837100  0.12007800  0.72272600  1
  O  O69  1  0.02837100  0.37992200  0.27727400  1
  O  O70  1  0.47162900  0.62007800  0.77727400  1
  O  O71  1  0.97162900  0.87992200  0.22272600  1
  O  O72  1  0.72199600  0.10866000  0.27739400  1
  O  O73  1  0.22199600  0.39134000  0.72260600  1
  O  O74  1  0.27800400  0.60866000  0.22260600  1
  O  O75  1  0.77800400  0.89134000  0.77739400  1
  O  O76  1  0.27800400  0.89134000  0.72260600  1
  O  O77  1  0.77800400  0.60866000  0.27739400  1
  O  O78  1  0.72199600  0.39134000  0.77739400  1
  O  O79  1  0.22199600  0.10866000  0.22260600  1
