# generated using pymatgen
data_RbGdO2
_symmetry_space_group_name_H-M   'P 1'
_cell_length_a   6.89332006
_cell_length_b   6.89332006
_cell_length_c   6.89332034
_cell_angle_alpha   30.04408404
_cell_angle_beta   30.04408404
_cell_angle_gamma   30.04408537
_symmetry_Int_Tables_number   1
_chemical_formula_structural   RbGdO2
_chemical_formula_sum   'Rb1 Gd1 O2'
_cell_volume   72.73393934
_cell_formula_units_Z   1
loop_
 _symmetry_equiv_pos_site_id
 _symmetry_equiv_pos_as_xyz
  1  'x, y, z'
loop_
 _atom_site_type_symbol
 _atom_site_label
 _atom_site_symmetry_multiplicity
 _atom_site_fract_x
 _atom_site_fract_y
 _atom_site_fract_z
 _atom_site_occupancy
  Rb  Rb0  1  0.00000000  0.00000000  0.00000000  1
  Gd  Gd1  1  0.50000000  0.50000000  0.50000000  1
  O  O2  1  0.77418900  0.77418900  0.77418900  1
  O  O3  1  0.22581100  0.22581100  0.22581100  1
