# generated using pymatgen
data_CrP2
_symmetry_space_group_name_H-M   'P 1'
_cell_length_a   4.35842034
_cell_length_b   4.35842034
_cell_length_c   7.09738525
_cell_angle_alpha   62.51746443
_cell_angle_beta   62.51746443
_cell_angle_gamma   40.36770885
_symmetry_Int_Tables_number   1
_chemical_formula_structural   CrP2
_chemical_formula_sum   'Cr2 P4'
_cell_volume   76.03840351
_cell_formula_units_Z   2
loop_
 _symmetry_equiv_pos_site_id
 _symmetry_equiv_pos_as_xyz
  1  'x, y, z'
loop_
 _atom_site_type_symbol
 _atom_site_label
 _atom_site_symmetry_multiplicity
 _atom_site_fract_x
 _atom_site_fract_y
 _atom_site_fract_z
 _atom_site_occupancy
  Cr  Cr0  1  0.15725300  0.15725300  0.29532000  1
  Cr  Cr1  1  0.84274700  0.84274700  0.70468000  1
  P  P2  1  0.85562500  0.85562500  0.02863500  1
  P  P3  1  0.14437500  0.14437500  0.97136500  1
  P  P4  1  0.60143400  0.60143400  0.59913700  1
  P  P5  1  0.39856600  0.39856600  0.40086300  1
