# generated using pymatgen
data_RbAl11O17
_symmetry_space_group_name_H-M   'P 1'
_cell_length_a   5.65482156
_cell_length_b   5.65482156
_cell_length_c   23.05340600
_cell_angle_alpha   90.00000000
_cell_angle_beta   90.00000000
_cell_angle_gamma   119.99999487
_symmetry_Int_Tables_number   1
_chemical_formula_structural   RbAl11O17
_chemical_formula_sum   'Rb2 Al22 O34'
_cell_volume   638.41570713
_cell_formula_units_Z   2
loop_
 _symmetry_equiv_pos_site_id
 _symmetry_equiv_pos_as_xyz
  1  'x, y, z'
loop_
 _atom_site_type_symbol
 _atom_site_label
 _atom_site_symmetry_multiplicity
 _atom_site_fract_x
 _atom_site_fract_y
 _atom_site_fract_z
 _atom_site_occupancy
  Rb  Rb0  1  0.33333300  0.66666700  0.75000000  1
  Rb  Rb1  1  0.66666700  0.33333300  0.25000000  1
  Al  Al2  1  0.16727900  0.83272100  0.89449400  1
  Al  Al3  1  0.16727900  0.83272100  0.60550600  1
  Al  Al4  1  0.33333300  0.66666700  0.17508100  1
  Al  Al5  1  0.33333300  0.66666700  0.02496800  1
  Al  Al6  1  0.33333300  0.66666700  0.32491900  1
  Al  Al7  1  0.00000000  0.00000000  0.00000000  1
  Al  Al8  1  0.00000000  0.00000000  0.50000000  1
  Al  Al9  1  0.33333300  0.66666700  0.47503200  1
  Al  Al10  1  0.16727900  0.33455900  0.60550600  1
  Al  Al11  1  0.16727900  0.33455900  0.89449400  1
  Al  Al12  1  0.66544100  0.83272100  0.60550600  1
  Al  Al13  1  0.66544100  0.83272100  0.89449400  1
  Al  Al14  1  0.33455900  0.16727900  0.39449400  1
  Al  Al15  1  0.33455900  0.16727900  0.10550600  1
  Al  Al16  1  0.83272100  0.66544100  0.39449400  1
  Al  Al17  1  0.66666700  0.33333300  0.67508100  1
  Al  Al18  1  0.66666700  0.33333300  0.82491900  1
  Al  Al19  1  0.66666700  0.33333300  0.52496800  1
  Al  Al20  1  0.66666700  0.33333300  0.97503200  1
  Al  Al21  1  0.83272100  0.66544100  0.10550600  1
  Al  Al22  1  0.83272100  0.16727900  0.39449400  1
  Al  Al23  1  0.83272100  0.16727900  0.10550600  1
  O  O24  1  0.15687600  0.84312400  0.04921900  1
  O  O25  1  0.15687600  0.84312400  0.45078100  1
  O  O26  1  0.00354800  0.50177400  0.85611800  1
  O  O27  1  0.00354800  0.50177400  0.64388200  1
  O  O28  1  0.33333300  0.66666700  0.25000000  1
  O  O29  1  0.15687600  0.31375200  0.04921900  1
  O  O30  1  0.00000000  0.00000000  0.14023600  1
  O  O31  1  0.33333300  0.66666700  0.94533800  1
  O  O32  1  0.33333300  0.66666700  0.55466200  1
  O  O33  1  0.00000000  0.00000000  0.35976400  1
  O  O34  1  0.00000000  0.00000000  0.85976400  1
  O  O35  1  0.00000000  0.00000000  0.64023600  1
  O  O36  1  0.49822600  0.99645200  0.64388200  1
  O  O37  1  0.49822600  0.99645200  0.85611800  1
  O  O38  1  0.15687600  0.31375200  0.45078100  1
  O  O39  1  0.31375200  0.15687600  0.54921900  1
  O  O40  1  0.31375200  0.15687600  0.95078100  1
  O  O41  1  0.49822600  0.50177400  0.85611800  1
  O  O42  1  0.49822600  0.50177400  0.64388200  1
  O  O43  1  0.50177400  0.49822600  0.14388200  1
  O  O44  1  0.50177400  0.49822600  0.35611800  1
  O  O45  1  0.68624800  0.84312400  0.04921900  1
  O  O46  1  0.68624800  0.84312400  0.45078100  1
  O  O47  1  0.84312400  0.68624800  0.95078100  1
  O  O48  1  0.84312400  0.68624800  0.54921900  1
  O  O49  1  0.50177400  0.00354800  0.35611800  1
  O  O50  1  0.66666700  0.33333300  0.44533800  1
  O  O51  1  0.66666700  0.33333300  0.75000000  1
  O  O52  1  0.50177400  0.00354800  0.14388200  1
  O  O53  1  0.66666700  0.33333300  0.05466200  1
  O  O54  1  0.99645200  0.49822600  0.14388200  1
  O  O55  1  0.99645200  0.49822600  0.35611800  1
  O  O56  1  0.84312400  0.15687600  0.95078100  1
  O  O57  1  0.84312400  0.15687600  0.54921900  1
