# generated using pymatgen
data_BaAg2GeS4
_symmetry_space_group_name_H-M   'P 1'
_cell_length_a   6.38553858
_cell_length_b   6.38553858
_cell_length_c   6.38553858
_cell_angle_alpha   114.99617801
_cell_angle_beta   114.99617801
_cell_angle_gamma   98.91009139
_symmetry_Int_Tables_number   1
_chemical_formula_structural   BaAg2GeS4
_chemical_formula_sum   'Ba1 Ag2 Ge1 S4'
_cell_volume   195.46732736
_cell_formula_units_Z   1
loop_
 _symmetry_equiv_pos_site_id
 _symmetry_equiv_pos_as_xyz
  1  'x, y, z'
loop_
 _atom_site_type_symbol
 _atom_site_label
 _atom_site_symmetry_multiplicity
 _atom_site_fract_x
 _atom_site_fract_y
 _atom_site_fract_z
 _atom_site_occupancy
  Ba  Ba0  1  0.00000000  0.00000000  0.00000000  1
  Ag  Ag1  1  0.25000000  0.75000000  0.50000000  1
  Ag  Ag2  1  0.75000000  0.25000000  0.50000000  1
  Ge  Ge3  1  0.50000000  0.50000000  0.00000000  1
  S  S4  1  0.15552700  0.15552700  0.62212100  1
  S  S5  1  0.84447300  0.46659400  0.00000000  1
  S  S6  1  0.46659400  0.84447300  0.00000000  1
  S  S7  1  0.53340600  0.53340600  0.37787900  1
