# generated using pymatgen
data_Ho2TeO6
_symmetry_space_group_name_H-M   'P 1'
_cell_length_a   5.29975500
_cell_length_b   9.09928200
_cell_length_c   9.98791200
_cell_angle_alpha   90.00000000
_cell_angle_beta   90.00000000
_cell_angle_gamma   90.00000000
_symmetry_Int_Tables_number   1
_chemical_formula_structural   Ho2TeO6
_chemical_formula_sum   'Ho8 Te4 O24'
_cell_volume   481.65672147
_cell_formula_units_Z   4
loop_
 _symmetry_equiv_pos_site_id
 _symmetry_equiv_pos_as_xyz
  1  'x, y, z'
loop_
 _atom_site_type_symbol
 _atom_site_label
 _atom_site_symmetry_multiplicity
 _atom_site_fract_x
 _atom_site_fract_y
 _atom_site_fract_z
 _atom_site_occupancy
  Ho  Ho0  1  0.02538500  0.39688000  0.03930900  1
  Ho  Ho1  1  0.03539200  0.28208600  0.63488600  1
  Ho  Ho2  1  0.46460800  0.71791400  0.13488600  1
  Ho  Ho3  1  0.47461500  0.60312000  0.53930900  1
  Ho  Ho4  1  0.52538500  0.10312000  0.96069100  1
  Ho  Ho5  1  0.53539200  0.21791400  0.36511400  1
  Ho  Ho6  1  0.96460800  0.78208600  0.86511400  1
  Ho  Ho7  1  0.97461500  0.89688000  0.46069100  1
  Te  Te8  1  0.04094500  0.00542400  0.14674100  1
  Te  Te9  1  0.45905500  0.99457600  0.64674100  1
  Te  Te10  1  0.54094500  0.49457600  0.85325900  1
  Te  Te11  1  0.95905500  0.50542400  0.35325900  1
  O  O12  1  0.08085100  0.65556200  0.47520500  1
  O  O13  1  0.17618600  0.54927000  0.20396500  1
  O  O14  1  0.18709500  0.85851100  0.26286700  1
  O  O15  1  0.18077100  0.85734300  0.67893200  1
  O  O16  1  0.22732000  0.38449300  0.43609700  1
  O  O17  1  0.24776600  0.08675100  0.50583300  1
  O  O18  1  0.25223400  0.91324900  0.00583300  1
  O  O19  1  0.27268000  0.61550700  0.93609700  1
  O  O20  1  0.31922900  0.14265700  0.17893200  1
  O  O21  1  0.31290500  0.14148900  0.76286700  1
  O  O22  1  0.32381400  0.45073000  0.70396500  1
  O  O23  1  0.41914900  0.34443800  0.97520500  1
  O  O24  1  0.58085100  0.84443800  0.52479500  1
  O  O25  1  0.67618600  0.95073000  0.79603500  1
  O  O26  1  0.68709500  0.64148900  0.73713300  1
  O  O27  1  0.68077100  0.64265700  0.32106800  1
  O  O28  1  0.72732000  0.11550700  0.56390300  1
  O  O29  1  0.74776600  0.41324900  0.49416700  1
  O  O30  1  0.75223400  0.58675100  0.99416700  1
  O  O31  1  0.77268000  0.88449300  0.06390300  1
  O  O32  1  0.81922900  0.35734300  0.82106800  1
  O  O33  1  0.81290500  0.35851100  0.23713300  1
  O  O34  1  0.82381400  0.04927000  0.29603500  1
  O  O35  1  0.91914900  0.15556200  0.02479500  1
