# generated using pymatgen
data_LaZnPO
_symmetry_space_group_name_H-M   'P 1'
_cell_length_a   4.04560200
_cell_length_b   4.04560200
_cell_length_c   8.95877500
_cell_angle_alpha   90.00000000
_cell_angle_beta   90.00000000
_cell_angle_gamma   90.00000000
_symmetry_Int_Tables_number   1
_chemical_formula_structural   LaZnPO
_chemical_formula_sum   'La2 Zn2 P2 O2'
_cell_volume   146.62733461
_cell_formula_units_Z   2
loop_
 _symmetry_equiv_pos_site_id
 _symmetry_equiv_pos_as_xyz
  1  'x, y, z'
loop_
 _atom_site_type_symbol
 _atom_site_label
 _atom_site_symmetry_multiplicity
 _atom_site_fract_x
 _atom_site_fract_y
 _atom_site_fract_z
 _atom_site_occupancy
  La  La0  1  0.00000000  0.50000000  0.86123100  1
  La  La1  1  0.50000000  0.00000000  0.13876900  1
  Zn  Zn2  1  0.00000000  0.00000000  0.50000000  1
  Zn  Zn3  1  0.50000000  0.50000000  0.50000000  1
  P  P4  1  0.50000000  0.00000000  0.66392600  1
  P  P5  1  0.00000000  0.50000000  0.33607400  1
  O  O6  1  0.50000000  0.50000000  0.00000000  1
  O  O7  1  0.00000000  0.00000000  0.00000000  1
