# generated using pymatgen
data_KCa4B22H18ClO46
_symmetry_space_group_name_H-M   'P 1'
_cell_length_a   6.63191800
_cell_length_b   6.64193129
_cell_length_c   24.25099371
_cell_angle_alpha   95.45227236
_cell_angle_beta   90.70687949
_cell_angle_gamma   119.39559387
_symmetry_Int_Tables_number   1
_chemical_formula_structural   KCa4B22H18ClO46
_chemical_formula_sum   'K1 Ca4 B22 H18 Cl1 O46'
_cell_volume   924.33832145
_cell_formula_units_Z   1
loop_
 _symmetry_equiv_pos_site_id
 _symmetry_equiv_pos_as_xyz
  1  'x, y, z'
loop_
 _atom_site_type_symbol
 _atom_site_label
 _atom_site_symmetry_multiplicity
 _atom_site_fract_x
 _atom_site_fract_y
 _atom_site_fract_z
 _atom_site_occupancy
  K  K0  1  0.97746100  0.96016100  0.97597700  1
  Ca  Ca1  1  0.19101300  0.34787800  0.83567200  1
  Ca  Ca2  1  0.27879700  0.60911800  0.41984200  1
  Ca  Ca3  1  0.50275900  0.97769000  0.09373500  1
  Ca  Ca4  1  0.80637000  0.65657300  0.51058000  1
  B  B5  1  0.96005600  0.91905700  0.38811300  1
  B  B6  1  0.01106800  0.89420000  0.11027800  1
  B  B7  1  0.69731900  0.09736400  0.40026500  1
  B  B8  1  0.60730300  0.57174900  0.08330600  1
  B  B9  1  0.23351600  0.16018600  0.52861400  1
  B  B10  1  0.59950100  0.84268600  0.83922600  1
  B  B11  1  0.76122800  0.44153900  0.73461000  1
  B  B12  1  0.29078100  0.94026400  0.84574900  1
  B  B13  1  0.77562900  0.49293600  0.38722500  1
  B  B14  1  0.83948200  0.66629400  0.29909600  1
  B  B15  1  0.42822000  0.82782000  0.63058000  1
  B  B16  1  0.92005900  0.24939300  0.52013700  1
  B  B17  1  0.12448000  0.18011500  0.19571300  1
  B  B18  1  0.50268400  0.99431500  0.54177100  1
  B  B19  1  0.86281300  0.66562900  0.82872100  1
  B  B20  1  0.38954100  0.19543100  0.40935200  1
  B  B21  1  0.16455900  0.25235000  0.71377100  1
  B  B22  1  0.68053200  0.23559600  0.81969900  1
  B  B23  1  0.18894000  0.31565900  0.10240100  1
  B  B24  1  0.54496400  0.01600500  0.21709100  1
  B  B25  1  0.31983100  0.56882200  0.54249600  1
  B  B26  1  0.92010700  0.48028400  0.08909500  1
  H  H27  1  0.99799200  0.91341700  0.74347700  1
  H  H28  1  0.37525200  0.64879200  0.18805800  1
  H  H29  1  0.69773700  0.36471900  0.20878100  1
  H  H30  1  0.52103500  0.99441500  0.71132000  1
  H  H31  1  0.06990700  0.10120300  0.27591500  1
  H  H32  1  0.68099900  0.28408600  0.65441600  1
  H  H33  1  0.32360100  0.60944500  0.71974800  1
  H  H34  1  0.19773900  0.34503900  0.63751900  1
  H  H35  1  0.90253200  0.75449200  0.21859800  1
  H  H36  1  0.60097200  0.18881500  0.29238800  1
  H  H37  1  0.22998500  0.47756000  0.29508800  1
  H  H38  1  0.36041600  0.75557600  0.30843200  1
  H  H39  1  0.43198500  0.42207200  0.94010400  1
  H  H40  1  0.30440700  0.56347500  0.95071400  1
  H  H41  1  0.77417200  0.42375200  0.92174900  1
  H  H42  1  0.66464600  0.31713700  0.97624600  1
  H  H43  1  0.81596600  0.63881300  0.63483700  1
  H  H44  1  0.95193700  0.90695200  0.62344900  1
  Cl  Cl45  1  0.46920300  0.93289800  0.97928900  1
  O  O46  1  0.85917400  0.45928700  0.84641800  1
  O  O47  1  0.17786300  0.09379600  0.08507000  1
  O  O48  1  0.96591200  0.30183100  0.08419100  1
  O  O49  1  0.95560800  0.72056900  0.41274300  1
  O  O50  1  0.08234700  0.47597400  0.51266900  1
  O  O51  1  0.39405200  0.39129300  0.53186000  1
  O  O52  1  0.85612300  0.32555400  0.39732500  1
  O  O53  1  0.09016500  0.08741400  0.74967900  1
  O  O54  1  0.16500500  0.14241400  0.40983700  1
  O  O55  1  0.45903000  0.02858800  0.40166900  1
  O  O56  1  0.68137100  0.40795800  0.08328200  1
  O  O57  1  0.75571000  0.06688300  0.83199900  1
  O  O58  1  0.96094400  0.88719800  0.32659200  1
  O  O59  1  0.21874200  0.36405800  0.16492200  1
  O  O60  1  0.46913300  0.81598000  0.18192200  1
  O  O61  1  0.76811300  0.80513400  0.08699200  1
  O  O62  1  0.27941200  0.98287700  0.52593200  1
  O  O63  1  0.64856000  0.66963300  0.84461600  1
  O  O64  1  0.72473300  0.47445700  0.32760700  1
  O  O65  1  0.55603000  0.42922300  0.41720300  1
  O  O66  1  0.38015100  0.51092900  0.07899100  1
  O  O67  1  0.48492500  0.77226200  0.51721000  1
  O  O68  1  0.99429400  0.08975800  0.52725200  1
  O  O69  1  0.36270200  0.77458100  0.84235700  1
  O  O70  1  0.07856800  0.71196800  0.09891000  1
  O  O71  1  0.63035800  0.20586400  0.18739800  1
  O  O72  1  0.74588800  0.92370800  0.40372400  1
  O  O73  1  0.02148400  0.95171300  0.17222100  1
  O  O74  1  0.43528500  0.84081400  0.68774700  1
  O  O75  1  0.44699800  0.16776400  0.84040300  1
  O  O76  1  0.06644200  0.88254100  0.85421800  1
  O  O77  1  0.86581700  0.65427300  0.76608700  1
  O  O78  1  0.66469800  0.23538200  0.75785900  1
  O  O79  1  0.30413400  0.60796900  0.60214700  1
  O  O80  1  0.13516800  0.23191300  0.25276200  1
  O  O81  1  0.75402000  0.43741500  0.67737700  1
  O  O82  1  0.69559300  0.19645300  0.52031600  1
  O  O83  1  0.26462700  0.47320100  0.74206800  1
  O  O84  1  0.27496700  0.60901900  0.32489000  1
  O  O85  1  0.14040500  0.20398900  0.65716800  1
  O  O86  1  0.82362300  0.62364100  0.24206600  1
  O  O87  1  0.53638700  0.02289100  0.60339100  1
  O  O88  1  0.27762700  0.40985700  0.93362500  1
  O  O89  1  0.72527400  0.46101500  0.95785100  1
  O  O90  1  0.53632900  0.02687500  0.27371500  1
  O  O91  1  0.85121200  0.74621300  0.60587200  1
