# generated using pymatgen
data_Li2W(OF2)2
_symmetry_space_group_name_H-M   'P 1'
_cell_length_a   4.75965800
_cell_length_b   5.10075500
_cell_length_c   17.41320300
_cell_angle_alpha   90.00000000
_cell_angle_beta   90.00000000
_cell_angle_gamma   90.00000000
_symmetry_Int_Tables_number   1
_chemical_formula_structural   Li2W(OF2)2
_chemical_formula_sum   'Li8 W4 O8 F16'
_cell_volume   422.75511899
_cell_formula_units_Z   4
loop_
 _symmetry_equiv_pos_site_id
 _symmetry_equiv_pos_as_xyz
  1  'x, y, z'
loop_
 _atom_site_type_symbol
 _atom_site_label
 _atom_site_symmetry_multiplicity
 _atom_site_fract_x
 _atom_site_fract_y
 _atom_site_fract_z
 _atom_site_occupancy
  Li  Li0  1  0.00000000  0.75000000  0.23229500  1
  Li  Li1  1  0.00000000  0.25000000  0.44974100  1
  Li  Li2  1  0.00000000  0.75000000  0.55025900  1
  Li  Li3  1  0.00000000  0.25000000  0.76770500  1
  Li  Li4  1  0.50000000  0.25000000  0.26770500  1
  Li  Li5  1  0.50000000  0.25000000  0.94974100  1
  Li  Li6  1  0.50000000  0.75000000  0.05025900  1
  Li  Li7  1  0.50000000  0.75000000  0.73229500  1
  W  W8  1  0.00000000  0.25000000  0.10748200  1
  W  W9  1  0.00000000  0.75000000  0.89251800  1
  W  W10  1  0.50000000  0.75000000  0.39251800  1
  W  W11  1  0.50000000  0.25000000  0.60748200  1
  O  O12  1  0.24689000  0.10283600  0.04399600  1
  O  O13  1  0.24689000  0.60283600  0.95600400  1
  O  O14  1  0.25311000  0.60283600  0.45600400  1
  O  O15  1  0.25311000  0.10283600  0.54399600  1
  O  O16  1  0.74689000  0.39716400  0.54399600  1
  O  O17  1  0.74689000  0.89716400  0.45600400  1
  O  O18  1  0.75311000  0.39716400  0.04399600  1
  O  O19  1  0.75311000  0.89716400  0.95600400  1
  F  F20  1  0.21199500  0.09327400  0.20132500  1
  F  F21  1  0.21199500  0.59327400  0.79867500  1
  F  F22  1  0.22618000  0.06435500  0.87326100  1
  F  F23  1  0.22618000  0.56435500  0.12673900  1
  F  F24  1  0.27382000  0.56435500  0.62673900  1
  F  F25  1  0.27382000  0.06435500  0.37326100  1
  F  F26  1  0.28800500  0.09327400  0.70132500  1
  F  F27  1  0.28800500  0.59327400  0.29867500  1
  F  F28  1  0.71199500  0.90672600  0.29867500  1
  F  F29  1  0.71199500  0.40672600  0.70132500  1
  F  F30  1  0.72618000  0.43564500  0.37326100  1
  F  F31  1  0.72618000  0.93564500  0.62673900  1
  F  F32  1  0.77382000  0.93564500  0.12673900  1
  F  F33  1  0.77382000  0.43564500  0.87326100  1
  F  F34  1  0.78800500  0.90672600  0.79867500  1
  F  F35  1  0.78800500  0.40672600  0.20132500  1
