# generated using pymatgen
data_InBO3
_symmetry_space_group_name_H-M   'P 1'
_cell_length_a   5.95793680
_cell_length_b   5.95793680
_cell_length_c   5.95793704
_cell_angle_alpha   48.52793175
_cell_angle_beta   48.52793175
_cell_angle_gamma   48.52793178
_symmetry_Int_Tables_number   1
_chemical_formula_structural   InBO3
_chemical_formula_sum   'In2 B2 O6'
_cell_volume   108.90366431
_cell_formula_units_Z   2
loop_
 _symmetry_equiv_pos_site_id
 _symmetry_equiv_pos_as_xyz
  1  'x, y, z'
loop_
 _atom_site_type_symbol
 _atom_site_label
 _atom_site_symmetry_multiplicity
 _atom_site_fract_x
 _atom_site_fract_y
 _atom_site_fract_z
 _atom_site_occupancy
  In  In0  1  0.00000000  0.00000000  0.00000000  1
  In  In1  1  0.50000000  0.50000000  0.50000000  1
  B  B2  1  0.25000000  0.25000000  0.25000000  1
  B  B3  1  0.75000000  0.75000000  0.75000000  1
  O  O4  1  0.03315900  0.46684100  0.75000000  1
  O  O5  1  0.46684100  0.75000000  0.03315900  1
  O  O6  1  0.75000000  0.03315900  0.46684100  1
  O  O7  1  0.96684100  0.53315900  0.25000000  1
  O  O8  1  0.53315900  0.25000000  0.96684100  1
  O  O9  1  0.25000000  0.96684100  0.53315900  1
