# generated using pymatgen
data_CaB3H3O7
_symmetry_space_group_name_H-M   'P 1'
_cell_length_a   8.19654100
_cell_length_b   7.29772800
_cell_length_c   8.47569852
_cell_angle_alpha   82.01032313
_cell_angle_beta   90.00000000
_cell_angle_gamma   90.00000000
_symmetry_Int_Tables_number   1
_chemical_formula_structural   CaB3H3O7
_chemical_formula_sum   'Ca4 B12 H12 O28'
_cell_volume   502.06223356
_cell_formula_units_Z   4
loop_
 _symmetry_equiv_pos_site_id
 _symmetry_equiv_pos_as_xyz
  1  'x, y, z'
loop_
 _atom_site_type_symbol
 _atom_site_label
 _atom_site_symmetry_multiplicity
 _atom_site_fract_x
 _atom_site_fract_y
 _atom_site_fract_z
 _atom_site_occupancy
  Ca  Ca0  1  0.29370700  0.07405700  0.61198900  1
  Ca  Ca1  1  0.79370700  0.92594300  0.88801100  1
  Ca  Ca2  1  0.70629300  0.92594300  0.38801100  1
  Ca  Ca3  1  0.20629300  0.07405700  0.11198900  1
  B  B4  1  0.46091800  0.31195800  0.83278200  1
  B  B5  1  0.96091800  0.68804200  0.66721800  1
  B  B6  1  0.53908200  0.68804200  0.16721800  1
  B  B7  1  0.03908200  0.31195800  0.33278200  1
  B  B8  1  0.35370800  0.77976400  0.38558100  1
  B  B9  1  0.85370800  0.22023600  0.11441900  1
  B  B10  1  0.64629200  0.22023600  0.61441900  1
  B  B11  1  0.14629200  0.77976400  0.88558100  1
  B  B12  1  0.30833100  0.48653300  0.28217500  1
  B  B13  1  0.80833100  0.51346700  0.21782500  1
  B  B14  1  0.69166900  0.51346700  0.71782500  1
  B  B15  1  0.19166900  0.48653300  0.78217500  1
  H  H16  1  0.44963000  0.35201800  0.06666000  1
  H  H17  1  0.94963000  0.64798200  0.43334000  1
  H  H18  1  0.55037000  0.64798200  0.93334000  1
  H  H19  1  0.05037000  0.35201800  0.56666000  1
  H  H20  1  0.45722600  0.68744600  0.61124600  1
  H  H21  1  0.95722600  0.31255400  0.88875400  1
  H  H22  1  0.54277400  0.31255400  0.38875400  1
  H  H23  1  0.04277400  0.68744600  0.11124600  1
  H  H24  1  0.38351300  0.86634600  0.91930900  1
  H  H25  1  0.88351300  0.13365400  0.58069100  1
  H  H26  1  0.61648700  0.13365400  0.08069100  1
  H  H27  1  0.11648700  0.86634600  0.41930900  1
  O  O28  1  0.27644800  0.92371100  0.88025400  1
  O  O29  1  0.77644800  0.07628900  0.61974600  1
  O  O30  1  0.72355200  0.07628900  0.11974600  1
  O  O31  1  0.22355200  0.92371100  0.38025400  1
  O  O32  1  0.45748700  0.83106500  0.24542000  1
  O  O33  1  0.95748700  0.16893500  0.25458000  1
  O  O34  1  0.54251300  0.16893500  0.75458000  1
  O  O35  1  0.04251300  0.83106500  0.74542000  1
  O  O36  1  0.29375900  0.34202000  0.76023500  1
  O  O37  1  0.79375900  0.65798000  0.73976500  1
  O  O38  1  0.70624100  0.65798000  0.23976500  1
  O  O39  1  0.20624100  0.34202000  0.26023500  1
  O  O40  1  0.44474400  0.24418500  0.00524700  1
  O  O41  1  0.94474400  0.75581500  0.49475300  1
  O  O42  1  0.55525600  0.75581500  0.99475300  1
  O  O43  1  0.05525600  0.24418500  0.50524700  1
  O  O44  1  0.45529700  0.79943200  0.53390800  1
  O  O45  1  0.95529700  0.20056800  0.96609200  1
  O  O46  1  0.54470300  0.20056800  0.46609200  1
  O  O47  1  0.04470300  0.79943200  0.03390800  1
  O  O48  1  0.27902200  0.59907500  0.39452800  1
  O  O49  1  0.77902200  0.40092500  0.10547200  1
  O  O50  1  0.72097800  0.40092500  0.60547200  1
  O  O51  1  0.22097800  0.59907500  0.89452800  1
  O  O52  1  0.44827300  0.50934400  0.19013300  1
  O  O53  1  0.94827300  0.49065600  0.30986700  1
  O  O54  1  0.55172700  0.49065600  0.80986700  1
  O  O55  1  0.05172700  0.50934400  0.69013300  1
