# generated using pymatgen
data_K3ErSi3(HO5)2
_symmetry_space_group_name_H-M   'P 1'
_cell_length_a   5.93454700
_cell_length_b   13.24106400
_cell_length_c   13.74903600
_cell_angle_alpha   90.00000000
_cell_angle_beta   90.00000000
_cell_angle_gamma   90.00000000
_symmetry_Int_Tables_number   1
_chemical_formula_structural   K3ErSi3(HO5)2
_chemical_formula_sum   'K12 Er4 Si12 H8 O40'
_cell_volume   1080.39535293
_cell_formula_units_Z   4
loop_
 _symmetry_equiv_pos_site_id
 _symmetry_equiv_pos_as_xyz
  1  'x, y, z'
loop_
 _atom_site_type_symbol
 _atom_site_label
 _atom_site_symmetry_multiplicity
 _atom_site_fract_x
 _atom_site_fract_y
 _atom_site_fract_z
 _atom_site_occupancy
  K  K0  1  0.41878900  0.12552800  0.75000000  1
  K  K1  1  0.08917200  0.13848800  0.51380400  1
  K  K2  1  0.08917200  0.13848800  0.98619600  1
  K  K3  1  0.58917200  0.36151200  0.48619600  1
  K  K4  1  0.58917200  0.36151200  0.01380400  1
  K  K5  1  0.91878900  0.37447200  0.25000000  1
  K  K6  1  0.08121100  0.62552800  0.75000000  1
  K  K7  1  0.41082800  0.63848800  0.98619600  1
  K  K8  1  0.41082800  0.63848800  0.51380400  1
  K  K9  1  0.91082800  0.86151200  0.01380400  1
  K  K10  1  0.91082800  0.86151200  0.48619600  1
  K  K11  1  0.58121100  0.87447200  0.25000000  1
  Er  Er12  1  0.09094100  0.04193200  0.25000000  1
  Er  Er13  1  0.59094200  0.45806800  0.75000000  1
  Er  Er14  1  0.40905800  0.54193200  0.25000000  1
  Er  Er15  1  0.90905800  0.95806800  0.75000000  1
  Si  Si16  1  0.59172100  0.09935500  0.10533700  1
  Si  Si17  1  0.59172100  0.09935500  0.39466300  1
  Si  Si18  1  0.91690400  0.24565800  0.75000000  1
  Si  Si19  1  0.41690400  0.25434200  0.25000000  1
  Si  Si20  1  0.09172100  0.40064500  0.60533700  1
  Si  Si21  1  0.09172100  0.40064500  0.89466300  1
  Si  Si22  1  0.90827900  0.59935500  0.10533700  1
  Si  Si23  1  0.90827900  0.59935500  0.39466300  1
  Si  Si24  1  0.58309600  0.74565800  0.75000000  1
  Si  Si25  1  0.08309600  0.75434200  0.25000000  1
  Si  Si26  1  0.40827900  0.90064500  0.89466300  1
  Si  Si27  1  0.40827900  0.90064500  0.60533700  1
  H  H28  1  0.61339400  0.06964000  0.55938100  1
  H  H29  1  0.61339400  0.06964000  0.94061900  1
  H  H30  1  0.11339400  0.43036000  0.05938100  1
  H  H31  1  0.11339400  0.43036000  0.44061900  1
  H  H32  1  0.88660600  0.56964000  0.94061900  1
  H  H33  1  0.88660600  0.56964000  0.55938100  1
  H  H34  1  0.38660600  0.93036000  0.05938100  1
  H  H35  1  0.38660600  0.93036000  0.44061900  1
  O  O36  1  0.37160800  0.03037900  0.13197300  1
  O  O37  1  0.37160800  0.03037900  0.36802700  1
  O  O38  1  0.82996400  0.04658800  0.13259600  1
  O  O39  1  0.82996400  0.04658800  0.36740400  1
  O  O40  1  0.92871200  0.12419300  0.75000000  1
  O  O41  1  0.59129900  0.12930300  0.51398300  1
  O  O42  1  0.59129900  0.12930300  0.98601700  1
  O  O43  1  0.16822000  0.20545800  0.25000000  1
  O  O44  1  0.56630100  0.21441700  0.15346400  1
  O  O45  1  0.56630100  0.21441700  0.34653600  1
  O  O46  1  0.06630100  0.28558300  0.65346400  1
  O  O47  1  0.06630100  0.28558300  0.84653600  1
  O  O48  1  0.66822000  0.29454200  0.75000000  1
  O  O49  1  0.09129900  0.37069700  0.48601700  1
  O  O50  1  0.09129900  0.37069700  0.01398300  1
  O  O51  1  0.42871200  0.37580700  0.25000000  1
  O  O52  1  0.32996400  0.45341200  0.63259600  1
  O  O53  1  0.32996400  0.45341200  0.86740400  1
  O  O54  1  0.87160800  0.46962100  0.63197300  1
  O  O55  1  0.87160800  0.46962100  0.86802700  1
  O  O56  1  0.12839200  0.53037900  0.13197300  1
  O  O57  1  0.12839200  0.53037900  0.36802700  1
  O  O58  1  0.67003600  0.54658800  0.13259600  1
  O  O59  1  0.67003600  0.54658800  0.36740400  1
  O  O60  1  0.57128800  0.62419300  0.75000000  1
  O  O61  1  0.90870100  0.62930300  0.98601700  1
  O  O62  1  0.90870100  0.62930300  0.51398300  1
  O  O63  1  0.33178000  0.70545800  0.25000000  1
  O  O64  1  0.93369900  0.71441700  0.15346400  1
  O  O65  1  0.93369900  0.71441700  0.34653600  1
  O  O66  1  0.43369900  0.78558300  0.65346400  1
  O  O67  1  0.43369900  0.78558300  0.84653600  1
  O  O68  1  0.83178000  0.79454200  0.75000000  1
  O  O69  1  0.40870100  0.87069700  0.01398300  1
  O  O70  1  0.40870100  0.87069700  0.48601700  1
  O  O71  1  0.07128800  0.87580700  0.25000000  1
  O  O72  1  0.17003600  0.95341200  0.63259600  1
  O  O73  1  0.17003600  0.95341200  0.86740400  1
  O  O74  1  0.62839200  0.96962100  0.63197300  1
  O  O75  1  0.62839200  0.96962100  0.86802700  1
