# generated using pymatgen
data_MnFe2Sb2(PO4)6
_symmetry_space_group_name_H-M   'P 1'
_cell_length_a   8.82031269
_cell_length_b   8.82031269
_cell_length_c   8.82031263
_cell_angle_alpha   57.99494472
_cell_angle_beta   57.99494472
_cell_angle_gamma   57.99494304
_symmetry_Int_Tables_number   1
_chemical_formula_structural   MnFe2Sb2(PO4)6
_chemical_formula_sum   'Mn1 Fe2 Sb2 P6 O24'
_cell_volume   462.90046954
_cell_formula_units_Z   1
loop_
 _symmetry_equiv_pos_site_id
 _symmetry_equiv_pos_as_xyz
  1  'x, y, z'
loop_
 _atom_site_type_symbol
 _atom_site_label
 _atom_site_symmetry_multiplicity
 _atom_site_fract_x
 _atom_site_fract_y
 _atom_site_fract_z
 _atom_site_occupancy
  Mn  Mn0  1  0.00000000  0.00000000  0.00000000  1
  Fe  Fe1  1  0.85331900  0.85331900  0.85331900  1
  Fe  Fe2  1  0.14668100  0.14668100  0.14668100  1
  Sb  Sb3  1  0.35575300  0.35575300  0.35575300  1
  Sb  Sb4  1  0.64424700  0.64424700  0.64424700  1
  P  P5  1  0.03719600  0.45411900  0.75606700  1
  P  P6  1  0.45411900  0.75606700  0.03719600  1
  P  P7  1  0.75606700  0.03719600  0.45411900  1
  P  P8  1  0.24393300  0.96280400  0.54588100  1
  P  P9  1  0.54588100  0.24393300  0.96280400  1
  P  P10  1  0.96280400  0.54588100  0.24393300  1
  O  O11  1  0.47534600  0.75476800  0.84949900  1
  O  O12  1  0.52665100  0.44518800  0.80353400  1
  O  O13  1  0.80353400  0.52665100  0.44518800  1
  O  O14  1  0.80776500  0.00487500  0.61047600  1
  O  O15  1  0.44518800  0.80353400  0.52665100  1
  O  O16  1  0.75476800  0.84949900  0.47534600  1
  O  O17  1  0.00487500  0.61047600  0.80776500  1
  O  O18  1  0.84949900  0.47534600  0.75476800  1
  O  O19  1  0.90707900  0.74969800  0.10177000  1
  O  O20  1  0.10177000  0.90707900  0.74969800  1
  O  O21  1  0.74969800  0.10177000  0.90707900  1
  O  O22  1  0.38952400  0.19223500  0.99512500  1
  O  O23  1  0.61047600  0.80776500  0.00487500  1
  O  O24  1  0.25030200  0.89823000  0.09292100  1
  O  O25  1  0.89823000  0.09292100  0.25030200  1
  O  O26  1  0.09292100  0.25030200  0.89823000  1
  O  O27  1  0.15050100  0.52465400  0.24523200  1
  O  O28  1  0.99512500  0.38952400  0.19223500  1
  O  O29  1  0.24523200  0.15050100  0.52465400  1
  O  O30  1  0.55481200  0.19646600  0.47334900  1
  O  O31  1  0.19223500  0.99512500  0.38952400  1
  O  O32  1  0.19646600  0.47334900  0.55481200  1
  O  O33  1  0.47334900  0.55481200  0.19646600  1
  O  O34  1  0.52465400  0.24523200  0.15050100  1
