# generated using pymatgen
data_K2NaCa2TiSi7HO20
_symmetry_space_group_name_H-M   'P 1'
_cell_length_a   7.14403000
_cell_length_b   10.53522838
_cell_length_c   12.33778924
_cell_angle_alpha   92.43919102
_cell_angle_beta   90.66042733
_cell_angle_gamma   99.04187324
_symmetry_Int_Tables_number   1
_chemical_formula_structural   K2NaCa2TiSi7HO20
_chemical_formula_sum   'K4 Na2 Ca4 Ti2 Si14 H2 O40'
_cell_volume   916.06528080
_cell_formula_units_Z   2
loop_
 _symmetry_equiv_pos_site_id
 _symmetry_equiv_pos_as_xyz
  1  'x, y, z'
loop_
 _atom_site_type_symbol
 _atom_site_label
 _atom_site_symmetry_multiplicity
 _atom_site_fract_x
 _atom_site_fract_y
 _atom_site_fract_z
 _atom_site_occupancy
  K  K0  1  0.22146900  0.34009700  0.09513500  1
  K  K1  1  0.77853100  0.65990300  0.90486500  1
  K  K2  1  0.72867100  0.45045400  0.35121100  1
  K  K3  1  0.27132900  0.54954600  0.64878900  1
  Na  Na4  1  0.61102300  0.97768700  0.10921400  1
  Na  Na5  1  0.38897700  0.02231300  0.89078600  1
  Ca  Ca6  1  0.08976300  0.88031900  0.40701600  1
  Ca  Ca7  1  0.91023700  0.11968100  0.59298400  1
  Ca  Ca8  1  0.59020900  0.87416800  0.41999000  1
  Ca  Ca9  1  0.40979100  0.12583200  0.58001000  1
  Ti  Ti10  1  0.10229900  0.98718500  0.10012700  1
  Ti  Ti11  1  0.89770100  0.01281500  0.89987300  1
  Si  Si12  1  0.12623200  0.86930400  0.69246500  1
  Si  Si13  1  0.87376800  0.13069600  0.30753500  1
  Si  Si14  1  0.57498100  0.87129200  0.70125900  1
  Si  Si15  1  0.42501900  0.12870800  0.29874100  1
  Si  Si16  1  0.80404600  0.68514500  0.58612900  1
  Si  Si17  1  0.19595400  0.31485500  0.41387100  1
  Si  Si18  1  0.00372800  0.31616300  0.81703500  1
  Si  Si19  1  0.99627200  0.68383700  0.18296500  1
  Si  Si20  1  0.43183800  0.31000600  0.81210300  1
  Si  Si21  1  0.56816200  0.68999400  0.18789700  1
  Si  Si22  1  0.73403100  0.39767000  0.64962200  1
  Si  Si23  1  0.26596900  0.60233000  0.35037800  1
  Si  Si24  1  0.71985700  0.27553800  0.98868100  1
  Si  Si25  1  0.28014300  0.72446200  0.01131900  1
  H  H26  1  0.30003600  0.74102400  0.82981200  1
  H  H27  1  0.69996400  0.25897600  0.17018800  1
  O  O28  1  0.00348500  0.72458100  0.65823100  1
  O  O29  1  0.99651500  0.27541900  0.34176900  1
  O  O30  1  0.05104500  0.92098700  0.80658100  1
  O  O31  1  0.94895500  0.07901300  0.19341900  1
  O  O32  1  0.12822900  0.96518700  0.59366000  1
  O  O33  1  0.87177100  0.03481300  0.40634000  1
  O  O34  1  0.34105300  0.83371800  0.71969700  1
  O  O35  1  0.65894700  0.16628200  0.28030300  1
  O  O36  1  0.66598100  0.91805300  0.81945200  1
  O  O37  1  0.33401900  0.08194700  0.18054800  1
  O  O38  1  0.61810200  0.96947900  0.60402800  1
  O  O39  1  0.38189800  0.03052100  0.39597200  1
  O  O40  1  0.63206200  0.72815500  0.66231300  1
  O  O41  1  0.36793800  0.27184500  0.33768700  1
  O  O42  1  0.81452000  0.74420600  0.46854700  1
  O  O43  1  0.18548000  0.25579400  0.53145300  1
  O  O44  1  0.76153500  0.52627000  0.57563900  1
  O  O45  1  0.23846500  0.47373000  0.42436100  1
  O  O46  1  0.93188200  0.40803800  0.72361200  1
  O  O47  1  0.06811800  0.59196200  0.27638800  1
  O  O48  1  0.91119400  0.35639000  0.93369800  1
  O  O49  1  0.08880600  0.64361000  0.06630200  1
  O  O50  1  0.94202000  0.16580600  0.78436600  1
  O  O51  1  0.05798000  0.83419400  0.21563400  1
  O  O52  1  0.23213400  0.36814900  0.82913200  1
  O  O53  1  0.76786600  0.63185100  0.17086800  1
  O  O54  1  0.40905700  0.16827900  0.76036500  1
  O  O55  1  0.59094300  0.83172100  0.23963500  1
  O  O56  1  0.53292900  0.32708300  0.93504100  1
  O  O57  1  0.46707100  0.67291700  0.06495900  1
  O  O58  1  0.56030800  0.41689900  0.73458500  1
  O  O59  1  0.43969200  0.58310100  0.26541500  1
  O  O60  1  0.69639400  0.26909900  0.57365700  1
  O  O61  1  0.30360600  0.73090100  0.42634300  1
  O  O62  1  0.72742500  0.32669000  0.11677200  1
  O  O63  1  0.27257500  0.67331000  0.88322800  1
  O  O64  1  0.71175400  0.12184700  0.97138500  1
  O  O65  1  0.28824600  0.87815300  0.02861500  1
  O  O66  1  0.11799000  0.09795200  0.98648800  1
  O  O67  1  0.88201000  0.90204800  0.01351200  1
