# generated using pymatgen
data_Sr4Ta2O9
_symmetry_space_group_name_H-M   'P 1'
_cell_length_a   5.94943200
_cell_length_b   5.95442236
_cell_length_c   15.84131328
_cell_angle_alpha   89.94577924
_cell_angle_beta   89.96529263
_cell_angle_gamma   60.04080426
_symmetry_Int_Tables_number   1
_chemical_formula_structural   Sr4Ta2O9
_chemical_formula_sum   'Sr8 Ta4 O18'
_cell_volume   486.20025172
_cell_formula_units_Z   2
loop_
 _symmetry_equiv_pos_site_id
 _symmetry_equiv_pos_as_xyz
  1  'x, y, z'
loop_
 _atom_site_type_symbol
 _atom_site_label
 _atom_site_symmetry_multiplicity
 _atom_site_fract_x
 _atom_site_fract_y
 _atom_site_fract_z
 _atom_site_occupancy
  Sr  Sr0  1  0.99923800  0.00207000  0.25562500  1
  Sr  Sr1  1  0.00000000  0.00000000  0.50000000  1
  Sr  Sr2  1  0.00000000  0.00000000  0.00000000  1
  Sr  Sr3  1  0.66625500  0.66909500  0.35611000  1
  Sr  Sr4  1  0.66737200  0.66356900  0.13202100  1
  Sr  Sr5  1  0.33262800  0.33643100  0.86797900  1
  Sr  Sr6  1  0.33374500  0.33090500  0.64389000  1
  Sr  Sr7  1  0.00076200  0.99793000  0.74437500  1
  Ta  Ta8  1  0.66481800  0.66952500  0.84985900  1
  Ta  Ta9  1  0.66727100  0.66490500  0.65966200  1
  Ta  Ta10  1  0.33272900  0.33509500  0.34033800  1
  Ta  Ta11  1  0.33518200  0.33047500  0.15014100  1
  O  O12  1  0.59488800  0.95920100  0.75286000  1
  O  O13  1  0.91906700  0.73042300  0.60687700  1
  O  O14  1  0.92142800  0.72656400  0.90103700  1
  O  O15  1  0.34873200  0.91608400  0.60723300  1
  O  O16  1  0.35485100  0.92692500  0.90229000  1
  O  O17  1  0.95774900  0.44480100  0.75392100  1
  O  O18  1  0.44597700  0.59454100  0.75430200  1
  O  O19  1  0.28315200  0.63543600  0.09426000  1
  O  O20  1  0.26720800  0.65288100  0.39263100  1
  O  O21  1  0.73279200  0.34711900  0.60736900  1
  O  O22  1  0.71684800  0.36456400  0.90574000  1
  O  O23  1  0.55402300  0.40545900  0.24569800  1
  O  O24  1  0.04225100  0.55519900  0.24607900  1
  O  O25  1  0.64514900  0.07307500  0.09771000  1
  O  O26  1  0.65126800  0.08391600  0.39276700  1
  O  O27  1  0.07857200  0.27343600  0.09896300  1
  O  O28  1  0.08093300  0.26957700  0.39312300  1
  O  O29  1  0.40511200  0.04079900  0.24714000  1
