# generated using pymatgen
data_Na2ZrSe3
_symmetry_space_group_name_H-M   'P 1'
_cell_length_a   7.01540834
_cell_length_b   7.01540834
_cell_length_c   7.33795997
_cell_angle_alpha   80.70524019
_cell_angle_beta   80.70524019
_cell_angle_gamma   120.08182507
_symmetry_Int_Tables_number   1
_chemical_formula_structural   Na2ZrSe3
_chemical_formula_sum   'Na4 Zr2 Se6'
_cell_volume   295.70624407
_cell_formula_units_Z   2
loop_
 _symmetry_equiv_pos_site_id
 _symmetry_equiv_pos_as_xyz
  1  'x, y, z'
loop_
 _atom_site_type_symbol
 _atom_site_label
 _atom_site_symmetry_multiplicity
 _atom_site_fract_x
 _atom_site_fract_y
 _atom_site_fract_z
 _atom_site_occupancy
  Na  Na0  1  0.00000000  0.00000000  0.00000000  1
  Na  Na1  1  0.50000000  0.50000000  0.50000000  1
  Na  Na2  1  0.84236700  0.15763300  0.50000000  1
  Na  Na3  1  0.15763300  0.84236700  0.50000000  1
  Zr  Zr4  1  0.33122700  0.66877300  0.00000000  1
  Zr  Zr5  1  0.66877300  0.33122700  0.00000000  1
  Se  Se6  1  0.56283100  0.92423400  0.22419900  1
  Se  Se7  1  0.71404700  0.71404700  0.77720700  1
  Se  Se8  1  0.43716900  0.07576600  0.77580100  1
  Se  Se9  1  0.07576600  0.43716900  0.77580100  1
  Se  Se10  1  0.92423400  0.56283100  0.22419900  1
  Se  Se11  1  0.28595300  0.28595300  0.22279300  1
