# generated using pymatgen
data_Sc2SO2
_symmetry_space_group_name_H-M   'P 1'
_cell_length_a   3.54934480
_cell_length_b   3.54934480
_cell_length_c   12.61455500
_cell_angle_alpha   90.00000000
_cell_angle_beta   90.00000000
_cell_angle_gamma   120.00001500
_symmetry_Int_Tables_number   1
_chemical_formula_structural   Sc2SO2
_chemical_formula_sum   'Sc4 S2 O4'
_cell_volume   137.62549165
_cell_formula_units_Z   2
loop_
 _symmetry_equiv_pos_site_id
 _symmetry_equiv_pos_as_xyz
  1  'x, y, z'
loop_
 _atom_site_type_symbol
 _atom_site_label
 _atom_site_symmetry_multiplicity
 _atom_site_fract_x
 _atom_site_fract_y
 _atom_site_fract_z
 _atom_site_occupancy
  Sc  Sc0  1  0.33333300  0.66666700  0.60699200  1
  Sc  Sc1  1  0.66666700  0.33333300  0.10699200  1
  Sc  Sc2  1  0.66666700  0.33333300  0.39300800  1
  Sc  Sc3  1  0.33333300  0.66666700  0.89300800  1
  S  S4  1  0.00000000  0.00000000  0.25000000  1
  S  S5  1  0.00000000  0.00000000  0.75000000  1
  O  O6  1  0.66666700  0.33333300  0.56566000  1
  O  O7  1  0.33333300  0.66666700  0.06566000  1
  O  O8  1  0.33333300  0.66666700  0.43434000  1
  O  O9  1  0.66666700  0.33333300  0.93434000  1
