# generated using pymatgen
data_Na3NiAsCO7
_symmetry_space_group_name_H-M   'P 1'
_cell_length_a   5.25389631
_cell_length_b   9.07819885
_cell_length_c   13.70156301
_cell_angle_alpha   89.99798581
_cell_angle_beta   90.00235425
_cell_angle_gamma   88.91455329
_symmetry_Int_Tables_number   1
_chemical_formula_structural   Na3NiAsCO7
_chemical_formula_sum   'Na12 Ni4 As4 C4 O28'
_cell_volume   653.39132212
_cell_formula_units_Z   4
loop_
 _symmetry_equiv_pos_site_id
 _symmetry_equiv_pos_as_xyz
  1  'x, y, z'
loop_
 _atom_site_type_symbol
 _atom_site_label
 _atom_site_symmetry_multiplicity
 _atom_site_fract_x
 _atom_site_fract_y
 _atom_site_fract_z
 _atom_site_occupancy
  Na  Na0  1  0.76471000  0.07972700  0.12501500  1
  Na  Na1  1  0.76475300  0.07967300  0.62500100  1
  Na  Na2  1  0.23529300  0.92029400  0.37499100  1
  Na  Na3  1  0.23525300  0.92032200  0.87499700  1
  Na  Na4  1  0.25004000  0.26020800  0.00254500  1
  Na  Na5  1  0.25013100  0.26015000  0.50254000  1
  Na  Na6  1  0.25007100  0.26022100  0.24746800  1
  Na  Na7  1  0.25005800  0.26015700  0.74745900  1
  Na  Na8  1  0.74993100  0.73980000  0.25253500  1
  Na  Na9  1  0.74994200  0.73985000  0.75253800  1
  Na  Na10  1  0.74995600  0.73982800  0.49746300  1
  Na  Na11  1  0.74987000  0.73984800  0.99746200  1
  Ni  Ni12  1  0.78460500  0.34227900  0.87486200  1
  Ni  Ni13  1  0.21537300  0.65763700  0.62514000  1
  Ni  Ni14  1  0.78468500  0.34236200  0.37504500  1
  Ni  Ni15  1  0.21533100  0.65763100  0.12493000  1
  As  As16  1  0.70457900  0.41778900  0.12498600  1
  As  As17  1  0.70459600  0.41777800  0.62500100  1
  As  As18  1  0.29543300  0.58222200  0.37501400  1
  As  As19  1  0.29539400  0.58221000  0.87499300  1
  C  C20  1  0.72403200  0.06074600  0.37502100  1
  C  C21  1  0.72397000  0.06073500  0.87498600  1
  C  C22  1  0.27597100  0.93927000  0.12498300  1
  C  C23  1  0.27602700  0.93925000  0.62501500  1
  O  O24  1  0.29354300  0.08120100  0.12501100  1
  O  O25  1  0.29353600  0.08117700  0.62499900  1
  O  O26  1  0.70645800  0.91882200  0.37498800  1
  O  O27  1  0.70643700  0.91881600  0.87500900  1
  O  O28  1  0.94636800  0.12252100  0.37504100  1
  O  O29  1  0.94629000  0.12252600  0.87498000  1
  O  O30  1  0.05363600  0.87749700  0.12496300  1
  O  O31  1  0.05371700  0.87745100  0.62501600  1
  O  O32  1  0.52151500  0.14589300  0.37501600  1
  O  O33  1  0.52144100  0.14588000  0.87496500  1
  O  O34  1  0.47848600  0.85412800  0.12498900  1
  O  O35  1  0.47857200  0.85412300  0.62503200  1
  O  O36  1  0.37831400  0.44949400  0.12500100  1
  O  O37  1  0.37833900  0.44946000  0.62504300  1
  O  O38  1  0.62170000  0.55052200  0.37500500  1
  O  O39  1  0.62163600  0.55049600  0.87495600  1
  O  O40  1  0.15091700  0.41502900  0.37503000  1
  O  O41  1  0.15083800  0.41504200  0.87498800  1
  O  O42  1  0.84909400  0.58497800  0.12497400  1
  O  O43  1  0.84911600  0.58495800  0.62501300  1
  O  O44  1  0.78217300  0.30683800  0.02657300  1
  O  O45  1  0.78227700  0.30679200  0.52661300  1
  O  O46  1  0.78237900  0.30683700  0.22339000  1
  O  O47  1  0.78242100  0.30676400  0.72337800  1
  O  O48  1  0.21762800  0.69318200  0.27661500  1
  O  O49  1  0.21759000  0.69321500  0.77661000  1
  O  O50  1  0.21782100  0.69316000  0.47343100  1
  O  O51  1  0.21774900  0.69321100  0.97338400  1
