# generated using pymatgen
data_V2SnO7
_symmetry_space_group_name_H-M   'P 1'
_cell_length_a   8.94788800
_cell_length_b   8.94788800
_cell_length_c   8.94788800
_cell_angle_alpha   90.00000000
_cell_angle_beta   90.00000000
_cell_angle_gamma   90.00000000
_symmetry_Int_Tables_number   1
_chemical_formula_structural   V2SnO7
_chemical_formula_sum   'V8 Sn4 O28'
_cell_volume   716.40996532
_cell_formula_units_Z   4
loop_
 _symmetry_equiv_pos_site_id
 _symmetry_equiv_pos_as_xyz
  1  'x, y, z'
loop_
 _atom_site_type_symbol
 _atom_site_label
 _atom_site_symmetry_multiplicity
 _atom_site_fract_x
 _atom_site_fract_y
 _atom_site_fract_z
 _atom_site_occupancy
  V  V0  1  0.11537500  0.88462500  0.38462500  1
  V  V1  1  0.11537500  0.61537500  0.88462500  1
  V  V2  1  0.38462500  0.38462500  0.38462500  1
  V  V3  1  0.38462500  0.11537500  0.88462500  1
  V  V4  1  0.61537500  0.61537500  0.61537500  1
  V  V5  1  0.61537500  0.88462500  0.11537500  1
  V  V6  1  0.88462500  0.11537500  0.61537500  1
  V  V7  1  0.88462500  0.38462500  0.11537500  1
  Sn  Sn8  1  0.00000000  0.00000000  0.00000000  1
  Sn  Sn9  1  0.00000000  0.50000000  0.50000000  1
  Sn  Sn10  1  0.50000000  0.00000000  0.50000000  1
  Sn  Sn11  1  0.50000000  0.50000000  0.00000000  1
  O  O12  1  0.00000000  0.00000000  0.50000000  1
  O  O13  1  0.00000000  0.50000000  0.00000000  1
  O  O14  1  0.06051000  0.70221700  0.40810900  1
  O  O15  1  0.06051000  0.79778300  0.90810900  1
  O  O16  1  0.09189100  0.56051000  0.70221700  1
  O  O17  1  0.09189100  0.93949000  0.20221700  1
  O  O18  1  0.20221700  0.09189100  0.93949000  1
  O  O19  1  0.20221700  0.40810900  0.43949000  1
  O  O20  1  0.29778300  0.59189100  0.93949000  1
  O  O21  1  0.29778300  0.90810900  0.43949000  1
  O  O22  1  0.40810900  0.06051000  0.70221700  1
  O  O23  1  0.40810900  0.43949000  0.20221700  1
  O  O24  1  0.43949000  0.29778300  0.90810900  1
  O  O25  1  0.43949000  0.20221700  0.40810900  1
  O  O26  1  0.50000000  0.50000000  0.50000000  1
  O  O27  1  0.50000000  0.00000000  0.00000000  1
  O  O28  1  0.56051000  0.70221700  0.09189100  1
  O  O29  1  0.56051000  0.79778300  0.59189100  1
  O  O30  1  0.59189100  0.56051000  0.79778300  1
  O  O31  1  0.59189100  0.93949000  0.29778300  1
  O  O32  1  0.70221700  0.09189100  0.56051000  1
  O  O33  1  0.70221700  0.40810900  0.06051000  1
  O  O34  1  0.79778300  0.59189100  0.56051000  1
  O  O35  1  0.79778300  0.90810900  0.06051000  1
  O  O36  1  0.90810900  0.06051000  0.79778300  1
  O  O37  1  0.90810900  0.43949000  0.29778300  1
  O  O38  1  0.93949000  0.20221700  0.09189100  1
  O  O39  1  0.93949000  0.29778300  0.59189100  1
