# generated using pymatgen
data_GdH18(IO3)3
_symmetry_space_group_name_H-M   'P 1'
_cell_length_a   8.16604300
_cell_length_b   9.04909100
_cell_length_c   11.69050600
_cell_angle_alpha   90.00000000
_cell_angle_beta   90.00000000
_cell_angle_gamma   90.00000000
_symmetry_Int_Tables_number   1
_chemical_formula_structural   GdH18(IO3)3
_chemical_formula_sum   'Gd2 H36 I6 O18'
_cell_volume   863.87305308
_cell_formula_units_Z   2
loop_
 _symmetry_equiv_pos_site_id
 _symmetry_equiv_pos_as_xyz
  1  'x, y, z'
loop_
 _atom_site_type_symbol
 _atom_site_label
 _atom_site_symmetry_multiplicity
 _atom_site_fract_x
 _atom_site_fract_y
 _atom_site_fract_z
 _atom_site_occupancy
  Gd  Gd0  1  0.00000000  0.66061400  0.50000000  1
  Gd  Gd1  1  0.50000000  0.33938600  0.00000000  1
  H  H2  1  0.72187900  0.47719900  0.59630700  1
  H  H3  1  0.72187900  0.47719900  0.40369300  1
  H  H4  1  0.27812100  0.47719900  0.59630700  1
  H  H5  1  0.27812100  0.47719900  0.40369300  1
  H  H6  1  0.77812100  0.52280100  0.90369300  1
  H  H7  1  0.77812100  0.52280100  0.09630700  1
  H  H8  1  0.22187900  0.52280100  0.90369300  1
  H  H9  1  0.22187900  0.52280100  0.09630700  1
  H  H10  1  0.70635700  0.62643500  0.66339500  1
  H  H11  1  0.70635700  0.62643500  0.33660500  1
  H  H12  1  0.29364300  0.62643500  0.66339500  1
  H  H13  1  0.29364300  0.62643500  0.33660500  1
  H  H14  1  0.79364300  0.37356500  0.83660500  1
  H  H15  1  0.79364300  0.37356500  0.16339500  1
  H  H16  1  0.20635700  0.37356500  0.83660500  1
  H  H17  1  0.20635700  0.37356500  0.16339500  1
  H  H18  1  0.00000000  0.32163500  0.43192300  1
  H  H19  1  0.00000000  0.32163500  0.56807700  1
  H  H20  1  0.50000000  0.67836500  0.06807700  1
  H  H21  1  0.50000000  0.67836500  0.93192300  1
  H  H22  1  0.27427900  0.87165300  0.43336800  1
  H  H23  1  0.27427900  0.87165300  0.56663200  1
  H  H24  1  0.72572100  0.87165300  0.43336800  1
  H  H25  1  0.72572100  0.87165300  0.56663200  1
  H  H26  1  0.22572100  0.12834700  0.06663200  1
  H  H27  1  0.22572100  0.12834700  0.93336800  1
  H  H28  1  0.77427900  0.12834700  0.06663200  1
  H  H29  1  0.77427900  0.12834700  0.93336800  1
  H  H30  1  0.00000000  0.89987400  0.70446500  1
  H  H31  1  0.00000000  0.89987400  0.29553500  1
  H  H32  1  0.50000000  0.10012600  0.79553500  1
  H  H33  1  0.50000000  0.10012600  0.20446500  1
  H  H34  1  0.00000000  0.74508900  0.76380600  1
  H  H35  1  0.00000000  0.74508900  0.23619400  1
  H  H36  1  0.50000000  0.25491100  0.73619400  1
  H  H37  1  0.50000000  0.25491100  0.26380600  1
  I  I38  1  0.50000000  0.82431000  0.73557400  1
  I  I39  1  0.50000000  0.82431000  0.26442600  1
  I  I40  1  0.00000000  0.17569000  0.76442600  1
  I  I41  1  0.00000000  0.17569000  0.23557400  1
  I  I42  1  0.00000000  0.69486400  0.00000000  1
  I  I43  1  0.50000000  0.30513600  0.50000000  1
  O  O44  1  0.78653000  0.56113900  0.62547900  1
  O  O45  1  0.78653000  0.56113900  0.37452100  1
  O  O46  1  0.21347000  0.56113900  0.62547900  1
  O  O47  1  0.21347000  0.56113900  0.37452100  1
  O  O48  1  0.71347000  0.43886100  0.87452100  1
  O  O49  1  0.71347000  0.43886100  0.12547900  1
  O  O50  1  0.28653000  0.43886100  0.87452100  1
  O  O51  1  0.28653000  0.43886100  0.12547900  1
  O  O52  1  0.00000000  0.38571700  0.50000000  1
  O  O53  1  0.50000000  0.61428300  0.00000000  1
  O  O54  1  0.20163000  0.86191800  0.50000000  1
  O  O55  1  0.79837000  0.86191800  0.50000000  1
  O  O56  1  0.29837000  0.13808200  0.00000000  1
  O  O57  1  0.70163000  0.13808200  0.00000000  1
  O  O58  1  0.00000000  0.79281500  0.68857200  1
  O  O59  1  0.00000000  0.79281500  0.31142800  1
  O  O60  1  0.50000000  0.20718500  0.81142800  1
  O  O61  1  0.50000000  0.20718500  0.18857200  1
