# generated using pymatgen
data_ScNiGe
_symmetry_space_group_name_H-M   'P 1'
_cell_length_a   4.08977800
_cell_length_b   6.47687400
_cell_length_c   7.08698400
_cell_angle_alpha   90.00000000
_cell_angle_beta   90.00000000
_cell_angle_gamma   90.00000000
_symmetry_Int_Tables_number   1
_chemical_formula_structural   ScNiGe
_chemical_formula_sum   'Sc4 Ni4 Ge4'
_cell_volume   187.72695472
_cell_formula_units_Z   4
loop_
 _symmetry_equiv_pos_site_id
 _symmetry_equiv_pos_as_xyz
  1  'x, y, z'
loop_
 _atom_site_type_symbol
 _atom_site_label
 _atom_site_symmetry_multiplicity
 _atom_site_fract_x
 _atom_site_fract_y
 _atom_site_fract_z
 _atom_site_occupancy
  Sc  Sc0  1  0.25000000  0.99514000  0.29293200  1
  Sc  Sc1  1  0.25000000  0.49514000  0.20706800  1
  Sc  Sc2  1  0.75000000  0.00486000  0.70706800  1
  Sc  Sc3  1  0.75000000  0.50486000  0.79293200  1
  Ni  Ni4  1  0.25000000  0.18688900  0.92172800  1
  Ni  Ni5  1  0.25000000  0.68688900  0.57827200  1
  Ni  Ni6  1  0.75000000  0.81311100  0.07827200  1
  Ni  Ni7  1  0.75000000  0.31311100  0.42172800  1
  Ge  Ge8  1  0.25000000  0.29401300  0.59394800  1
  Ge  Ge9  1  0.25000000  0.79401300  0.90605200  1
  Ge  Ge10  1  0.75000000  0.70598700  0.40605200  1
  Ge  Ge11  1  0.75000000  0.20598700  0.09394800  1
