# generated using pymatgen
data_BaNb8O14
_symmetry_space_group_name_H-M   'P 1'
_cell_length_a   13.13519967
_cell_length_b   13.13519967
_cell_length_c   9.58439000
_cell_angle_alpha   90.00000000
_cell_angle_beta   90.00000000
_cell_angle_gamma   132.80108036
_symmetry_Int_Tables_number   1
_chemical_formula_structural   BaNb8O14
_chemical_formula_sum   'Ba4 Nb32 O56'
_cell_volume   1213.29511272
_cell_formula_units_Z   4
loop_
 _symmetry_equiv_pos_site_id
 _symmetry_equiv_pos_as_xyz
  1  'x, y, z'
loop_
 _atom_site_type_symbol
 _atom_site_label
 _atom_site_symmetry_multiplicity
 _atom_site_fract_x
 _atom_site_fract_y
 _atom_site_fract_z
 _atom_site_occupancy
  Ba  Ba0  1  0.37639900  0.10599800  0.49414900  1
  Ba  Ba1  1  0.89400200  0.62360100  0.99414900  1
  Ba  Ba2  1  0.62360100  0.89400200  0.99414900  1
  Ba  Ba3  1  0.10599800  0.37639900  0.49414900  1
  Nb  Nb4  1  0.73742200  0.60462000  0.62386100  1
  Nb  Nb5  1  0.39538000  0.26257800  0.12386100  1
  Nb  Nb6  1  0.89267600  0.75853900  0.37425400  1
  Nb  Nb7  1  0.24146100  0.10732400  0.87425400  1
  Nb  Nb8  1  0.03190200  0.79047100  0.61778500  1
  Nb  Nb9  1  0.20952900  0.96809800  0.11778500  1
  Nb  Nb10  1  0.53819300  0.29089700  0.88217300  1
  Nb  Nb11  1  0.70910300  0.46180700  0.38217300  1
  Nb  Nb12  1  0.85892800  0.49410300  0.62220200  1
  Nb  Nb13  1  0.35767900  0.99166000  0.87495600  1
  Nb  Nb14  1  0.00834000  0.64232100  0.37495600  1
  Nb  Nb15  1  0.50589700  0.14107200  0.12220200  1
  Nb  Nb16  1  0.68171300  0.18877400  0.63703200  1
  Nb  Nb17  1  0.81122600  0.31828700  0.13703200  1
  Nb  Nb18  1  0.18877400  0.68171300  0.63703200  1
  Nb  Nb19  1  0.31828700  0.81122600  0.13703200  1
  Nb  Nb20  1  0.64232100  0.00834000  0.37495600  1
  Nb  Nb21  1  0.49410300  0.85892800  0.62220200  1
  Nb  Nb22  1  0.99166000  0.35767900  0.87495600  1
  Nb  Nb23  1  0.14107200  0.50589700  0.12220200  1
  Nb  Nb24  1  0.29089700  0.53819300  0.88217300  1
  Nb  Nb25  1  0.96809800  0.20952900  0.11778500  1
  Nb  Nb26  1  0.46180700  0.70910300  0.38217300  1
  Nb  Nb27  1  0.79047100  0.03190200  0.61778500  1
  Nb  Nb28  1  0.26257800  0.39538000  0.12386100  1
  Nb  Nb29  1  0.75853900  0.89267600  0.37425400  1
  Nb  Nb30  1  0.60462000  0.73742200  0.62386100  1
  Nb  Nb31  1  0.10732400  0.24146100  0.87425400  1
  Nb  Nb32  1  0.40968300  0.40968300  0.61661000  1
  Nb  Nb33  1  0.91105500  0.91105500  0.88323900  1
  Nb  Nb34  1  0.08894500  0.08894500  0.38323900  1
  Nb  Nb35  1  0.59031700  0.59031700  0.11661000  1
  O  O36  1  0.72598600  0.60035800  0.24381000  1
  O  O37  1  0.89574400  0.77180000  0.75869000  1
  O  O38  1  0.39964200  0.27401400  0.74381000  1
  O  O39  1  0.22820000  0.10425600  0.25869000  1
  O  O40  1  0.56046100  0.43408500  0.50698600  1
  O  O41  1  0.05986600  0.93357300  0.99206200  1
  O  O42  1  0.06642700  0.94013400  0.49206200  1
  O  O43  1  0.56591500  0.43953900  0.00698600  1
  O  O44  1  0.52877200  0.27895500  0.25904000  1
  O  O45  1  0.72104500  0.47122800  0.75904000  1
  O  O46  1  0.03183800  0.78194900  0.24175800  1
  O  O47  1  0.21805100  0.96816200  0.74175800  1
  O  O48  1  0.68801900  0.31497100  0.50874500  1
  O  O49  1  0.68502900  0.31198100  0.00874500  1
  O  O50  1  0.17721600  0.79899300  0.50556500  1
  O  O51  1  0.20100700  0.82278400  0.00556500  1
  O  O52  1  0.84822400  0.47289000  0.24757200  1
  O  O53  1  0.34429700  0.96742600  0.24128700  1
  O  O54  1  0.03257400  0.65570300  0.74128700  1
  O  O55  1  0.52711000  0.15177600  0.74757200  1
  O  O56  1  0.01399900  0.52006200  0.51128200  1
  O  O57  1  0.47993800  0.98600100  0.01128200  1
  O  O58  1  0.16177000  0.66383000  0.24522400  1
  O  O59  1  0.66383000  0.16177000  0.24522400  1
  O  O60  1  0.83823000  0.33617000  0.74522400  1
  O  O61  1  0.33617000  0.83823000  0.74522400  1
  O  O62  1  0.98600100  0.47993800  0.01128200  1
  O  O63  1  0.52006200  0.01399900  0.51128200  1
  O  O64  1  0.96742600  0.34429700  0.24128700  1
  O  O65  1  0.15177600  0.52711000  0.74757200  1
  O  O66  1  0.65570300  0.03257400  0.74128700  1
  O  O67  1  0.47289000  0.84822400  0.24757200  1
  O  O68  1  0.79899300  0.17721600  0.50556500  1
  O  O69  1  0.82278400  0.20100700  0.00556500  1
  O  O70  1  0.31497100  0.68801900  0.50874500  1
  O  O71  1  0.31198100  0.68502900  0.00874500  1
  O  O72  1  0.47122800  0.72104500  0.75904000  1
  O  O73  1  0.27895500  0.52877200  0.25904000  1
  O  O74  1  0.78194900  0.03183800  0.24175800  1
  O  O75  1  0.96816200  0.21805100  0.74175800  1
  O  O76  1  0.43408500  0.56046100  0.50698600  1
  O  O77  1  0.93357300  0.05986600  0.99206200  1
  O  O78  1  0.43953900  0.56591500  0.00698600  1
  O  O79  1  0.94013400  0.06642700  0.49206200  1
  O  O80  1  0.60035800  0.72598600  0.24381000  1
  O  O81  1  0.10425600  0.22820000  0.25869000  1
  O  O82  1  0.27401400  0.39964200  0.74381000  1
  O  O83  1  0.77180000  0.89574400  0.75869000  1
  O  O84  1  0.93061300  0.93061200  0.27043400  1
  O  O85  1  0.74950700  0.74950700  0.49922800  1
  O  O86  1  0.25049300  0.25049300  0.99922800  1
  O  O87  1  0.74987800  0.74987800  0.00125300  1
  O  O88  1  0.06938800  0.06938700  0.77043400  1
  O  O89  1  0.56861200  0.56861200  0.73020700  1
  O  O90  1  0.25012200  0.25012200  0.50125300  1
  O  O91  1  0.43138800  0.43138800  0.23020700  1
