# generated using pymatgen
data_Li2HfO3
_symmetry_space_group_name_H-M   'P 1'
_cell_length_a   5.26663162
_cell_length_b   5.26663162
_cell_length_c   5.41137379
_cell_angle_alpha   78.47069047
_cell_angle_beta   78.47069047
_cell_angle_gamma   117.83917274
_symmetry_Int_Tables_number   1
_chemical_formula_structural   Li2HfO3
_chemical_formula_sum   'Li4 Hf2 O6'
_cell_volume   122.37440588
_cell_formula_units_Z   2
loop_
 _symmetry_equiv_pos_site_id
 _symmetry_equiv_pos_as_xyz
  1  'x, y, z'
loop_
 _atom_site_type_symbol
 _atom_site_label
 _atom_site_symmetry_multiplicity
 _atom_site_fract_x
 _atom_site_fract_y
 _atom_site_fract_z
 _atom_site_occupancy
  Li  Li0  1  0.92419200  0.07580800  0.25000000  1
  Li  Li1  1  0.24182500  0.75817500  0.25000000  1
  Li  Li2  1  0.07580800  0.92419200  0.75000000  1
  Li  Li3  1  0.75817500  0.24182500  0.75000000  1
  Hf  Hf4  1  0.59077800  0.40922200  0.25000000  1
  Hf  Hf5  1  0.40922200  0.59077800  0.75000000  1
  O  O6  1  0.19710800  0.34812800  0.51535200  1
  O  O7  1  0.34812800  0.19710800  0.01535200  1
  O  O8  1  0.50000000  0.00000000  0.50000000  1
  O  O9  1  0.80289200  0.65187200  0.48464800  1
  O  O10  1  0.00000000  0.50000000  0.00000000  1
  O  O11  1  0.65187200  0.80289200  0.98464800  1
