# generated using pymatgen
data_Ca2Ga2Si(HO4)2
_symmetry_space_group_name_H-M   'P 1'
_cell_length_a   7.82560442
_cell_length_b   7.82560442
_cell_length_c   7.82560442
_cell_angle_alpha   109.40011086
_cell_angle_beta   109.40011086
_cell_angle_gamma   109.61353399
_symmetry_Int_Tables_number   1
_chemical_formula_structural   Ca2Ga2Si(HO4)2
_chemical_formula_sum   'Ca4 Ga4 Si2 H4 O16'
_cell_volume   368.91793686
_cell_formula_units_Z   2
loop_
 _symmetry_equiv_pos_site_id
 _symmetry_equiv_pos_as_xyz
  1  'x, y, z'
loop_
 _atom_site_type_symbol
 _atom_site_label
 _atom_site_symmetry_multiplicity
 _atom_site_fract_x
 _atom_site_fract_y
 _atom_site_fract_z
 _atom_site_occupancy
  Ca  Ca0  1  0.99933300  0.72105000  0.00478700  1
  Ca  Ca1  1  0.27895000  0.28373700  0.27828300  1
  Ca  Ca2  1  0.71626300  0.99454600  0.99521300  1
  Ca  Ca3  1  0.00545400  0.00066700  0.72171700  1
  Ga  Ga4  1  0.50265900  0.75601300  0.25741300  1
  Ga  Ga5  1  0.24398700  0.50139900  0.74664600  1
  Ga  Ga6  1  0.75475400  0.49734100  0.25335400  1
  Ga  Ga7  1  0.49860100  0.24524600  0.74258700  1
  Si  Si8  1  0.25000000  0.75000000  0.50000000  1
  Si  Si9  1  0.75000000  0.25000000  0.50000000  1
  H  H10  1  0.34959300  0.98522600  0.01209900  1
  H  H11  1  0.97312600  0.33749400  0.98790100  1
  H  H12  1  0.66250600  0.65040700  0.63563200  1
  H  H13  1  0.01477400  0.02687400  0.36436800  1
  O  O14  1  0.44106300  0.74014100  0.00185700  1
  O  O15  1  0.02182500  0.73168900  0.45930600  1
  O  O16  1  0.00027900  0.22723500  0.99587600  1
  O  O17  1  0.26831100  0.72761700  0.29013600  1
  O  O18  1  0.43748100  0.97817500  0.70986300  1
  O  O19  1  0.23135900  0.00440300  0.00412400  1
  O  O20  1  0.99559700  0.99972100  0.22695500  1
  O  O21  1  0.27238300  0.56251900  0.54069400  1
  O  O22  1  0.56079400  0.55893700  0.29907800  1
  O  O23  1  0.73828400  0.43920600  0.99814300  1
  O  O24  1  0.25985900  0.26171600  0.70092200  1
  O  O25  1  0.72956800  0.26516800  0.28894200  1
  O  O26  1  0.77276500  0.76864100  0.77304500  1
  O  O27  1  0.55937400  0.27043200  0.53560000  1
  O  O28  1  0.73483200  0.02377400  0.46440000  1
  O  O29  1  0.97622600  0.44062600  0.71105800  1
