# generated using pymatgen
data_Yb19(Mg4H27)2
_symmetry_space_group_name_H-M   'P 1'
_cell_length_a   10.43857139
_cell_length_b   10.43857139
_cell_length_c   10.43857139
_cell_angle_alpha   109.47122063
_cell_angle_beta   109.47122063
_cell_angle_gamma   109.47122063
_symmetry_Int_Tables_number   1
_chemical_formula_structural   Yb19(Mg4H27)2
_chemical_formula_sum   'Yb19 Mg8 H54'
_cell_volume   875.59103447
_cell_formula_units_Z   1
loop_
 _symmetry_equiv_pos_site_id
 _symmetry_equiv_pos_as_xyz
  1  'x, y, z'
loop_
 _atom_site_type_symbol
 _atom_site_label
 _atom_site_symmetry_multiplicity
 _atom_site_fract_x
 _atom_site_fract_y
 _atom_site_fract_z
 _atom_site_occupancy
  Yb  Yb0  1  0.31154600  0.96594900  0.65440400  1
  Yb  Yb1  1  0.68845400  0.03405100  0.34559600  1
  Yb  Yb2  1  0.31154600  0.65714200  0.34559600  1
  Yb  Yb3  1  0.68845400  0.34285800  0.65440400  1
  Yb  Yb4  1  0.65440400  0.31154600  0.96594900  1
  Yb  Yb5  1  0.34559600  0.68845400  0.03405100  1
  Yb  Yb6  1  0.34559600  0.31154600  0.65714200  1
  Yb  Yb7  1  0.65440400  0.68845400  0.34285800  1
  Yb  Yb8  1  0.96594900  0.65440400  0.31154600  1
  Yb  Yb9  1  0.03405100  0.34559600  0.68845400  1
  Yb  Yb10  1  0.65714200  0.34559600  0.31154600  1
  Yb  Yb11  1  0.34285800  0.65440400  0.68845400  1
  Yb  Yb12  1  0.33287000  0.00000000  0.33287000  1
  Yb  Yb13  1  0.66713000  0.00000000  0.66713000  1
  Yb  Yb14  1  0.33287000  0.33287000  0.00000000  1
  Yb  Yb15  1  0.66713000  0.66713000  0.00000000  1
  Yb  Yb16  1  0.00000000  0.33287000  0.33287000  1
  Yb  Yb17  1  0.00000000  0.66713000  0.66713000  1
  Yb  Yb18  1  0.00000000  0.00000000  0.00000000  1
  Mg  Mg19  1  0.31465900  0.00000000  0.00000000  1
  Mg  Mg20  1  0.00000000  0.00000000  0.31465900  1
  Mg  Mg21  1  0.00000000  0.31465900  0.00000000  1
  Mg  Mg22  1  0.68534100  0.68534100  0.68534100  1
  Mg  Mg23  1  0.68534100  0.00000000  0.00000000  1
  Mg  Mg24  1  0.00000000  0.00000000  0.68534100  1
  Mg  Mg25  1  0.00000000  0.68534100  0.00000000  1
  Mg  Mg26  1  0.31465900  0.31465900  0.31465900  1
  H  H27  1  0.42539000  0.94629400  0.14449200  1
  H  H28  1  0.19819800  0.05370600  0.47909700  1
  H  H29  1  0.80180200  0.28089900  0.85550800  1
  H  H30  1  0.57461000  0.71910100  0.52090300  1
  H  H31  1  0.14449200  0.42539000  0.94629400  1
  H  H32  1  0.47909700  0.19819800  0.05370600  1
  H  H33  1  0.85550800  0.80180200  0.28089900  1
  H  H34  1  0.52090300  0.57461000  0.71910100  1
  H  H35  1  0.94629400  0.14449200  0.42539000  1
  H  H36  1  0.05370600  0.47909700  0.19819800  1
  H  H37  1  0.28089900  0.85550800  0.80180200  1
  H  H38  1  0.71910100  0.52090300  0.57461000  1
  H  H39  1  0.57461000  0.05370600  0.85550800  1
  H  H40  1  0.80180200  0.94629400  0.52090300  1
  H  H41  1  0.19819800  0.71910100  0.14449200  1
  H  H42  1  0.42539000  0.28089900  0.47909700  1
  H  H43  1  0.85550800  0.57461000  0.05370600  1
  H  H44  1  0.52090300  0.80180200  0.94629400  1
  H  H45  1  0.14449200  0.19819800  0.71910100  1
  H  H46  1  0.47909700  0.42539000  0.28089900  1
  H  H47  1  0.05370600  0.85550800  0.57461000  1
  H  H48  1  0.94629400  0.52090300  0.80180200  1
  H  H49  1  0.71910100  0.14449200  0.19819800  1
  H  H50  1  0.28089900  0.47909700  0.42539000  1
  H  H51  1  0.39847000  0.21753100  0.81906100  1
  H  H52  1  0.60153000  0.78246900  0.18093900  1
  H  H53  1  0.39847000  0.57940900  0.18093900  1
  H  H54  1  0.60153000  0.42059100  0.81906100  1
  H  H55  1  0.81906100  0.39847000  0.21753100  1
  H  H56  1  0.18093900  0.60153000  0.78246900  1
  H  H57  1  0.18093900  0.39847000  0.57940900  1
  H  H58  1  0.81906100  0.60153000  0.42059100  1
  H  H59  1  0.21753100  0.81906100  0.39847000  1
  H  H60  1  0.78246900  0.18093900  0.60153000  1
  H  H61  1  0.57940900  0.18093900  0.39847000  1
  H  H62  1  0.42059100  0.81906100  0.60153000  1
  H  H63  1  0.17082800  0.06235600  0.89152900  1
  H  H64  1  0.82917200  0.93764400  0.10847100  1
  H  H65  1  0.17082800  0.27929900  0.10847100  1
  H  H66  1  0.82917200  0.72070100  0.89152900  1
  H  H67  1  0.89152900  0.17082800  0.06235600  1
  H  H68  1  0.10847100  0.82917200  0.93764400  1
  H  H69  1  0.10847100  0.17082800  0.27929900  1
  H  H70  1  0.89152900  0.82917200  0.72070100  1
  H  H71  1  0.06235600  0.89152900  0.17082800  1
  H  H72  1  0.93764400  0.10847100  0.82917200  1
  H  H73  1  0.27929900  0.10847100  0.17082800  1
  H  H74  1  0.72070100  0.89152900  0.82917200  1
  H  H75  1  0.61720700  0.50000000  0.11720700  1
  H  H76  1  0.38279300  0.50000000  0.88279300  1
  H  H77  1  0.11720700  0.61720700  0.50000000  1
  H  H78  1  0.88279300  0.38279300  0.50000000  1
  H  H79  1  0.50000000  0.11720700  0.61720700  1
  H  H80  1  0.50000000  0.88279300  0.38279300  1
