# generated using pymatgen
data_Al2HgTe4
_symmetry_space_group_name_H-M   'P 1'
_cell_length_a   7.45547066
_cell_length_b   7.45547066
_cell_length_c   7.45547066
_cell_angle_alpha   130.13794112
_cell_angle_beta   130.13794112
_cell_angle_gamma   73.18633940
_symmetry_Int_Tables_number   1
_chemical_formula_structural   Al2HgTe4
_chemical_formula_sum   'Al2 Hg1 Te4'
_cell_volume   236.47824596
_cell_formula_units_Z   1
loop_
 _symmetry_equiv_pos_site_id
 _symmetry_equiv_pos_as_xyz
  1  'x, y, z'
loop_
 _atom_site_type_symbol
 _atom_site_label
 _atom_site_symmetry_multiplicity
 _atom_site_fract_x
 _atom_site_fract_y
 _atom_site_fract_z
 _atom_site_occupancy
  Al  Al0  1  0.25000000  0.75000000  0.50000000  1
  Al  Al1  1  0.50000000  0.50000000  0.00000000  1
  Hg  Hg2  1  0.00000000  0.00000000  0.00000000  1
  Te  Te3  1  0.86377500  0.39542400  0.98270400  1
  Te  Te4  1  0.41272000  0.88107100  0.01729600  1
  Te  Te5  1  0.11892900  0.13622500  0.53164900  1
  Te  Te6  1  0.60457600  0.58728000  0.46835100  1
