# generated using pymatgen
data_Cs2MgH8(CO5)2
_symmetry_space_group_name_H-M   'P 1'
_cell_length_a   6.76497900
_cell_length_b   12.61063300
_cell_length_c   13.11948600
_cell_angle_alpha   90.00000000
_cell_angle_beta   90.00000000
_cell_angle_gamma   90.00000000
_symmetry_Int_Tables_number   1
_chemical_formula_structural   Cs2MgH8(CO5)2
_chemical_formula_sum   'Cs8 Mg4 H32 C8 O40'
_cell_volume   1119.23210689
_cell_formula_units_Z   4
loop_
 _symmetry_equiv_pos_site_id
 _symmetry_equiv_pos_as_xyz
  1  'x, y, z'
loop_
 _atom_site_type_symbol
 _atom_site_label
 _atom_site_symmetry_multiplicity
 _atom_site_fract_x
 _atom_site_fract_y
 _atom_site_fract_z
 _atom_site_occupancy
  Cs  Cs0  1  0.63057000  0.27257600  0.37060800  1
  Cs  Cs1  1  0.13057000  0.22742400  0.62939200  1
  Cs  Cs2  1  0.36943000  0.77257600  0.12939200  1
  Cs  Cs3  1  0.86943000  0.72742400  0.87060800  1
  Cs  Cs4  1  0.36943000  0.72742400  0.62939200  1
  Cs  Cs5  1  0.86943000  0.77257600  0.37060800  1
  Cs  Cs6  1  0.63057000  0.22742400  0.87060800  1
  Cs  Cs7  1  0.13057000  0.27257600  0.12939200  1
  Mg  Mg8  1  0.50000000  0.00000000  0.50000000  1
  Mg  Mg9  1  0.00000000  0.50000000  0.50000000  1
  Mg  Mg10  1  0.50000000  0.50000000  0.00000000  1
  Mg  Mg11  1  0.00000000  0.00000000  0.00000000  1
  H  H12  1  0.72170000  0.56998600  0.60531400  1
  H  H13  1  0.22170000  0.93001400  0.39468600  1
  H  H14  1  0.27830000  0.06998600  0.89468600  1
  H  H15  1  0.77830000  0.43001400  0.10531400  1
  H  H16  1  0.27830000  0.43001400  0.39468600  1
  H  H17  1  0.77830000  0.06998600  0.60531400  1
  H  H18  1  0.72170000  0.93001400  0.10531400  1
  H  H19  1  0.22170000  0.56998600  0.89468600  1
  H  H20  1  0.85166500  0.68363500  0.59774800  1
  H  H21  1  0.35166500  0.81636500  0.40225200  1
  H  H22  1  0.14833500  0.18363500  0.90225200  1
  H  H23  1  0.64833500  0.31636500  0.09774800  1
  H  H24  1  0.14833500  0.31636500  0.40225200  1
  H  H25  1  0.64833500  0.18363500  0.59774800  1
  H  H26  1  0.85166500  0.81636500  0.09774800  1
  H  H27  1  0.35166500  0.68363500  0.90225200  1
  H  H28  1  0.63138600  0.48208700  0.78762200  1
  H  H29  1  0.13138600  0.01791300  0.21237800  1
  H  H30  1  0.36861400  0.98208700  0.71237800  1
  H  H31  1  0.86861400  0.51791300  0.28762200  1
  H  H32  1  0.36861400  0.51791300  0.21237800  1
  H  H33  1  0.86861400  0.98208700  0.78762200  1
  H  H34  1  0.63138600  0.01791300  0.28762200  1
  H  H35  1  0.13138600  0.48208700  0.71237800  1
  H  H36  1  0.81805100  0.47235700  0.86051900  1
  H  H37  1  0.31805100  0.02764300  0.13948100  1
  H  H38  1  0.18194900  0.97235700  0.63948100  1
  H  H39  1  0.68194900  0.52764300  0.36051900  1
  H  H40  1  0.18194900  0.52764300  0.13948100  1
  H  H41  1  0.68194900  0.97235700  0.86051900  1
  H  H42  1  0.81805100  0.02764300  0.36051900  1
  H  H43  1  0.31805100  0.47235700  0.63948100  1
  C  C44  1  0.65824200  0.11365100  0.11894200  1
  C  C45  1  0.15824200  0.38634900  0.88105800  1
  C  C46  1  0.34175800  0.61365100  0.38105800  1
  C  C47  1  0.84175800  0.88634900  0.61894200  1
  C  C48  1  0.34175800  0.88634900  0.88105800  1
  C  C49  1  0.84175800  0.61365100  0.11894200  1
  C  C50  1  0.65824200  0.38634900  0.61894200  1
  C  C51  1  0.15824200  0.11365100  0.38105800  1
  O  O52  1  0.69571500  0.88765600  0.55454200  1
  O  O53  1  0.19571500  0.61234400  0.44545800  1
  O  O54  1  0.30428500  0.38765600  0.94545800  1
  O  O55  1  0.80428500  0.11234400  0.05454200  1
  O  O56  1  0.30428500  0.11234400  0.44545800  1
  O  O57  1  0.80428500  0.38765600  0.55454200  1
  O  O58  1  0.69571500  0.61234400  0.05454200  1
  O  O59  1  0.19571500  0.88765600  0.94545800  1
  O  O60  1  0.57844800  0.20206700  0.14639800  1
  O  O61  1  0.07844800  0.29793300  0.85360200  1
  O  O62  1  0.42155200  0.70206700  0.35360200  1
  O  O63  1  0.92155200  0.79793300  0.64639800  1
  O  O64  1  0.42155200  0.79793300  0.85360200  1
  O  O65  1  0.92155200  0.70206700  0.14639800  1
  O  O66  1  0.57844800  0.29793300  0.64639800  1
  O  O67  1  0.07844800  0.20206700  0.35360200  1
  O  O68  1  0.41036800  0.52367800  0.34350900  1
  O  O69  1  0.91036800  0.97632200  0.65649100  1
  O  O70  1  0.58963200  0.02367800  0.15649100  1
  O  O71  1  0.08963200  0.47632200  0.84350900  1
  O  O72  1  0.58963200  0.47632200  0.65649100  1
  O  O73  1  0.08963200  0.02367800  0.34350900  1
  O  O74  1  0.41036800  0.97632200  0.84350900  1
  O  O75  1  0.91036800  0.52367800  0.15649100  1
  O  O76  1  0.68445400  0.11479700  0.56286400  1
  O  O77  1  0.18445400  0.38520300  0.43713600  1
  O  O78  1  0.31554600  0.61479700  0.93713600  1
  O  O79  1  0.81554600  0.88520300  0.06286400  1
  O  O80  1  0.31554600  0.88520300  0.43713600  1
  O  O81  1  0.81554600  0.61479700  0.56286400  1
  O  O82  1  0.68445400  0.38520300  0.06286400  1
  O  O83  1  0.18445400  0.11479700  0.93713600  1
  O  O84  1  0.67235800  0.01643000  0.36074700  1
  O  O85  1  0.17235800  0.48357000  0.63925300  1
  O  O86  1  0.32764200  0.51643000  0.13925300  1
  O  O87  1  0.82764200  0.98357000  0.86074700  1
  O  O88  1  0.32764200  0.98357000  0.63925300  1
  O  O89  1  0.82764200  0.51643000  0.36074700  1
  O  O90  1  0.67235800  0.48357000  0.86074700  1
  O  O91  1  0.17235800  0.01643000  0.13925300  1
