# generated using pymatgen
data_NdAsO4
_symmetry_space_group_name_H-M   'P 1'
_cell_length_a   6.14508928
_cell_length_b   6.14508928
_cell_length_c   6.14508928
_cell_angle_alpha   106.41649868
_cell_angle_beta   106.41649868
_cell_angle_gamma   115.77031779
_symmetry_Int_Tables_number   1
_chemical_formula_structural   NdAsO4
_chemical_formula_sum   'Nd2 As2 O8'
_cell_volume   176.99659826
_cell_formula_units_Z   2
loop_
 _symmetry_equiv_pos_site_id
 _symmetry_equiv_pos_as_xyz
  1  'x, y, z'
loop_
 _atom_site_type_symbol
 _atom_site_label
 _atom_site_symmetry_multiplicity
 _atom_site_fract_x
 _atom_site_fract_y
 _atom_site_fract_z
 _atom_site_occupancy
  Nd  Nd0  1  0.25000000  0.75000000  0.50000000  1
  Nd  Nd1  1  0.00000000  0.00000000  0.00000000  1
  As  As2  1  0.50000000  0.50000000  0.00000000  1
  As  As3  1  0.75000000  0.25000000  0.50000000  1
  O  O4  1  0.49053500  0.66935000  0.82118500  1
  O  O5  1  0.33065000  0.15183500  0.82118500  1
  O  O6  1  0.33065000  0.50946500  0.17881500  1
  O  O7  1  0.84816500  0.66935000  0.17881500  1
  O  O8  1  0.40183500  0.08065000  0.32118500  1
  O  O9  1  0.91935000  0.59816500  0.67881500  1
  O  O10  1  0.91935000  0.24053500  0.32118500  1
  O  O11  1  0.75946500  0.08065000  0.67881500  1
