# generated using pymatgen
data_Sr3(AsO4)2
_symmetry_space_group_name_H-M   'P 1'
_cell_length_a   7.53057556
_cell_length_b   7.53057556
_cell_length_c   7.53057610
_cell_angle_alpha   44.27153050
_cell_angle_beta   44.27153050
_cell_angle_gamma   44.27152941
_symmetry_Int_Tables_number   1
_chemical_formula_structural   Sr3(AsO4)2
_chemical_formula_sum   'Sr3 As2 O8'
_cell_volume   189.11721649
_cell_formula_units_Z   1
loop_
 _symmetry_equiv_pos_site_id
 _symmetry_equiv_pos_as_xyz
  1  'x, y, z'
loop_
 _atom_site_type_symbol
 _atom_site_label
 _atom_site_symmetry_multiplicity
 _atom_site_fract_x
 _atom_site_fract_y
 _atom_site_fract_z
 _atom_site_occupancy
  Sr  Sr0  1  0.00000000  0.00000000  0.00000000  1
  Sr  Sr1  1  0.20487700  0.20487700  0.20487700  1
  Sr  Sr2  1  0.79512300  0.79512300  0.79512300  1
  As  As3  1  0.59297100  0.59297100  0.59297100  1
  As  As4  1  0.40702900  0.40702900  0.40702900  1
  O  O5  1  0.76620900  0.26869300  0.26869300  1
  O  O6  1  0.73130700  0.23379100  0.73130700  1
  O  O7  1  0.67706300  0.67706300  0.67706300  1
  O  O8  1  0.32293700  0.32293700  0.32293700  1
  O  O9  1  0.73130700  0.73130700  0.23379100  1
  O  O10  1  0.26869300  0.26869300  0.76620900  1
  O  O11  1  0.26869300  0.76620900  0.26869300  1
  O  O12  1  0.23379100  0.73130700  0.73130700  1
