# generated using pymatgen
data_ZnPH4NO4
_symmetry_space_group_name_H-M   'P 1'
_cell_length_a   10.80872884
_cell_length_b   10.80872884
_cell_length_c   8.76916700
_cell_angle_alpha   90.00000000
_cell_angle_beta   90.00000000
_cell_angle_gamma   120.00000514
_symmetry_Int_Tables_number   1
_chemical_formula_structural   ZnPH4NO4
_chemical_formula_sum   'Zn8 P8 H32 N8 O32'
_cell_volume   887.23403549
_cell_formula_units_Z   8
loop_
 _symmetry_equiv_pos_site_id
 _symmetry_equiv_pos_as_xyz
  1  'x, y, z'
loop_
 _atom_site_type_symbol
 _atom_site_label
 _atom_site_symmetry_multiplicity
 _atom_site_fract_x
 _atom_site_fract_y
 _atom_site_fract_z
 _atom_site_occupancy
  Zn  Zn0  1  0.14832100  0.82228500  0.45224900  1
  Zn  Zn1  1  0.33333300  0.66666700  0.07487800  1
  Zn  Zn2  1  0.17771500  0.32603600  0.45224900  1
  Zn  Zn3  1  0.67396400  0.85167900  0.45224900  1
  Zn  Zn4  1  0.32603600  0.14832100  0.95224900  1
  Zn  Zn5  1  0.82228500  0.67396400  0.95224900  1
  Zn  Zn6  1  0.66666700  0.33333300  0.57487800  1
  Zn  Zn7  1  0.85167900  0.17771500  0.95224900  1
  P  P8  1  0.14637400  0.81925100  0.07178500  1
  P  P9  1  0.33333300  0.66666700  0.46701300  1
  P  P10  1  0.18074900  0.32712300  0.07178500  1
  P  P11  1  0.67287700  0.85362600  0.07178500  1
  P  P12  1  0.32712300  0.14637400  0.57178500  1
  P  P13  1  0.81925100  0.67287700  0.57178500  1
  P  P14  1  0.66666700  0.33333300  0.96701300  1
  P  P15  1  0.85362600  0.18074900  0.57178500  1
  H  H16  1  0.03192800  0.93088500  0.79346100  1
  H  H17  1  0.00697300  0.58738700  0.69363600  1
  H  H18  1  0.02846700  0.57349800  0.27100000  1
  H  H19  1  0.09325900  0.58681700  0.85531100  1
  H  H20  1  0.12547100  0.53022000  0.68383900  1
  H  H21  1  0.40474900  0.87452900  0.68383900  1
  H  H22  1  0.00000000  0.00000000  0.13369300  1
  H  H23  1  0.00000000  0.00000000  0.63369300  1
  H  H24  1  0.06911500  0.10104300  0.79346100  1
  H  H25  1  0.49355800  0.90674100  0.85531100  1
  H  H26  1  0.54503100  0.97153300  0.27100000  1
  H  H27  1  0.10104300  0.03192800  0.29346100  1
  H  H28  1  0.58041300  0.99302700  0.69363600  1
  H  H29  1  0.41318300  0.50644200  0.85531100  1
  H  H30  1  0.46978000  0.59525100  0.68383900  1
  H  H31  1  0.41261300  0.41958700  0.69363600  1
  H  H32  1  0.42650200  0.45496900  0.27100000  1
  H  H33  1  0.57349800  0.54503100  0.77100000  1
  H  H34  1  0.58738700  0.58041300  0.19363600  1
  H  H35  1  0.53022000  0.40474900  0.18383900  1
  H  H36  1  0.58681700  0.49355800  0.35531100  1
  H  H37  1  0.41958700  0.00697300  0.19363600  1
  H  H38  1  0.89895700  0.96807200  0.79346100  1
  H  H39  1  0.45496900  0.02846700  0.77100000  1
  H  H40  1  0.50644200  0.09325900  0.35531100  1
  H  H41  1  0.93088500  0.89895700  0.29346100  1
  H  H42  1  0.59525100  0.12547100  0.18383900  1
  H  H43  1  0.87452900  0.46978000  0.18383900  1
  H  H44  1  0.90674100  0.41318300  0.35531100  1
  H  H45  1  0.97153300  0.42650200  0.77100000  1
  H  H46  1  0.99302700  0.41261300  0.19363600  1
  H  H47  1  0.96807200  0.06911500  0.29346100  1
  N  N48  1  0.04806200  0.53221600  0.75375600  1
  N  N49  1  0.00000000  0.00000000  0.25109300  1
  N  N50  1  0.00000000  0.00000000  0.75109300  1
  N  N51  1  0.48415300  0.95193800  0.75375600  1
  N  N52  1  0.46778400  0.51584700  0.75375600  1
  N  N53  1  0.53221600  0.48415300  0.25375600  1
  N  N54  1  0.51584700  0.04806200  0.25375600  1
  N  N55  1  0.95193800  0.46778400  0.25375600  1
  O  O56  1  0.02569800  0.81759500  0.97330400  1
  O  O57  1  0.09197200  0.77237900  0.23734800  1
  O  O58  1  0.27632100  0.97375500  0.07265700  1
  O  O59  1  0.18935100  0.71354500  0.00160800  1
  O  O60  1  0.02624500  0.30256600  0.07265700  1
  O  O61  1  0.28786400  0.77261900  0.53148900  1
  O  O62  1  0.22738100  0.51524500  0.53148900  1
  O  O63  1  0.33333300  0.66666700  0.29367300  1
  O  O64  1  0.28645500  0.47580600  0.00160800  1
  O  O65  1  0.22762100  0.31959300  0.23734800  1
  O  O66  1  0.18240500  0.20810300  0.97330400  1
  O  O67  1  0.52419400  0.81064900  0.00160800  1
  O  O68  1  0.48475500  0.71213600  0.53148900  1
  O  O69  1  0.30256600  0.27632100  0.57265700  1
  O  O70  1  0.20810300  0.02569800  0.47330400  1
  O  O71  1  0.68040700  0.90802800  0.23734800  1
  O  O72  1  0.31959300  0.09197200  0.73734800  1
  O  O73  1  0.79189700  0.97430200  0.97330400  1
  O  O74  1  0.69743400  0.72367900  0.07265700  1
  O  O75  1  0.51524500  0.28786400  0.03148900  1
  O  O76  1  0.47580600  0.18935100  0.50160800  1
  O  O77  1  0.81759500  0.79189700  0.47330400  1
  O  O78  1  0.77237900  0.68040700  0.73734800  1
  O  O79  1  0.71354500  0.52419400  0.50160800  1
  O  O80  1  0.66666700  0.33333300  0.79367300  1
  O  O81  1  0.77261900  0.48475500  0.03148900  1
  O  O82  1  0.71213600  0.22738100  0.03148900  1
  O  O83  1  0.97375500  0.69743400  0.57265700  1
  O  O84  1  0.81064900  0.28645500  0.50160800  1
  O  O85  1  0.72367900  0.02624500  0.57265700  1
  O  O86  1  0.90802800  0.22762100  0.73734800  1
  O  O87  1  0.97430200  0.18240500  0.47330400  1
