# generated using pymatgen
data_PH6SN3
_symmetry_space_group_name_H-M   'P 1'
_cell_length_a   9.35893300
_cell_length_b   9.74982100
_cell_length_c   10.64147400
_cell_angle_alpha   90.00000000
_cell_angle_beta   90.00000000
_cell_angle_gamma   90.00000000
_symmetry_Int_Tables_number   1
_chemical_formula_structural   PH6SN3
_chemical_formula_sum   'P8 H48 S8 N24'
_cell_volume   971.01238421
_cell_formula_units_Z   8
loop_
 _symmetry_equiv_pos_site_id
 _symmetry_equiv_pos_as_xyz
  1  'x, y, z'
loop_
 _atom_site_type_symbol
 _atom_site_label
 _atom_site_symmetry_multiplicity
 _atom_site_fract_x
 _atom_site_fract_y
 _atom_site_fract_z
 _atom_site_occupancy
  P  P0  1  0.83465600  0.41275900  0.34367100  1
  P  P1  1  0.33465600  0.08724100  0.65632900  1
  P  P2  1  0.16534400  0.91275900  0.15632900  1
  P  P3  1  0.66534400  0.58724100  0.84367100  1
  P  P4  1  0.16534400  0.58724100  0.65632900  1
  P  P5  1  0.66534400  0.91275900  0.34367100  1
  P  P6  1  0.83465600  0.08724100  0.84367100  1
  P  P7  1  0.33465600  0.41275900  0.15632900  1
  H  H8  1  0.00889800  0.54494800  0.25670100  1
  H  H9  1  0.50889800  0.95505200  0.74329900  1
  H  H10  1  0.99110200  0.04494800  0.24329900  1
  H  H11  1  0.49110200  0.45505200  0.75670100  1
  H  H12  1  0.99110200  0.45505200  0.74329900  1
  H  H13  1  0.49110200  0.04494800  0.25670100  1
  H  H14  1  0.00889800  0.95505200  0.75670100  1
  H  H15  1  0.50889800  0.54494800  0.24329900  1
  H  H16  1  0.85898500  0.63582900  0.28502500  1
  H  H17  1  0.35898500  0.86417100  0.71497500  1
  H  H18  1  0.14101500  0.13582900  0.21497500  1
  H  H19  1  0.64101500  0.36417100  0.78502500  1
  H  H20  1  0.14101500  0.36417100  0.71497500  1
  H  H21  1  0.64101500  0.13582900  0.28502500  1
  H  H22  1  0.85898500  0.86417100  0.78502500  1
  H  H23  1  0.35898500  0.63582900  0.21497500  1
  H  H24  1  0.00491100  0.35863900  0.49356700  1
  H  H25  1  0.50491100  0.14136100  0.50643300  1
  H  H26  1  0.99508900  0.85863900  0.00643300  1
  H  H27  1  0.49508900  0.64136100  0.99356700  1
  H  H28  1  0.99508900  0.64136100  0.50643300  1
  H  H29  1  0.49508900  0.85863900  0.49356700  1
  H  H30  1  0.00491100  0.14136100  0.99356700  1
  H  H31  1  0.50491100  0.35863900  0.00643300  1
  H  H32  1  0.93717100  0.21722200  0.42302200  1
  H  H33  1  0.43717100  0.28277800  0.57697800  1
  H  H34  1  0.06282900  0.71722200  0.07697800  1
  H  H35  1  0.56282900  0.78277800  0.92302200  1
  H  H36  1  0.06282900  0.78277800  0.57697800  1
  H  H37  1  0.56282900  0.71722200  0.42302200  1
  H  H38  1  0.93717100  0.28277800  0.92302200  1
  H  H39  1  0.43717100  0.21722200  0.07697800  1
  H  H40  1  0.89031700  0.30036300  0.16241000  1
  H  H41  1  0.39031700  0.19963700  0.83759000  1
  H  H42  1  0.10968300  0.80036300  0.33759000  1
  H  H43  1  0.60968300  0.69963700  0.66241000  1
  H  H44  1  0.10968300  0.69963700  0.83759000  1
  H  H45  1  0.60968300  0.80036300  0.16241000  1
  H  H46  1  0.89031700  0.19963700  0.66241000  1
  H  H47  1  0.39031700  0.30036300  0.33759000  1
  H  H48  1  0.71629200  0.34381700  0.16583600  1
  H  H49  1  0.21629200  0.15618300  0.83416400  1
  H  H50  1  0.28370800  0.84381700  0.33416400  1
  H  H51  1  0.78370800  0.65618300  0.66583600  1
  H  H52  1  0.28370800  0.65618300  0.83416400  1
  H  H53  1  0.78370800  0.84381700  0.16583600  1
  H  H54  1  0.71629200  0.15618300  0.66583600  1
  H  H55  1  0.21629200  0.34381700  0.33416400  1
  S  S56  1  0.65239300  0.45483200  0.42786200  1
  S  S57  1  0.15239300  0.04516800  0.57213800  1
  S  S58  1  0.34760700  0.95483200  0.07213800  1
  S  S59  1  0.84760700  0.54516800  0.92786200  1
  S  S60  1  0.34760700  0.54516800  0.57213800  1
  S  S61  1  0.84760700  0.95483200  0.42786200  1
  S  S62  1  0.65239300  0.04516800  0.92786200  1
  S  S63  1  0.15239300  0.45483200  0.07213800  1
  N  N64  1  0.92432000  0.55924900  0.31744000  1
  N  N65  1  0.42432000  0.94075100  0.68256000  1
  N  N66  1  0.07568000  0.05924900  0.18256000  1
  N  N67  1  0.57568000  0.44075100  0.81744000  1
  N  N68  1  0.07568000  0.44075100  0.68256000  1
  N  N69  1  0.57568000  0.05924900  0.31744000  1
  N  N70  1  0.92432000  0.94075100  0.81744000  1
  N  N71  1  0.42432000  0.55924900  0.18256000  1
  N  N72  1  0.96139600  0.31932400  0.41265800  1
  N  N73  1  0.46139600  0.18067600  0.58734200  1
  N  N74  1  0.03860400  0.81932400  0.08734200  1
  N  N75  1  0.53860400  0.68067600  0.91265800  1
  N  N76  1  0.03860400  0.68067600  0.58734200  1
  N  N77  1  0.53860400  0.81932400  0.41265800  1
  N  N78  1  0.96139600  0.18067600  0.91265800  1
  N  N79  1  0.46139600  0.31932400  0.08734200  1
  N  N80  1  0.80255800  0.31412400  0.21822500  1
  N  N81  1  0.30255800  0.18587600  0.78177500  1
  N  N82  1  0.19744200  0.81412400  0.28177500  1
  N  N83  1  0.69744200  0.68587600  0.71822500  1
  N  N84  1  0.19744200  0.68587600  0.78177500  1
  N  N85  1  0.69744200  0.81412400  0.21822500  1
  N  N86  1  0.80255800  0.18587600  0.71822500  1
  N  N87  1  0.30255800  0.31412400  0.28177500  1
