# generated using pymatgen
data_CrAuS2
_symmetry_space_group_name_H-M   'P 1'
_cell_length_a   7.43469446
_cell_length_b   7.43469446
_cell_length_c   7.43469430
_cell_angle_alpha   27.66529000
_cell_angle_beta   27.66529000
_cell_angle_gamma   27.66529281
_symmetry_Int_Tables_number   1
_chemical_formula_structural   CrAuS2
_chemical_formula_sum   'Cr1 Au1 S2'
_cell_volume   78.21247890
_cell_formula_units_Z   1
loop_
 _symmetry_equiv_pos_site_id
 _symmetry_equiv_pos_as_xyz
  1  'x, y, z'
loop_
 _atom_site_type_symbol
 _atom_site_label
 _atom_site_symmetry_multiplicity
 _atom_site_fract_x
 _atom_site_fract_y
 _atom_site_fract_z
 _atom_site_occupancy
  Cr  Cr0  1  0.50000000  0.50000000  0.50000000  1
  Au  Au1  1  0.00000000  0.00000000  0.00000000  1
  S  S2  1  0.89155900  0.89155900  0.89155900  1
  S  S3  1  0.10844100  0.10844100  0.10844100  1
