# generated using pymatgen
data_K5H(CN2)2
_symmetry_space_group_name_H-M   'P 1'
_cell_length_a   9.13228400
_cell_length_b   9.13228400
_cell_length_c   11.10360300
_cell_angle_alpha   90.00000000
_cell_angle_beta   90.00000000
_cell_angle_gamma   90.00000000
_symmetry_Int_Tables_number   1
_chemical_formula_structural   K5H(CN2)2
_chemical_formula_sum   'K20 H4 C8 N16'
_cell_volume   926.02506792
_cell_formula_units_Z   4
loop_
 _symmetry_equiv_pos_site_id
 _symmetry_equiv_pos_as_xyz
  1  'x, y, z'
loop_
 _atom_site_type_symbol
 _atom_site_label
 _atom_site_symmetry_multiplicity
 _atom_site_fract_x
 _atom_site_fract_y
 _atom_site_fract_z
 _atom_site_occupancy
  K  K0  1  0.29471400  0.39606600  0.10152200  1
  K  K1  1  0.29471400  0.60393400  0.60152200  1
  K  K2  1  0.39606600  0.29471400  0.39847800  1
  K  K3  1  0.39606600  0.70528600  0.89847800  1
  K  K4  1  0.50000000  0.00000000  0.15234400  1
  K  K5  1  0.50000000  0.00000000  0.65234400  1
  K  K6  1  0.60393400  0.29471400  0.89847800  1
  K  K7  1  0.60393400  0.70528600  0.39847800  1
  K  K8  1  0.70528600  0.39606600  0.60152200  1
  K  K9  1  0.70528600  0.60393400  0.10152200  1
  K  K10  1  0.79471400  0.89606600  0.89847800  1
  K  K11  1  0.79471400  0.10393400  0.39847800  1
  K  K12  1  0.89606600  0.79471400  0.60152200  1
  K  K13  1  0.89606600  0.20528600  0.10152200  1
  K  K14  1  0.00000000  0.50000000  0.34765600  1
  K  K15  1  0.00000000  0.50000000  0.84765600  1
  K  K16  1  0.10393400  0.79471400  0.10152200  1
  K  K17  1  0.10393400  0.20528600  0.60152200  1
  K  K18  1  0.20528600  0.10393400  0.89847800  1
  K  K19  1  0.20528600  0.89606600  0.39847800  1
  H  H20  1  0.50000000  0.00000000  0.39958200  1
  H  H21  1  0.50000000  0.00000000  0.89958200  1
  H  H22  1  0.00000000  0.50000000  0.10041800  1
  H  H23  1  0.00000000  0.50000000  0.60041800  1
  C  C24  1  0.35293100  0.35293100  0.75000000  1
  C  C25  1  0.35293100  0.64706900  0.25000000  1
  C  C26  1  0.64706900  0.35293100  0.25000000  1
  C  C27  1  0.64706900  0.64706900  0.75000000  1
  C  C28  1  0.85293100  0.85293100  0.25000000  1
  C  C29  1  0.85293100  0.14706900  0.75000000  1
  C  C30  1  0.14706900  0.85293100  0.75000000  1
  C  C31  1  0.14706900  0.14706900  0.25000000  1
  N  N32  1  0.30567000  0.59913200  0.34752900  1
  N  N33  1  0.30567000  0.40086800  0.84752900  1
  N  N34  1  0.40086800  0.69433000  0.15247100  1
  N  N35  1  0.40086800  0.30567000  0.65247100  1
  N  N36  1  0.59913200  0.30567000  0.15247100  1
  N  N37  1  0.59913200  0.69433000  0.65247100  1
  N  N38  1  0.69433000  0.40086800  0.34752900  1
  N  N39  1  0.69433000  0.59913200  0.84752900  1
  N  N40  1  0.80567000  0.90086800  0.15247100  1
  N  N41  1  0.80567000  0.09913200  0.65247100  1
  N  N42  1  0.90086800  0.80567000  0.34752900  1
  N  N43  1  0.90086800  0.19433000  0.84752900  1
  N  N44  1  0.09913200  0.19433000  0.34752900  1
  N  N45  1  0.09913200  0.80567000  0.84752900  1
  N  N46  1  0.19433000  0.90086800  0.65247100  1
  N  N47  1  0.19433000  0.09913200  0.15247100  1
