# generated using pymatgen
data_Sm3MoO7
_symmetry_space_group_name_H-M   'P 1'
_cell_length_a   7.59390500
_cell_length_b   7.63931400
_cell_length_c   10.72598000
_cell_angle_alpha   90.00000000
_cell_angle_beta   90.00000000
_cell_angle_gamma   90.00000000
_symmetry_Int_Tables_number   1
_chemical_formula_structural   Sm3MoO7
_chemical_formula_sum   'Sm12 Mo4 O28'
_cell_volume   622.23796276
_cell_formula_units_Z   4
loop_
 _symmetry_equiv_pos_site_id
 _symmetry_equiv_pos_as_xyz
  1  'x, y, z'
loop_
 _atom_site_type_symbol
 _atom_site_label
 _atom_site_symmetry_multiplicity
 _atom_site_fract_x
 _atom_site_fract_y
 _atom_site_fract_z
 _atom_site_occupancy
  Sm  Sm0  1  0.23799700  0.71423600  0.00751700  1
  Sm  Sm1  1  0.99635300  0.55012400  0.73446800  1
  Sm  Sm2  1  0.00408300  0.52990800  0.28441200  1
  Sm  Sm3  1  0.49591700  0.47009200  0.78441200  1
  Sm  Sm4  1  0.50364700  0.44987600  0.23446800  1
  Sm  Sm5  1  0.26200300  0.28576400  0.50751700  1
  Sm  Sm6  1  0.76200300  0.21423600  0.49248300  1
  Sm  Sm7  1  0.00364700  0.05012400  0.76553200  1
  Sm  Sm8  1  0.99591700  0.02990800  0.21558800  1
  Sm  Sm9  1  0.50408300  0.97009200  0.71558800  1
  Sm  Sm10  1  0.49635300  0.94987600  0.26553200  1
  Sm  Sm11  1  0.73799700  0.78576400  0.99248300  1
  Mo  Mo12  1  0.75005100  0.74723900  0.50124800  1
  Mo  Mo13  1  0.74994900  0.25276100  0.00124800  1
  Mo  Mo14  1  0.24994900  0.24723900  0.99875200  1
  Mo  Mo15  1  0.25005100  0.75276100  0.49875200  1
  O  O16  1  0.48192200  0.75442900  0.86757000  1
  O  O17  1  0.50422500  0.71138900  0.13456700  1
  O  O18  1  0.99720300  0.65845800  0.50750400  1
  O  O19  1  0.69909500  0.63097300  0.65231200  1
  O  O20  1  0.28813400  0.57765300  0.63081300  1
  O  O21  1  0.71792700  0.54424400  0.38400600  1
  O  O22  1  0.28781000  0.53155400  0.38152400  1
  O  O23  1  0.21219000  0.46844600  0.88152400  1
  O  O24  1  0.78207300  0.45575600  0.88400600  1
  O  O25  1  0.21186600  0.42234700  0.13081300  1
  O  O26  1  0.80090500  0.36902700  0.15231200  1
  O  O27  1  0.50279700  0.34154200  0.00750400  1
  O  O28  1  0.99577500  0.28861100  0.63456700  1
  O  O29  1  0.01807800  0.24557100  0.36757000  1
  O  O30  1  0.51807800  0.25442900  0.63243000  1
  O  O31  1  0.49577500  0.21138900  0.36543300  1
  O  O32  1  0.00279700  0.15845800  0.99249600  1
  O  O33  1  0.30090500  0.13097300  0.84768800  1
  O  O34  1  0.71186600  0.07765300  0.86918700  1
  O  O35  1  0.28207300  0.04424400  0.11599400  1
  O  O36  1  0.71219000  0.03155400  0.11847600  1
  O  O37  1  0.78781000  0.96844600  0.61847600  1
  O  O38  1  0.21792700  0.95575600  0.61599400  1
  O  O39  1  0.78813400  0.92234700  0.36918700  1
  O  O40  1  0.19909500  0.86902700  0.34768800  1
  O  O41  1  0.49720300  0.84154200  0.49249600  1
  O  O42  1  0.00422500  0.78861100  0.86543300  1
  O  O43  1  0.98192200  0.74557100  0.13243000  1
