# generated using pymatgen
data_Al2ZnSe4
_symmetry_space_group_name_H-M   'P 1'
_cell_length_a   6.78762429
_cell_length_b   6.78762429
_cell_length_c   6.78762429
_cell_angle_alpha   130.97790118
_cell_angle_beta   130.97790118
_cell_angle_gamma   71.84819177
_symmetry_Int_Tables_number   1
_chemical_formula_structural   Al2ZnSe4
_chemical_formula_sum   'Al2 Zn1 Se4'
_cell_volume   174.34513513
_cell_formula_units_Z   1
loop_
 _symmetry_equiv_pos_site_id
 _symmetry_equiv_pos_as_xyz
  1  'x, y, z'
loop_
 _atom_site_type_symbol
 _atom_site_label
 _atom_site_symmetry_multiplicity
 _atom_site_fract_x
 _atom_site_fract_y
 _atom_site_fract_z
 _atom_site_occupancy
  Al  Al0  1  0.25000000  0.75000000  0.50000000  1
  Al  Al1  1  0.50000000  0.50000000  0.00000000  1
  Zn  Zn2  1  0.00000000  0.00000000  0.00000000  1
  Se  Se3  1  0.61932200  0.13072600  0.01414700  1
  Se  Se4  1  0.39482500  0.38067800  0.51140400  1
  Se  Se5  1  0.86927400  0.88342100  0.48859600  1
  Se  Se6  1  0.11657900  0.60517500  0.98585300  1
