# generated using pymatgen
data_La10Bi8O27
_symmetry_space_group_name_H-M   'P 1'
_cell_length_a   8.19940900
_cell_length_b   10.58311547
_cell_length_c   10.60182374
_cell_angle_alpha   69.45628028
_cell_angle_beta   78.77228357
_cell_angle_gamma   78.76749994
_symmetry_Int_Tables_number   1
_chemical_formula_structural   La10Bi8O27
_chemical_formula_sum   'La10 Bi8 O27'
_cell_volume   836.93477637
_cell_formula_units_Z   1
loop_
 _symmetry_equiv_pos_site_id
 _symmetry_equiv_pos_as_xyz
  1  'x, y, z'
loop_
 _atom_site_type_symbol
 _atom_site_label
 _atom_site_symmetry_multiplicity
 _atom_site_fract_x
 _atom_site_fract_y
 _atom_site_fract_z
 _atom_site_occupancy
  La  La0  1  0.83567400  0.66517100  0.99024800  1
  La  La1  1  0.16115500  0.01645200  0.33501100  1
  La  La2  1  0.33937300  0.67009200  0.97451200  1
  La  La3  1  0.66320900  0.01791600  0.33087900  1
  La  La4  1  0.00171300  0.00929700  0.98757400  1
  La  La5  1  0.49980400  0.00714600  0.99001800  1
  La  La6  1  0.83586700  0.97801300  0.66879000  1
  La  La7  1  0.33697200  0.01004300  0.65841100  1
  La  La8  1  0.66447700  0.33839600  0.99145300  1
  La  La9  1  0.16408300  0.33002200  0.02101600  1
  Bi  Bi10  1  0.50068300  0.31861700  0.68195100  1
  Bi  Bi11  1  0.99956000  0.31797400  0.68178500  1
  Bi  Bi12  1  0.16378300  0.67771200  0.67577200  1
  Bi  Bi13  1  0.66262100  0.67439800  0.67418500  1
  Bi  Bi14  1  0.34075800  0.32563700  0.32350100  1
  Bi  Bi15  1  0.83331100  0.32333900  0.32264500  1
  Bi  Bi16  1  0.50300700  0.67653000  0.31419500  1
  Bi  Bi17  1  0.00182200  0.67508200  0.31375800  1
  O  O18  1  0.01242800  0.10405300  0.72822800  1
  O  O19  1  0.42957100  0.26890000  0.89583800  1
  O  O20  1  0.98918100  0.26978600  0.89545000  1
  O  O21  1  0.57032100  0.10452900  0.72974100  1
  O  O22  1  0.12773900  0.58302100  0.89491700  1
  O  O23  1  0.37085900  0.10559000  0.40378900  1
  O  O24  1  0.87210500  0.10034000  0.41442500  1
  O  O25  1  0.63169700  0.59499400  0.89390300  1
  O  O26  1  0.71768700  0.39873700  0.72908900  1
  O  O27  1  0.28244000  0.27658900  0.59744800  1
  O  O28  1  0.79412700  0.90172500  0.91978000  1
  O  O29  1  0.88773200  0.72913700  0.73183300  1
  O  O30  1  0.38421800  0.72962900  0.72884100  1
  O  O31  1  0.20564800  0.07784200  0.09838700  1
  O  O32  1  0.29465100  0.92364300  0.89922200  1
  O  O33  1  0.70699000  0.09422000  0.07991900  1
  O  O34  1  0.61596900  0.26714200  0.26773700  1
  O  O35  1  0.11342300  0.26994500  0.27053600  1
  O  O36  1  0.76716400  0.61704700  0.31303600  1
  O  O37  1  0.13515200  0.89667000  0.58390600  1
  O  O38  1  0.37711100  0.41924600  0.09359400  1
  O  O39  1  0.62266900  0.90468900  0.58277500  1
  O  O40  1  0.86510300  0.41455000  0.10330000  1
  O  O41  1  0.46467400  0.88108100  0.29528000  1
  O  O42  1  0.94738300  0.87935600  0.29679500  1
  O  O43  1  0.06074100  0.71944000  0.10492600  1
  O  O44  1  0.52549900  0.72181400  0.10545000  1
