# generated using pymatgen
data_Li2MnF6
_symmetry_space_group_name_H-M   'P 1'
_cell_length_a   8.57721741
_cell_length_b   8.57721741
_cell_length_c   4.65919700
_cell_angle_alpha   90.00000000
_cell_angle_beta   90.00000000
_cell_angle_gamma   119.99999545
_symmetry_Int_Tables_number   1
_chemical_formula_structural   Li2MnF6
_chemical_formula_sum   'Li6 Mn3 F18'
_cell_volume   296.84829726
_cell_formula_units_Z   3
loop_
 _symmetry_equiv_pos_site_id
 _symmetry_equiv_pos_as_xyz
  1  'x, y, z'
loop_
 _atom_site_type_symbol
 _atom_site_label
 _atom_site_symmetry_multiplicity
 _atom_site_fract_x
 _atom_site_fract_y
 _atom_site_fract_z
 _atom_site_occupancy
  Li  Li0  1  0.00000000  0.64382600  0.00000000  1
  Li  Li1  1  0.00000000  0.30813900  0.50000000  1
  Li  Li2  1  0.35617400  0.35617400  0.00000000  1
  Li  Li3  1  0.30813900  0.00000000  0.50000000  1
  Li  Li4  1  0.69186100  0.69186100  0.50000000  1
  Li  Li5  1  0.64382600  0.00000000  0.00000000  1
  Mn  Mn6  1  0.33333300  0.66666700  0.51201700  1
  Mn  Mn7  1  0.00000000  0.00000000  0.00000000  1
  Mn  Mn8  1  0.66666700  0.33333300  0.48798300  1
  F  F9  1  0.09851100  0.89224300  0.77937800  1
  F  F10  1  0.22932000  0.76831800  0.28892200  1
  F  F11  1  0.12774000  0.55631700  0.73425500  1
  F  F12  1  0.42857800  0.87226000  0.73425500  1
  F  F13  1  0.23168200  0.46100200  0.28892200  1
  F  F14  1  0.10775700  0.20626800  0.77937800  1
  F  F15  1  0.20626800  0.10775700  0.22062200  1
  F  F16  1  0.44368300  0.57142200  0.73425500  1
  F  F17  1  0.53899800  0.77068000  0.28892200  1
  F  F18  1  0.46100200  0.23168200  0.71107800  1
  F  F19  1  0.57142200  0.44368300  0.26574500  1
  F  F20  1  0.79373200  0.90148900  0.77937800  1
  F  F21  1  0.55631700  0.12774000  0.26574500  1
  F  F22  1  0.77068000  0.53899800  0.71107800  1
  F  F23  1  0.90148900  0.79373200  0.22062200  1
  F  F24  1  0.76831800  0.22932000  0.71107800  1
  F  F25  1  0.87226000  0.42857800  0.26574500  1
  F  F26  1  0.89224300  0.09851100  0.22062200  1
