# generated using pymatgen
data_Sr2Fe2H2OF10
_symmetry_space_group_name_H-M   'P 1'
_cell_length_a   10.78734414
_cell_length_b   10.78734414
_cell_length_c   10.94571700
_cell_angle_alpha   90.00000000
_cell_angle_beta   90.00000000
_cell_angle_gamma   136.72932990
_symmetry_Int_Tables_number   1
_chemical_formula_structural   Sr2Fe2H2OF10
_chemical_formula_sum   'Sr8 Fe8 H8 O4 F40'
_cell_volume   873.06453752
_cell_formula_units_Z   4
loop_
 _symmetry_equiv_pos_site_id
 _symmetry_equiv_pos_as_xyz
  1  'x, y, z'
loop_
 _atom_site_type_symbol
 _atom_site_label
 _atom_site_symmetry_multiplicity
 _atom_site_fract_x
 _atom_site_fract_y
 _atom_site_fract_z
 _atom_site_occupancy
  Sr  Sr0  1  0.53026700  0.96973300  0.75000000  1
  Sr  Sr1  1  0.96973300  0.53026700  0.25000000  1
  Sr  Sr2  1  0.46973300  0.03026700  0.25000000  1
  Sr  Sr3  1  0.03026700  0.46973300  0.75000000  1
  Sr  Sr4  1  0.61980800  0.38019200  0.95311400  1
  Sr  Sr5  1  0.38019200  0.61980800  0.04688600  1
  Sr  Sr6  1  0.88019200  0.11980800  0.45311400  1
  Sr  Sr7  1  0.11980800  0.88019200  0.54688600  1
  Fe  Fe8  1  0.71563700  0.78436300  0.75000000  1
  Fe  Fe9  1  0.78436300  0.71563700  0.25000000  1
  Fe  Fe10  1  0.28436300  0.21563700  0.25000000  1
  Fe  Fe11  1  0.21563700  0.28436300  0.75000000  1
  Fe  Fe12  1  0.68083200  0.31916800  0.56447200  1
  Fe  Fe13  1  0.31916800  0.68083200  0.43552800  1
  Fe  Fe14  1  0.81916800  0.18083200  0.06447200  1
  Fe  Fe15  1  0.18083200  0.81916800  0.93552800  1
  H  H16  1  0.45420600  0.34002300  0.57987200  1
  H  H17  1  0.34002300  0.45420600  0.42012800  1
  H  H18  1  0.84002300  0.95420600  0.07987200  1
  H  H19  1  0.95420600  0.84002300  0.92012800  1
  H  H20  1  0.54579400  0.65997700  0.42012800  1
  H  H21  1  0.65997700  0.54579400  0.57987200  1
  H  H22  1  0.15997700  0.04579400  0.92012800  1
  H  H23  1  0.04579400  0.15997700  0.07987200  1
  O  O24  1  0.58093300  0.41906700  0.55145900  1
  O  O25  1  0.41906700  0.58093300  0.44854100  1
  O  O26  1  0.91906700  0.08093300  0.05145900  1
  O  O27  1  0.08093300  0.91906700  0.94854100  1
  F  F28  1  0.69593200  0.90612900  0.63533500  1
  F  F29  1  0.90612900  0.69593200  0.36466500  1
  F  F30  1  0.40612900  0.19593200  0.13533500  1
  F  F31  1  0.19593200  0.40612900  0.86466500  1
  F  F32  1  0.30406800  0.09387100  0.36466500  1
  F  F33  1  0.09387100  0.30406800  0.63533500  1
  F  F34  1  0.59387100  0.80406800  0.86466500  1
  F  F35  1  0.80406800  0.59387100  0.13533500  1
  F  F36  1  0.44762000  0.07162800  0.57853600  1
  F  F37  1  0.07162800  0.44762000  0.42146400  1
  F  F38  1  0.57162800  0.94762000  0.07853600  1
  F  F39  1  0.94762000  0.57162800  0.92146400  1
  F  F40  1  0.55238000  0.92837200  0.42146400  1
  F  F41  1  0.92837200  0.55238000  0.57853600  1
  F  F42  1  0.42837200  0.05238000  0.92146400  1
  F  F43  1  0.05238000  0.42837200  0.07853600  1
  F  F44  1  0.24395200  0.17602400  0.62567000  1
  F  F45  1  0.17602400  0.24395200  0.37433000  1
  F  F46  1  0.67602400  0.74395200  0.12567000  1
  F  F47  1  0.74395200  0.67602400  0.87433000  1
  F  F48  1  0.75604800  0.82397600  0.37433000  1
  F  F49  1  0.82397600  0.75604800  0.62567000  1
  F  F50  1  0.32397600  0.25604800  0.87433000  1
  F  F51  1  0.25604800  0.32397600  0.12567000  1
  F  F52  1  0.80162700  0.19837300  0.88850900  1
  F  F53  1  0.19837300  0.80162700  0.11149100  1
  F  F54  1  0.69837300  0.30162700  0.38850900  1
  F  F55  1  0.30162700  0.69837300  0.61149100  1
  F  F56  1  0.67984700  0.32015300  0.74709900  1
  F  F57  1  0.32015300  0.67984700  0.25290100  1
  F  F58  1  0.82015300  0.17984700  0.24709900  1
  F  F59  1  0.17984700  0.82015300  0.75290100  1
  F  F60  1  0.97032400  0.02967600  0.78971100  1
  F  F61  1  0.02967600  0.97032400  0.21028900  1
  F  F62  1  0.52967600  0.47032400  0.28971100  1
  F  F63  1  0.47032400  0.52967600  0.71028900  1
  F  F64  1  0.78055200  0.21944800  0.60221200  1
  F  F65  1  0.21944800  0.78055200  0.39778800  1
  F  F66  1  0.71944800  0.28055200  0.10221200  1
  F  F67  1  0.28055200  0.71944800  0.89778800  1
