# generated using pymatgen
data_AlBMo
_symmetry_space_group_name_H-M   'P 1'
_cell_length_a   7.19784169
_cell_length_b   7.19784169
_cell_length_c   3.11322300
_cell_angle_alpha   90.00000000
_cell_angle_beta   90.00000000
_cell_angle_gamma   154.08801185
_symmetry_Int_Tables_number   1
_chemical_formula_structural   AlBMo
_chemical_formula_sum   'Al2 B2 Mo2'
_cell_volume   70.48331241
_cell_formula_units_Z   2
loop_
 _symmetry_equiv_pos_site_id
 _symmetry_equiv_pos_as_xyz
  1  'x, y, z'
loop_
 _atom_site_type_symbol
 _atom_site_label
 _atom_site_symmetry_multiplicity
 _atom_site_fract_x
 _atom_site_fract_y
 _atom_site_fract_z
 _atom_site_occupancy
  Al  Al0  1  0.69849000  0.30151000  0.75000000  1
  Al  Al1  1  0.30151000  0.69849000  0.25000000  1
  B  B2  1  0.46665400  0.53334600  0.25000000  1
  B  B3  1  0.53334600  0.46665400  0.75000000  1
  Mo  Mo4  1  0.08940200  0.91059800  0.25000000  1
  Mo  Mo5  1  0.91059800  0.08940200  0.75000000  1
