# generated using pymatgen
data_YbTiO3
_symmetry_space_group_name_H-M   'P 1'
_cell_length_a   5.33387900
_cell_length_b   5.49145400
_cell_length_c   7.61434800
_cell_angle_alpha   90.00000000
_cell_angle_beta   90.00000000
_cell_angle_gamma   90.00000000
_symmetry_Int_Tables_number   1
_chemical_formula_structural   YbTiO3
_chemical_formula_sum   'Yb4 Ti4 O12'
_cell_volume   223.02997259
_cell_formula_units_Z   4
loop_
 _symmetry_equiv_pos_site_id
 _symmetry_equiv_pos_as_xyz
  1  'x, y, z'
loop_
 _atom_site_type_symbol
 _atom_site_label
 _atom_site_symmetry_multiplicity
 _atom_site_fract_x
 _atom_site_fract_y
 _atom_site_fract_z
 _atom_site_occupancy
  Yb  Yb0  1  0.98784100  0.44641500  0.75000000  1
  Yb  Yb1  1  0.51215900  0.94641500  0.75000000  1
  Yb  Yb2  1  0.48784100  0.05358500  0.25000000  1
  Yb  Yb3  1  0.01215900  0.55358500  0.25000000  1
  Ti  Ti4  1  0.00000000  0.00000000  0.00000000  1
  Ti  Ti5  1  0.00000000  0.00000000  0.50000000  1
  Ti  Ti6  1  0.50000000  0.50000000  0.00000000  1
  Ti  Ti7  1  0.50000000  0.50000000  0.50000000  1
  O  O8  1  0.08655300  0.02452500  0.75000000  1
  O  O9  1  0.20457900  0.29414900  0.04574300  1
  O  O10  1  0.20457900  0.29414900  0.45425700  1
  O  O11  1  0.29542100  0.79414900  0.45425700  1
  O  O12  1  0.29542100  0.79414900  0.04574300  1
  O  O13  1  0.41344700  0.52452500  0.75000000  1
  O  O14  1  0.58655300  0.47547500  0.25000000  1
  O  O15  1  0.70457900  0.20585100  0.95425700  1
  O  O16  1  0.70457900  0.20585100  0.54574300  1
  O  O17  1  0.79542100  0.70585100  0.54574300  1
  O  O18  1  0.79542100  0.70585100  0.95425700  1
  O  O19  1  0.91344700  0.97547500  0.25000000  1
