# generated using pymatgen
data_Sr12Fe8O27
_symmetry_space_group_name_H-M   'P 1'
_cell_length_a   7.83485800
_cell_length_b   8.76019012
_cell_length_c   10.56314323
_cell_angle_alpha   94.75657171
_cell_angle_beta   100.68866164
_cell_angle_gamma   116.55092348
_symmetry_Int_Tables_number   1
_chemical_formula_structural   Sr12Fe8O27
_chemical_formula_sum   'Sr12 Fe8 O27'
_cell_volume   625.84392327
_cell_formula_units_Z   1
loop_
 _symmetry_equiv_pos_site_id
 _symmetry_equiv_pos_as_xyz
  1  'x, y, z'
loop_
 _atom_site_type_symbol
 _atom_site_label
 _atom_site_symmetry_multiplicity
 _atom_site_fract_x
 _atom_site_fract_y
 _atom_site_fract_z
 _atom_site_occupancy
  Sr  Sr0  1  0.24094800  0.16076300  0.63711500  1
  Sr  Sr1  1  0.73703600  0.16010600  0.63389900  1
  Sr  Sr2  1  0.38773600  0.25845600  0.00028000  1
  Sr  Sr3  1  0.51486100  0.34385500  0.36591300  1
  Sr  Sr4  1  0.87064900  0.25808600  0.99998300  1
  Sr  Sr5  1  0.01107200  0.34229200  0.36579400  1
  Sr  Sr6  1  0.98892800  0.65770800  0.63420600  1
  Sr  Sr7  1  0.48513900  0.65614500  0.63408700  1
  Sr  Sr8  1  0.12935100  0.74191400  0.00001700  1
  Sr  Sr9  1  0.26296400  0.83989400  0.36610100  1
  Sr  Sr10  1  0.75905200  0.83923700  0.36288500  1
  Sr  Sr11  1  0.61226400  0.74154400  0.99972000  1
  Fe  Fe12  1  0.07932100  0.05274900  0.21017000  1
  Fe  Fe13  1  0.57168100  0.04822900  0.19196000  1
  Fe  Fe14  1  0.67889500  0.45401900  0.80589700  1
  Fe  Fe15  1  0.17568000  0.44936200  0.80574400  1
  Fe  Fe16  1  0.82432000  0.55063800  0.19425600  1
  Fe  Fe17  1  0.32110500  0.54598100  0.19410300  1
  Fe  Fe18  1  0.42831900  0.95177100  0.80804000  1
  Fe  Fe19  1  0.92067900  0.94725100  0.78983000  1
  O  O20  1  0.15169200  0.10031500  0.39785200  1
  O  O21  1  0.30759400  0.04516700  0.17990900  1
  O  O22  1  0.55343400  0.20077700  0.80879700  1
  O  O23  1  0.64308800  0.09681600  0.38447300  1
  O  O24  1  0.82784700  0.04520600  0.18030800  1
  O  O25  1  0.05251000  0.19578700  0.82041400  1
  O  O26  1  0.60977200  0.41016800  0.61295700  1
  O  O27  1  0.69613100  0.29648400  0.19115700  1
  O  O28  1  0.92835700  0.45234400  0.80899200  1
  O  O29  1  0.10046100  0.39765200  0.61266000  1
  O  O30  1  0.42866200  0.45269700  0.80895600  1
  O  O31  1  0.18767200  0.28555800  0.17951600  1
  O  O32  1  0.81232800  0.71444200  0.82048400  1
  O  O33  1  0.74836900  0.49673900  0.99978700  1
  O  O34  1  0.57133800  0.54730300  0.19104400  1
  O  O35  1  0.89953900  0.60234800  0.38734000  1
  O  O36  1  0.30386900  0.70351600  0.80884300  1
  O  O37  1  0.39022800  0.58983200  0.38704300  1
  O  O38  1  0.25163100  0.50326100  0.00021300  1
  O  O39  1  0.07164300  0.54765600  0.19100800  1
  O  O40  1  0.69240600  0.95483300  0.82009100  1
  O  O41  1  0.35691200  0.90318400  0.61552700  1
  O  O42  1  0.94749000  0.80421300  0.17958600  1
  O  O43  1  0.17215300  0.95479400  0.81969200  1
  O  O44  1  0.84830800  0.89968500  0.60214800  1
  O  O45  1  0.44656600  0.79922300  0.19120300  1
  O  O46  1  0.50000000  0.00000000  0.00000000  1
