# generated using pymatgen
data_Tm2GeO5
_symmetry_space_group_name_H-M   'P 1'
_cell_length_a   8.16142527
_cell_length_b   8.16142527
_cell_length_c   10.37103205
_cell_angle_alpha   61.35847981
_cell_angle_beta   61.35847981
_cell_angle_gamma   49.29646183
_symmetry_Int_Tables_number   1
_chemical_formula_structural   Tm2GeO5
_chemical_formula_sum   'Tm8 Ge4 O20'
_cell_volume   444.94536246
_cell_formula_units_Z   4
loop_
 _symmetry_equiv_pos_site_id
 _symmetry_equiv_pos_as_xyz
  1  'x, y, z'
loop_
 _atom_site_type_symbol
 _atom_site_label
 _atom_site_symmetry_multiplicity
 _atom_site_fract_x
 _atom_site_fract_y
 _atom_site_fract_z
 _atom_site_occupancy
  Tm  Tm0  1  0.72506100  0.20578000  0.46543500  1
  Tm  Tm1  1  0.26443700  0.00831500  0.16299800  1
  Tm  Tm2  1  0.99168500  0.73556300  0.33700200  1
  Tm  Tm3  1  0.79422000  0.27493900  0.03456500  1
  Tm  Tm4  1  0.20578000  0.72506100  0.96543500  1
  Tm  Tm5  1  0.00831500  0.26443700  0.66299800  1
  Tm  Tm6  1  0.73556300  0.99168500  0.83700200  1
  Tm  Tm7  1  0.27493900  0.79422000  0.53456500  1
  Ge  Ge8  1  0.40827200  0.22135800  0.30945400  1
  Ge  Ge9  1  0.22135800  0.40827200  0.80945400  1
  Ge  Ge10  1  0.77864200  0.59172800  0.19054600  1
  Ge  Ge11  1  0.59172800  0.77864200  0.69054600  1
  O  O12  1  0.08089700  0.88470700  0.39776800  1
  O  O13  1  0.21814700  0.37264600  0.44974300  1
  O  O14  1  0.91598400  0.31547700  0.17656300  1
  O  O15  1  0.68452300  0.08401600  0.32343700  1
  O  O16  1  0.62735400  0.78185300  0.05025700  1
  O  O17  1  0.11529300  0.91910300  0.10223200  1
  O  O18  1  0.34780700  0.04065700  0.32519000  1
  O  O19  1  0.42170300  0.41565700  0.13312100  1
  O  O20  1  0.58434300  0.57829700  0.36687900  1
  O  O21  1  0.95934300  0.65219300  0.17481000  1
  O  O22  1  0.04065700  0.34780700  0.82519000  1
  O  O23  1  0.41565700  0.42170300  0.63312100  1
  O  O24  1  0.57829700  0.58434300  0.86687900  1
  O  O25  1  0.65219300  0.95934300  0.67481000  1
  O  O26  1  0.88470700  0.08089700  0.89776800  1
  O  O27  1  0.37264600  0.21814700  0.94974300  1
  O  O28  1  0.31547700  0.91598400  0.67656300  1
  O  O29  1  0.08401600  0.68452300  0.82343700  1
  O  O30  1  0.78185300  0.62735400  0.55025700  1
  O  O31  1  0.91910300  0.11529300  0.60223200  1
