# generated using pymatgen
data_Co(NO3)4
_symmetry_space_group_name_H-M   'P 1'
_cell_length_a   7.42561600
_cell_length_b   11.91395238
_cell_length_c   12.84753607
_cell_angle_alpha   101.62078804
_cell_angle_beta   93.83026651
_cell_angle_gamma   105.57334906
_symmetry_Int_Tables_number   1
_chemical_formula_structural   Co(NO3)4
_chemical_formula_sum   'Co4 N16 O48'
_cell_volume   1063.59421259
_cell_formula_units_Z   4
loop_
 _symmetry_equiv_pos_site_id
 _symmetry_equiv_pos_as_xyz
  1  'x, y, z'
loop_
 _atom_site_type_symbol
 _atom_site_label
 _atom_site_symmetry_multiplicity
 _atom_site_fract_x
 _atom_site_fract_y
 _atom_site_fract_z
 _atom_site_occupancy
  Co  Co0  1  0.10927200  0.83273700  0.72444300  1
  Co  Co1  1  0.47964200  0.68877400  0.24369700  1
  Co  Co2  1  0.52035800  0.31122600  0.75630300  1
  Co  Co3  1  0.89072800  0.16726300  0.27555700  1
  N  N4  1  0.10638000  0.68479700  0.87209400  1
  N  N5  1  0.18547000  0.58304200  0.35566900  1
  N  N6  1  0.04577000  0.02558100  0.79271800  1
  N  N7  1  0.45358200  0.89516800  0.69225300  1
  N  N8  1  0.20702100  0.28856700  0.38031000  1
  N  N9  1  0.42140100  0.81091600  0.11889000  1
  N  N10  1  0.30790800  0.17010700  0.60109000  1
  N  N11  1  0.40989800  0.48671800  0.11529600  1
  N  N12  1  0.59010200  0.51328200  0.88470400  1
  N  N13  1  0.69209200  0.82989300  0.39891000  1
  N  N14  1  0.57859900  0.18908400  0.88111000  1
  N  N15  1  0.79297900  0.71143300  0.61969000  1
  N  N16  1  0.54641800  0.10483200  0.30774700  1
  N  N17  1  0.95423000  0.97441900  0.20728200  1
  N  N18  1  0.81453000  0.41695800  0.64433100  1
  N  N19  1  0.89362000  0.31520300  0.12790600  1
  O  O20  1  0.07476900  0.98223800  0.69423100  1
  O  O21  1  0.06108200  0.95625400  0.85506200  1
  O  O22  1  0.01432400  0.74414100  0.92078300  1
  O  O23  1  0.15919600  0.70345800  0.77715700  1
  O  O24  1  0.16111100  0.60553200  0.90108000  1
  O  O25  1  0.09539500  0.63323700  0.30685900  1
  O  O26  1  0.12659900  0.51809600  0.41697900  1
  O  O27  1  0.01037500  0.12014700  0.81733700  1
  O  O28  1  0.32352200  0.82562600  0.61873500  1
  O  O29  1  0.04501300  0.26347700  0.41774800  1
  O  O30  1  0.38990400  0.92956000  0.78176700  1
  O  O31  1  0.30290200  0.77116200  0.18138600  1
  O  O32  1  0.39254300  0.86629300  0.05313400  1
  O  O33  1  0.27702000  0.53481900  0.12143400  1
  O  O34  1  0.19018900  0.24992800  0.27804700  1
  O  O35  1  0.36878800  0.59632100  0.34324100  1
  O  O36  1  0.27586600  0.25965600  0.66738200  1
  O  O37  1  0.19445000  0.10750700  0.52592400  1
  O  O38  1  0.61972200  0.92738100  0.68133200  1
  O  O39  1  0.52983900  0.84195000  0.37276400  1
  O  O40  1  0.35454700  0.34127000  0.43728300  1
  O  O41  1  0.43327200  0.44529800  0.82482900  1
  O  O42  1  0.57780600  0.78301100  0.13504700  1
  O  O43  1  0.40197100  0.38900900  0.06075500  1
  O  O44  1  0.59802900  0.61099100  0.93924500  1
  O  O45  1  0.42219400  0.21698900  0.86495300  1
  O  O46  1  0.56672800  0.55470200  0.17517100  1
  O  O47  1  0.64545300  0.65873000  0.56271700  1
  O  O48  1  0.47016100  0.15805000  0.62723600  1
  O  O49  1  0.38027800  0.07261900  0.31866800  1
  O  O50  1  0.80555000  0.89249300  0.47407600  1
  O  O51  1  0.72413400  0.74034400  0.33261800  1
  O  O52  1  0.63121200  0.40367900  0.65675900  1
  O  O53  1  0.80981100  0.75007200  0.72195300  1
  O  O54  1  0.72298000  0.46518100  0.87856600  1
  O  O55  1  0.60745700  0.13370700  0.94686600  1
  O  O56  1  0.69709800  0.22883800  0.81861400  1
  O  O57  1  0.61009600  0.07044000  0.21823300  1
  O  O58  1  0.95498700  0.73652300  0.58225200  1
  O  O59  1  0.67647800  0.17437400  0.38126500  1
  O  O60  1  0.98962500  0.87985300  0.18266300  1
  O  O61  1  0.87340100  0.48190400  0.58302100  1
  O  O62  1  0.90460500  0.36676300  0.69314100  1
  O  O63  1  0.83888900  0.39446800  0.09892000  1
  O  O64  1  0.84080400  0.29654200  0.22284300  1
  O  O65  1  0.98567600  0.25585900  0.07921700  1
  O  O66  1  0.93891800  0.04374600  0.14493800  1
  O  O67  1  0.92523100  0.01776200  0.30576900  1
