# generated using pymatgen
data_AlAsO4
_symmetry_space_group_name_H-M   'P 1'
_cell_length_a   5.28298008
_cell_length_b   5.28298008
_cell_length_c   5.28298008
_cell_angle_alpha   121.40772884
_cell_angle_beta   121.40772884
_cell_angle_gamma   87.57855941
_symmetry_Int_Tables_number   1
_chemical_formula_structural   AlAsO4
_chemical_formula_sum   'Al1 As1 O4'
_cell_volume   101.94364269
_cell_formula_units_Z   1
loop_
 _symmetry_equiv_pos_site_id
 _symmetry_equiv_pos_as_xyz
  1  'x, y, z'
loop_
 _atom_site_type_symbol
 _atom_site_label
 _atom_site_symmetry_multiplicity
 _atom_site_fract_x
 _atom_site_fract_y
 _atom_site_fract_z
 _atom_site_occupancy
  Al  Al0  1  0.00000000  0.00000000  0.00000000  1
  As  As1  1  0.75000000  0.25000000  0.50000000  1
  O  O2  1  0.00158000  0.61737500  0.86971900  1
  O  O3  1  0.86813800  0.99842000  0.61579400  1
  O  O4  1  0.74765600  0.13186200  0.13028100  1
  O  O5  1  0.38262500  0.25234400  0.38420600  1
