# generated using pymatgen
data_H7IN2
_symmetry_space_group_name_H-M   'P 1'
_cell_length_a   7.35795900
_cell_length_b   7.37231300
_cell_length_c   9.74706900
_cell_angle_alpha   90.00000000
_cell_angle_beta   90.00000000
_cell_angle_gamma   90.00000000
_symmetry_Int_Tables_number   1
_chemical_formula_structural   H7IN2
_chemical_formula_sum   'H28 I4 N8'
_cell_volume   528.73148108
_cell_formula_units_Z   4
loop_
 _symmetry_equiv_pos_site_id
 _symmetry_equiv_pos_as_xyz
  1  'x, y, z'
loop_
 _atom_site_type_symbol
 _atom_site_label
 _atom_site_symmetry_multiplicity
 _atom_site_fract_x
 _atom_site_fract_y
 _atom_site_fract_z
 _atom_site_occupancy
  H  H0  1  0.50000000  0.50000000  0.00000000  1
  H  H1  1  0.00000000  0.00000000  0.50000000  1
  H  H2  1  0.00000000  0.00000000  0.00000000  1
  H  H3  1  0.50000000  0.50000000  0.50000000  1
  H  H4  1  0.32952800  0.65582800  0.90290900  1
  H  H5  1  0.17047200  0.84417200  0.40290900  1
  H  H6  1  0.82952800  0.84417200  0.09709100  1
  H  H7  1  0.67047200  0.65582800  0.59709100  1
  H  H8  1  0.67047200  0.34417200  0.09709100  1
  H  H9  1  0.82952800  0.15582800  0.59709100  1
  H  H10  1  0.17047200  0.15582800  0.90290900  1
  H  H11  1  0.32952800  0.34417200  0.40290900  1
  H  H12  1  0.26590300  0.58864200  0.05834100  1
  H  H13  1  0.23409700  0.91135800  0.55834100  1
  H  H14  1  0.76590300  0.91135800  0.94165900  1
  H  H15  1  0.73409700  0.58864200  0.44165900  1
  H  H16  1  0.73409700  0.41135800  0.94165900  1
  H  H17  1  0.76590300  0.08864200  0.44165900  1
  H  H18  1  0.23409700  0.08864200  0.05834100  1
  H  H19  1  0.26590300  0.41135800  0.55834100  1
  H  H20  1  0.42680700  0.74503600  0.04161200  1
  H  H21  1  0.07319300  0.75496400  0.54161200  1
  H  H22  1  0.92680700  0.75496400  0.95838800  1
  H  H23  1  0.57319300  0.74503600  0.45838800  1
  H  H24  1  0.57319300  0.25496400  0.95838800  1
  H  H25  1  0.92680700  0.24503600  0.45838800  1
  H  H26  1  0.07319300  0.24503600  0.04161200  1
  H  H27  1  0.42680700  0.25496400  0.54161200  1
  I  I28  1  0.00000000  0.48927200  0.75000000  1
  I  I29  1  0.50000000  0.01072800  0.25000000  1
  I  I30  1  0.00000000  0.51072800  0.25000000  1
  I  I31  1  0.50000000  0.98927200  0.75000000  1
  N  N32  1  0.37633200  0.62727500  0.99963900  1
  N  N33  1  0.12366800  0.87272500  0.49963900  1
  N  N34  1  0.87633200  0.87272500  0.00036100  1
  N  N35  1  0.62366800  0.62727500  0.50036100  1
  N  N36  1  0.62366800  0.37272500  0.00036100  1
  N  N37  1  0.87633200  0.12727500  0.50036100  1
  N  N38  1  0.12366800  0.12727500  0.99963900  1
  N  N39  1  0.37633200  0.37272500  0.49963900  1
