# generated using pymatgen
data_PNO
_symmetry_space_group_name_H-M   'P 1'
_cell_length_a   4.83280632
_cell_length_b   4.83280632
_cell_length_c   4.83280632
_cell_angle_alpha   124.18253759
_cell_angle_beta   120.01728003
_cell_angle_gamma   86.44007511
_symmetry_Int_Tables_number   1
_chemical_formula_structural   PNO
_chemical_formula_sum   'P2 N2 O2'
_cell_volume   76.98153508
_cell_formula_units_Z   2
loop_
 _symmetry_equiv_pos_site_id
 _symmetry_equiv_pos_as_xyz
  1  'x, y, z'
loop_
 _atom_site_type_symbol
 _atom_site_label
 _atom_site_symmetry_multiplicity
 _atom_site_fract_x
 _atom_site_fract_y
 _atom_site_fract_z
 _atom_site_occupancy
  P  P0  1  0.88951700  0.13951700  0.75000000  1
  P  P1  1  0.61048300  0.36048300  0.25000000  1
  N  N2  1  0.25000000  0.10923100  0.85923100  1
  N  N3  1  0.75000000  0.39076900  0.64076900  1
  O  O4  1  0.62700000  0.75000000  0.37700000  1
  O  O5  1  0.87300000  0.25000000  0.12300000  1
