# generated using pymatgen
data_AlH11SO10
_symmetry_space_group_name_H-M   'P 1'
_cell_length_a   12.62794600
_cell_length_b   8.15689900
_cell_length_c   10.47914052
_cell_angle_alpha   51.80020504
_cell_angle_beta   90.00000000
_cell_angle_gamma   90.00000000
_symmetry_Int_Tables_number   1
_chemical_formula_structural   AlH11SO10
_chemical_formula_sum   'Al4 H44 S4 O40'
_cell_volume   848.25837224
_cell_formula_units_Z   4
loop_
 _symmetry_equiv_pos_site_id
 _symmetry_equiv_pos_as_xyz
  1  'x, y, z'
loop_
 _atom_site_type_symbol
 _atom_site_label
 _atom_site_symmetry_multiplicity
 _atom_site_fract_x
 _atom_site_fract_y
 _atom_site_fract_z
 _atom_site_occupancy
  Al  Al0  1  0.99178400  0.03983600  0.61636700  1
  Al  Al1  1  0.50821600  0.03983600  0.11636700  1
  Al  Al2  1  0.00821600  0.96016400  0.38363300  1
  Al  Al3  1  0.49178400  0.96016400  0.88363300  1
  H  H4  1  0.16645000  0.01698700  0.50925100  1
  H  H5  1  0.33355000  0.01698700  0.00925100  1
  H  H6  1  0.83355000  0.98301300  0.49074900  1
  H  H7  1  0.66645000  0.98301300  0.99074900  1
  H  H8  1  0.10215800  0.17469100  0.74246000  1
  H  H9  1  0.39784200  0.17469100  0.24246000  1
  H  H10  1  0.89784200  0.82530900  0.25754000  1
  H  H11  1  0.60215800  0.82530900  0.75754000  1
  H  H12  1  0.12096600  0.91938700  0.85387800  1
  H  H13  1  0.37903400  0.91938700  0.35387800  1
  H  H14  1  0.87903400  0.08061300  0.14612200  1
  H  H15  1  0.62096600  0.08061300  0.64612200  1
  H  H16  1  0.80735700  0.17795200  0.62324900  1
  H  H17  1  0.69264300  0.17795200  0.12324900  1
  H  H18  1  0.19264300  0.82204800  0.37675100  1
  H  H19  1  0.30735700  0.82204800  0.87675100  1
  H  H20  1  0.85496500  0.03115100  0.80710300  1
  H  H21  1  0.64503500  0.03115100  0.30710300  1
  H  H22  1  0.14503500  0.96884900  0.19289700  1
  H  H23  1  0.35496500  0.96884900  0.69289700  1
  H  H24  1  0.96934800  0.43987700  0.39703300  1
  H  H25  1  0.53065200  0.43987700  0.89703300  1
  H  H26  1  0.03065200  0.56012300  0.60296700  1
  H  H27  1  0.46934800  0.56012300  0.10296700  1
  H  H28  1  0.09389000  0.38122400  0.40526300  1
  H  H29  1  0.40611000  0.38122400  0.90526300  1
  H  H30  1  0.90611000  0.61877600  0.59473700  1
  H  H31  1  0.59389000  0.61877600  0.09473700  1
  H  H32  1  0.93468800  0.69030700  0.89709300  1
  H  H33  1  0.56531200  0.69030700  0.39709300  1
  H  H34  1  0.06531200  0.30969300  0.10290700  1
  H  H35  1  0.43468800  0.30969300  0.60290700  1
  H  H36  1  0.02450100  0.64460400  0.81408700  1
  H  H37  1  0.47549900  0.64460400  0.31408700  1
  H  H38  1  0.97549900  0.35539600  0.18591300  1
  H  H39  1  0.52450100  0.35539600  0.68591300  1
  H  H40  1  0.70304100  0.37421300  0.40456200  1
  H  H41  1  0.79695900  0.37421300  0.90456200  1
  H  H42  1  0.29695900  0.62578700  0.59543800  1
  H  H43  1  0.20304100  0.62578700  0.09543800  1
  H  H44  1  0.67832700  0.39106300  0.54436700  1
  H  H45  1  0.82167300  0.39106300  0.04436700  1
  H  H46  1  0.32167300  0.60893700  0.45563300  1
  H  H47  1  0.17832700  0.60893700  0.95563300  1
  S  S48  1  0.68455300  0.64938800  0.63925000  1
  S  S49  1  0.81544700  0.64938800  0.13925000  1
  S  S50  1  0.31544700  0.35061200  0.36075000  1
  S  S51  1  0.18455300  0.35061200  0.86075000  1
  O  O52  1  0.09305500  0.96382400  0.53068100  1
  O  O53  1  0.40694500  0.96382400  0.03068100  1
  O  O54  1  0.90694500  0.03617600  0.46931900  1
  O  O55  1  0.59305500  0.03617600  0.96931900  1
  O  O56  1  0.08163700  0.04274500  0.76057500  1
  O  O57  1  0.41836300  0.04274500  0.26057500  1
  O  O58  1  0.91836300  0.95725500  0.23942500  1
  O  O59  1  0.58163700  0.95725500  0.73942500  1
  O  O60  1  0.87333300  0.10837000  0.69072100  1
  O  O61  1  0.62666700  0.10837000  0.19072100  1
  O  O62  1  0.12666700  0.89163000  0.30927900  1
  O  O63  1  0.37333300  0.89163000  0.80927900  1
  O  O64  1  0.02523600  0.33406600  0.46516000  1
  O  O65  1  0.47476400  0.33406600  0.96516000  1
  O  O66  1  0.97476400  0.66593400  0.53484000  1
  O  O67  1  0.52523600  0.66593400  0.03484000  1
  O  O68  1  0.96947900  0.74611600  0.79146600  1
  O  O69  1  0.53052100  0.74611600  0.29146600  1
  O  O70  1  0.03052100  0.25388400  0.20853400  1
  O  O71  1  0.46947900  0.25388400  0.70853400  1
  O  O72  1  0.78747400  0.53581200  0.69600500  1
  O  O73  1  0.71252600  0.53581200  0.19600500  1
  O  O74  1  0.21252600  0.46418800  0.30399500  1
  O  O75  1  0.28747400  0.46418800  0.80399500  1
  O  O76  1  0.61644300  0.55781200  0.57805300  1
  O  O77  1  0.88355700  0.55781200  0.07805300  1
  O  O78  1  0.38355700  0.44218800  0.42194700  1
  O  O79  1  0.11644300  0.44218800  0.92194700  1
  O  O80  1  0.62918200  0.61681300  0.77897200  1
  O  O81  1  0.87081800  0.61681300  0.27897200  1
  O  O82  1  0.37081800  0.38318700  0.22102800  1
  O  O83  1  0.12918200  0.38318700  0.72102800  1
  O  O84  1  0.70042000  0.87563300  0.50606700  1
  O  O85  1  0.79958000  0.87563300  0.00606700  1
  O  O86  1  0.29958000  0.12436700  0.49393300  1
  O  O87  1  0.20042000  0.12436700  0.99393300  1
  O  O88  1  0.69761300  0.29019100  0.52513300  1
  O  O89  1  0.80238700  0.29019100  0.02513300  1
  O  O90  1  0.30238700  0.70980900  0.47486700  1
  O  O91  1  0.19761300  0.70980900  0.97486700  1
