# generated using pymatgen
data_RbInBP2HO9
_symmetry_space_group_name_H-M   'P 1'
_cell_length_a   5.41669500
_cell_length_b   8.45356733
_cell_length_c   8.60066151
_cell_angle_alpha   87.38846686
_cell_angle_beta   80.51740294
_cell_angle_gamma   86.71324095
_symmetry_Int_Tables_number   1
_chemical_formula_structural   RbInBP2HO9
_chemical_formula_sum   'Rb2 In2 B2 P4 H2 O18'
_cell_volume   387.54639361
_cell_formula_units_Z   2
loop_
 _symmetry_equiv_pos_site_id
 _symmetry_equiv_pos_as_xyz
  1  'x, y, z'
loop_
 _atom_site_type_symbol
 _atom_site_label
 _atom_site_symmetry_multiplicity
 _atom_site_fract_x
 _atom_site_fract_y
 _atom_site_fract_z
 _atom_site_occupancy
  Rb  Rb0  1  0.27816400  0.16963600  0.38264400  1
  Rb  Rb1  1  0.72183600  0.83036400  0.61735600  1
  In  In2  1  0.27493900  0.68897100  0.30006500  1
  In  In3  1  0.72506100  0.31102900  0.69993500  1
  B  B4  1  0.10889100  0.77135200  0.94116400  1
  B  B5  1  0.89110900  0.22864800  0.05883600  1
  P  P6  1  0.19280400  0.08120300  0.80899800  1
  P  P7  1  0.21807800  0.56865100  0.69211900  1
  P  P8  1  0.78192200  0.43134900  0.30788100  1
  P  P9  1  0.80719600  0.91879700  0.19100200  1
  H  H10  1  0.41224800  0.62938200  0.98323200  1
  H  H11  1  0.58775200  0.37061800  0.01676800  1
  O  O12  1  0.02596600  0.90303100  0.28551700  1
  O  O13  1  0.07819400  0.42822100  0.65270100  1
  O  O14  1  0.04512600  0.65853900  0.83031200  1
  O  O15  1  0.27460300  0.69049900  0.04465400  1
  O  O16  1  0.12812500  0.17259400  0.96612000  1
  O  O17  1  0.26556700  0.69110500  0.55139800  1
  O  O18  1  0.24902300  0.90230200  0.85167500  1
  O  O19  1  0.52965700  0.48189800  0.25078600  1
  O  O20  1  0.43757700  0.13739800  0.71322800  1
  O  O21  1  0.56242300  0.86260200  0.28677200  1
  O  O22  1  0.47034300  0.51810200  0.74921400  1
  O  O23  1  0.75097700  0.09769800  0.14832500  1
  O  O24  1  0.73443300  0.30889500  0.44860200  1
  O  O25  1  0.87187500  0.82740600  0.03388000  1
  O  O26  1  0.72539700  0.30950100  0.95534600  1
  O  O27  1  0.95487400  0.34146100  0.16968800  1
  O  O28  1  0.92180600  0.57177900  0.34729900  1
  O  O29  1  0.97403400  0.09696900  0.71448300  1
