# generated using pymatgen
data_Ho3ReO8
_symmetry_space_group_name_H-M   'P 1'
_cell_length_a   6.02754300
_cell_length_b   7.25163200
_cell_length_c   14.47108750
_cell_angle_alpha   68.54728003
_cell_angle_beta   90.00000000
_cell_angle_gamma   90.00000000
_symmetry_Int_Tables_number   1
_chemical_formula_structural   Ho3ReO8
_chemical_formula_sum   'Ho12 Re4 O32'
_cell_volume   588.70285640
_cell_formula_units_Z   4
loop_
 _symmetry_equiv_pos_site_id
 _symmetry_equiv_pos_as_xyz
  1  'x, y, z'
loop_
 _atom_site_type_symbol
 _atom_site_label
 _atom_site_symmetry_multiplicity
 _atom_site_fract_x
 _atom_site_fract_y
 _atom_site_fract_z
 _atom_site_occupancy
  Ho  Ho0  1  0.20216700  0.34057100  0.94447900  1
  Ho  Ho1  1  0.74399000  0.59413700  0.79818200  1
  Ho  Ho2  1  0.69388700  0.10953400  0.83223700  1
  Ho  Ho3  1  0.19388700  0.89046600  0.66776300  1
  Ho  Ho4  1  0.24399000  0.40586300  0.70181800  1
  Ho  Ho5  1  0.70216700  0.65942900  0.55552100  1
  Ho  Ho6  1  0.29783300  0.34057100  0.44447900  1
  Ho  Ho7  1  0.75601000  0.59413700  0.29818200  1
  Ho  Ho8  1  0.80611300  0.10953400  0.33223700  1
  Ho  Ho9  1  0.30611300  0.89046600  0.16776300  1
  Ho  Ho10  1  0.25601000  0.40586300  0.20181800  1
  Ho  Ho11  1  0.79783300  0.65942900  0.05552100  1
  Re  Re12  1  0.24536200  0.82078200  0.91008100  1
  Re  Re13  1  0.74536200  0.17921800  0.58991900  1
  Re  Re14  1  0.25463800  0.82078200  0.41008100  1
  Re  Re15  1  0.75463800  0.17921800  0.08991900  1
  O  O16  1  0.30015500  0.97786800  0.98108300  1
  O  O17  1  0.94253700  0.87480500  0.91121000  1
  O  O18  1  0.80623200  0.41716000  0.97897900  1
  O  O19  1  0.54526800  0.74639000  0.90416300  1
  O  O20  1  0.14973800  0.66506500  0.82900000  1
  O  O21  1  0.47359700  0.35178100  0.84181500  1
  O  O22  1  0.97386200  0.31250800  0.82719200  1
  O  O23  1  0.79478700  0.96618900  0.71429300  1
  O  O24  1  0.29478700  0.03381100  0.78570700  1
  O  O25  1  0.47386200  0.68749200  0.67280800  1
  O  O26  1  0.97359700  0.64821900  0.65818500  1
  O  O27  1  0.64973800  0.33493500  0.67100000  1
  O  O28  1  0.19984500  0.97786800  0.48108300  1
  O  O29  1  0.04526800  0.25361000  0.59583700  1
  O  O30  1  0.30623200  0.58284000  0.52102100  1
  O  O31  1  0.44253700  0.12519500  0.58879000  1
  O  O32  1  0.55746300  0.87480500  0.41121000  1
  O  O33  1  0.69376800  0.41716000  0.47897900  1
  O  O34  1  0.95473200  0.74639000  0.40416300  1
  O  O35  1  0.80015500  0.02213200  0.51891700  1
  O  O36  1  0.35026200  0.66506500  0.32900000  1
  O  O37  1  0.02640300  0.35178100  0.34181500  1
  O  O38  1  0.52613800  0.31250800  0.32719200  1
  O  O39  1  0.70521300  0.96618900  0.21429300  1
  O  O40  1  0.20521300  0.03381100  0.28570700  1
  O  O41  1  0.02613800  0.68749200  0.17280800  1
  O  O42  1  0.52640300  0.64821900  0.15818500  1
  O  O43  1  0.85026200  0.33493500  0.17100000  1
  O  O44  1  0.45473200  0.25361000  0.09583700  1
  O  O45  1  0.19376800  0.58284000  0.02102100  1
  O  O46  1  0.05746300  0.12519500  0.08879000  1
  O  O47  1  0.69984500  0.02213200  0.01891700  1
