# generated using pymatgen
data_Co2As2O5
_symmetry_space_group_name_H-M   'P 1'
_cell_length_a   6.32406000
_cell_length_b   9.44969104
_cell_length_c   9.49379258
_cell_angle_alpha   65.81801356
_cell_angle_beta   81.97636864
_cell_angle_gamma   79.14532160
_symmetry_Int_Tables_number   1
_chemical_formula_structural   Co2As2O5
_chemical_formula_sum   'Co8 As8 O20'
_cell_volume   507.07089030
_cell_formula_units_Z   4
loop_
 _symmetry_equiv_pos_site_id
 _symmetry_equiv_pos_as_xyz
  1  'x, y, z'
loop_
 _atom_site_type_symbol
 _atom_site_label
 _atom_site_symmetry_multiplicity
 _atom_site_fract_x
 _atom_site_fract_y
 _atom_site_fract_z
 _atom_site_occupancy
  Co  Co0  1  0.32519800  0.26488200  0.45563200  1
  Co  Co1  1  0.14562100  0.93889900  0.62928700  1
  Co  Co2  1  0.59930300  0.41085400  0.15576200  1
  Co  Co3  1  0.90277300  0.60876400  0.84780100  1
  Co  Co4  1  0.09722700  0.39123600  0.15219900  1
  Co  Co5  1  0.40069700  0.58914600  0.84423800  1
  Co  Co6  1  0.85437900  0.06110100  0.37071300  1
  Co  Co7  1  0.67480200  0.73511800  0.54436800  1
  As  As8  1  0.78692400  0.39042400  0.48605800  1
  As  As9  1  0.26127400  0.28107800  0.83386100  1
  As  As10  1  0.38552900  0.03288900  0.25571800  1
  As  As11  1  0.73872600  0.71892200  0.16613900  1
  As  As12  1  0.21307600  0.60957600  0.51394200  1
  As  As13  1  0.76936500  0.22558400  0.99024900  1
  As  As14  1  0.61447100  0.96711100  0.74428200  1
  As  As15  1  0.23063500  0.77441600  0.00975100  1
  O  O16  1  0.82956200  0.03028700  0.59259700  1
  O  O17  1  0.40489500  0.64193100  0.61835600  1
  O  O18  1  0.97079000  0.65944900  0.61556600  1
  O  O19  1  0.76060600  0.60945700  0.37717200  1
  O  O20  1  0.82409100  0.56894800  0.09141700  1
  O  O21  1  0.62584000  0.94309800  0.36445400  1
  O  O22  1  0.37416000  0.05690200  0.63554600  1
  O  O23  1  0.87657100  0.23441300  0.15793600  1
  O  O24  1  0.02921000  0.34055100  0.38443400  1
  O  O25  1  0.12342900  0.76558700  0.84206400  1
  O  O26  1  0.17043800  0.96971300  0.40740300  1
  O  O27  1  0.01002300  0.19899200  0.87222400  1
  O  O28  1  0.68532000  0.43877100  0.91063400  1
  O  O29  1  0.37858900  0.23151000  0.24209200  1
  O  O30  1  0.17590900  0.43105200  0.90858300  1
  O  O31  1  0.59510500  0.35806900  0.38164400  1
  O  O32  1  0.62141100  0.76849000  0.75790800  1
  O  O33  1  0.31468000  0.56122900  0.08936600  1
  O  O34  1  0.23939400  0.39054300  0.62282800  1
  O  O35  1  0.98997700  0.80100800  0.12777600  1
