# generated using pymatgen
data_LiAgF4
_symmetry_space_group_name_H-M   'P 1'
_cell_length_a   6.36388917
_cell_length_b   6.36388917
_cell_length_c   4.99016148
_cell_angle_alpha   70.01140278
_cell_angle_beta   70.01140278
_cell_angle_gamma   59.28264041
_symmetry_Int_Tables_number   1
_chemical_formula_structural   LiAgF4
_chemical_formula_sum   'Li2 Ag2 F8'
_cell_volume   159.74033709
_cell_formula_units_Z   2
loop_
 _symmetry_equiv_pos_site_id
 _symmetry_equiv_pos_as_xyz
  1  'x, y, z'
loop_
 _atom_site_type_symbol
 _atom_site_label
 _atom_site_symmetry_multiplicity
 _atom_site_fract_x
 _atom_site_fract_y
 _atom_site_fract_z
 _atom_site_occupancy
  Li  Li0  1  0.15740700  0.84259300  0.25000000  1
  Li  Li1  1  0.84259300  0.15740700  0.75000000  1
  Ag  Ag2  1  0.00000000  0.50000000  0.00000000  1
  Ag  Ag3  1  0.50000000  0.00000000  0.50000000  1
  F  F4  1  0.78814300  0.99158000  0.18154900  1
  F  F5  1  0.22101200  0.52012400  0.17720500  1
  F  F6  1  0.99158000  0.78814300  0.68154900  1
  F  F7  1  0.52012400  0.22101200  0.67720500  1
  F  F8  1  0.77898800  0.47987600  0.82279500  1
  F  F9  1  0.21185700  0.00842000  0.81845100  1
  F  F10  1  0.47987600  0.77898800  0.32279500  1
  F  F11  1  0.00842000  0.21185700  0.31845100  1
