# generated using pymatgen
data_Rb2ZrO3
_symmetry_space_group_name_H-M   'P 1'
_cell_length_a   6.62459741
_cell_length_b   6.62459741
_cell_length_c   5.97341900
_cell_angle_alpha   90.00000000
_cell_angle_beta   90.00000000
_cell_angle_gamma   111.46563607
_symmetry_Int_Tables_number   1
_chemical_formula_structural   Rb2ZrO3
_chemical_formula_sum   'Rb4 Zr2 O6'
_cell_volume   243.96210697
_cell_formula_units_Z   2
loop_
 _symmetry_equiv_pos_site_id
 _symmetry_equiv_pos_as_xyz
  1  'x, y, z'
loop_
 _atom_site_type_symbol
 _atom_site_label
 _atom_site_symmetry_multiplicity
 _atom_site_fract_x
 _atom_site_fract_y
 _atom_site_fract_z
 _atom_site_occupancy
  Rb  Rb0  1  0.80609600  0.47970700  0.25620900  1
  Rb  Rb1  1  0.52029300  0.19390400  0.75620900  1
  Rb  Rb2  1  0.19390400  0.52029300  0.75620900  1
  Rb  Rb3  1  0.47970700  0.80609600  0.25620900  1
  Zr  Zr4  1  0.91285100  0.91285100  0.73620200  1
  Zr  Zr5  1  0.08714900  0.08714900  0.23620200  1
  O  O6  1  0.88634700  0.13431500  0.49282900  1
  O  O7  1  0.86568500  0.11365300  0.99282900  1
  O  O8  1  0.65439900  0.65439900  0.70572200  1
  O  O9  1  0.34560100  0.34560100  0.20572200  1
  O  O10  1  0.11365300  0.86568500  0.99282900  1
  O  O11  1  0.13431500  0.88634700  0.49282900  1
