# generated using pymatgen
data_Sr3(RhO2)16
_symmetry_space_group_name_H-M   'P 1'
_cell_length_a   8.20123900
_cell_length_b   8.75325784
_cell_length_c   9.86898938
_cell_angle_alpha   66.91288361
_cell_angle_beta   72.38195978
_cell_angle_gamma   77.30034563
_symmetry_Int_Tables_number   1
_chemical_formula_structural   Sr3(RhO2)16
_chemical_formula_sum   'Sr3 Rh16 O32'
_cell_volume   617.01202589
_cell_formula_units_Z   1
loop_
 _symmetry_equiv_pos_site_id
 _symmetry_equiv_pos_as_xyz
  1  'x, y, z'
loop_
 _atom_site_type_symbol
 _atom_site_label
 _atom_site_symmetry_multiplicity
 _atom_site_fract_x
 _atom_site_fract_y
 _atom_site_fract_z
 _atom_site_occupancy
  Sr  Sr0  1  0.98413800  0.98368400  0.01592400  1
  Sr  Sr1  1  0.67212600  0.67228300  0.32747600  1
  Sr  Sr2  1  0.30463100  0.30430800  0.69601700  1
  Rh  Rh3  1  0.94397100  0.21994300  0.24613800  1
  Rh  Rh4  1  0.87962000  0.19984900  0.62056300  1
  Rh  Rh5  1  0.37054600  0.05041800  0.12925800  1
  Rh  Rh6  1  0.80640500  0.53054800  0.00500500  1
  Rh  Rh7  1  0.55539100  0.28081000  0.25546200  1
  Rh  Rh8  1  0.30552800  0.02954900  0.50451200  1
  Rh  Rh9  1  0.62186800  0.29931900  0.88096100  1
  Rh  Rh10  1  0.87020800  0.54817800  0.63243100  1
  Rh  Rh11  1  0.13009700  0.45091300  0.36872700  1
  Rh  Rh12  1  0.37751200  0.70083500  0.11884400  1
  Rh  Rh13  1  0.19262400  0.47015500  0.99599900  1
  Rh  Rh14  1  0.69438200  0.96962900  0.49527900  1
  Rh  Rh15  1  0.44441200  0.71814700  0.74480200  1
  Rh  Rh16  1  0.62814200  0.94914200  0.87105500  1
  Rh  Rh17  1  0.11952900  0.79879700  0.38069700  1
  Rh  Rh18  1  0.05608500  0.77985800  0.75419700  1
  O  O19  1  0.86941800  0.11045200  0.47094600  1
  O  O20  1  0.75659900  0.08681300  0.26116000  1
  O  O21  1  0.63256800  0.05062400  0.02452900  1
  O  O22  1  0.88256000  0.29909800  0.77581400  1
  O  O23  1  0.62035700  0.19554500  0.72847100  1
  O  O24  1  0.87222400  0.44589900  0.47776900  1
  O  O25  1  0.49346000  0.16232100  0.48886200  1
  O  O26  1  0.74543000  0.41417200  0.23776900  1
  O  O27  1  0.38108300  0.13938400  0.27947400  1
  O  O28  1  0.63237800  0.38825700  0.03062000  1
  O  O29  1  0.11326400  0.02769700  0.21233400  1
  O  O30  1  0.99435300  0.66641500  0.98796300  1
  O  O31  1  0.88019100  0.63871500  0.78071500  1
  O  O32  1  0.36378300  0.27889700  0.96061600  1
  O  O33  1  0.86187200  0.77591900  0.46192600  1
  O  O34  1  0.61514500  0.52694800  0.71475100  1
  O  O35  1  0.13724700  0.22263200  0.53819500  1
  O  O36  1  0.63530600  0.72128100  0.04110400  1
  O  O37  1  0.38512100  0.47284500  0.28498200  1
  O  O38  1  0.11919900  0.36122800  0.22029400  1
  O  O39  1  0.00478500  0.33573800  0.01292200  1
  O  O40  1  0.88582900  0.97160900  0.78838000  1
  O  O41  1  0.61817600  0.86042300  0.72044800  1
  O  O42  1  0.36797000  0.61176800  0.96920500  1
  O  O43  1  0.25364200  0.58449500  0.76344000  1
  O  O44  1  0.50575700  0.83672500  0.51149300  1
  O  O45  1  0.12844900  0.55182100  0.52383100  1
  O  O46  1  0.37738500  0.80424400  0.27220600  1
  O  O47  1  0.11634900  0.70048900  0.22446700  1
  O  O48  1  0.36698300  0.94925500  0.97599700  1
  O  O49  1  0.24472300  0.91210300  0.73763500  1
  O  O50  1  0.12987600  0.88852000  0.52963900  1
