# generated using pymatgen
data_Cr23C6
_symmetry_space_group_name_H-M   'P 1'
_cell_length_a   7.46155905
_cell_length_b   7.46155905
_cell_length_c   7.46155905
_cell_angle_alpha   60.00000000
_cell_angle_beta   60.00000000
_cell_angle_gamma   60.00000000
_symmetry_Int_Tables_number   1
_chemical_formula_structural   Cr23C6
_chemical_formula_sum   'Cr23 C6'
_cell_volume   293.74720463
_cell_formula_units_Z   1
loop_
 _symmetry_equiv_pos_site_id
 _symmetry_equiv_pos_as_xyz
  1  'x, y, z'
loop_
 _atom_site_type_symbol
 _atom_site_label
 _atom_site_symmetry_multiplicity
 _atom_site_fract_x
 _atom_site_fract_y
 _atom_site_fract_z
 _atom_site_occupancy
  Cr  Cr0  1  0.00000000  0.00000000  0.00000000  1
  Cr  Cr1  1  0.75000000  0.75000000  0.75000000  1
  Cr  Cr2  1  0.25000000  0.25000000  0.25000000  1
  Cr  Cr3  1  0.61886600  0.61886600  0.14340200  1
  Cr  Cr4  1  0.61886600  0.14340200  0.61886600  1
  Cr  Cr5  1  0.14340200  0.61886600  0.61886600  1
  Cr  Cr6  1  0.61886600  0.61886600  0.61886600  1
  Cr  Cr7  1  0.38113400  0.38113400  0.85659800  1
  Cr  Cr8  1  0.38113400  0.85659800  0.38113400  1
  Cr  Cr9  1  0.85659800  0.38113400  0.38113400  1
  Cr  Cr10  1  0.38113400  0.38113400  0.38113400  1
  Cr  Cr11  1  0.00000000  0.00000000  0.33946100  1
  Cr  Cr12  1  0.66053900  0.00000000  0.33946100  1
  Cr  Cr13  1  0.00000000  0.66053900  0.33946100  1
  Cr  Cr14  1  0.66053900  0.33946100  0.00000000  1
  Cr  Cr15  1  0.00000000  0.33946100  0.00000000  1
  Cr  Cr16  1  0.00000000  0.33946100  0.66053900  1
  Cr  Cr17  1  0.33946100  0.66053900  0.00000000  1
  Cr  Cr18  1  0.33946100  0.00000000  0.66053900  1
  Cr  Cr19  1  0.33946100  0.00000000  0.00000000  1
  Cr  Cr20  1  0.00000000  0.00000000  0.66053900  1
  Cr  Cr21  1  0.00000000  0.66053900  0.00000000  1
  Cr  Cr22  1  0.66053900  0.00000000  0.00000000  1
  C  C23  1  0.72285100  0.72285100  0.27714900  1
  C  C24  1  0.27714900  0.72285100  0.27714900  1
  C  C25  1  0.72285100  0.27714900  0.27714900  1
  C  C26  1  0.27714900  0.27714900  0.72285100  1
  C  C27  1  0.72285100  0.27714900  0.72285100  1
  C  C28  1  0.27714900  0.72285100  0.72285100  1
