# generated using pymatgen
data_KNaZrSi3H4O11
_symmetry_space_group_name_H-M   'P 1'
_cell_length_a   6.81270900
_cell_length_b   11.94617700
_cell_length_c   13.13272100
_cell_angle_alpha   90.00000000
_cell_angle_beta   90.00000000
_cell_angle_gamma   90.00000000
_symmetry_Int_Tables_number   1
_chemical_formula_structural   KNaZrSi3H4O11
_chemical_formula_sum   'K4 Na4 Zr4 Si12 H16 O44'
_cell_volume   1068.81736675
_cell_formula_units_Z   4
loop_
 _symmetry_equiv_pos_site_id
 _symmetry_equiv_pos_as_xyz
  1  'x, y, z'
loop_
 _atom_site_type_symbol
 _atom_site_label
 _atom_site_symmetry_multiplicity
 _atom_site_fract_x
 _atom_site_fract_y
 _atom_site_fract_z
 _atom_site_occupancy
  K  K0  1  0.91208600  0.25076300  0.35050300  1
  K  K1  1  0.58791400  0.25076300  0.85050300  1
  K  K2  1  0.41208600  0.75076300  0.14949700  1
  K  K3  1  0.08791400  0.75076300  0.64949700  1
  Na  Na4  1  0.82875500  0.49793800  0.10857100  1
  Na  Na5  1  0.67124500  0.49793800  0.60857100  1
  Na  Na6  1  0.32875500  0.99793800  0.39142900  1
  Na  Na7  1  0.17124500  0.99793800  0.89142900  1
  Zr  Zr8  1  0.14779300  0.24919300  0.05265600  1
  Zr  Zr9  1  0.35220700  0.24919300  0.55265600  1
  Zr  Zr10  1  0.64779300  0.74919300  0.44734400  1
  Zr  Zr11  1  0.85220700  0.74919300  0.94734400  1
  Si  Si12  1  0.64613100  0.21277900  0.11023500  1
  Si  Si13  1  0.85386900  0.21277900  0.61023500  1
  Si  Si14  1  0.11235500  0.28178000  0.78684400  1
  Si  Si15  1  0.38764500  0.28178000  0.28684400  1
  Si  Si16  1  0.38905100  0.49793000  0.41479300  1
  Si  Si17  1  0.11094900  0.49793000  0.91479300  1
  Si  Si18  1  0.14613100  0.71277900  0.38976500  1
  Si  Si19  1  0.35386900  0.71277900  0.88976500  1
  Si  Si20  1  0.88764500  0.78178000  0.21315600  1
  Si  Si21  1  0.61235500  0.78178000  0.71315600  1
  Si  Si22  1  0.88905100  0.99793000  0.08520700  1
  Si  Si23  1  0.61094900  0.99793000  0.58520700  1
  H  H24  1  0.26602900  0.01276800  0.16613700  1
  H  H25  1  0.23397100  0.01276800  0.66613700  1
  H  H26  1  0.49222300  0.01119900  0.17980500  1
  H  H27  1  0.00777700  0.01119900  0.67980500  1
  H  H28  1  0.45016600  0.48470400  0.19187100  1
  H  H29  1  0.04983400  0.48470400  0.69187100  1
  H  H30  1  0.37888000  0.48598000  0.07920700  1
  H  H31  1  0.12112000  0.48598000  0.57920700  1
  H  H32  1  0.76602900  0.51276800  0.33386300  1
  H  H33  1  0.73397100  0.51276800  0.83386300  1
  H  H34  1  0.99222300  0.51119900  0.32019500  1
  H  H35  1  0.50777700  0.51119900  0.82019500  1
  H  H36  1  0.95016600  0.98470400  0.30812900  1
  H  H37  1  0.54983400  0.98470400  0.80812900  1
  H  H38  1  0.62112000  0.98598000  0.92079300  1
  H  H39  1  0.87888000  0.98598000  0.42079300  1
  O  O40  1  0.98016800  0.01784600  0.37530000  1
  O  O41  1  0.51983200  0.01784600  0.87530000  1
  O  O42  1  0.08388600  0.07530500  0.07123800  1
  O  O43  1  0.41611400  0.07530500  0.57123800  1
  O  O44  1  0.69529100  0.07597200  0.11211600  1
  O  O45  1  0.80470900  0.07597200  0.61211600  1
  O  O46  1  0.36367800  0.21486300  0.39333200  1
  O  O47  1  0.13632200  0.21486300  0.89333200  1
  O  O48  1  0.45360700  0.23323300  0.04076100  1
  O  O49  1  0.04639300  0.23323300  0.54076100  1
  O  O50  1  0.59352300  0.24378600  0.22999700  1
  O  O51  1  0.90647700  0.24378600  0.72999700  1
  O  O52  1  0.20362700  0.26937300  0.20918900  1
  O  O53  1  0.29637300  0.26937300  0.70918900  1
  O  O54  1  0.84069200  0.27952500  0.07364600  1
  O  O55  1  0.65930800  0.27952500  0.57364600  1
  O  O56  1  0.41908500  0.41744700  0.31343700  1
  O  O57  1  0.08091500  0.41744700  0.81343700  1
  O  O58  1  0.15673500  0.42258500  0.01519300  1
  O  O59  1  0.34326500  0.42258500  0.51519300  1
  O  O60  1  0.87047700  0.48003400  0.29084000  1
  O  O61  1  0.62952300  0.48003400  0.79084000  1
  O  O62  1  0.48016800  0.51784600  0.12470000  1
  O  O63  1  0.01983200  0.51784600  0.62470000  1
  O  O64  1  0.58388600  0.57530500  0.42876200  1
  O  O65  1  0.91611400  0.57530500  0.92876200  1
  O  O66  1  0.19529100  0.57597200  0.38788400  1
  O  O67  1  0.30470900  0.57597200  0.88788400  1
  O  O68  1  0.86367800  0.71486300  0.10666800  1
  O  O69  1  0.63632200  0.71486300  0.60666800  1
  O  O70  1  0.54639300  0.73323300  0.95923900  1
  O  O71  1  0.95360700  0.73323300  0.45923900  1
  O  O72  1  0.09352300  0.74378600  0.27000300  1
  O  O73  1  0.40647700  0.74378600  0.77000300  1
  O  O74  1  0.70362700  0.76937300  0.29081100  1
  O  O75  1  0.79637300  0.76937300  0.79081100  1
  O  O76  1  0.34069200  0.77952500  0.42635400  1
  O  O77  1  0.15930800  0.77952500  0.92635400  1
  O  O78  1  0.91908500  0.91744700  0.18656300  1
  O  O79  1  0.58091500  0.91744700  0.68656300  1
  O  O80  1  0.84326500  0.92258500  0.98480700  1
  O  O81  1  0.65673500  0.92258500  0.48480700  1
  O  O82  1  0.37047700  0.98003400  0.20916000  1
  O  O83  1  0.12952300  0.98003400  0.70916000  1
