# generated using pymatgen
data_Dy3Al5O12
_symmetry_space_group_name_H-M   'P 1'
_cell_length_a   10.49295951
_cell_length_b   10.49295951
_cell_length_c   10.49295951
_cell_angle_alpha   109.47122063
_cell_angle_beta   109.47122063
_cell_angle_gamma   109.47122063
_symmetry_Int_Tables_number   1
_chemical_formula_structural   Dy3Al5O12
_chemical_formula_sum   'Dy12 Al20 O48'
_cell_volume   889.34875371
_cell_formula_units_Z   4
loop_
 _symmetry_equiv_pos_site_id
 _symmetry_equiv_pos_as_xyz
  1  'x, y, z'
loop_
 _atom_site_type_symbol
 _atom_site_label
 _atom_site_symmetry_multiplicity
 _atom_site_fract_x
 _atom_site_fract_y
 _atom_site_fract_z
 _atom_site_occupancy
  Dy  Dy0  1  0.87500000  0.62500000  0.25000000  1
  Dy  Dy1  1  0.37500000  0.75000000  0.12500000  1
  Dy  Dy2  1  0.25000000  0.37500000  0.12500000  1
  Dy  Dy3  1  0.87500000  0.75000000  0.62500000  1
  Dy  Dy4  1  0.75000000  0.12500000  0.37500000  1
  Dy  Dy5  1  0.37500000  0.12500000  0.25000000  1
  Dy  Dy6  1  0.62500000  0.87500000  0.75000000  1
  Dy  Dy7  1  0.25000000  0.87500000  0.62500000  1
  Dy  Dy8  1  0.12500000  0.25000000  0.37500000  1
  Dy  Dy9  1  0.75000000  0.62500000  0.87500000  1
  Dy  Dy10  1  0.62500000  0.25000000  0.87500000  1
  Dy  Dy11  1  0.12500000  0.37500000  0.75000000  1
  Al  Al12  1  0.75000000  0.87500000  0.12500000  1
  Al  Al13  1  0.50000000  0.50000000  0.00000000  1
  Al  Al14  1  0.87500000  0.25000000  0.12500000  1
  Al  Al15  1  0.50000000  0.00000000  0.00000000  1
  Al  Al16  1  0.00000000  0.50000000  0.00000000  1
  Al  Al17  1  0.62500000  0.75000000  0.37500000  1
  Al  Al18  1  0.62500000  0.37500000  0.25000000  1
  Al  Al19  1  0.12500000  0.87500000  0.25000000  1
  Al  Al20  1  0.00000000  0.00000000  0.00000000  1
  Al  Al21  1  0.25000000  0.62500000  0.37500000  1
  Al  Al22  1  0.50000000  0.50000000  0.50000000  1
  Al  Al23  1  0.75000000  0.37500000  0.62500000  1
  Al  Al24  1  0.00000000  0.50000000  0.50000000  1
  Al  Al25  1  0.50000000  0.00000000  0.50000000  1
  Al  Al26  1  0.37500000  0.62500000  0.75000000  1
  Al  Al27  1  0.87500000  0.12500000  0.75000000  1
  Al  Al28  1  0.37500000  0.25000000  0.62500000  1
  Al  Al29  1  0.00000000  0.00000000  0.50000000  1
  Al  Al30  1  0.12500000  0.75000000  0.87500000  1
  Al  Al31  1  0.25000000  0.12500000  0.87500000  1
  O  O32  1  0.97972500  0.67949100  0.09835300  1
  O  O33  1  0.59835300  0.91886200  0.11862800  1
  O  O34  1  0.32050900  0.90164700  0.02027500  1
  O  O35  1  0.69976600  0.67949100  0.08113800  1
  O  O36  1  0.88137200  0.40164700  0.08113800  1
  O  O37  1  0.61862800  0.41886200  0.09835300  1
  O  O38  1  0.47972500  0.59835300  0.17949100  1
  O  O39  1  0.82050900  0.80023400  0.41886200  1
  O  O40  1  0.58113800  0.90164700  0.38137200  1
  O  O41  1  0.32050900  0.91886200  0.30023400  1
  O  O42  1  0.91886200  0.30023400  0.32050900  1
  O  O43  1  0.19976600  0.11862800  0.02027500  1
  O  O44  1  0.19976600  0.58113800  0.17949100  1
  O  O45  1  0.58113800  0.17949100  0.19976600  1
  O  O46  1  0.82050900  0.52027500  0.40164700  1
  O  O47  1  0.90164700  0.02027500  0.32050900  1
  O  O48  1  0.47972500  0.38137200  0.30023400  1
  O  O49  1  0.02027500  0.19976600  0.11862800  1
  O  O50  1  0.61862800  0.69976600  0.52027500  1
  O  O51  1  0.08113800  0.88137200  0.40164700  1
  O  O52  1  0.40164700  0.82050900  0.52027500  1
  O  O53  1  0.30023400  0.47972500  0.38137200  1
  O  O54  1  0.90164700  0.38137200  0.58113800  1
  O  O55  1  0.11862800  0.02027500  0.19976600  1
  O  O56  1  0.88137200  0.97972500  0.80023400  1
  O  O57  1  0.09835300  0.61862800  0.41886200  1
  O  O58  1  0.69976600  0.52027500  0.61862800  1
  O  O59  1  0.59835300  0.17949100  0.47972500  1
  O  O60  1  0.91886200  0.11862800  0.59835300  1
  O  O61  1  0.38137200  0.30023400  0.47972500  1
  O  O62  1  0.97972500  0.80023400  0.88137200  1
  O  O63  1  0.52027500  0.61862800  0.69976600  1
  O  O64  1  0.09835300  0.97972500  0.67949100  1
  O  O65  1  0.17949100  0.47972500  0.59835300  1
  O  O66  1  0.41886200  0.82050900  0.80023400  1
  O  O67  1  0.80023400  0.41886200  0.82050900  1
  O  O68  1  0.80023400  0.88137200  0.97972500  1
  O  O69  1  0.08113800  0.69976600  0.67949100  1
  O  O70  1  0.67949100  0.08113800  0.69976600  1
  O  O71  1  0.41886200  0.09835300  0.61862800  1
  O  O72  1  0.17949100  0.19976600  0.58113800  1
  O  O73  1  0.52027500  0.40164700  0.82050900  1
  O  O74  1  0.38137200  0.58113800  0.90164700  1
  O  O75  1  0.11862800  0.59835300  0.91886200  1
  O  O76  1  0.30023400  0.32050900  0.91886200  1
  O  O77  1  0.67949100  0.09835300  0.97972500  1
  O  O78  1  0.40164700  0.08113800  0.88137200  1
  O  O79  1  0.02027500  0.32050900  0.90164700  1
