# generated using pymatgen
data_La2HgO4
_symmetry_space_group_name_H-M   'P 1'
_cell_length_a   7.36590686
_cell_length_b   7.36590686
_cell_length_c   10.47162329
_cell_angle_alpha   60.87353627
_cell_angle_beta   60.87353627
_cell_angle_gamma   31.07937261
_symmetry_Int_Tables_number   1
_chemical_formula_structural   La2HgO4
_chemical_formula_sum   'La4 Hg2 O8'
_cell_volume   253.11360787
_cell_formula_units_Z   2
loop_
 _symmetry_equiv_pos_site_id
 _symmetry_equiv_pos_as_xyz
  1  'x, y, z'
loop_
 _atom_site_type_symbol
 _atom_site_label
 _atom_site_symmetry_multiplicity
 _atom_site_fract_x
 _atom_site_fract_y
 _atom_site_fract_z
 _atom_site_occupancy
  La  La0  1  0.61958100  0.61958100  0.54298600  1
  La  La1  1  0.15986300  0.15986300  0.20267100  1
  La  La2  1  0.84013700  0.84013700  0.79732900  1
  La  La3  1  0.38041900  0.38041900  0.45701400  1
  Hg  Hg4  1  0.88390500  0.88390500  0.16336000  1
  Hg  Hg5  1  0.11609500  0.11609500  0.83664000  1
  O  O6  1  0.22623400  0.22623400  0.39209700  1
  O  O7  1  0.79739300  0.79739300  0.05836700  1
  O  O8  1  0.03732100  0.03732100  0.72108200  1
  O  O9  1  0.58197900  0.58197900  0.34508600  1
  O  O10  1  0.41802100  0.41802100  0.65491400  1
  O  O11  1  0.96267900  0.96267900  0.27891800  1
  O  O12  1  0.20260700  0.20260700  0.94163300  1
  O  O13  1  0.77376600  0.77376600  0.60790300  1
