# generated using pymatgen
data_Mn(PO3)3
_symmetry_space_group_name_H-M   'P 1'
_cell_length_a   11.77262231
_cell_length_b   11.77262231
_cell_length_c   9.43979692
_cell_angle_alpha   71.01036913
_cell_angle_beta   71.01036913
_cell_angle_gamma   111.76600310
_symmetry_Int_Tables_number   1
_chemical_formula_structural   Mn(PO3)3
_chemical_formula_sum   'Mn6 P18 O54'
_cell_volume   989.65471417
_cell_formula_units_Z   6
loop_
 _symmetry_equiv_pos_site_id
 _symmetry_equiv_pos_as_xyz
  1  'x, y, z'
loop_
 _atom_site_type_symbol
 _atom_site_label
 _atom_site_symmetry_multiplicity
 _atom_site_fract_x
 _atom_site_fract_y
 _atom_site_fract_z
 _atom_site_occupancy
  Mn  Mn0  1  0.58348400  0.07373600  0.46098500  1
  Mn  Mn1  1  0.26085700  0.43792800  0.42374700  1
  Mn  Mn2  1  0.07373600  0.58348400  0.96098500  1
  Mn  Mn3  1  0.43792800  0.26085700  0.92374700  1
  Mn  Mn4  1  0.92610800  0.76667700  0.42891800  1
  Mn  Mn5  1  0.76667700  0.92610800  0.92891800  1
  P  P6  1  0.09473700  0.13362600  0.15078100  1
  P  P7  1  0.05633200  0.32916400  0.27644800  1
  P  P8  1  0.39477900  0.99515000  0.28152700  1
  P  P9  1  0.13362600  0.09473700  0.65078100  1
  P  P10  1  0.84379000  0.11454800  0.11304700  1
  P  P11  1  0.32916400  0.05633200  0.77644800  1
  P  P12  1  0.16955700  0.78059900  0.12168200  1
  P  P13  1  0.52213400  0.46561700  0.08548500  1
  P  P14  1  0.99515000  0.39477900  0.78152700  1
  P  P15  1  0.71749000  0.42748400  0.21740100  1
  P  P16  1  0.40851000  0.77959900  0.17745100  1
  P  P17  1  0.11454800  0.84379000  0.61304700  1
  P  P18  1  0.78059900  0.16955700  0.62168200  1
  P  P19  1  0.46561700  0.52213400  0.58548500  1
  P  P20  1  0.73963100  0.67979200  0.25153700  1
  P  P21  1  0.42748400  0.71749000  0.71740100  1
  P  P22  1  0.77959900  0.40851000  0.67745100  1
  P  P23  1  0.67979200  0.73963100  0.75153700  1
  O  O24  1  0.01245400  0.38856700  0.15376500  1
  O  O25  1  0.11851900  0.24152400  0.22352100  1
  O  O26  1  0.36342000  0.07553800  0.15874800  1
  O  O27  1  0.07645400  0.65146200  0.12116000  1
  O  O28  1  0.43127200  0.35956000  0.05213900  1
  O  O29  1  0.16277000  0.43663700  0.29333500  1
  O  O30  1  0.19181500  0.23534100  0.49744700  1
  O  O31  1  0.50779100  0.08433400  0.30877400  1
  O  O32  1  0.38856700  0.01245400  0.65376500  1
  O  O33  1  0.24152400  0.11851900  0.72352100  1
  O  O34  1  0.07553800  0.36342000  0.65874800  1
  O  O35  1  0.76815400  0.10107600  0.28423600  1
  O  O36  1  0.44781900  0.50706500  0.19882200  1
  O  O37  1  0.10373300  0.77873000  0.28888700  1
  O  O38  1  0.59912800  0.39955900  0.16180700  1
  O  O39  1  0.32085700  0.80213800  0.07978600  1
  O  O40  1  0.00304000  0.15551700  0.06114100  1
  O  O41  1  0.31420500  0.64047500  0.34842300  1
  O  O42  1  0.01690800  0.98804400  0.30132200  1
  O  O43  1  0.66934600  0.28823700  0.36277100  1
  O  O44  1  0.65146200  0.07645400  0.62116000  1
  O  O45  1  0.35956000  0.43127200  0.55213900  1
  O  O46  1  0.43663700  0.16277000  0.79333500  1
  O  O47  1  0.23534100  0.19181500  0.99744700  1
  O  O48  1  0.08433400  0.50779100  0.80877400  1
  O  O49  1  0.54322100  0.81138600  0.04449800  1
  O  O50  1  0.85951400  0.51025900  0.05598100  1
  O  O51  1  0.70162000  0.52111600  0.30751000  1
  O  O52  1  0.25245700  0.87088700  0.46331800  1
  O  O53  1  0.91957100  0.20669400  0.46497900  1
  O  O54  1  0.44880800  0.90518100  0.21983700  1
  O  O55  1  0.10107600  0.76815400  0.78423600  1
  O  O56  1  0.74777500  0.74619400  0.08005500  1
  O  O57  1  0.50706500  0.44781900  0.69882200  1
  O  O58  1  0.77873000  0.10373300  0.78888700  1
  O  O59  1  0.39955900  0.59912800  0.66180700  1
  O  O60  1  0.60410800  0.65479000  0.40209900  1
  O  O61  1  0.80213800  0.32085700  0.57978600  1
  O  O62  1  0.15551700  0.00304000  0.56114100  1
  O  O63  1  0.64047500  0.31420500  0.84842300  1
  O  O64  1  0.98804400  0.01690800  0.80132200  1
  O  O65  1  0.28823700  0.66934600  0.86277100  1
  O  O66  1  0.81138600  0.54322100  0.54449800  1
  O  O67  1  0.76975400  0.98632500  0.09826400  1
  O  O68  1  0.87127900  0.76472900  0.25396100  1
  O  O69  1  0.51025900  0.85951400  0.55598100  1
  O  O70  1  0.52111600  0.70162000  0.80751100  1
  O  O71  1  0.87088700  0.25245700  0.96331800  1
  O  O72  1  0.20669400  0.91957100  0.96497900  1
  O  O73  1  0.90518100  0.44880800  0.71983700  1
  O  O74  1  0.74619400  0.74777500  0.58005500  1
  O  O75  1  0.65479000  0.60410800  0.90209900  1
  O  O76  1  0.98632500  0.76975400  0.59826400  1
  O  O77  1  0.76472900  0.87127900  0.75396100  1
