# generated using pymatgen
data_MnVHPbO5
_symmetry_space_group_name_H-M   'P 1'
_cell_length_a   6.32976200
_cell_length_b   7.76839500
_cell_length_c   9.59842500
_cell_angle_alpha   90.00000000
_cell_angle_beta   90.00000000
_cell_angle_gamma   90.00000000
_symmetry_Int_Tables_number   1
_chemical_formula_structural   MnVHPbO5
_chemical_formula_sum   'Mn4 V4 H4 Pb4 O20'
_cell_volume   471.97463209
_cell_formula_units_Z   4
loop_
 _symmetry_equiv_pos_site_id
 _symmetry_equiv_pos_as_xyz
  1  'x, y, z'
loop_
 _atom_site_type_symbol
 _atom_site_label
 _atom_site_symmetry_multiplicity
 _atom_site_fract_x
 _atom_site_fract_y
 _atom_site_fract_z
 _atom_site_occupancy
  Mn  Mn0  1  0.00000000  0.50000000  0.50000000  1
  Mn  Mn1  1  0.50000000  0.50000000  0.50000000  1
  Mn  Mn2  1  0.00000000  0.00000000  0.00000000  1
  Mn  Mn3  1  0.50000000  0.00000000  0.00000000  1
  V  V4  1  0.25000000  0.62745400  0.81857100  1
  V  V5  1  0.75000000  0.87254600  0.31857100  1
  V  V6  1  0.25000000  0.12745400  0.68142900  1
  V  V7  1  0.75000000  0.37254600  0.18142900  1
  H  H8  1  0.25000000  0.77048400  0.48064100  1
  H  H9  1  0.75000000  0.72951600  0.98064100  1
  H  H10  1  0.25000000  0.27048400  0.01935900  1
  H  H11  1  0.75000000  0.22951600  0.51935900  1
  Pb  Pb12  1  0.25000000  0.63808500  0.18287800  1
  Pb  Pb13  1  0.75000000  0.86191500  0.68287800  1
  Pb  Pb14  1  0.25000000  0.13808500  0.31712200  1
  Pb  Pb15  1  0.75000000  0.36191500  0.81712200  1
  O  O16  1  0.75000000  0.54289700  0.07047300  1
  O  O17  1  0.01533600  0.61592600  0.71556800  1
  O  O18  1  0.48466400  0.61592600  0.71556800  1
  O  O19  1  0.25000000  0.65628300  0.43188400  1
  O  O20  1  0.75000000  0.68892400  0.42910600  1
  O  O21  1  0.25000000  0.81107600  0.92910600  1
  O  O22  1  0.75000000  0.84371700  0.93188400  1
  O  O23  1  0.51533600  0.88407400  0.21556800  1
  O  O24  1  0.98466400  0.88407400  0.21556800  1
  O  O25  1  0.25000000  0.95710300  0.57047300  1
  O  O26  1  0.75000000  0.04289700  0.42952700  1
  O  O27  1  0.01533600  0.11592600  0.78443200  1
  O  O28  1  0.48466400  0.11592600  0.78443200  1
  O  O29  1  0.25000000  0.15628300  0.06811600  1
  O  O30  1  0.75000000  0.18892400  0.07089400  1
  O  O31  1  0.25000000  0.31107600  0.57089400  1
  O  O32  1  0.75000000  0.34371700  0.56811600  1
  O  O33  1  0.51533600  0.38407400  0.28443200  1
  O  O34  1  0.98466400  0.38407400  0.28443200  1
  O  O35  1  0.25000000  0.45710300  0.92952700  1
