# generated using pymatgen
data_GdIO
_symmetry_space_group_name_H-M   'P 1'
_cell_length_a   8.40575597
_cell_length_b   7.32754112
_cell_length_c   7.04113436
_cell_angle_alpha   71.57519961
_cell_angle_beta   55.79622535
_cell_angle_gamma   52.62857504
_symmetry_Int_Tables_number   1
_chemical_formula_structural   GdIO
_chemical_formula_sum   'Gd4 I4 O4'
_cell_volume   284.83982176
_cell_formula_units_Z   4
loop_
 _symmetry_equiv_pos_site_id
 _symmetry_equiv_pos_as_xyz
  1  'x, y, z'
loop_
 _atom_site_type_symbol
 _atom_site_label
 _atom_site_symmetry_multiplicity
 _atom_site_fract_x
 _atom_site_fract_y
 _atom_site_fract_z
 _atom_site_occupancy
  Gd  Gd0  1  0.35153300  0.64846700  0.35153300  1
  Gd  Gd1  1  0.60153300  0.89846700  0.60153300  1
  Gd  Gd2  1  0.64846700  0.35153300  0.64846700  1
  Gd  Gd3  1  0.89846700  0.60153300  0.89846700  1
  I  I4  1  0.12500000  0.12500000  0.12500000  1
  I  I5  1  0.62500000  0.12500000  0.12500000  1
  I  I6  1  0.12500000  0.12500000  0.62500000  1
  I  I7  1  0.12500000  0.62500000  0.12500000  1
  O  O8  1  0.61554900  0.61554900  0.38445100  1
  O  O9  1  0.38445100  0.38445100  0.61554900  1
  O  O10  1  0.86554900  0.86554900  0.63445100  1
  O  O11  1  0.63445100  0.63445100  0.86554900  1
