# generated using pymatgen
data_NaVP2O7
_symmetry_space_group_name_H-M   'P 1'
_cell_length_a   7.17518203
_cell_length_b   9.66383001
_cell_length_c   9.66417229
_cell_angle_alpha   61.05248058
_cell_angle_beta   81.51909138
_cell_angle_gamma   98.47739910
_symmetry_Int_Tables_number   1
_chemical_formula_structural   NaVP2O7
_chemical_formula_sum   'Na4 V4 P8 O28'
_cell_volume   561.13848335
_cell_formula_units_Z   4
loop_
 _symmetry_equiv_pos_site_id
 _symmetry_equiv_pos_as_xyz
  1  'x, y, z'
loop_
 _atom_site_type_symbol
 _atom_site_label
 _atom_site_symmetry_multiplicity
 _atom_site_fract_x
 _atom_site_fract_y
 _atom_site_fract_z
 _atom_site_occupancy
  Na  Na0  1  0.73815500  0.56935800  0.34336900  1
  Na  Na1  1  0.73827200  0.06942700  0.84343100  1
  Na  Na2  1  0.26179300  0.59331800  0.81940300  1
  Na  Na3  1  0.26181500  0.09334500  0.31934900  1
  V  V4  1  0.73200600  0.85814700  0.63772800  1
  V  V5  1  0.26795700  0.38777500  0.60814300  1
  V  V6  1  0.73207000  0.35809600  0.13774300  1
  V  V7  1  0.26781200  0.88768200  0.10818600  1
  P  P8  1  0.49457200  0.28785300  0.90343700  1
  P  P9  1  0.49457500  0.78796100  0.40342600  1
  P  P10  1  0.50537200  0.65338800  0.03802600  1
  P  P11  1  0.50556900  0.15351700  0.53785900  1
  P  P12  1  0.11487800  0.49664500  0.26622500  1
  P  P13  1  0.11501300  0.99670100  0.76620300  1
  P  P14  1  0.88505700  0.51633800  0.74671300  1
  P  P15  1  0.88507300  0.01625900  0.24671100  1
  O  O16  1  0.81919200  0.16800200  0.13924400  1
  O  O17  1  0.81906600  0.66802400  0.63934600  1
  O  O18  1  0.18093600  0.88941400  0.91796200  1
  O  O19  1  0.18101500  0.38950000  0.41792000  1
  O  O20  1  0.93090400  0.40741500  0.25459300  1
  O  O21  1  0.93100900  0.90763600  0.75447600  1
  O  O22  1  0.06911100  0.50455200  0.65774900  1
  O  O23  1  0.06903900  0.00454100  0.15760600  1
  O  O24  1  0.45410000  0.10884000  0.95090900  1
  O  O25  1  0.45409900  0.60891100  0.45091700  1
  O  O26  1  0.54579200  0.70081300  0.85903200  1
  O  O27  1  0.54596900  0.20079500  0.35887000  1
  O  O28  1  0.49672800  0.31281600  0.04760400  1
  O  O29  1  0.49677400  0.81293100  0.54757300  1
  O  O30  1  0.50310600  0.79754100  0.06296900  1
  O  O31  1  0.50339000  0.29771700  0.56274300  1
  O  O32  1  0.63441200  0.54885800  0.13312800  1
  O  O33  1  0.63455000  0.04907900  0.63304100  1
  O  O34  1  0.36560300  0.38305000  0.79892700  1
  O  O35  1  0.36544300  0.88300700  0.29904300  1
  O  O36  1  0.90807900  0.50235000  0.90923900  1
  O  O37  1  0.90801200  0.00214400  0.40930000  1
  O  O38  1  0.09166400  0.65918000  0.25212700  1
  O  O39  1  0.09189700  0.15924500  0.75215200  1
  O  O40  1  0.71794500  0.35750800  0.78919900  1
  O  O41  1  0.71784200  0.85757900  0.28903300  1
  O  O42  1  0.28203500  0.53911000  0.10746600  1
  O  O43  1  0.28229600  0.03921300  0.60746000  1
