# generated using pymatgen
data_Ba10Li2Bi4O21
_symmetry_space_group_name_H-M   'P 1'
_cell_length_a   6.09874800
_cell_length_b   14.74169900
_cell_length_c   14.85599800
_cell_angle_alpha   90.00000000
_cell_angle_beta   90.00000000
_cell_angle_gamma   90.00000000
_symmetry_Int_Tables_number   1
_chemical_formula_structural   Ba10Li2Bi4O21
_chemical_formula_sum   'Ba20 Li4 Bi8 O42'
_cell_volume   1335.64197893
_cell_formula_units_Z   2
loop_
 _symmetry_equiv_pos_site_id
 _symmetry_equiv_pos_as_xyz
  1  'x, y, z'
loop_
 _atom_site_type_symbol
 _atom_site_label
 _atom_site_symmetry_multiplicity
 _atom_site_fract_x
 _atom_site_fract_y
 _atom_site_fract_z
 _atom_site_occupancy
  Ba  Ba0  1  0.00000000  0.99814800  0.09010900  1
  Ba  Ba1  1  0.00000000  0.92189200  0.57400800  1
  Ba  Ba2  1  0.50000000  0.83488000  0.21382400  1
  Ba  Ba3  1  0.50000000  0.82601300  0.79650700  1
  Ba  Ba4  1  0.50000000  0.75177800  0.49610500  1
  Ba  Ba5  1  0.00000000  0.75109300  0.99701500  1
  Ba  Ba6  1  0.00000000  0.67643400  0.29840500  1
  Ba  Ba7  1  0.00000000  0.65700000  0.70902400  1
  Ba  Ba8  1  0.50000000  0.59308900  0.08284100  1
  Ba  Ba9  1  0.50000000  0.50502500  0.58654900  1
  Ba  Ba10  1  0.00000000  0.49814800  0.90989100  1
  Ba  Ba11  1  0.00000000  0.42189200  0.42599200  1
  Ba  Ba12  1  0.50000000  0.33488000  0.78617600  1
  Ba  Ba13  1  0.50000000  0.32601300  0.20349300  1
  Ba  Ba14  1  0.50000000  0.25177800  0.50389500  1
  Ba  Ba15  1  0.00000000  0.25109300  0.00298500  1
  Ba  Ba16  1  0.00000000  0.17643400  0.70159500  1
  Ba  Ba17  1  0.00000000  0.15700000  0.29097600  1
  Ba  Ba18  1  0.50000000  0.09308900  0.91715900  1
  Ba  Ba19  1  0.50000000  0.00502500  0.41345100  1
  Li  Li20  1  0.50000000  0.87865100  0.00584200  1
  Li  Li21  1  0.00000000  0.62823700  0.50547200  1
  Li  Li22  1  0.50000000  0.37865100  0.99415800  1
  Li  Li23  1  0.00000000  0.12823700  0.49452800  1
  Bi  Bi24  1  0.00000000  0.96448400  0.84893500  1
  Bi  Bi25  1  0.00000000  0.91422600  0.31721200  1
  Bi  Bi26  1  0.50000000  0.58867300  0.81744600  1
  Bi  Bi27  1  0.50000000  0.54406200  0.34537600  1
  Bi  Bi28  1  0.00000000  0.46448400  0.15106500  1
  Bi  Bi29  1  0.00000000  0.41422600  0.68278800  1
  Bi  Bi30  1  0.50000000  0.08867300  0.18255400  1
  Bi  Bi31  1  0.50000000  0.04406200  0.65462400  1
  O  O32  1  0.75934000  0.97662300  0.74295000  1
  O  O33  1  0.24066000  0.97662300  0.74295000  1
  O  O34  1  0.74958400  0.99993500  0.24843600  1
  O  O35  1  0.25041600  0.99993500  0.24843600  1
  O  O36  1  0.50000000  0.99255900  0.07726900  1
  O  O37  1  0.50000000  0.91603600  0.58609000  1
  O  O38  1  0.23743400  0.89532500  0.92684100  1
  O  O39  1  0.76256600  0.89532500  0.92684100  1
  O  O40  1  0.74498700  0.83993400  0.37559500  1
  O  O41  1  0.25501300  0.83993400  0.37559500  1
  O  O42  1  0.00000000  0.83427500  0.19511000  1
  O  O43  1  0.50000000  0.76034400  0.05851000  1
  O  O44  1  0.00000000  0.74661700  0.56687900  1
  O  O45  1  0.50000000  0.65519200  0.25605100  1
  O  O46  1  0.50000000  0.66632700  0.69423600  1
  O  O47  1  0.23891100  0.66577200  0.86946100  1
  O  O48  1  0.76108900  0.66577200  0.86946100  1
  O  O49  1  0.74378600  0.59929100  0.43009100  1
  O  O50  1  0.25621400  0.59929100  0.43009100  1
  O  O51  1  0.00000000  0.59163000  0.08948600  1
  O  O52  1  0.00000000  0.51648000  0.58385400  1
  O  O53  1  0.75934000  0.47662300  0.25705000  1
  O  O54  1  0.24066000  0.47662300  0.25705000  1
  O  O55  1  0.74958400  0.49993500  0.75156400  1
  O  O56  1  0.25041600  0.49993500  0.75156400  1
  O  O57  1  0.50000000  0.49255900  0.92273100  1
  O  O58  1  0.50000000  0.41603600  0.41391000  1
  O  O59  1  0.23743400  0.39532500  0.07315900  1
  O  O60  1  0.76256600  0.39532500  0.07315900  1
  O  O61  1  0.74498700  0.33993400  0.62440500  1
  O  O62  1  0.25501300  0.33993400  0.62440500  1
  O  O63  1  0.00000000  0.33427500  0.80489000  1
  O  O64  1  0.50000000  0.26034400  0.94149000  1
  O  O65  1  0.00000000  0.24661700  0.43312100  1
  O  O66  1  0.50000000  0.15519200  0.74394900  1
  O  O67  1  0.50000000  0.16632700  0.30576400  1
  O  O68  1  0.23891100  0.16577200  0.13053900  1
  O  O69  1  0.76108900  0.16577200  0.13053900  1
  O  O70  1  0.74378600  0.09929100  0.56990900  1
  O  O71  1  0.25621400  0.09929100  0.56990900  1
  O  O72  1  0.00000000  0.09163000  0.91051400  1
  O  O73  1  0.00000000  0.01648000  0.41614600  1
