# generated using pymatgen
data_Na5BiO5
_symmetry_space_group_name_H-M   'P 1'
_cell_length_a   5.97393356
_cell_length_b   5.97393356
_cell_length_c   6.62390637
_cell_angle_alpha   72.84868885
_cell_angle_beta   72.84868885
_cell_angle_gamma   45.31399347
_symmetry_Int_Tables_number   1
_chemical_formula_structural   Na5BiO5
_chemical_formula_sum   'Na5 Bi1 O5'
_cell_volume   159.25640908
_cell_formula_units_Z   1
loop_
 _symmetry_equiv_pos_site_id
 _symmetry_equiv_pos_as_xyz
  1  'x, y, z'
loop_
 _atom_site_type_symbol
 _atom_site_label
 _atom_site_symmetry_multiplicity
 _atom_site_fract_x
 _atom_site_fract_y
 _atom_site_fract_z
 _atom_site_occupancy
  Na  Na0  1  0.32031900  0.32031900  0.86099800  1
  Na  Na1  1  0.30426800  0.30426800  0.32569700  1
  Na  Na2  1  0.69573200  0.69573200  0.67430300  1
  Na  Na3  1  0.67968100  0.67968100  0.13900200  1
  Na  Na4  1  0.00000000  0.00000000  0.50000000  1
  Bi  Bi5  1  0.00000000  0.00000000  0.00000000  1
  O  O6  1  0.86148800  0.86148800  0.83698000  1
  O  O7  1  0.50000000  0.50000000  0.00000000  1
  O  O8  1  0.84987200  0.84987200  0.30429700  1
  O  O9  1  0.15012800  0.15012800  0.69570300  1
  O  O10  1  0.13851200  0.13851200  0.16302000  1
