# generated using pymatgen
data_KCuTe
_symmetry_space_group_name_H-M   'P 1'
_cell_length_a   4.47260650
_cell_length_b   4.47260650
_cell_length_c   10.15758600
_cell_angle_alpha   90.00000000
_cell_angle_beta   90.00000000
_cell_angle_gamma   120.00000747
_symmetry_Int_Tables_number   1
_chemical_formula_structural   KCuTe
_chemical_formula_sum   'K2 Cu2 Te2'
_cell_volume   175.97156206
_cell_formula_units_Z   2
loop_
 _symmetry_equiv_pos_site_id
 _symmetry_equiv_pos_as_xyz
  1  'x, y, z'
loop_
 _atom_site_type_symbol
 _atom_site_label
 _atom_site_symmetry_multiplicity
 _atom_site_fract_x
 _atom_site_fract_y
 _atom_site_fract_z
 _atom_site_occupancy
  K  K0  1  0.00000000  0.00000000  0.00000000  1
  K  K1  1  0.00000000  0.00000000  0.50000000  1
  Cu  Cu2  1  0.33333300  0.66666700  0.75000000  1
  Cu  Cu3  1  0.66666700  0.33333300  0.25000000  1
  Te  Te4  1  0.33333300  0.66666700  0.25000000  1
  Te  Te5  1  0.66666700  0.33333300  0.75000000  1
