# generated using pymatgen
data_LiTmO2
_symmetry_space_group_name_H-M   'P 1'
_cell_length_a   5.98978086
_cell_length_b   5.98978086
_cell_length_c   5.98978086
_cell_angle_alpha   136.93119237
_cell_angle_beta   136.93119237
_cell_angle_gamma   62.54393566
_symmetry_Int_Tables_number   1
_chemical_formula_structural   LiTmO2
_chemical_formula_sum   'Li2 Tm2 O4'
_cell_volume   98.98896745
_cell_formula_units_Z   2
loop_
 _symmetry_equiv_pos_site_id
 _symmetry_equiv_pos_as_xyz
  1  'x, y, z'
loop_
 _atom_site_type_symbol
 _atom_site_label
 _atom_site_symmetry_multiplicity
 _atom_site_fract_x
 _atom_site_fract_y
 _atom_site_fract_z
 _atom_site_occupancy
  Li  Li0  1  0.25000000  0.75000000  0.50000000  1
  Li  Li1  1  0.50000000  0.50000000  0.00000000  1
  Tm  Tm2  1  0.00000000  0.00000000  0.00000000  1
  Tm  Tm3  1  0.75000000  0.25000000  0.50000000  1
  O  O4  1  0.77767400  0.77767400  0.00000000  1
  O  O5  1  0.22232600  0.22232600  0.00000000  1
  O  O6  1  0.52767400  0.02767400  0.50000000  1
  O  O7  1  0.97232600  0.47232600  0.50000000  1
