# generated using pymatgen
data_Na3AsO4
_symmetry_space_group_name_H-M   'P 1'
_cell_length_a   5.66792900
_cell_length_b   6.07130600
_cell_length_c   7.12790900
_cell_angle_alpha   90.00000000
_cell_angle_beta   90.00000000
_cell_angle_gamma   90.00000000
_symmetry_Int_Tables_number   1
_chemical_formula_structural   Na3AsO4
_chemical_formula_sum   'Na6 As2 O8'
_cell_volume   245.28368956
_cell_formula_units_Z   2
loop_
 _symmetry_equiv_pos_site_id
 _symmetry_equiv_pos_as_xyz
  1  'x, y, z'
loop_
 _atom_site_type_symbol
 _atom_site_label
 _atom_site_symmetry_multiplicity
 _atom_site_fract_x
 _atom_site_fract_y
 _atom_site_fract_z
 _atom_site_occupancy
  Na  Na0  1  0.49503800  0.15797400  0.00000000  1
  Na  Na1  1  0.99560400  0.32594800  0.24842100  1
  Na  Na2  1  0.49560400  0.67405200  0.25157900  1
  Na  Na3  1  0.99503800  0.84202600  0.50000000  1
  Na  Na4  1  0.49560400  0.67405200  0.74842100  1
  Na  Na5  1  0.99560400  0.32594800  0.75157900  1
  As  As6  1  0.00156900  0.82854100  0.00000000  1
  As  As7  1  0.50156900  0.17145900  0.50000000  1
  O  O8  1  0.90427300  0.09892700  0.00000000  1
  O  O9  1  0.30597100  0.82306000  0.00000000  1
  O  O10  1  0.40111500  0.30593200  0.30111800  1
  O  O11  1  0.90111500  0.69406800  0.19888200  1
  O  O12  1  0.80597100  0.17694000  0.50000000  1
  O  O13  1  0.40427300  0.90107300  0.50000000  1
  O  O14  1  0.90111500  0.69406800  0.80111800  1
  O  O15  1  0.40111500  0.30593200  0.69888200  1
