# generated using pymatgen
data_Co(NiO2)2
_symmetry_space_group_name_H-M   'P 1'
_cell_length_a   5.84413007
_cell_length_b   5.84413007
_cell_length_c   5.84413007
_cell_angle_alpha   60.00000000
_cell_angle_beta   60.00000000
_cell_angle_gamma   60.00000000
_symmetry_Int_Tables_number   1
_chemical_formula_structural   Co(NiO2)2
_chemical_formula_sum   'Co2 Ni4 O8'
_cell_volume   141.13821518
_cell_formula_units_Z   2
loop_
 _symmetry_equiv_pos_site_id
 _symmetry_equiv_pos_as_xyz
  1  'x, y, z'
loop_
 _atom_site_type_symbol
 _atom_site_label
 _atom_site_symmetry_multiplicity
 _atom_site_fract_x
 _atom_site_fract_y
 _atom_site_fract_z
 _atom_site_occupancy
  Co  Co0  1  0.25000000  0.25000000  0.25000000  1
  Co  Co1  1  0.00000000  0.00000000  0.00000000  1
  Ni  Ni2  1  0.62500000  0.12500000  0.62500000  1
  Ni  Ni3  1  0.62500000  0.62500000  0.12500000  1
  Ni  Ni4  1  0.12500000  0.62500000  0.62500000  1
  Ni  Ni5  1  0.62500000  0.62500000  0.62500000  1
  O  O6  1  0.84883100  0.38372300  0.38372300  1
  O  O7  1  0.38372300  0.38372300  0.38372300  1
  O  O8  1  0.86627700  0.40116900  0.86627700  1
  O  O9  1  0.86627700  0.86627700  0.40116900  1
  O  O10  1  0.38372300  0.38372300  0.84883100  1
  O  O11  1  0.38372300  0.84883100  0.38372300  1
  O  O12  1  0.40116900  0.86627700  0.86627700  1
  O  O13  1  0.86627700  0.86627700  0.86627700  1
