# generated using pymatgen
data_Ba2GeO4
_symmetry_space_group_name_H-M   'P 1'
_cell_length_a   6.20371600
_cell_length_b   10.57701200
_cell_length_c   15.34467400
_cell_angle_alpha   90.00000000
_cell_angle_beta   90.00000000
_cell_angle_gamma   90.00000000
_symmetry_Int_Tables_number   1
_chemical_formula_structural   Ba2GeO4
_chemical_formula_sum   'Ba16 Ge8 O32'
_cell_volume   1006.86807619
_cell_formula_units_Z   8
loop_
 _symmetry_equiv_pos_site_id
 _symmetry_equiv_pos_as_xyz
  1  'x, y, z'
loop_
 _atom_site_type_symbol
 _atom_site_label
 _atom_site_symmetry_multiplicity
 _atom_site_fract_x
 _atom_site_fract_y
 _atom_site_fract_z
 _atom_site_occupancy
  Ba  Ba0  1  0.73070900  0.78347400  0.04244100  1
  Ba  Ba1  1  0.70633600  0.41048600  0.12017900  1
  Ba  Ba2  1  0.22595500  0.00932100  0.13019500  1
  Ba  Ba3  1  0.21170100  0.63410300  0.20546300  1
  Ba  Ba4  1  0.71170100  0.13410300  0.29453700  1
  Ba  Ba5  1  0.72595500  0.50932100  0.36980500  1
  Ba  Ba6  1  0.20633600  0.91048600  0.37982100  1
  Ba  Ba7  1  0.23070900  0.28347400  0.45755900  1
  Ba  Ba8  1  0.76929100  0.78347400  0.54244100  1
  Ba  Ba9  1  0.79366400  0.41048600  0.62017900  1
  Ba  Ba10  1  0.27404500  0.00932100  0.63019500  1
  Ba  Ba11  1  0.28829900  0.63410300  0.70546300  1
  Ba  Ba12  1  0.78829900  0.13410300  0.79453700  1
  Ba  Ba13  1  0.77404500  0.50932100  0.86980500  1
  Ba  Ba14  1  0.29366400  0.91048600  0.87982100  1
  Ba  Ba15  1  0.26929100  0.28347400  0.95755900  1
  Ge  Ge16  1  0.77140100  0.12557400  0.01941600  1
  Ge  Ge17  1  0.22235400  0.29291400  0.23671300  1
  Ge  Ge18  1  0.72235400  0.79291400  0.26328700  1
  Ge  Ge19  1  0.27140100  0.62557400  0.48058400  1
  Ge  Ge20  1  0.72859900  0.12557400  0.51941600  1
  Ge  Ge21  1  0.27764600  0.29291400  0.73671300  1
  Ge  Ge22  1  0.77764600  0.79291400  0.76328700  1
  Ge  Ge23  1  0.22859900  0.62557400  0.98058400  1
  O  O24  1  0.54861900  0.02084400  0.00448100  1
  O  O25  1  0.98995600  0.55779500  0.02761900  1
  O  O26  1  0.28209600  0.76926900  0.03902500  1
  O  O27  1  0.30947500  0.26590800  0.12781200  1
  O  O28  1  0.82373300  0.15960000  0.13075100  1
  O  O29  1  0.65422100  0.64907200  0.20735600  1
  O  O30  1  0.96071300  0.84829300  0.20723700  1
  O  O31  1  0.51248300  0.90618400  0.25147100  1
  O  O32  1  0.01248300  0.40618400  0.24852900  1
  O  O33  1  0.46071300  0.34829300  0.29276300  1
  O  O34  1  0.15422100  0.14907200  0.29264400  1
  O  O35  1  0.32373300  0.65960000  0.36924900  1
  O  O36  1  0.80947500  0.76590800  0.37218800  1
  O  O37  1  0.78209600  0.26926900  0.46097500  1
  O  O38  1  0.48995600  0.05779500  0.47238100  1
  O  O39  1  0.04861900  0.52084400  0.49551900  1
  O  O40  1  0.95138100  0.02084400  0.50448100  1
  O  O41  1  0.51004400  0.55779500  0.52761900  1
  O  O42  1  0.21790400  0.76926900  0.53902500  1
  O  O43  1  0.19052500  0.26590800  0.62781200  1
  O  O44  1  0.67626700  0.15960000  0.63075100  1
  O  O45  1  0.84577900  0.64907200  0.70735600  1
  O  O46  1  0.53928700  0.84829300  0.70723700  1
  O  O47  1  0.98751700  0.90618400  0.75147100  1
  O  O48  1  0.48751700  0.40618400  0.74852900  1
  O  O49  1  0.03928700  0.34829300  0.79276300  1
  O  O50  1  0.34577900  0.14907200  0.79264400  1
  O  O51  1  0.17626700  0.65960000  0.86924900  1
  O  O52  1  0.69052500  0.76590800  0.87218800  1
  O  O53  1  0.71790400  0.26926900  0.96097500  1
  O  O54  1  0.01004400  0.05779500  0.97238100  1
  O  O55  1  0.45138100  0.52084400  0.99551900  1
