# generated using pymatgen
data_CeBrO
_symmetry_space_group_name_H-M   'P 1'
_cell_length_a   4.01523400
_cell_length_b   4.01523400
_cell_length_c   8.19397700
_cell_angle_alpha   90.00000000
_cell_angle_beta   90.00000000
_cell_angle_gamma   90.00000000
_symmetry_Int_Tables_number   1
_chemical_formula_structural   CeBrO
_chemical_formula_sum   'Ce2 Br2 O2'
_cell_volume   132.10414998
_cell_formula_units_Z   2
loop_
 _symmetry_equiv_pos_site_id
 _symmetry_equiv_pos_as_xyz
  1  'x, y, z'
loop_
 _atom_site_type_symbol
 _atom_site_label
 _atom_site_symmetry_multiplicity
 _atom_site_fract_x
 _atom_site_fract_y
 _atom_site_fract_z
 _atom_site_occupancy
  Ce  Ce0  1  0.00000000  0.50000000  0.14919700  1
  Ce  Ce1  1  0.50000000  0.00000000  0.85080300  1
  Br  Br2  1  0.00000000  0.50000000  0.65527600  1
  Br  Br3  1  0.50000000  0.00000000  0.34472400  1
  O  O4  1  0.00000000  0.00000000  0.00000000  1
  O  O5  1  0.50000000  0.50000000  0.00000000  1
