# generated using pymatgen
data_LiCr(CO3)2
_symmetry_space_group_name_H-M   'P 1'
_cell_length_a   4.66715355
_cell_length_b   20.44416456
_cell_length_c   4.66675579
_cell_angle_alpha   90.00131573
_cell_angle_beta   120.00249038
_cell_angle_gamma   83.44729418
_symmetry_Int_Tables_number   1
_chemical_formula_structural   LiCr(CO3)2
_chemical_formula_sum   'Li4 Cr4 C8 O24'
_cell_volume   382.25507662
_cell_formula_units_Z   4
loop_
 _symmetry_equiv_pos_site_id
 _symmetry_equiv_pos_as_xyz
  1  'x, y, z'
loop_
 _atom_site_type_symbol
 _atom_site_label
 _atom_site_symmetry_multiplicity
 _atom_site_fract_x
 _atom_site_fract_y
 _atom_site_fract_z
 _atom_site_occupancy
  Li  Li0  1  0.00000000  0.00000200  0.99999200  1
  Li  Li1  1  0.50000000  0.25000000  0.24999100  1
  Li  Li2  1  0.00000200  0.49999800  0.49999000  1
  Li  Li3  1  0.50000100  0.74999900  0.74999200  1
  Cr  Cr4  1  0.25001200  0.62499100  0.12500100  1
  Cr  Cr5  1  0.75002500  0.87499300  0.37502200  1
  Cr  Cr6  1  0.25001100  0.12501400  0.62500400  1
  Cr  Cr7  1  0.74994800  0.37500600  0.87501100  1
  C  C8  1  0.87839400  0.18274800  0.93918200  1
  C  C9  1  0.37831900  0.43273900  0.18919300  1
  C  C10  1  0.87835900  0.68275300  0.43917100  1
  C  C11  1  0.37837800  0.93273700  0.68920300  1
  C  C12  1  0.62167700  0.06725900  0.31081300  1
  C  C13  1  0.12161100  0.31724900  0.56083100  1
  C  C14  1  0.62163300  0.56726200  0.81080300  1
  C  C15  1  0.12165400  0.81724700  0.06084100  1
  O  O16  1  0.90735400  0.06656500  0.32650200  1
  O  O17  1  0.40738800  0.31658300  0.57657200  1
  O  O18  1  0.90730400  0.56659900  0.82656900  1
  O  O19  1  0.40730100  0.81656100  0.07652200  1
  O  O20  1  0.14754600  0.18341400  0.22411400  1
  O  O21  1  0.64749800  0.43343000  0.47399600  1
  O  O22  1  0.14744200  0.68345700  0.72389800  1
  O  O23  1  0.64745100  0.93341100  0.97399200  1
  O  O24  1  0.89334300  0.18340600  0.66912200  1
  O  O25  1  0.39312100  0.43344000  0.91910500  1
  O  O26  1  0.89314200  0.68345500  0.16915800  1
  O  O27  1  0.39324100  0.93341200  0.41920600  1
  O  O28  1  0.60688800  0.06655300  0.58089200  1
  O  O29  1  0.10667300  0.31658700  0.83087000  1
  O  O30  1  0.60671100  0.56659800  0.08077000  1
  O  O31  1  0.10680800  0.81655700  0.33082900  1
  O  O32  1  0.35251200  0.06655700  0.02603200  1
  O  O33  1  0.85245700  0.31657400  0.27591300  1
  O  O34  1  0.35256000  0.56659500  0.52599000  1
  O  O35  1  0.85254800  0.81655100  0.77606200  1
  O  O36  1  0.59261100  0.18341100  0.92341100  1
  O  O37  1  0.09264300  0.43342700  0.17347700  1
  O  O38  1  0.59272800  0.68345100  0.42350100  1
  O  O39  1  0.09270700  0.93340900  0.67345400  1
