# generated using pymatgen
data_TmCrO3
_symmetry_space_group_name_H-M   'P 1'
_cell_length_a   5.24554700
_cell_length_b   5.56617900
_cell_length_c   7.59400800
_cell_angle_alpha   90.00000000
_cell_angle_beta   90.00000000
_cell_angle_gamma   90.00000000
_symmetry_Int_Tables_number   1
_chemical_formula_structural   TmCrO3
_chemical_formula_sum   'Tm4 Cr4 O12'
_cell_volume   221.72721468
_cell_formula_units_Z   4
loop_
 _symmetry_equiv_pos_site_id
 _symmetry_equiv_pos_as_xyz
  1  'x, y, z'
loop_
 _atom_site_type_symbol
 _atom_site_label
 _atom_site_symmetry_multiplicity
 _atom_site_fract_x
 _atom_site_fract_y
 _atom_site_fract_z
 _atom_site_occupancy
  Tm  Tm0  1  0.52070200  0.56964100  0.25000000  1
  Tm  Tm1  1  0.97929800  0.06964100  0.25000000  1
  Tm  Tm2  1  0.47929800  0.43035900  0.75000000  1
  Tm  Tm3  1  0.02070200  0.93035900  0.75000000  1
  Cr  Cr4  1  0.00000000  0.50000000  0.00000000  1
  Cr  Cr5  1  0.50000000  0.00000000  0.50000000  1
  Cr  Cr6  1  0.00000000  0.50000000  0.50000000  1
  Cr  Cr7  1  0.50000000  0.00000000  0.00000000  1
  O  O8  1  0.37893900  0.95222700  0.25000000  1
  O  O9  1  0.12106100  0.45222700  0.25000000  1
  O  O10  1  0.62106100  0.04777300  0.75000000  1
  O  O11  1  0.87893900  0.54777300  0.75000000  1
  O  O12  1  0.81034700  0.80525900  0.06147900  1
  O  O13  1  0.68965300  0.30525900  0.43852100  1
  O  O14  1  0.18965300  0.19474100  0.56147900  1
  O  O15  1  0.31034700  0.69474100  0.93852100  1
  O  O16  1  0.18965300  0.19474100  0.93852100  1
  O  O17  1  0.31034700  0.69474100  0.56147900  1
  O  O18  1  0.81034700  0.80525900  0.43852100  1
  O  O19  1  0.68965300  0.30525900  0.06147900  1
