# generated using pymatgen
data_BeH8SeO8
_symmetry_space_group_name_H-M   'P 1'
_cell_length_a   8.32782195
_cell_length_b   8.32782195
_cell_length_c   10.90323700
_cell_angle_alpha   90.00000000
_cell_angle_beta   90.00000000
_cell_angle_gamma   92.36903725
_symmetry_Int_Tables_number   1
_chemical_formula_structural   BeH8SeO8
_chemical_formula_sum   'Be4 H32 Se4 O32'
_cell_volume   755.52174899
_cell_formula_units_Z   4
loop_
 _symmetry_equiv_pos_site_id
 _symmetry_equiv_pos_as_xyz
  1  'x, y, z'
loop_
 _atom_site_type_symbol
 _atom_site_label
 _atom_site_symmetry_multiplicity
 _atom_site_fract_x
 _atom_site_fract_y
 _atom_site_fract_z
 _atom_site_occupancy
  Be  Be0  1  0.24738300  0.24738300  0.76745600  1
  Be  Be1  1  0.75261700  0.75261700  0.23254400  1
  Be  Be2  1  0.25261700  0.25261700  0.26745600  1
  Be  Be3  1  0.74738300  0.74738300  0.73254400  1
  H  H4  1  0.35127100  0.05923800  0.63516100  1
  H  H5  1  0.94076200  0.64872900  0.36483900  1
  H  H6  1  0.44076200  0.14872900  0.13516100  1
  H  H7  1  0.85127100  0.55923800  0.86483900  1
  H  H8  1  0.64872900  0.94076200  0.36483900  1
  H  H9  1  0.05923800  0.35127100  0.63516100  1
  H  H10  1  0.55923800  0.85127100  0.86483900  1
  H  H11  1  0.14872900  0.44076200  0.13516100  1
  H  H12  1  0.48563000  0.20275900  0.66617800  1
  H  H13  1  0.79724100  0.51437000  0.33382200  1
  H  H14  1  0.29724100  0.01437000  0.16617800  1
  H  H15  1  0.98563000  0.70275900  0.83382200  1
  H  H16  1  0.51437000  0.79724100  0.33382200  1
  H  H17  1  0.20275900  0.48563000  0.66617800  1
  H  H18  1  0.70275900  0.98563000  0.83382200  1
  H  H19  1  0.01437000  0.29724100  0.16617800  1
  H  H20  1  0.13783500  0.00179000  0.83797300  1
  H  H21  1  0.99821000  0.86216500  0.16202700  1
  H  H22  1  0.49821000  0.36216500  0.33797300  1
  H  H23  1  0.63783500  0.50179000  0.66202700  1
  H  H24  1  0.86216500  0.99821000  0.16202700  1
  H  H25  1  0.00179000  0.13783500  0.83797300  1
  H  H26  1  0.50179000  0.63783500  0.66202700  1
  H  H27  1  0.36216500  0.49821000  0.33797300  1
  H  H28  1  0.43344800  0.29737600  0.92203500  1
  H  H29  1  0.70262400  0.56655200  0.07796500  1
  H  H30  1  0.20262400  0.06655200  0.42203500  1
  H  H31  1  0.93344800  0.79737600  0.57796500  1
  H  H32  1  0.56655200  0.70262400  0.07796500  1
  H  H33  1  0.29737600  0.43344800  0.92203500  1
  H  H34  1  0.79737600  0.93344800  0.57796500  1
  H  H35  1  0.06655200  0.20262400  0.42203500  1
  Se  Se36  1  0.74674000  0.25326000  0.50000000  1
  Se  Se37  1  0.24674000  0.75326000  0.00000000  1
  Se  Se38  1  0.25326000  0.74674000  0.50000000  1
  Se  Se39  1  0.75326000  0.24674000  0.00000000  1
  O  O40  1  0.70948500  0.05555700  0.48308600  1
  O  O41  1  0.94444300  0.29051500  0.51691400  1
  O  O42  1  0.44444300  0.79051500  0.98308600  1
  O  O43  1  0.20948500  0.55555700  0.01691400  1
  O  O44  1  0.29051500  0.94444300  0.51691400  1
  O  O45  1  0.05555700  0.70948500  0.48308600  1
  O  O46  1  0.55555700  0.20948500  0.01691400  1
  O  O47  1  0.79051500  0.44444300  0.98308600  1
  O  O48  1  0.64812900  0.31341700  0.62509300  1
  O  O49  1  0.68658300  0.35187100  0.37490700  1
  O  O50  1  0.18658300  0.85187100  0.12509300  1
  O  O51  1  0.14812900  0.81341700  0.87490700  1
  O  O52  1  0.35187100  0.68658300  0.37490700  1
  O  O53  1  0.31341700  0.64812900  0.62509300  1
  O  O54  1  0.81341700  0.14812900  0.87490700  1
  O  O55  1  0.85187100  0.18658300  0.12509300  1
  O  O56  1  0.11450900  0.11450900  0.81271600  1
  O  O57  1  0.88549100  0.88549100  0.18728400  1
  O  O58  1  0.38549100  0.38549100  0.31271600  1
  O  O59  1  0.61450900  0.61450900  0.68728400  1
  O  O60  1  0.34952400  0.34952400  0.87091900  1
  O  O61  1  0.65047600  0.65047600  0.12908100  1
  O  O62  1  0.15047600  0.15047600  0.37091900  1
  O  O63  1  0.84952400  0.84952400  0.62908100  1
  O  O64  1  0.38230500  0.14796900  0.69372800  1
  O  O65  1  0.85203100  0.61769500  0.30627200  1
  O  O66  1  0.35203100  0.11769500  0.19372800  1
  O  O67  1  0.88230500  0.64796900  0.80627200  1
  O  O68  1  0.61769500  0.85203100  0.30627200  1
  O  O69  1  0.14796900  0.38230500  0.69372800  1
  O  O70  1  0.64796900  0.88230500  0.80627200  1
  O  O71  1  0.11769500  0.35203100  0.19372800  1
