# generated using pymatgen
data_Rb6Ti2O7
_symmetry_space_group_name_H-M   'P 1'
_cell_length_a   9.75584700
_cell_length_b   6.91547600
_cell_length_c   11.81666965
_cell_angle_alpha   56.65670191
_cell_angle_beta   90.00000000
_cell_angle_gamma   90.00000000
_symmetry_Int_Tables_number   1
_chemical_formula_structural   Rb6Ti2O7
_chemical_formula_sum   'Rb12 Ti4 O14'
_cell_volume   665.99747820
_cell_formula_units_Z   2
loop_
 _symmetry_equiv_pos_site_id
 _symmetry_equiv_pos_as_xyz
  1  'x, y, z'
loop_
 _atom_site_type_symbol
 _atom_site_label
 _atom_site_symmetry_multiplicity
 _atom_site_fract_x
 _atom_site_fract_y
 _atom_site_fract_z
 _atom_site_occupancy
  Rb  Rb0  1  0.78443400  0.60491000  0.27803100  1
  Rb  Rb1  1  0.64858200  0.96591600  0.91877000  1
  Rb  Rb2  1  0.52624500  0.20561700  0.54640200  1
  Rb  Rb3  1  0.02624500  0.79438300  0.95359800  1
  Rb  Rb4  1  0.28443400  0.39509000  0.22196900  1
  Rb  Rb5  1  0.14858200  0.03408400  0.58123000  1
  Rb  Rb6  1  0.85141800  0.96591600  0.41877000  1
  Rb  Rb7  1  0.71556600  0.60491000  0.77803100  1
  Rb  Rb8  1  0.97375500  0.20561700  0.04640200  1
  Rb  Rb9  1  0.47375500  0.79438300  0.45359800  1
  Rb  Rb10  1  0.35141800  0.03408400  0.08123000  1
  Rb  Rb11  1  0.21556600  0.39509000  0.72196900  1
  Ti  Ti12  1  0.86183500  0.32074200  0.62892900  1
  Ti  Ti13  1  0.36183500  0.67925800  0.87107100  1
  Ti  Ti14  1  0.63816500  0.32074200  0.12892900  1
  Ti  Ti15  1  0.13816500  0.67925800  0.37107100  1
  O  O16  1  0.00000000  0.50000000  0.50000000  1
  O  O17  1  0.08964400  0.74766500  0.20403700  1
  O  O18  1  0.29112800  0.49844900  0.42846000  1
  O  O19  1  0.33403000  0.94411500  0.86761600  1
  O  O20  1  0.83403000  0.05588500  0.63238400  1
  O  O21  1  0.79112800  0.50155100  0.07154000  1
  O  O22  1  0.58964400  0.25233500  0.29596300  1
  O  O23  1  0.50000000  0.50000000  0.00000000  1
  O  O24  1  0.41035600  0.74766500  0.70403700  1
  O  O25  1  0.20887200  0.49844900  0.92846000  1
  O  O26  1  0.16597000  0.94411500  0.36761600  1
  O  O27  1  0.66597000  0.05588500  0.13238400  1
  O  O28  1  0.70887200  0.50155100  0.57154000  1
  O  O29  1  0.91035600  0.25233500  0.79596300  1
