# generated using pymatgen
data_Ba2B2O5
_symmetry_space_group_name_H-M   'P 1'
_cell_length_a   5.61339400
_cell_length_b   8.47475500
_cell_length_c   12.52261443
_cell_angle_alpha   89.15172012
_cell_angle_beta   90.00000000
_cell_angle_gamma   90.00000000
_symmetry_Int_Tables_number   1
_chemical_formula_structural   Ba2B2O5
_chemical_formula_sum   'Ba8 B8 O20'
_cell_volume   595.66226323
_cell_formula_units_Z   4
loop_
 _symmetry_equiv_pos_site_id
 _symmetry_equiv_pos_as_xyz
  1  'x, y, z'
loop_
 _atom_site_type_symbol
 _atom_site_label
 _atom_site_symmetry_multiplicity
 _atom_site_fract_x
 _atom_site_fract_y
 _atom_site_fract_z
 _atom_site_occupancy
  Ba  Ba0  1  0.04822800  0.61630000  0.13411600  1
  Ba  Ba1  1  0.08271400  0.12126400  0.15596300  1
  Ba  Ba2  1  0.58271400  0.87873600  0.34403700  1
  Ba  Ba3  1  0.54822800  0.38370000  0.36588400  1
  Ba  Ba4  1  0.45177200  0.61630000  0.63411600  1
  Ba  Ba5  1  0.41728600  0.12126400  0.65596300  1
  Ba  Ba6  1  0.91728600  0.87873600  0.84403700  1
  Ba  Ba7  1  0.95177200  0.38370000  0.86588400  1
  B  B8  1  0.54299100  0.33690200  0.08119400  1
  B  B9  1  0.56555000  0.83691700  0.09258300  1
  B  B10  1  0.06555000  0.16308300  0.40741700  1
  B  B11  1  0.04299100  0.66309800  0.41880600  1
  B  B12  1  0.95700900  0.33690200  0.58119400  1
  B  B13  1  0.93445000  0.83691700  0.59258300  1
  B  B14  1  0.43445000  0.16308300  0.90741700  1
  B  B15  1  0.45700900  0.66309800  0.91880600  1
  O  O16  1  0.40394200  0.24803800  0.00465900  1
  O  O17  1  0.78479300  0.35285200  0.07205500  1
  O  O18  1  0.77559200  0.88593100  0.13819300  1
  O  O19  1  0.34980200  0.85795900  0.14082200  1
  O  O20  1  0.40498600  0.39411600  0.16247500  1
  O  O21  1  0.90498600  0.60588400  0.33752500  1
  O  O22  1  0.84980200  0.14204100  0.35917800  1
  O  O23  1  0.27559200  0.11406900  0.36180700  1
  O  O24  1  0.28479300  0.64714800  0.42794500  1
  O  O25  1  0.09605800  0.24803800  0.50465900  1
  O  O26  1  0.90394200  0.75196200  0.49534100  1
  O  O27  1  0.71520700  0.35285200  0.57205500  1
  O  O28  1  0.72440800  0.88593100  0.63819300  1
  O  O29  1  0.15019800  0.85795900  0.64082200  1
  O  O30  1  0.09501400  0.39411600  0.66247500  1
  O  O31  1  0.59501400  0.60588400  0.83752500  1
  O  O32  1  0.65019800  0.14204100  0.85917800  1
  O  O33  1  0.22440800  0.11406900  0.86180700  1
  O  O34  1  0.21520700  0.64714800  0.92794500  1
  O  O35  1  0.59605800  0.75196200  0.99534100  1
