# generated using pymatgen
data_Y2TeO2
_symmetry_space_group_name_H-M   'P 1'
_cell_length_a   6.87021388
_cell_length_b   6.87021388
_cell_length_c   6.87021388
_cell_angle_alpha   146.59161045
_cell_angle_beta   146.59161045
_cell_angle_gamma   47.96885255
_symmetry_Int_Tables_number   1
_chemical_formula_structural   Y2TeO2
_chemical_formula_sum   'Y2 Te1 O2'
_cell_volume   97.90832057
_cell_formula_units_Z   1
loop_
 _symmetry_equiv_pos_site_id
 _symmetry_equiv_pos_as_xyz
  1  'x, y, z'
loop_
 _atom_site_type_symbol
 _atom_site_label
 _atom_site_symmetry_multiplicity
 _atom_site_fract_x
 _atom_site_fract_y
 _atom_site_fract_z
 _atom_site_occupancy
  Y  Y0  1  0.33728800  0.33728800  0.00000000  1
  Y  Y1  1  0.66271200  0.66271200  0.00000000  1
  Te  Te2  1  0.00000000  0.00000000  0.00000000  1
  O  O3  1  0.75000000  0.25000000  0.50000000  1
  O  O4  1  0.25000000  0.75000000  0.50000000  1
