# generated using pymatgen
data_Na4NpO5
_symmetry_space_group_name_H-M   'P 1'
_cell_length_a   5.87879828
_cell_length_b   5.87879828
_cell_length_c   5.87879828
_cell_angle_alpha   98.98638941
_cell_angle_beta   98.98638941
_cell_angle_gamma   133.44045298
_symmetry_Int_Tables_number   1
_chemical_formula_structural   Na4NpO5
_chemical_formula_sum   'Na4 Np1 O5'
_cell_volume   135.51131619
_cell_formula_units_Z   1
loop_
 _symmetry_equiv_pos_site_id
 _symmetry_equiv_pos_as_xyz
  1  'x, y, z'
loop_
 _atom_site_type_symbol
 _atom_site_label
 _atom_site_symmetry_multiplicity
 _atom_site_fract_x
 _atom_site_fract_y
 _atom_site_fract_z
 _atom_site_occupancy
  Na  Na0  1  0.39915300  0.19914500  0.59829800  1
  Na  Na1  1  0.60084700  0.80085500  0.40170200  1
  Na  Na2  1  0.80085500  0.39915300  0.20000800  1
  Na  Na3  1  0.19914500  0.60084700  0.79999200  1
  Np  Np4  1  0.00000000  0.00000000  0.00000000  1
  O  O5  1  0.50000000  0.50000000  0.00000000  1
  O  O6  1  0.07644700  0.25266800  0.32911500  1
  O  O7  1  0.92355300  0.74733200  0.67088500  1
  O  O8  1  0.74733200  0.07644700  0.82377900  1
  O  O9  1  0.25266800  0.92355300  0.17622100  1
