# generated using pymatgen
data_Mo9O26
_symmetry_space_group_name_H-M   'P 1'
_cell_length_a   8.21959542
_cell_length_b   15.43246927
_cell_length_c   17.17315885
_cell_angle_alpha   95.19106818
_cell_angle_beta   89.99841324
_cell_angle_gamma   105.45022811
_symmetry_Int_Tables_number   1
_chemical_formula_structural   Mo9O26
_chemical_formula_sum   'Mo36 O104'
_cell_volume   2090.40028954
_cell_formula_units_Z   4
loop_
 _symmetry_equiv_pos_site_id
 _symmetry_equiv_pos_as_xyz
  1  'x, y, z'
loop_
 _atom_site_type_symbol
 _atom_site_label
 _atom_site_symmetry_multiplicity
 _atom_site_fract_x
 _atom_site_fract_y
 _atom_site_fract_z
 _atom_site_occupancy
  Mo  Mo0  1  0.77072812  0.95247510  0.08342294  1
  Mo  Mo1  1  0.53932968  0.50016711  0.75131067  1
  Mo  Mo2  1  0.65453111  0.72246261  0.16203250  1
  Mo  Mo3  1  0.29225301  0.16514816  0.13486988  1
  Mo  Mo4  1  0.37712274  0.16525736  0.63180760  1
  Mo  Mo5  1  0.46174133  0.49997777  0.24816489  1
  Mo  Mo6  1  0.73058173  0.04684464  0.91799736  1
  Mo  Mo7  1  0.22959599  0.04706687  0.91721551  1
  Mo  Mo8  1  0.03952049  0.49955092  0.74804307  1
  Mo  Mo9  1  0.48390582  0.38775707  0.04363112  1
  Mo  Mo10  1  0.87407963  0.16511116  0.63462695  1
  Mo  Mo11  1  0.43226072  0.28112196  0.34015171  1
  Mo  Mo12  1  0.59449882  0.60998087  0.45391191  1
  Mo  Mo13  1  0.14981358  0.71934088  0.15948010  1
  Mo  Mo14  1  0.12837327  0.83552027  0.36509758  1
  Mo  Mo15  1  0.09572249  0.61272294  0.45715795  1
  Mo  Mo16  1  0.40678561  0.39014098  0.54590973  1
  Mo  Mo17  1  0.81839065  0.04792314  0.41719528  1
  Mo  Mo18  1  0.98474380  0.39060033  0.04658033  1
  Mo  Mo19  1  0.06771410  0.72233655  0.66267998  1
  Mo  Mo20  1  0.18111270  0.95311771  0.58300775  1
  Mo  Mo21  1  0.56999135  0.71947788  0.66003237  1
  Mo  Mo22  1  0.96141029  0.50119137  0.25238652  1
  Mo  Mo23  1  0.27125743  0.95354494  0.08264365  1
  Mo  Mo24  1  0.90611725  0.38841601  0.54322943  1
  Mo  Mo25  1  0.51743334  0.61103863  0.95653957  1
  Mo  Mo26  1  0.93349336  0.27851368  0.33780421  1
  Mo  Mo27  1  0.70760270  0.83461834  0.86582302  1
  Mo  Mo28  1  0.34569839  0.27796566  0.83776072  1
  Mo  Mo29  1  0.79003525  0.16495531  0.13185733  1
  Mo  Mo30  1  0.21227147  0.83500241  0.86881475  1
  Mo  Mo31  1  0.62391249  0.83552695  0.36835314  1
  Mo  Mo32  1  0.85067149  0.28073716  0.84022462  1
  Mo  Mo33  1  0.68308427  0.95308930  0.58247049  1
  Mo  Mo34  1  0.01608187  0.60962993  0.95355326  1
  Mo  Mo35  1  0.31729725  0.04786815  0.41816997  1
  O  O36  1  0.69050331  0.37629261  0.53119839  1
  O  O37  1  0.84411264  0.21213954  0.73372132  1
  O  O38  1  0.28017078  0.07930208  0.53040535  1
  O  O39  1  0.50275345  0.55956763  0.85377608  1
  O  O40  1  0.93555698  0.32814799  0.93899452  1
  O  O41  1  0.04965706  0.61496146  0.70502241  1
  O  O42  1  0.36879313  0.21267592  0.23400234  1
  O  O43  1  0.72088249  0.92067938  0.96946761  1
  O  O44  1  0.83608769  0.21357843  0.23288669  1
  O  O45  1  0.05864438  0.55987471  0.35419161  1
  O  O46  1  0.33926941  0.15504253  0.37835588  1
  O  O47  1  0.72276985  0.96119838  0.83387724  1
  O  O48  1  0.47171855  0.95486961  0.57582464  1
  O  O49  1  0.75162074  0.50427251  0.76249740  1
  O  O50  1  0.32642238  0.15333404  0.87751880  1
  O  O51  1  0.24673870  0.49400033  0.73641361  1
  O  O52  1  0.68756563  0.37614302  0.03128268  1
  O  O53  1  0.60796173  0.67153021  0.56135765  1
  O  O54  1  0.05585865  0.56082090  0.85369987  1
  O  O55  1  0.37509679  0.26710531  0.08435298  1
  O  O56  1  0.98161216  0.94978221  0.08389546  1
  O  O57  1  0.44754700  0.38623626  0.29441699  1
  O  O58  1  0.86419237  0.73472409  0.67470496  1
  O  O59  1  0.64436725  0.28130727  0.34646104  1
  O  O60  1  0.56822425  0.61606148  0.20597925  1
  O  O61  1  0.42627972  0.84083278  0.87880114  1
  O  O62  1  0.06287876  0.67080798  0.06141005  1
  O  O63  1  0.94421279  0.32757641  0.43989063  1
  O  O64  1  0.55549294  0.61454014  0.70588344  1
  O  O65  1  0.94272451  0.43973529  0.64601709  1
  O  O66  1  0.11132434  0.73387311  0.41585456  1
  O  O67  1  0.03138034  0.04959306  0.41669189  1
  O  O68  1  0.77258703  0.03948950  0.16613809  1
  O  O69  1  0.61969195  0.73489039  0.41876600  1
  O  O70  1  0.50539825  0.56140258  0.35468341  1
  O  O71  1  0.12898508  0.26404549  0.82665229  1
  O  O72  1  0.79845476  0.07815378  0.03060046  1
  O  O73  1  0.87130001  0.73697457  0.17322882  1
  O  O74  1  0.20496235  0.92193448  0.97002399  1
  O  O75  1  0.05669492  0.67438779  0.56037984  1
  O  O76  1  0.58484397  0.15859050  0.62119146  1
  O  O77  1  0.71886192  0.92208144  0.46977877  1
  O  O78  1  0.36076547  0.71759214  0.15242720  1
  O  O79  1  0.27857892  0.07903797  0.03142371  1
  O  O80  1  0.38452044  0.32659407  0.93970267  1
  O  O81  1  0.31316607  0.62210541  0.96886626  1
  O  O82  1  0.51783053  0.04531730  0.92579504  1
  O  O83  1  0.63047599  0.78794178  0.76656822  1
  O  O84  1  0.92109176  0.83730910  0.86196089  1
  O  O85  1  0.20080086  0.92179581  0.46928223  1
  O  O86  1  0.50071232  0.44115886  0.14650641  1
  O  O87  1  0.99926788  0.50035980  0.50055389  1
  O  O88  1  0.48470164  0.95648838  0.07582599  1
  O  O89  1  0.31045620  0.62307934  0.47001062  1
  O  O90  1  0.89242637  0.26670561  0.58356719  1
  O  O91  1  0.75426036  0.50687216  0.26392285  1
  O  O92  1  0.24891816  0.49437818  0.23650552  1
  O  O93  1  0.80424561  0.60744014  0.44440964  1
  O  O94  1  0.05945850  0.61536162  0.20662218  1
  O  O95  1  0.96831487  0.95187671  0.58240071  1
  O  O96  1  0.94496503  0.44007276  0.14578591  1
  O  O97  1  0.43093120  0.38471537  0.79406010  1
  O  O98  1  0.27686008  0.03862533  0.16702439  1
  O  O99  1  0.94054720  0.38544131  0.79419273  1
  O  O100  1  0.35776675  0.71883373  0.65329157  1
  O  O101  1  0.63895771  0.28128964  0.84634231  1
  O  O102  1  0.80110187  0.07889323  0.53129417  1
  O  O103  1  0.08473905  0.16241730  0.63862753  1
  O  O104  1  0.38126191  0.26617844  0.58205611  1
  O  O105  1  0.52851507  0.04622971  0.42598163  1
  O  O106  1  0.76241754  0.03839763  0.66666801  1
  O  O107  1  0.62389735  0.73258698  0.91637930  1
  O  O108  1  0.23917976  0.96238048  0.33389389  1
  O  O109  1  0.57611621  0.15962269  0.12252925  1
  O  O110  1  0.22939751  0.96029242  0.83442278  1
  O  O111  1  0.91729977  0.83791407  0.36146159  1
  O  O112  1  0.26677320  0.04007249  0.66571264  1
  O  O113  1  0.80318909  0.60541442  0.94425095  1
  O  O114  1  0.00073301  0.49944981  0.99967441  1
  O  O115  1  0.50326392  0.50036434  0.49961473  1
  O  O116  1  0.39509796  0.32835683  0.43881135  1
  O  O117  1  0.38273736  0.21335333  0.73324337  1
  O  O118  1  0.19766467  0.39408613  0.55420675  1
  O  O119  1  0.88718460  0.26571741  0.08166831  1
  O  O120  1  0.61906590  0.78731980  0.26710673  1
  O  O121  1  0.81604156  0.15405651  0.87829954  1
  O  O122  1  0.41616424  0.84195687  0.37847172  1
  O  O123  1  0.11517382  0.73452239  0.91918765  1
  O  O124  1  0.95127333  0.38520700  0.29453160  1
  O  O125  1  0.66247653  0.84548724  0.62150376  1
  O  O126  1  0.19766888  0.39442272  0.05583817  1
  O  O127  1  0.66966569  0.84629787  0.12280048  1
  O  O128  1  0.17166468  0.84723485  0.62374895  1
  O  O129  1  0.50086468  0.49991723  0.99978812  1
  O  O130  1  0.73249432  0.96105404  0.33447742  1
  O  O131  1  0.18648963  0.84526876  0.12059331  1
  O  O132  1  0.13735961  0.26626026  0.32723098  1
  O  O133  1  0.49462826  0.43986465  0.64557456  1
  O  O134  1  0.01742238  0.04739638  0.91712102  1
  O  O135  1  0.07839977  0.16169609  0.13851188  1
  O  O136  1  0.61757097  0.67277263  0.06004373  1
  O  O137  1  0.15839947  0.78923574  0.26565121  1
  O  O138  1  0.16790149  0.78597096  0.76776512  1
  O  O139  1  0.82677637  0.15436553  0.37761850  1
