# generated using pymatgen
data_CaH4NClO5
_symmetry_space_group_name_H-M   'P 1'
_cell_length_a   6.72120800
_cell_length_b   9.14581500
_cell_length_c   19.97831400
_cell_angle_alpha   90.00000000
_cell_angle_beta   90.00000000
_cell_angle_gamma   90.00000000
_symmetry_Int_Tables_number   1
_chemical_formula_structural   CaH4NClO5
_chemical_formula_sum   'Ca8 H32 N8 Cl8 O40'
_cell_volume   1228.08544041
_cell_formula_units_Z   8
loop_
 _symmetry_equiv_pos_site_id
 _symmetry_equiv_pos_as_xyz
  1  'x, y, z'
loop_
 _atom_site_type_symbol
 _atom_site_label
 _atom_site_symmetry_multiplicity
 _atom_site_fract_x
 _atom_site_fract_y
 _atom_site_fract_z
 _atom_site_occupancy
  Ca  Ca0  1  0.54745000  0.94585200  0.34424700  1
  Ca  Ca1  1  0.95255000  0.44585200  0.65575300  1
  Ca  Ca2  1  0.04745000  0.05414800  0.15575300  1
  Ca  Ca3  1  0.45255000  0.55414800  0.84424700  1
  Ca  Ca4  1  0.45255000  0.05414800  0.65575300  1
  Ca  Ca5  1  0.04745000  0.55414800  0.34424700  1
  Ca  Ca6  1  0.95255000  0.94585200  0.84424700  1
  Ca  Ca7  1  0.54745000  0.44585200  0.15575300  1
  H  H8  1  0.74106700  0.21137500  0.40190100  1
  H  H9  1  0.75893300  0.71137500  0.59809900  1
  H  H10  1  0.24106700  0.78862500  0.09809900  1
  H  H11  1  0.25893300  0.28862500  0.90190100  1
  H  H12  1  0.25893300  0.78862500  0.59809900  1
  H  H13  1  0.24106700  0.28862500  0.40190100  1
  H  H14  1  0.75893300  0.21137500  0.90190100  1
  H  H15  1  0.74106700  0.71137500  0.09809900  1
  H  H16  1  0.89543100  0.08294900  0.41165200  1
  H  H17  1  0.60456900  0.58294900  0.58834800  1
  H  H18  1  0.39543100  0.91705100  0.08834800  1
  H  H19  1  0.10456900  0.41705100  0.91165200  1
  H  H20  1  0.10456900  0.91705100  0.58834800  1
  H  H21  1  0.39543100  0.41705100  0.41165200  1
  H  H22  1  0.60456900  0.08294900  0.91165200  1
  H  H23  1  0.89543100  0.58294900  0.08834800  1
  H  H24  1  0.65151500  0.70397800  0.44519600  1
  H  H25  1  0.84848500  0.20397800  0.55480400  1
  H  H26  1  0.15151500  0.29602200  0.05480400  1
  H  H27  1  0.34848500  0.79602200  0.94519600  1
  H  H28  1  0.34848500  0.29602200  0.55480400  1
  H  H29  1  0.15151500  0.79602200  0.44519600  1
  H  H30  1  0.84848500  0.70397800  0.94519600  1
  H  H31  1  0.65151500  0.20397800  0.05480400  1
  H  H32  1  0.63205800  0.85471100  0.48365800  1
  H  H33  1  0.86794200  0.35471100  0.51634200  1
  H  H34  1  0.13205800  0.14528900  0.01634200  1
  H  H35  1  0.36794200  0.64528900  0.98365800  1
  H  H36  1  0.36794200  0.14528900  0.51634200  1
  H  H37  1  0.13205800  0.64528900  0.48365800  1
  H  H38  1  0.86794200  0.85471100  0.98365800  1
  H  H39  1  0.63205800  0.35471100  0.01634200  1
  N  N40  1  0.90198800  0.84757800  0.26341600  1
  N  N41  1  0.59801200  0.34757800  0.73658400  1
  N  N42  1  0.40198800  0.15242200  0.23658400  1
  N  N43  1  0.09801200  0.65242200  0.76341600  1
  N  N44  1  0.09801200  0.15242200  0.73658400  1
  N  N45  1  0.40198800  0.65242200  0.26341600  1
  N  N46  1  0.59801200  0.84757800  0.76341600  1
  N  N47  1  0.90198800  0.34757800  0.23658400  1
  Cl  Cl48  1  0.22629000  0.04579100  0.41850500  1
  Cl  Cl49  1  0.27371000  0.54579100  0.58149500  1
  Cl  Cl50  1  0.72629000  0.95420900  0.08149500  1
  Cl  Cl51  1  0.77371000  0.45420900  0.91850500  1
  Cl  Cl52  1  0.77371000  0.95420900  0.58149500  1
  Cl  Cl53  1  0.72629000  0.45420900  0.41850500  1
  Cl  Cl54  1  0.27371000  0.04579100  0.91850500  1
  Cl  Cl55  1  0.22629000  0.54579100  0.08149500  1
  O  O56  1  0.81978000  0.97124500  0.25283900  1
  O  O57  1  0.68022000  0.47124500  0.74716100  1
  O  O58  1  0.31978000  0.02875500  0.24716100  1
  O  O59  1  0.18022000  0.52875500  0.75283900  1
  O  O60  1  0.18022000  0.02875500  0.74716100  1
  O  O61  1  0.31978000  0.52875500  0.25283900  1
  O  O62  1  0.68022000  0.97124500  0.75283900  1
  O  O63  1  0.81978000  0.47124500  0.24716100  1
  O  O64  1  0.02615200  0.79799500  0.22286800  1
  O  O65  1  0.47384800  0.29799500  0.77713200  1
  O  O66  1  0.52615200  0.20200500  0.27713200  1
  O  O67  1  0.97384800  0.70200500  0.72286800  1
  O  O68  1  0.97384800  0.20200500  0.77713200  1
  O  O69  1  0.52615200  0.70200500  0.22286800  1
  O  O70  1  0.47384800  0.79799500  0.72286800  1
  O  O71  1  0.02615200  0.29799500  0.27713200  1
  O  O72  1  0.85285800  0.77825200  0.31630400  1
  O  O73  1  0.64714200  0.27825200  0.68369600  1
  O  O74  1  0.35285800  0.22174800  0.18369600  1
  O  O75  1  0.14714200  0.72174800  0.81630400  1
  O  O76  1  0.14714200  0.22174800  0.68369600  1
  O  O77  1  0.35285800  0.72174800  0.31630400  1
  O  O78  1  0.64714200  0.77825200  0.81630400  1
  O  O79  1  0.85285800  0.27825200  0.18369600  1
  O  O80  1  0.75462000  0.10433700  0.40277600  1
  O  O81  1  0.74538000  0.60433700  0.59722400  1
  O  O82  1  0.25462000  0.89566300  0.09722400  1
  O  O83  1  0.24538000  0.39566300  0.90277600  1
  O  O84  1  0.24538000  0.89566300  0.59722400  1
  O  O85  1  0.25462000  0.39566300  0.40277600  1
  O  O86  1  0.74538000  0.10433700  0.90277600  1
  O  O87  1  0.75462000  0.60433700  0.09722400  1
  O  O88  1  0.59676800  0.80383800  0.44182200  1
  O  O89  1  0.90323200  0.30383800  0.55817800  1
  O  O90  1  0.09676800  0.19616200  0.05817800  1
  O  O91  1  0.40323200  0.69616200  0.94182200  1
  O  O92  1  0.40323200  0.19616200  0.55817800  1
  O  O93  1  0.09676800  0.69616200  0.44182200  1
  O  O94  1  0.90323200  0.80383800  0.94182200  1
  O  O95  1  0.59676800  0.30383800  0.05817800  1
