# generated using pymatgen
data_KSb5O13
_symmetry_space_group_name_H-M   'P 1'
_cell_length_a   5.64315466
_cell_length_b   5.64315466
_cell_length_c   17.06160600
_cell_angle_alpha   90.00000000
_cell_angle_beta   90.00000000
_cell_angle_gamma   107.27815232
_symmetry_Int_Tables_number   1
_chemical_formula_structural   KSb5O13
_chemical_formula_sum   'K2 Sb10 O26'
_cell_volume   518.81191122
_cell_formula_units_Z   2
loop_
 _symmetry_equiv_pos_site_id
 _symmetry_equiv_pos_as_xyz
  1  'x, y, z'
loop_
 _atom_site_type_symbol
 _atom_site_label
 _atom_site_symmetry_multiplicity
 _atom_site_fract_x
 _atom_site_fract_y
 _atom_site_fract_z
 _atom_site_occupancy
  K  K0  1  0.90289500  0.15444600  0.75000000  1
  K  K1  1  0.15444600  0.90289500  0.25000000  1
  Sb  Sb2  1  0.00011500  0.00011500  0.00000000  1
  Sb  Sb3  1  0.00011500  0.00011500  0.50000000  1
  Sb  Sb4  1  0.23367800  0.77028800  0.63814800  1
  Sb  Sb5  1  0.77028800  0.23367800  0.36185200  1
  Sb  Sb6  1  0.23367800  0.77028800  0.86185200  1
  Sb  Sb7  1  0.77028800  0.23367800  0.13814800  1
  Sb  Sb8  1  0.61421700  0.38641900  0.92235000  1
  Sb  Sb9  1  0.61421700  0.38641900  0.57765000  1
  Sb  Sb10  1  0.38641900  0.61421700  0.42235000  1
  Sb  Sb11  1  0.38641900  0.61421700  0.07765000  1
  O  O12  1  0.52813600  0.07107900  0.86601500  1
  O  O13  1  0.52813600  0.07107900  0.63398500  1
  O  O14  1  0.07107900  0.52813600  0.36601500  1
  O  O15  1  0.07107900  0.52813600  0.13398500  1
  O  O16  1  0.31098400  0.31098400  0.00000000  1
  O  O17  1  0.31098400  0.31098400  0.50000000  1
  O  O18  1  0.44454200  0.55190400  0.65121100  1
  O  O19  1  0.01635200  0.98571700  0.88698400  1
  O  O20  1  0.98571700  0.01635200  0.38698400  1
  O  O21  1  0.18041700  0.81567300  0.75000000  1
  O  O22  1  0.77536000  0.22589700  0.49010100  1
  O  O23  1  0.55190400  0.44454200  0.34878900  1
  O  O24  1  0.22589700  0.77536000  0.99010100  1
  O  O25  1  0.98571700  0.01635200  0.11301600  1
  O  O26  1  0.44454200  0.55190400  0.84878900  1
  O  O27  1  0.55190400  0.44454200  0.15121100  1
  O  O28  1  0.81567300  0.18041700  0.25000000  1
  O  O29  1  0.77536000  0.22589700  0.00989900  1
  O  O30  1  0.01635200  0.98571700  0.61301600  1
  O  O31  1  0.22589700  0.77536000  0.50989900  1
  O  O32  1  0.68932500  0.68932500  0.00000000  1
  O  O33  1  0.68932500  0.68932500  0.50000000  1
  O  O34  1  0.93145800  0.47747500  0.86764500  1
  O  O35  1  0.93145800  0.47747500  0.63235500  1
  O  O36  1  0.47747500  0.93145800  0.36764500  1
  O  O37  1  0.47747500  0.93145800  0.13235500  1
