# generated using pymatgen
data_Ba4PdO6
_symmetry_space_group_name_H-M   'P 1'
_cell_length_a   7.36894153
_cell_length_b   7.36894153
_cell_length_c   7.36894225
_cell_angle_alpha   89.58585198
_cell_angle_beta   89.58585198
_cell_angle_gamma   89.58585886
_symmetry_Int_Tables_number   1
_chemical_formula_structural   Ba4PdO6
_chemical_formula_sum   'Ba8 Pd2 O12'
_cell_volume   400.11192993
_cell_formula_units_Z   2
loop_
 _symmetry_equiv_pos_site_id
 _symmetry_equiv_pos_as_xyz
  1  'x, y, z'
loop_
 _atom_site_type_symbol
 _atom_site_label
 _atom_site_symmetry_multiplicity
 _atom_site_fract_x
 _atom_site_fract_y
 _atom_site_fract_z
 _atom_site_occupancy
  Ba  Ba0  1  0.75000000  0.12270200  0.37729800  1
  Ba  Ba1  1  0.62270200  0.25000000  0.87729800  1
  Ba  Ba2  1  0.87729800  0.62270200  0.25000000  1
  Ba  Ba3  1  0.75000000  0.75000000  0.75000000  1
  Ba  Ba4  1  0.25000000  0.25000000  0.25000000  1
  Ba  Ba5  1  0.12270200  0.37729800  0.75000000  1
  Ba  Ba6  1  0.37729800  0.75000000  0.12270200  1
  Ba  Ba7  1  0.25000000  0.87729800  0.62270200  1
  Pd  Pd8  1  0.00000000  0.00000000  0.00000000  1
  Pd  Pd9  1  0.50000000  0.50000000  0.50000000  1
  O  O10  1  0.92972200  0.05928800  0.72703400  1
  O  O11  1  0.94071200  0.27296600  0.07027800  1
  O  O12  1  0.77296600  0.44071200  0.57027800  1
  O  O13  1  0.42972200  0.22703400  0.55928800  1
  O  O14  1  0.27296600  0.07027800  0.94071200  1
  O  O15  1  0.55928800  0.42972200  0.22703400  1
  O  O16  1  0.44071200  0.57027800  0.77296600  1
  O  O17  1  0.57027800  0.77296600  0.44071200  1
  O  O18  1  0.72703400  0.92972200  0.05928800  1
  O  O19  1  0.22703400  0.55928800  0.42972200  1
  O  O20  1  0.05928800  0.72703400  0.92972200  1
  O  O21  1  0.07027800  0.94071200  0.27296600  1
