# generated using pymatgen
data_Y5U2O12
_symmetry_space_group_name_H-M   'P 1'
_cell_length_a   6.57995300
_cell_length_b   6.61848390
_cell_length_c   19.57237154
_cell_angle_alpha   96.79879664
_cell_angle_beta   97.09396131
_cell_angle_gamma   99.39135476
_symmetry_Int_Tables_number   1
_chemical_formula_structural   Y5U2O12
_chemical_formula_sum   'Y15 U6 O36'
_cell_volume   826.10494638
_cell_formula_units_Z   3
loop_
 _symmetry_equiv_pos_site_id
 _symmetry_equiv_pos_as_xyz
  1  'x, y, z'
loop_
 _atom_site_type_symbol
 _atom_site_label
 _atom_site_symmetry_multiplicity
 _atom_site_fract_x
 _atom_site_fract_y
 _atom_site_fract_z
 _atom_site_occupancy
  Y  Y0  1  0.29236900  0.82638100  0.43683900  1
  Y  Y1  1  0.96020000  0.49277600  0.10328700  1
  Y  Y2  1  0.62905400  0.16338400  0.76919500  1
  Y  Y3  1  0.89258900  0.59290800  0.28669700  1
  Y  Y4  1  0.22530400  0.92559700  0.62043600  1
  Y  Y5  1  0.56141200  0.26919300  0.95496600  1
  Y  Y6  1  0.44574300  0.27349700  0.13031800  1
  Y  Y7  1  0.77890400  0.60676000  0.46311700  1
  Y  Y8  1  0.10590700  0.94165800  0.79692500  1
  Y  Y9  1  0.89033100  0.06792400  0.20202700  1
  Y  Y10  1  0.22323600  0.40070700  0.53529700  1
  Y  Y11  1  0.43941500  0.73452000  0.04784500  1
  Y  Y12  1  0.77438500  0.06829800  0.38090200  1
  Y  Y13  1  0.10760100  0.39875400  0.71507400  1
  Y  Y14  1  0.03834400  0.50364600  0.89636600  1
  U  U15  1  0.33413400  0.33040400  0.33424300  1
  U  U16  1  0.66644800  0.66251100  0.66638500  1
  U  U17  1  0.00226100  0.00016600  0.00013300  1
  U  U18  1  0.55881900  0.72946000  0.86804100  1
  U  U19  1  0.36931000  0.83334700  0.23004700  1
  U  U20  1  0.70255400  0.16637700  0.56312300  1
  O  O21  1  0.02944100  0.16016900  0.10463700  1
  O  O22  1  0.36041700  0.49414600  0.43786100  1
  O  O23  1  0.69487200  0.82944400  0.77225400  1
  O  O24  1  0.58524700  0.95756200  0.64111900  1
  O  O25  1  0.25265600  0.62345900  0.30736100  1
  O  O26  1  0.91886800  0.28904900  0.97420000  1
  O  O27  1  0.77784200  0.37097100  0.18976100  1
  O  O28  1  0.10978900  0.70461700  0.52313300  1
  O  O29  1  0.44672900  0.02569600  0.85872700  1
  O  O30  1  0.03035300  0.77319500  0.19609500  1
  O  O31  1  0.67317900  0.43934300  0.85999500  1
  O  O32  1  0.36278500  0.10550700  0.52916800  1
  O  O33  1  0.33404700  0.09592400  0.01780300  1
  O  O34  1  0.66515000  0.42678900  0.35169200  1
  O  O35  1  0.99768200  0.76075100  0.68595300  1
  O  O36  1  0.62811600  0.47568100  0.05923100  1
  O  O37  1  0.96065900  0.80922400  0.39131000  1
  O  O38  1  0.29413400  0.14005000  0.72608000  1
  O  O39  1  0.69394700  0.85404800  0.27112800  1
  O  O40  1  0.02799200  0.18705200  0.60498500  1
  O  O41  1  0.37200000  0.53131500  0.93982000  1
  O  O42  1  0.99915300  0.23895600  0.31475900  1
  O  O43  1  0.33235300  0.57191000  0.64768000  1
  O  O44  1  0.66810500  0.90318700  0.98182600  1
  O  O45  1  0.65178900  0.90397400  0.47479200  1
  O  O46  1  0.31873800  0.57073600  0.14168600  1
  O  O47  1  0.98136700  0.23747900  0.80649400  1
  O  O48  1  0.55444800  0.96547400  0.14397000  1
  O  O49  1  0.88887900  0.29769300  0.47685500  1
  O  O50  1  0.23258400  0.63372700  0.80956500  1
  O  O51  1  0.08094900  0.71221900  0.02600800  1
  O  O52  1  0.41568800  0.03793700  0.35760300  1
  O  O53  1  0.74832500  0.37073400  0.68997700  1
  O  O54  1  0.30771700  0.17318700  0.22934200  1
  O  O55  1  0.64022200  0.50432300  0.56140700  1
  O  O56  1  0.96545300  0.83620500  0.89445400  1
