# generated using pymatgen
data_Na3V2(PO4)3
_symmetry_space_group_name_H-M   'P 1'
_cell_length_a   8.87318255
_cell_length_b   8.87318255
_cell_length_c   8.89007718
_cell_angle_alpha   60.12004409
_cell_angle_beta   60.12004409
_cell_angle_gamma   60.42110268
_symmetry_Int_Tables_number   1
_chemical_formula_structural   Na3V2(PO4)3
_chemical_formula_sum   'Na6 V4 P6 O24'
_cell_volume   497.39696664
_cell_formula_units_Z   2
loop_
 _symmetry_equiv_pos_site_id
 _symmetry_equiv_pos_as_xyz
  1  'x, y, z'
loop_
 _atom_site_type_symbol
 _atom_site_label
 _atom_site_symmetry_multiplicity
 _atom_site_fract_x
 _atom_site_fract_y
 _atom_site_fract_z
 _atom_site_occupancy
  Na  Na0  1  0.00000000  0.50000000  0.00000000  1
  Na  Na1  1  0.50000000  0.00000000  0.50000000  1
  Na  Na2  1  0.10455500  0.24688700  0.76458200  1
  Na  Na3  1  0.75311300  0.89544500  0.73541800  1
  Na  Na4  1  0.24688700  0.10455500  0.26458200  1
  Na  Na5  1  0.89544500  0.75311300  0.23541800  1
  V  V6  1  0.15098300  0.63987800  0.56242000  1
  V  V7  1  0.63987800  0.15098300  0.06242000  1
  V  V8  1  0.36012200  0.84901700  0.93758000  1
  V  V9  1  0.84901700  0.36012200  0.43758000  1
  P  P10  1  0.54726200  0.74782900  0.24280700  1
  P  P11  1  0.04347500  0.95652500  0.75000000  1
  P  P12  1  0.25217100  0.45273800  0.25719300  1
  P  P13  1  0.74782900  0.54726200  0.74280700  1
  P  P14  1  0.95652500  0.04347500  0.25000000  1
  P  P15  1  0.45273800  0.25217100  0.75719300  1
  O  O16  1  0.73037000  0.58693100  0.25063700  1
  O  O17  1  0.56377300  0.91384300  0.24687100  1
  O  O18  1  0.22034300  0.93758200  0.76313900  1
  O  O19  1  0.52780000  0.79941100  0.05748200  1
  O  O20  1  0.37638100  0.71087200  0.40540100  1
  O  O21  1  0.87456100  0.98393200  0.92400400  1
  O  O22  1  0.06241800  0.77965700  0.73686100  1
  O  O23  1  0.41306900  0.26963000  0.24936300  1
  O  O24  1  0.20058900  0.47220000  0.44251800  1
  O  O25  1  0.28912800  0.62361900  0.09459900  1
  O  O26  1  0.98393200  0.87456100  0.42400400  1
  O  O27  1  0.91384300  0.56377300  0.74687100  1
  O  O28  1  0.08615700  0.43622700  0.25312900  1
  O  O29  1  0.01606800  0.12543900  0.57599600  1
  O  O30  1  0.71087200  0.37638100  0.90540100  1
  O  O31  1  0.79941100  0.52780000  0.55748200  1
  O  O32  1  0.58693100  0.73037000  0.75063700  1
  O  O33  1  0.93758200  0.22034300  0.26313900  1
  O  O34  1  0.12543900  0.01606800  0.07599600  1
  O  O35  1  0.62361900  0.28912800  0.59459900  1
  O  O36  1  0.47220000  0.20058900  0.94251800  1
  O  O37  1  0.77965700  0.06241800  0.23686100  1
  O  O38  1  0.43622700  0.08615700  0.75312900  1
  O  O39  1  0.26963000  0.41306900  0.74936300  1
