# generated using pymatgen
data_Li2VCrP2(O4F)2
_symmetry_space_group_name_H-M   'P 1'
_cell_length_a   5.22209100
_cell_length_b   7.34278538
_cell_length_c   14.98287297
_cell_angle_alpha   93.88279725
_cell_angle_beta   92.60359495
_cell_angle_gamma   108.58455758
_symmetry_Int_Tables_number   1
_chemical_formula_structural   Li2VCrP2(O4F)2
_chemical_formula_sum   'Li6 V3 Cr3 P6 O24 F6'
_cell_volume   541.93976983
_cell_formula_units_Z   3
loop_
 _symmetry_equiv_pos_site_id
 _symmetry_equiv_pos_as_xyz
  1  'x, y, z'
loop_
 _atom_site_type_symbol
 _atom_site_label
 _atom_site_symmetry_multiplicity
 _atom_site_fract_x
 _atom_site_fract_y
 _atom_site_fract_z
 _atom_site_occupancy
  Li  Li0  1  0.76908700  0.84994800  0.03796800  1
  Li  Li1  1  0.56428700  0.48271100  0.29478600  1
  Li  Li2  1  0.23091300  0.15005200  0.96203200  1
  Li  Li3  1  0.43571300  0.51728900  0.70521400  1
  Li  Li4  1  0.10163000  0.18237400  0.37154000  1
  Li  Li5  1  0.89837000  0.81762600  0.62846000  1
  V  V6  1  0.83345800  0.33306900  0.83322500  1
  V  V7  1  0.50000000  0.50000000  0.50000000  1
  V  V8  1  0.16654200  0.66693100  0.16677500  1
  Cr  Cr9  1  0.83370600  0.83350600  0.83310400  1
  Cr  Cr10  1  0.50000000  0.00000000  0.50000000  1
  Cr  Cr11  1  0.16629400  0.16649400  0.16689600  1
  P  P12  1  0.72303200  0.28389600  0.04759100  1
  P  P13  1  0.60943600  0.04896600  0.28634500  1
  P  P14  1  0.39056400  0.95103400  0.71365500  1
  P  P15  1  0.27696800  0.71610400  0.95240900  1
  P  P16  1  0.05780000  0.61905500  0.38025100  1
  P  P17  1  0.94220000  0.38094500  0.61974900  1
  O  O18  1  0.82350300  0.17928100  0.57092900  1
  O  O19  1  0.69409000  0.04402800  0.38674600  1
  O  O20  1  0.59639300  0.83495900  0.72178700  1
  O  O21  1  0.49050500  0.84620000  0.23782600  1
  O  O22  1  0.63993600  0.29115700  0.94737000  1
  O  O23  1  0.78565900  0.50262400  0.41724600  1
  O  O24  1  0.74046700  0.50010300  0.61195300  1
  O  O25  1  0.45154500  0.16745300  0.08420800  1
  O  O26  1  0.50949500  0.15380000  0.76217400  1
  O  O27  1  0.40360700  0.16504100  0.27821300  1
  O  O28  1  0.30591000  0.95597200  0.61325400  1
  O  O29  1  0.54845500  0.83254700  0.91579200  1
  O  O30  1  0.11912000  0.83495600  0.75054300  1
  O  O31  1  0.36006400  0.70884300  0.05263000  1
  O  O32  1  0.25953300  0.49989700  0.38804700  1
  O  O33  1  0.15774700  0.51289600  0.90436800  1
  O  O34  1  0.21434100  0.49737600  0.58275400  1
  O  O35  1  0.92938700  0.16829500  0.05534000  1
  O  O36  1  0.88088000  0.16504400  0.24945700  1
  O  O37  1  0.02827000  0.37473300  0.71963000  1
  O  O38  1  0.17649700  0.82071900  0.42907100  1
  O  O39  1  0.07061300  0.83170500  0.94466000  1
  O  O40  1  0.97173000  0.62526700  0.28037000  1
  O  O41  1  0.84225300  0.48710400  0.09563200  1
  F  F42  1  0.68037000  0.55047200  0.80957200  1
  F  F43  1  0.65248500  0.79153400  0.52360600  1
  F  F44  1  0.34751500  0.20846600  0.47639400  1
  F  F45  1  0.31963000  0.44952800  0.19042800  1
  F  F46  1  0.01310800  0.88378400  0.14283200  1
  F  F47  1  0.98689200  0.11621600  0.85716800  1
