# generated using pymatgen
data_K5NaP3(HO4)3
_symmetry_space_group_name_H-M   'P 1'
_cell_length_a   5.92890600
_cell_length_b   10.08055300
_cell_length_c   22.77759800
_cell_angle_alpha   90.00000000
_cell_angle_beta   90.00000000
_cell_angle_gamma   90.00000000
_symmetry_Int_Tables_number   1
_chemical_formula_structural   K5NaP3(HO4)3
_chemical_formula_sum   'K20 Na4 P12 H12 O48'
_cell_volume   1361.34075404
_cell_formula_units_Z   4
loop_
 _symmetry_equiv_pos_site_id
 _symmetry_equiv_pos_as_xyz
  1  'x, y, z'
loop_
 _atom_site_type_symbol
 _atom_site_label
 _atom_site_symmetry_multiplicity
 _atom_site_fract_x
 _atom_site_fract_y
 _atom_site_fract_z
 _atom_site_occupancy
  K  K0  1  0.74920600  0.59832000  0.45124400  1
  K  K1  1  0.24920600  0.40168000  0.54875600  1
  K  K2  1  0.24920600  0.09832000  0.04875600  1
  K  K3  1  0.74920600  0.90168000  0.95124400  1
  K  K4  1  0.74250800  0.62186900  0.09371800  1
  K  K5  1  0.24250800  0.37813100  0.90628200  1
  K  K6  1  0.24250800  0.12186900  0.40628200  1
  K  K7  1  0.74250800  0.87813100  0.59371800  1
  K  K8  1  0.74233900  0.34992600  0.33301100  1
  K  K9  1  0.24233900  0.65007400  0.66698900  1
  K  K10  1  0.24233900  0.84992600  0.16698900  1
  K  K11  1  0.74233900  0.15007400  0.83301100  1
  K  K12  1  0.78311200  0.26644100  0.15858400  1
  K  K13  1  0.28311200  0.73355900  0.84141600  1
  K  K14  1  0.28311200  0.76644100  0.34141600  1
  K  K15  1  0.78311200  0.23355900  0.65858400  1
  K  K16  1  0.80235900  0.99778900  0.28151400  1
  K  K17  1  0.30235900  0.00221100  0.71848600  1
  K  K18  1  0.30235900  0.49778900  0.21848600  1
  K  K19  1  0.80235900  0.50221100  0.78151400  1
  Na  Na20  1  0.75531600  0.25301700  0.48575400  1
  Na  Na21  1  0.25531600  0.74698300  0.51424600  1
  Na  Na22  1  0.25531600  0.75301700  0.01424600  1
  Na  Na23  1  0.75531600  0.24698300  0.98575400  1
  P  P24  1  0.74711500  0.94993700  0.08740500  1
  P  P25  1  0.24711500  0.05006300  0.91259500  1
  P  P26  1  0.24711500  0.44993700  0.41259500  1
  P  P27  1  0.74711500  0.55006300  0.58740500  1
  P  P28  1  0.74625000  0.92870000  0.42542700  1
  P  P29  1  0.24625000  0.07130000  0.57457300  1
  P  P30  1  0.24625000  0.42870000  0.07457300  1
  P  P31  1  0.74625000  0.57130000  0.92542700  1
  P  P32  1  0.80080200  0.64446800  0.24030800  1
  P  P33  1  0.30080200  0.35553200  0.75969200  1
  P  P34  1  0.30080200  0.14446800  0.25969200  1
  P  P35  1  0.80080200  0.85553200  0.74030800  1
  H  H36  1  0.70454200  0.86682500  0.17703900  1
  H  H37  1  0.20454200  0.13317500  0.82296100  1
  H  H38  1  0.20454200  0.36682500  0.32296100  1
  H  H39  1  0.70454200  0.63317500  0.67703900  1
  H  H40  1  0.97646000  0.98722000  0.49903800  1
  H  H41  1  0.47646000  0.01278000  0.50096200  1
  H  H42  1  0.47646000  0.48722000  0.00096200  1
  H  H43  1  0.97646000  0.51278000  0.99903800  1
  H  H44  1  0.75298200  0.69946100  0.33308700  1
  H  H45  1  0.25298200  0.30053900  0.66691300  1
  H  H46  1  0.25298200  0.19946100  0.16691300  1
  H  H47  1  0.75298200  0.80053900  0.83308700  1
  O  O48  1  0.73929900  0.95783800  0.15916200  1
  O  O49  1  0.23929900  0.04216200  0.84083800  1
  O  O50  1  0.23929900  0.45783800  0.34083800  1
  O  O51  1  0.73929900  0.54216200  0.65916200  1
  O  O52  1  0.75326300  0.09441100  0.06636800  1
  O  O53  1  0.25326300  0.90558900  0.93363200  1
  O  O54  1  0.25326300  0.59441100  0.43363200  1
  O  O55  1  0.75326300  0.40558900  0.56636800  1
  O  O56  1  0.53311600  0.87524100  0.06776900  1
  O  O57  1  0.03311600  0.12475900  0.93223100  1
  O  O58  1  0.03311600  0.37524100  0.43223100  1
  O  O59  1  0.53311600  0.62475900  0.56776900  1
  O  O60  1  0.96262000  0.87246500  0.07071000  1
  O  O61  1  0.46262000  0.12753500  0.92929000  1
  O  O62  1  0.46262000  0.37246500  0.42929000  1
  O  O63  1  0.96262000  0.62753500  0.57071000  1
  O  O64  1  0.95035400  0.90512200  0.47269000  1
  O  O65  1  0.45035400  0.09487800  0.52731000  1
  O  O66  1  0.45035400  0.40512200  0.02731000  1
  O  O67  1  0.95035400  0.59487800  0.97269000  1
  O  O68  1  0.75745900  0.07419800  0.40611700  1
  O  O69  1  0.25745900  0.92580200  0.59388300  1
  O  O70  1  0.25745900  0.57419800  0.09388300  1
  O  O71  1  0.75745900  0.42580200  0.90611700  1
  O  O72  1  0.79687300  0.82731700  0.37692600  1
  O  O73  1  0.29687300  0.17268300  0.62307400  1
  O  O74  1  0.29687300  0.32731700  0.12307400  1
  O  O75  1  0.79687300  0.67268300  0.87692600  1
  O  O76  1  0.52103600  0.89721000  0.45753500  1
  O  O77  1  0.02103600  0.10279000  0.54246500  1
  O  O78  1  0.02103600  0.39721000  0.04246500  1
  O  O79  1  0.52103600  0.60279000  0.95753500  1
  O  O80  1  0.71185200  0.62087900  0.30811400  1
  O  O81  1  0.21185200  0.37912100  0.69188600  1
  O  O82  1  0.21185200  0.12087900  0.19188600  1
  O  O83  1  0.71185200  0.87912100  0.80811400  1
  O  O84  1  0.80170700  0.50590100  0.21302900  1
  O  O85  1  0.30170700  0.49409900  0.78697100  1
  O  O86  1  0.30170700  0.00590100  0.28697100  1
  O  O87  1  0.80170700  0.99409900  0.71302900  1
  O  O88  1  0.62467100  0.73608900  0.21016800  1
  O  O89  1  0.12467100  0.26391100  0.78983200  1
  O  O90  1  0.12467100  0.23608900  0.28983200  1
  O  O91  1  0.62467100  0.76391100  0.71016800  1
  O  O92  1  0.03036000  0.71197500  0.24483300  1
  O  O93  1  0.53036000  0.28802500  0.75516700  1
  O  O94  1  0.53036000  0.21197500  0.25516700  1
  O  O95  1  0.03036000  0.78802500  0.74483300  1
