# generated using pymatgen
data_CsCu3S2
_symmetry_space_group_name_H-M   'P 1'
_cell_length_a   5.38246302
_cell_length_b   5.38246302
_cell_length_c   6.63622100
_cell_angle_alpha   90.00000000
_cell_angle_beta   90.00000000
_cell_angle_gamma   120.00001249
_symmetry_Int_Tables_number   1
_chemical_formula_structural   CsCu3S2
_chemical_formula_sum   'Cs1 Cu3 S2'
_cell_volume   166.49972721
_cell_formula_units_Z   1
loop_
 _symmetry_equiv_pos_site_id
 _symmetry_equiv_pos_as_xyz
  1  'x, y, z'
loop_
 _atom_site_type_symbol
 _atom_site_label
 _atom_site_symmetry_multiplicity
 _atom_site_fract_x
 _atom_site_fract_y
 _atom_site_fract_z
 _atom_site_occupancy
  Cs  Cs0  1  0.00000000  0.00000000  0.50000000  1
  Cu  Cu1  1  0.50000000  0.00000000  0.00000000  1
  Cu  Cu2  1  0.50000000  0.50000000  0.00000000  1
  Cu  Cu3  1  0.00000000  0.50000000  0.00000000  1
  S  S4  1  0.66666700  0.33333300  0.77052900  1
  S  S5  1  0.33333300  0.66666700  0.22947100  1
