# generated using pymatgen
data_Lu6WO12
_symmetry_space_group_name_H-M   'P 1'
_cell_length_a   6.33958883
_cell_length_b   6.33958883
_cell_length_c   6.33958950
_cell_angle_alpha   98.74951905
_cell_angle_beta   98.74951905
_cell_angle_gamma   98.74951990
_symmetry_Int_Tables_number   1
_chemical_formula_structural   Lu6WO12
_chemical_formula_sum   'Lu6 W1 O12'
_cell_volume   244.85669208
_cell_formula_units_Z   1
loop_
 _symmetry_equiv_pos_site_id
 _symmetry_equiv_pos_as_xyz
  1  'x, y, z'
loop_
 _atom_site_type_symbol
 _atom_site_label
 _atom_site_symmetry_multiplicity
 _atom_site_fract_x
 _atom_site_fract_y
 _atom_site_fract_z
 _atom_site_occupancy
  Lu  Lu0  1  0.31963500  0.14430100  0.61134000  1
  Lu  Lu1  1  0.85569900  0.38866000  0.68036500  1
  Lu  Lu2  1  0.61134000  0.31963500  0.14430100  1
  Lu  Lu3  1  0.38866000  0.68036500  0.85569900  1
  Lu  Lu4  1  0.14430100  0.61134000  0.31963500  1
  Lu  Lu5  1  0.68036500  0.85569900  0.38866000  1
  W  W6  1  0.00000000  0.00000000  0.00000000  1
  O  O7  1  0.92062600  0.03520800  0.69802700  1
  O  O8  1  0.30197300  0.07937400  0.96479200  1
  O  O9  1  0.59041900  0.17726100  0.42876800  1
  O  O10  1  0.96479200  0.30197300  0.07937400  1
  O  O11  1  0.57123200  0.40958100  0.82273900  1
  O  O12  1  0.17726100  0.42876800  0.59041900  1
  O  O13  1  0.82273900  0.57123200  0.40958100  1
  O  O14  1  0.42876800  0.59041900  0.17726100  1
  O  O15  1  0.03520800  0.69802700  0.92062600  1
  O  O16  1  0.40958100  0.82273900  0.57123200  1
  O  O17  1  0.69802700  0.92062600  0.03520800  1
  O  O18  1  0.07937400  0.96479200  0.30197300  1
