# generated using pymatgen
data_Sr3TeO6
_symmetry_space_group_name_H-M   'P 1'
_cell_length_a   6.13200800
_cell_length_b   5.91197600
_cell_length_c   10.33893306
_cell_angle_alpha   55.09703287
_cell_angle_beta   90.00000000
_cell_angle_gamma   90.00000000
_symmetry_Int_Tables_number   1
_chemical_formula_structural   Sr3TeO6
_chemical_formula_sum   'Sr6 Te2 O12'
_cell_volume   307.38996880
_cell_formula_units_Z   2
loop_
 _symmetry_equiv_pos_site_id
 _symmetry_equiv_pos_as_xyz
  1  'x, y, z'
loop_
 _atom_site_type_symbol
 _atom_site_label
 _atom_site_symmetry_multiplicity
 _atom_site_fract_x
 _atom_site_fract_y
 _atom_site_fract_z
 _atom_site_occupancy
  Sr  Sr0  1  0.50000000  0.50000000  0.50000000  1
  Sr  Sr1  1  0.95191200  0.73215600  0.25396800  1
  Sr  Sr2  1  0.45191200  0.26784400  0.24603200  1
  Sr  Sr3  1  0.00000000  0.50000000  0.00000000  1
  Sr  Sr4  1  0.54808800  0.73215600  0.75396800  1
  Sr  Sr5  1  0.04808800  0.26784400  0.74603200  1
  Te  Te6  1  0.50000000  0.00000000  0.00000000  1
  Te  Te7  1  0.00000000  0.00000000  0.50000000  1
  O  O8  1  0.45159900  0.11741200  0.78212300  1
  O  O9  1  0.23782000  0.76608200  0.06463200  1
  O  O10  1  0.17704500  0.31122700  0.45723900  1
  O  O11  1  0.67704500  0.68877300  0.04276100  1
  O  O12  1  0.73782000  0.23391800  0.43536800  1
  O  O13  1  0.95159900  0.88258800  0.71787700  1
  O  O14  1  0.04840100  0.11741200  0.28212300  1
  O  O15  1  0.26218000  0.76608200  0.56463200  1
  O  O16  1  0.32295500  0.31122700  0.95723900  1
  O  O17  1  0.82295500  0.68877300  0.54276100  1
  O  O18  1  0.76218000  0.23391800  0.93536800  1
  O  O19  1  0.54840100  0.88258800  0.21787700  1
