# generated using pymatgen
data_Ho2(SeO3)3
_symmetry_space_group_name_H-M   'P 1'
_cell_length_a   7.08100300
_cell_length_b   8.11214756
_cell_length_c   9.06207531
_cell_angle_alpha   71.56958306
_cell_angle_beta   70.14575839
_cell_angle_gamma   65.93789949
_symmetry_Int_Tables_number   1
_chemical_formula_structural   Ho2(SeO3)3
_chemical_formula_sum   'Ho4 Se6 O18'
_cell_volume   437.38725632
_cell_formula_units_Z   2
loop_
 _symmetry_equiv_pos_site_id
 _symmetry_equiv_pos_as_xyz
  1  'x, y, z'
loop_
 _atom_site_type_symbol
 _atom_site_label
 _atom_site_symmetry_multiplicity
 _atom_site_fract_x
 _atom_site_fract_y
 _atom_site_fract_z
 _atom_site_occupancy
  Ho  Ho0  1  0.25827600  0.26493800  0.20194600  1
  Ho  Ho1  1  0.33372900  0.72853100  0.58968500  1
  Ho  Ho2  1  0.66627100  0.27146900  0.41031500  1
  Ho  Ho3  1  0.74172400  0.73506200  0.79805400  1
  Se  Se4  1  0.11261100  0.24278600  0.58632500  1
  Se  Se5  1  0.42780800  0.77546800  0.19754900  1
  Se  Se6  1  0.14580500  0.75277400  0.96515500  1
  Se  Se7  1  0.85419500  0.24722600  0.03484500  1
  Se  Se8  1  0.57219200  0.22453200  0.80245100  1
  Se  Se9  1  0.88738900  0.75721400  0.41367500  1
  O  O10  1  0.15737300  0.01403400  0.65553600  1
  O  O11  1  0.16648200  0.56772500  0.12052400  1
  O  O12  1  0.03485000  0.70369100  0.55413900  1
  O  O13  1  0.34379600  0.25380500  0.43647000  1
  O  O14  1  0.06629700  0.69532700  0.83149600  1
  O  O15  1  0.59274500  0.28670800  0.14984200  1
  O  O16  1  0.34815300  0.20809500  0.94805700  1
  O  O17  1  0.35870900  0.94383200  0.30620500  1
  O  O18  1  0.51675300  0.59306000  0.35118600  1
  O  O19  1  0.48324700  0.40694000  0.64881400  1
  O  O20  1  0.64129100  0.05616800  0.69379500  1
  O  O21  1  0.65184700  0.79190500  0.05194300  1
  O  O22  1  0.40725500  0.71329200  0.85015800  1
  O  O23  1  0.93370300  0.30467300  0.16850400  1
  O  O24  1  0.65620400  0.74619500  0.56353000  1
  O  O25  1  0.96515000  0.29630900  0.44586100  1
  O  O26  1  0.83351800  0.43227500  0.87947600  1
  O  O27  1  0.84262700  0.98596600  0.34446400  1
