# generated using pymatgen
data_H7C3N6Cl
_symmetry_space_group_name_H-M   'P 1'
_cell_length_a   10.67261437
_cell_length_b   10.67261437
_cell_length_c   8.66513080
_cell_angle_alpha   67.20357597
_cell_angle_beta   67.20357597
_cell_angle_gamma   108.46106490
_symmetry_Int_Tables_number   1
_chemical_formula_structural   H7C3N6Cl
_chemical_formula_sum   'H28 C12 N24 Cl4'
_cell_volume   700.97955697
_cell_formula_units_Z   4
loop_
 _symmetry_equiv_pos_site_id
 _symmetry_equiv_pos_as_xyz
  1  'x, y, z'
loop_
 _atom_site_type_symbol
 _atom_site_label
 _atom_site_symmetry_multiplicity
 _atom_site_fract_x
 _atom_site_fract_y
 _atom_site_fract_z
 _atom_site_occupancy
  H  H0  1  0.15953400  0.98212200  0.69317400  1
  H  H1  1  0.98212200  0.15953400  0.69317400  1
  H  H2  1  0.65714100  0.46616800  0.19803200  1
  H  H3  1  0.46616800  0.65714100  0.19803200  1
  H  H4  1  0.99467300  0.82245700  0.74411100  1
  H  H5  1  0.82245700  0.99467300  0.74411100  1
  H  H6  1  0.44592600  0.26451900  0.24971400  1
  H  H7  1  0.26451900  0.44592600  0.24971400  1
  H  H8  1  0.17669900  0.37173600  0.75986700  1
  H  H9  1  0.37173600  0.17669900  0.75986700  1
  H  H10  1  0.44568500  0.09548100  0.26245200  1
  H  H11  1  0.09548100  0.44568500  0.26245200  1
  H  H12  1  0.61458600  0.98413500  0.23450900  1
  H  H13  1  0.98413500  0.61458600  0.23450900  1
  H  H14  1  0.01586500  0.38541400  0.76549100  1
  H  H15  1  0.38541400  0.01586500  0.76549100  1
  H  H16  1  0.90451900  0.55431500  0.73754800  1
  H  H17  1  0.55431500  0.90451900  0.73754800  1
  H  H18  1  0.82330100  0.62826400  0.24013300  1
  H  H19  1  0.62826400  0.82330100  0.24013300  1
  H  H20  1  0.73548100  0.55407400  0.75028600  1
  H  H21  1  0.55407400  0.73548100  0.75028600  1
  H  H22  1  0.00532700  0.17754300  0.25588900  1
  H  H23  1  0.17754300  0.00532700  0.25588900  1
  H  H24  1  0.53383200  0.34285900  0.80196800  1
  H  H25  1  0.34285900  0.53383200  0.80196800  1
  H  H26  1  0.01787800  0.84046600  0.30682600  1
  H  H27  1  0.84046600  0.01787800  0.30682600  1
  C  C28  1  0.17278500  0.78499000  0.73100300  1
  C  C29  1  0.78499000  0.17278500  0.73100300  1
  C  C30  1  0.62797000  0.24495900  0.25590800  1
  C  C31  1  0.24495900  0.62797000  0.25590800  1
  C  C32  1  0.17011100  0.56105300  0.76249500  1
  C  C33  1  0.56105300  0.17011100  0.76249500  1
  C  C34  1  0.43894700  0.82988900  0.23750500  1
  C  C35  1  0.82988900  0.43894700  0.23750500  1
  C  C36  1  0.75504100  0.37203000  0.74409200  1
  C  C37  1  0.37203000  0.75504100  0.74409200  1
  C  C38  1  0.82721500  0.21501000  0.26899700  1
  C  C39  1  0.21501000  0.82721500  0.26899700  1
  N  N40  1  0.69292000  0.38624300  0.24071800  1
  N  N41  1  0.38624300  0.69292000  0.24071800  1
  N  N42  1  0.10778600  0.87327400  0.71221200  1
  N  N43  1  0.87327400  0.10778600  0.71221200  1
  N  N44  1  0.69259200  0.15647200  0.27208200  1
  N  N45  1  0.15647200  0.69259200  0.27208200  1
  N  N46  1  0.09992300  0.64467500  0.74937100  1
  N  N47  1  0.64467500  0.09992300  0.74937100  1
  N  N48  1  0.49898600  0.20064300  0.25143100  1
  N  N49  1  0.20064300  0.49898600  0.25143100  1
  N  N50  1  0.11114500  0.42374200  0.77778000  1
  N  N51  1  0.42374200  0.11114500  0.77778000  1
  N  N52  1  0.57625800  0.88885500  0.22222000  1
  N  N53  1  0.88885500  0.57625800  0.22222000  1
  N  N54  1  0.79935800  0.50101400  0.74856900  1
  N  N55  1  0.50101400  0.79935700  0.74856900  1
  N  N56  1  0.35532500  0.90007700  0.25062900  1
  N  N57  1  0.90007700  0.35532500  0.25062900  1
  N  N58  1  0.84352800  0.30740800  0.72791800  1
  N  N59  1  0.30740800  0.84352800  0.72791800  1
  N  N60  1  0.12672600  0.89221400  0.28778800  1
  N  N61  1  0.89221400  0.12672600  0.28778800  1
  N  N62  1  0.61375700  0.30708000  0.75928200  1
  N  N63  1  0.30708000  0.61375700  0.75928200  1
  Cl  Cl64  1  0.25457600  0.25457600  0.58443400  1
  Cl  Cl65  1  0.69034800  0.69034800  0.96779200  1
  Cl  Cl66  1  0.30965200  0.30965200  0.03220800  1
  Cl  Cl67  1  0.74542400  0.74542400  0.41556600  1
