# generated using pymatgen
data_Li4UO5
_symmetry_space_group_name_H-M   'P 1'
_cell_length_a   5.29196253
_cell_length_b   5.29196253
_cell_length_c   5.29196253
_cell_angle_alpha   100.23596671
_cell_angle_beta   100.23596671
_cell_angle_gamma   130.13531347
_symmetry_Int_Tables_number   1
_chemical_formula_structural   Li4UO5
_chemical_formula_sum   'Li4 U1 O5'
_cell_volume   102.74389621
_cell_formula_units_Z   1
loop_
 _symmetry_equiv_pos_site_id
 _symmetry_equiv_pos_as_xyz
  1  'x, y, z'
loop_
 _atom_site_type_symbol
 _atom_site_label
 _atom_site_symmetry_multiplicity
 _atom_site_fract_x
 _atom_site_fract_y
 _atom_site_fract_z
 _atom_site_occupancy
  Li  Li0  1  0.41628200  0.81354300  0.22982500  1
  Li  Li1  1  0.58371800  0.18645700  0.77017500  1
  Li  Li2  1  0.18645700  0.41628200  0.60273900  1
  Li  Li3  1  0.81354300  0.58371800  0.39726100  1
  U  U4  1  0.00000000  0.00000000  0.00000000  1
  O  O5  1  0.71344900  0.91307800  0.62652600  1
  O  O6  1  0.08692200  0.71344900  0.80037100  1
  O  O7  1  0.50000000  0.50000000  0.00000000  1
  O  O8  1  0.28655100  0.08692200  0.37347400  1
  O  O9  1  0.91307800  0.28655100  0.19962900  1
