# generated using pymatgen
data_FeP4O11
_symmetry_space_group_name_H-M   'P 1'
_cell_length_a   22.64199000
_cell_length_b   5.47641800
_cell_length_c   7.56354104
_cell_angle_alpha   70.57428474
_cell_angle_beta   90.00000000
_cell_angle_gamma   90.00000000
_symmetry_Int_Tables_number   1
_chemical_formula_structural   FeP4O11
_chemical_formula_sum   'Fe4 P16 O44'
_cell_volume   884.46751243
_cell_formula_units_Z   4
loop_
 _symmetry_equiv_pos_site_id
 _symmetry_equiv_pos_as_xyz
  1  'x, y, z'
loop_
 _atom_site_type_symbol
 _atom_site_label
 _atom_site_symmetry_multiplicity
 _atom_site_fract_x
 _atom_site_fract_y
 _atom_site_fract_z
 _atom_site_occupancy
  Fe  Fe0  1  0.88690500  0.99749300  0.87203100  1
  Fe  Fe1  1  0.61309500  0.99749300  0.37203100  1
  Fe  Fe2  1  0.38690500  0.00250700  0.62796900  1
  Fe  Fe3  1  0.11309500  0.00250700  0.12796900  1
  P  P4  1  0.57231600  0.68997900  0.81823000  1
  P  P5  1  0.19584200  0.59692900  0.96501000  1
  P  P6  1  0.17870900  0.66804400  0.55261700  1
  P  P7  1  0.96643300  0.59473800  0.70897100  1
  P  P8  1  0.92768400  0.68997900  0.31823000  1
  P  P9  1  0.30415800  0.59692900  0.46501000  1
  P  P10  1  0.46643300  0.40526200  0.79102900  1
  P  P11  1  0.67870900  0.33195600  0.94738300  1
  P  P12  1  0.32129100  0.66804400  0.05261700  1
  P  P13  1  0.53356700  0.59473800  0.20897100  1
  P  P14  1  0.69584200  0.40307100  0.53499000  1
  P  P15  1  0.07231600  0.31002100  0.68177000  1
  P  P16  1  0.03356700  0.40526200  0.29102900  1
  P  P17  1  0.82129100  0.33195600  0.44738300  1
  P  P18  1  0.80415800  0.40307100  0.03499000  1
  P  P19  1  0.42768400  0.31002100  0.18177000  1
  O  O20  1  0.34458000  0.90063800  0.90701200  1
  O  O21  1  0.57511400  0.91917700  0.64775700  1
  O  O22  1  0.54562100  0.76335900  0.98622500  1
  O  O23  1  0.95682600  0.77533200  0.81503000  1
  O  O24  1  0.83591600  0.65299200  0.98178000  1
  O  O25  1  0.15542000  0.90063800  0.40701200  1
  O  O26  1  0.19501600  0.73023400  0.73522800  1
  O  O27  1  0.31769800  0.80544500  0.54393400  1
  O  O28  1  0.43757800  0.66182000  0.74733900  1
  O  O29  1  0.26650700  0.53068900  0.99592000  1
  O  O30  1  0.63630900  0.57787500  0.88729500  1
  O  O31  1  0.92488600  0.91917700  0.14775700  1
  O  O32  1  0.95437900  0.76335900  0.48622500  1
  O  O33  1  0.54317400  0.77533200  0.31503000  1
  O  O34  1  0.03852400  0.55676900  0.69650500  1
  O  O35  1  0.66408400  0.65299200  0.48178000  1
  O  O36  1  0.30498400  0.73023400  0.23522800  1
  O  O37  1  0.18230200  0.80544500  0.04393400  1
  O  O38  1  0.53852400  0.44323100  0.80349500  1
  O  O39  1  0.06242200  0.66182000  0.24733900  1
  O  O40  1  0.23349300  0.53068900  0.49592000  1
  O  O41  1  0.86369100  0.57787500  0.38729500  1
  O  O42  1  0.13630900  0.42212500  0.61270500  1
  O  O43  1  0.76650700  0.46931100  0.50408000  1
  O  O44  1  0.93757800  0.33818000  0.75266100  1
  O  O45  1  0.46147600  0.55676900  0.19650500  1
  O  O46  1  0.81769800  0.19455500  0.95606600  1
  O  O47  1  0.69501600  0.26976600  0.76477200  1
  O  O48  1  0.33591600  0.34700800  0.51822000  1
  O  O49  1  0.96147600  0.44323100  0.30349500  1
  O  O50  1  0.45682600  0.22466800  0.68497000  1
  O  O51  1  0.04562100  0.23664100  0.51377500  1
  O  O52  1  0.07511400  0.08082300  0.85224300  1
  O  O53  1  0.36369100  0.42212500  0.11270500  1
  O  O54  1  0.73349300  0.46931100  0.00408000  1
  O  O55  1  0.56242200  0.33818000  0.25266100  1
  O  O56  1  0.68230200  0.19455500  0.45606600  1
  O  O57  1  0.80498400  0.26976600  0.26477200  1
  O  O58  1  0.84458000  0.09936200  0.59298800  1
  O  O59  1  0.16408400  0.34700800  0.01822000  1
  O  O60  1  0.04317400  0.22466800  0.18497000  1
  O  O61  1  0.45437900  0.23664100  0.01377500  1
  O  O62  1  0.42488600  0.08082300  0.35224300  1
  O  O63  1  0.65542000  0.09936200  0.09298800  1
