# generated using pymatgen
data_TiBi2O5
_symmetry_space_group_name_H-M   'P 1'
_cell_length_a   8.45556216
_cell_length_b   8.45556216
_cell_length_c   5.61132000
_cell_angle_alpha   90.00000000
_cell_angle_beta   90.00000000
_cell_angle_gamma   140.68367873
_symmetry_Int_Tables_number   1
_chemical_formula_structural   TiBi2O5
_chemical_formula_sum   'Ti2 Bi4 O10'
_cell_volume   254.19444598
_cell_formula_units_Z   2
loop_
 _symmetry_equiv_pos_site_id
 _symmetry_equiv_pos_as_xyz
  1  'x, y, z'
loop_
 _atom_site_type_symbol
 _atom_site_label
 _atom_site_symmetry_multiplicity
 _atom_site_fract_x
 _atom_site_fract_y
 _atom_site_fract_z
 _atom_site_occupancy
  Ti  Ti0  1  0.19044800  0.19044800  0.77407200  1
  Ti  Ti1  1  0.80955200  0.80955200  0.27407200  1
  Bi  Bi2  1  0.53559100  0.87710100  0.72717100  1
  Bi  Bi3  1  0.12289900  0.46440900  0.22717100  1
  Bi  Bi4  1  0.87710100  0.53559100  0.72717100  1
  Bi  Bi5  1  0.46440900  0.12289900  0.22717100  1
  O  O6  1  0.25453500  0.44490200  0.84468700  1
  O  O7  1  0.55509800  0.74546500  0.34468700  1
  O  O8  1  0.26621800  0.77000900  0.00734000  1
  O  O9  1  0.22999100  0.73378200  0.50734000  1
  O  O10  1  0.73378200  0.22999100  0.50734000  1
  O  O11  1  0.77000900  0.26621800  0.00734000  1
  O  O12  1  0.44490200  0.25453500  0.84468700  1
  O  O13  1  0.74546500  0.55509800  0.34468700  1
  O  O14  1  0.91930200  0.91930200  0.95878200  1
  O  O15  1  0.08069800  0.08069800  0.45878200  1
