# generated using pymatgen
data_Ba2Mg3H10
_symmetry_space_group_name_H-M   'P 1'
_cell_length_a   9.48190236
_cell_length_b   9.48190236
_cell_length_c   7.86710794
_cell_angle_alpha   68.87406342
_cell_angle_beta   68.87406342
_cell_angle_gamma   36.05615811
_symmetry_Int_Tables_number   1
_chemical_formula_structural   Ba2Mg3H10
_chemical_formula_sum   'Ba4 Mg6 H20'
_cell_volume   385.24116570
_cell_formula_units_Z   2
loop_
 _symmetry_equiv_pos_site_id
 _symmetry_equiv_pos_as_xyz
  1  'x, y, z'
loop_
 _atom_site_type_symbol
 _atom_site_label
 _atom_site_symmetry_multiplicity
 _atom_site_fract_x
 _atom_site_fract_y
 _atom_site_fract_z
 _atom_site_occupancy
  Ba  Ba0  1  0.28575200  0.28575200  0.30727500  1
  Ba  Ba1  1  0.71424800  0.71424800  0.69272500  1
  Ba  Ba2  1  0.38437600  0.38437600  0.72382700  1
  Ba  Ba3  1  0.61562400  0.61562400  0.27617300  1
  Mg  Mg4  1  0.07272700  0.07272700  0.55474200  1
  Mg  Mg5  1  0.92727300  0.92727300  0.44525800  1
  Mg  Mg6  1  0.17307800  0.17307800  0.98866200  1
  Mg  Mg7  1  0.82692200  0.82692200  0.01133800  1
  Mg  Mg8  1  0.74499700  0.25500300  0.00000000  1
  Mg  Mg9  1  0.25500300  0.74499700  0.00000000  1
  H  H10  1  0.84894400  0.36995800  0.98455600  1
  H  H11  1  0.36995800  0.84894400  0.98455600  1
  H  H12  1  0.15105600  0.63004200  0.01544400  1
  H  H13  1  0.63004200  0.15105600  0.01544400  1
  H  H14  1  0.91455500  0.38520200  0.51553300  1
  H  H15  1  0.38520200  0.91455500  0.51553300  1
  H  H16  1  0.08544500  0.61479800  0.48446700  1
  H  H17  1  0.61479800  0.08544500  0.48446700  1
  H  H18  1  0.02289600  0.02289600  0.82353600  1
  H  H19  1  0.97710400  0.97710400  0.17646400  1
  H  H20  1  0.13533700  0.13533700  0.25643100  1
  H  H21  1  0.86466300  0.86466300  0.74356900  1
  H  H22  1  0.23149800  0.23149800  0.72439700  1
  H  H23  1  0.76850200  0.76850200  0.27560300  1
  H  H24  1  0.52600800  0.52600800  0.81603800  1
  H  H25  1  0.47399200  0.47399200  0.18396200  1
  H  H26  1  0.77966000  0.22034000  0.50000000  1
  H  H27  1  0.22034000  0.77966000  0.50000000  1
  H  H28  1  0.00000000  0.50000000  0.00000000  1
  H  H29  1  0.50000000  0.00000000  0.00000000  1
