# generated using pymatgen
data_ThSe2
_symmetry_space_group_name_H-M   'P 1'
_cell_length_a   4.45232200
_cell_length_b   7.63769900
_cell_length_c   9.11923400
_cell_angle_alpha   90.00000000
_cell_angle_beta   90.00000000
_cell_angle_gamma   90.00000000
_symmetry_Int_Tables_number   1
_chemical_formula_structural   ThSe2
_chemical_formula_sum   'Th4 Se8'
_cell_volume   310.10406881
_cell_formula_units_Z   4
loop_
 _symmetry_equiv_pos_site_id
 _symmetry_equiv_pos_as_xyz
  1  'x, y, z'
loop_
 _atom_site_type_symbol
 _atom_site_label
 _atom_site_symmetry_multiplicity
 _atom_site_fract_x
 _atom_site_fract_y
 _atom_site_fract_z
 _atom_site_occupancy
  Th  Th0  1  0.25000000  0.24965300  0.87858100  1
  Th  Th1  1  0.25000000  0.74965300  0.62141900  1
  Th  Th2  1  0.75000000  0.75034700  0.12141900  1
  Th  Th3  1  0.75000000  0.25034700  0.37858100  1
  Se  Se4  1  0.25000000  0.36019300  0.56976800  1
  Se  Se5  1  0.25000000  0.86019300  0.93023200  1
  Se  Se6  1  0.75000000  0.63980700  0.43023200  1
  Se  Se7  1  0.75000000  0.13980700  0.06976800  1
  Se  Se8  1  0.25000000  0.47085700  0.16397900  1
  Se  Se9  1  0.25000000  0.97085700  0.33602100  1
  Se  Se10  1  0.75000000  0.52914300  0.83602100  1
  Se  Se11  1  0.75000000  0.02914300  0.66397900  1
