# generated using pymatgen
data_Nb3Tl3O10
_symmetry_space_group_name_H-M   'P 1'
_cell_length_a   17.14630836
_cell_length_b   17.14630836
_cell_length_c   17.14630836
_cell_angle_alpha   154.41627576
_cell_angle_beta   154.41627576
_cell_angle_gamma   36.49483663
_symmetry_Int_Tables_number   1
_chemical_formula_structural   Nb3Tl3O10
_chemical_formula_sum   'Nb12 Tl12 O40'
_cell_volume   938.76914032
_cell_formula_units_Z   4
loop_
 _symmetry_equiv_pos_site_id
 _symmetry_equiv_pos_as_xyz
  1  'x, y, z'
loop_
 _atom_site_type_symbol
 _atom_site_label
 _atom_site_symmetry_multiplicity
 _atom_site_fract_x
 _atom_site_fract_y
 _atom_site_fract_z
 _atom_site_occupancy
  Nb  Nb0  1  0.21061900  0.45874600  0.75187200  1
  Nb  Nb1  1  0.70687400  0.45874600  0.24812800  1
  Nb  Nb2  1  0.87500000  0.12500000  0.25000000  1
  Nb  Nb3  1  0.87500000  0.62500000  0.75000000  1
  Nb  Nb4  1  0.53938100  0.79125400  0.74812800  1
  Nb  Nb5  1  0.04312600  0.79125400  0.25187200  1
  Nb  Nb6  1  0.20874600  0.95687400  0.74812800  1
  Nb  Nb7  1  0.20874600  0.46061900  0.25187200  1
  Nb  Nb8  1  0.87500000  0.12500000  0.75000000  1
  Nb  Nb9  1  0.37500000  0.12500000  0.25000000  1
  Nb  Nb10  1  0.54125400  0.78938100  0.24812800  1
  Nb  Nb11  1  0.54125400  0.29312600  0.75187200  1
  Tl  Tl12  1  0.19504500  0.96066800  0.23437700  1
  Tl  Tl13  1  0.72629100  0.96066800  0.76562300  1
  Tl  Tl14  1  0.37500000  0.62500000  0.25000000  1
  Tl  Tl15  1  0.37500000  0.12500000  0.75000000  1
  Tl  Tl16  1  0.02370900  0.28933200  0.73437700  1
  Tl  Tl17  1  0.55495500  0.28933200  0.26562300  1
  Tl  Tl18  1  0.71066800  0.97629100  0.26562300  1
  Tl  Tl19  1  0.71066800  0.44504500  0.73437700  1
  Tl  Tl20  1  0.37500000  0.62500000  0.75000000  1
  Tl  Tl21  1  0.87500000  0.62500000  0.25000000  1
  Tl  Tl22  1  0.03933200  0.27370900  0.23437700  1
  Tl  Tl23  1  0.03933200  0.80495500  0.76562300  1
  O  O24  1  0.43520800  0.43520800  0.00000000  1
  O  O25  1  0.40813000  0.90813000  0.50000000  1
  O  O26  1  0.72678200  0.22571200  0.11981800  1
  O  O27  1  0.72678200  0.60696400  0.50107100  1
  O  O28  1  0.10589400  0.22571200  0.49892900  1
  O  O29  1  0.10589400  0.60696400  0.88018200  1
  O  O30  1  0.89439900  0.89439900  0.00000000  1
  O  O31  1  0.85560100  0.35560100  0.50000000  1
  O  O32  1  0.64410600  0.02428800  0.00107100  1
  O  O33  1  0.02321800  0.02428800  0.38018200  1
  O  O34  1  0.02321800  0.64303600  0.99892900  1
  O  O35  1  0.64410600  0.64303600  0.61981800  1
  O  O36  1  0.34187000  0.34187000  0.00000000  1
  O  O37  1  0.31479200  0.81479200  0.50000000  1
  O  O38  1  0.77432800  0.77432800  0.00000000  1
  O  O39  1  0.07058600  0.57058600  0.14117200  1
  O  O40  1  0.42941400  0.57058600  0.50000000  1
  O  O41  1  0.07058600  0.92941400  0.50000000  1
  O  O42  1  0.42941400  0.92941400  0.85882800  1
  O  O43  1  0.22567200  0.22567200  0.00000000  1
  O  O44  1  0.18520800  0.68520800  0.50000000  1
  O  O45  1  0.35696400  0.97678200  0.00107100  1
  O  O46  1  0.35696400  0.35589400  0.38018200  1
  O  O47  1  0.97571200  0.97678200  0.61981800  1
  O  O48  1  0.65813000  0.65813000  0.00000000  1
  O  O49  1  0.97571200  0.35589400  0.99892900  1
  O  O50  1  0.64439900  0.14439900  0.50000000  1
  O  O51  1  0.10560100  0.10560100  0.00000000  1
  O  O52  1  0.77428800  0.89410600  0.50107100  1
  O  O53  1  0.39303600  0.89410600  0.11981800  1
  O  O54  1  0.09187000  0.59187000  0.50000000  1
  O  O55  1  0.77428800  0.27321800  0.88018200  1
  O  O56  1  0.39303600  0.27321800  0.49892900  1
  O  O57  1  0.56479200  0.56479200  0.00000000  1
  O  O58  1  0.52432800  0.02432800  0.50000000  1
  O  O59  1  0.67941400  0.67941400  0.35882800  1
  O  O60  1  0.32058600  0.67941400  0.00000000  1
  O  O61  1  0.67941400  0.32058600  0.00000000  1
  O  O62  1  0.32058600  0.32058600  0.64117200  1
  O  O63  1  0.97567200  0.47567200  0.50000000  1
