# generated using pymatgen
data_Rb4SiO4
_symmetry_space_group_name_H-M   'P 1'
_cell_length_a   6.78781900
_cell_length_b   10.92640400
_cell_length_c   11.00575932
_cell_angle_alpha   67.60967260
_cell_angle_beta   90.00000000
_cell_angle_gamma   90.00000000
_symmetry_Int_Tables_number   1
_chemical_formula_structural   Rb4SiO4
_chemical_formula_sum   'Rb16 Si4 O16'
_cell_volume   754.72071489
_cell_formula_units_Z   4
loop_
 _symmetry_equiv_pos_site_id
 _symmetry_equiv_pos_as_xyz
  1  'x, y, z'
loop_
 _atom_site_type_symbol
 _atom_site_label
 _atom_site_symmetry_multiplicity
 _atom_site_fract_x
 _atom_site_fract_y
 _atom_site_fract_z
 _atom_site_occupancy
  Rb  Rb0  1  0.59241500  0.30069500  0.06490600  1
  Rb  Rb1  1  0.11383000  0.41759100  0.15525700  1
  Rb  Rb2  1  0.90758500  0.80069500  0.06490600  1
  Rb  Rb3  1  0.33302400  0.10960300  0.36887400  1
  Rb  Rb4  1  0.81837400  0.20636500  0.42264600  1
  Rb  Rb5  1  0.38617000  0.91759100  0.15525700  1
  Rb  Rb6  1  0.16697600  0.60960300  0.36887400  1
  Rb  Rb7  1  0.31837400  0.29363500  0.57735400  1
  Rb  Rb8  1  0.68162600  0.70636500  0.42264600  1
  Rb  Rb9  1  0.83302400  0.39039700  0.63112600  1
  Rb  Rb10  1  0.61383000  0.08240900  0.84474300  1
  Rb  Rb11  1  0.18162600  0.79363500  0.57735400  1
  Rb  Rb12  1  0.66697600  0.89039700  0.63112600  1
  Rb  Rb13  1  0.09241500  0.19930500  0.93509400  1
  Rb  Rb14  1  0.88617000  0.58240900  0.84474300  1
  Rb  Rb15  1  0.40758500  0.69930500  0.93509400  1
  Si  Si16  1  0.86957900  0.01092200  0.24142400  1
  Si  Si17  1  0.63042100  0.51092200  0.24142400  1
  Si  Si18  1  0.36957900  0.48907800  0.75857600  1
  Si  Si19  1  0.13042100  0.98907800  0.75857600  1
  O  O20  1  0.76966800  0.02684200  0.09759100  1
  O  O21  1  0.99690200  0.14899600  0.21998700  1
  O  O22  1  0.73033200  0.52684200  0.09759100  1
  O  O23  1  0.48225300  0.37751200  0.29872700  1
  O  O24  1  0.50309800  0.64899600  0.21998700  1
  O  O25  1  0.81321300  0.49139500  0.35059500  1
  O  O26  1  0.01774700  0.87751200  0.29872700  1
  O  O27  1  0.31321300  0.00860500  0.64940500  1
  O  O28  1  0.68678700  0.99139500  0.35059500  1
  O  O29  1  0.98225300  0.12248800  0.70127300  1
  O  O30  1  0.18678700  0.50860500  0.64940500  1
  O  O31  1  0.49690200  0.35100400  0.78001300  1
  O  O32  1  0.51774700  0.62248800  0.70127300  1
  O  O33  1  0.26966800  0.47315800  0.90240900  1
  O  O34  1  0.00309800  0.85100400  0.78001300  1
  O  O35  1  0.23033200  0.97315800  0.90240900  1
