# generated using pymatgen
data_Li7Ti11O24
_symmetry_space_group_name_H-M   'P 1'
_cell_length_a   10.31279504
_cell_length_b   10.31279504
_cell_length_c   8.43598002
_cell_angle_alpha   66.00305876
_cell_angle_beta   66.00305876
_cell_angle_gamma   33.63230731
_symmetry_Int_Tables_number   1
_chemical_formula_structural   Li7Ti11O24
_chemical_formula_sum   'Li7 Ti11 O24'
_cell_volume   449.84518744
_cell_formula_units_Z   1
loop_
 _symmetry_equiv_pos_site_id
 _symmetry_equiv_pos_as_xyz
  1  'x, y, z'
loop_
 _atom_site_type_symbol
 _atom_site_label
 _atom_site_symmetry_multiplicity
 _atom_site_fract_x
 _atom_site_fract_y
 _atom_site_fract_z
 _atom_site_occupancy
  Li  Li0  1  0.08366000  0.08366000  0.79463400  1
  Li  Li1  1  0.75123400  0.75123400  0.12384700  1
  Li  Li2  1  0.24876600  0.24876600  0.87615300  1
  Li  Li3  1  0.58188000  0.58188000  0.54184300  1
  Li  Li4  1  0.41812000  0.41812000  0.45815700  1
  Li  Li5  1  0.91634000  0.91634000  0.20536600  1
  Li  Li6  1  0.50000000  0.50000000  0.00000000  1
  Ti  Ti7  1  0.33762600  0.33762600  0.16552200  1
  Ti  Ti8  1  0.16661200  0.16661200  0.33205100  1
  Ti  Ti9  1  0.66352000  0.17460900  0.83828700  1
  Ti  Ti10  1  0.17460900  0.66352000  0.83828700  1
  Ti  Ti11  1  0.83338800  0.83338800  0.66794900  1
  Ti  Ti12  1  0.00000000  0.00000000  0.50000000  1
  Ti  Ti13  1  0.66237400  0.66237400  0.83447800  1
  Ti  Ti14  1  0.82539100  0.33648000  0.16171300  1
  Ti  Ti15  1  0.50000000  0.00000000  0.50000000  1
  Ti  Ti16  1  0.33648000  0.82539100  0.16171300  1
  Ti  Ti17  1  0.00000000  0.50000000  0.50000000  1
  O  O18  1  0.67418200  0.67418200  0.58776200  1
  O  O19  1  0.17529800  0.17529800  0.56274400  1
  O  O20  1  0.47244700  0.02707900  0.26307100  1
  O  O21  1  0.02707900  0.47244700  0.26307100  1
  O  O22  1  0.64417500  0.17909500  0.07120700  1
  O  O23  1  0.17909500  0.64417500  0.07120700  1
  O  O24  1  0.34175900  0.34175900  0.92026800  1
  O  O25  1  0.48858800  0.48858800  0.76181500  1
  O  O26  1  0.15761300  0.15761300  0.10739100  1
  O  O27  1  0.99219300  0.99219300  0.74677300  1
  O  O28  1  0.84238700  0.84238700  0.89260900  1
  O  O29  1  0.65824100  0.65824100  0.07973200  1
  O  O30  1  0.14003800  0.69366100  0.59621300  1
  O  O31  1  0.69366100  0.14003800  0.59621300  1
  O  O32  1  0.97292100  0.52755300  0.73692900  1
  O  O33  1  0.85996200  0.30633900  0.40378700  1
  O  O34  1  0.52755300  0.97292100  0.73692900  1
  O  O35  1  0.30633900  0.85996200  0.40378700  1
  O  O36  1  0.00780700  0.00780700  0.25322700  1
  O  O37  1  0.82470200  0.82470200  0.43725600  1
  O  O38  1  0.51141200  0.51141200  0.23818500  1
  O  O39  1  0.32581800  0.32581800  0.41223800  1
  O  O40  1  0.82090500  0.35582500  0.92879300  1
  O  O41  1  0.35582500  0.82090500  0.92879300  1
