# generated using pymatgen
data_Cr2H24(IN3)3
_symmetry_space_group_name_H-M   'P 1'
_cell_length_a   7.75798244
_cell_length_b   7.75798244
_cell_length_c   18.32330700
_cell_angle_alpha   90.00000000
_cell_angle_beta   90.00000000
_cell_angle_gamma   120.00000374
_symmetry_Int_Tables_number   1
_chemical_formula_structural   Cr2H24(IN3)3
_chemical_formula_sum   'Cr4 H48 I6 N18'
_cell_volume   955.06308204
_cell_formula_units_Z   2
loop_
 _symmetry_equiv_pos_site_id
 _symmetry_equiv_pos_as_xyz
  1  'x, y, z'
loop_
 _atom_site_type_symbol
 _atom_site_label
 _atom_site_symmetry_multiplicity
 _atom_site_fract_x
 _atom_site_fract_y
 _atom_site_fract_z
 _atom_site_occupancy
  Cr  Cr0  1  0.33333300  0.66666700  0.32577100  1
  Cr  Cr1  1  0.66666700  0.33333300  0.67422900  1
  Cr  Cr2  1  0.66666700  0.33333300  0.82577100  1
  Cr  Cr3  1  0.33333300  0.66666700  0.17422900  1
  H  H4  1  0.38404100  0.40278800  0.25000000  1
  H  H5  1  0.59721200  0.98125300  0.25000000  1
  H  H6  1  0.01874700  0.61595900  0.25000000  1
  H  H7  1  0.59721200  0.61595900  0.25000000  1
  H  H8  1  0.01874700  0.40278800  0.25000000  1
  H  H9  1  0.38404100  0.98125300  0.25000000  1
  H  H10  1  0.61595900  0.59721200  0.75000000  1
  H  H11  1  0.40278800  0.01874700  0.75000000  1
  H  H12  1  0.98125300  0.38404100  0.75000000  1
  H  H13  1  0.40278800  0.38404100  0.75000000  1
  H  H14  1  0.98125300  0.59721200  0.75000000  1
  H  H15  1  0.61595900  0.01874700  0.75000000  1
  H  H16  1  0.21993700  0.78006300  0.44914200  1
  H  H17  1  0.21993700  0.43987400  0.44914200  1
  H  H18  1  0.56012600  0.78006300  0.44914200  1
  H  H19  1  0.78006300  0.21993700  0.55085800  1
  H  H20  1  0.78006300  0.56012600  0.55085800  1
  H  H21  1  0.43987400  0.21993700  0.55085800  1
  H  H22  1  0.78006300  0.21993700  0.94914200  1
  H  H23  1  0.78006300  0.56012600  0.94914200  1
  H  H24  1  0.43987400  0.21993700  0.94914200  1
  H  H25  1  0.21993700  0.78006300  0.05085800  1
  H  H26  1  0.21993700  0.43987400  0.05085800  1
  H  H27  1  0.56012600  0.78006300  0.05085800  1
  H  H28  1  0.26831000  0.94470400  0.38323700  1
  H  H29  1  0.05529600  0.32360700  0.38323700  1
  H  H30  1  0.67639300  0.73169000  0.38323700  1
  H  H31  1  0.05529600  0.73169000  0.38323700  1
  H  H32  1  0.67639300  0.94470400  0.38323700  1
  H  H33  1  0.26831000  0.32360700  0.38323700  1
  H  H34  1  0.73169000  0.05529600  0.61676300  1
  H  H35  1  0.94470400  0.67639300  0.61676300  1
  H  H36  1  0.32360700  0.26831000  0.61676300  1
  H  H37  1  0.94470400  0.26831000  0.61676300  1
  H  H38  1  0.32360700  0.05529600  0.61676300  1
  H  H39  1  0.73169000  0.67639300  0.61676300  1
  H  H40  1  0.73169000  0.05529600  0.88323700  1
  H  H41  1  0.94470400  0.67639300  0.88323700  1
  H  H42  1  0.32360700  0.26831000  0.88323700  1
  H  H43  1  0.94470400  0.26831000  0.88323700  1
  H  H44  1  0.32360700  0.05529600  0.88323700  1
  H  H45  1  0.73169000  0.67639300  0.88323700  1
  H  H46  1  0.26831000  0.94470400  0.11676300  1
  H  H47  1  0.05529600  0.32360700  0.11676300  1
  H  H48  1  0.67639300  0.73169000  0.11676300  1
  H  H49  1  0.05529600  0.73169000  0.11676300  1
  H  H50  1  0.67639300  0.94470400  0.11676300  1
  H  H51  1  0.26831000  0.32360700  0.11676300  1
  I  I52  1  0.00000000  0.00000000  0.25000000  1
  I  I53  1  0.00000000  0.00000000  0.75000000  1
  I  I54  1  0.33333300  0.66666700  0.91838000  1
  I  I55  1  0.66666700  0.33333300  0.08162000  1
  I  I56  1  0.66666700  0.33333300  0.41838000  1
  I  I57  1  0.33333300  0.66666700  0.58162000  1
  N  N58  1  0.44560200  0.55439800  0.25000000  1
  N  N59  1  0.44560200  0.89120400  0.25000000  1
  N  N60  1  0.10879600  0.55439800  0.25000000  1
  N  N61  1  0.55439800  0.44560200  0.75000000  1
  N  N62  1  0.55439800  0.10879600  0.75000000  1
  N  N63  1  0.89120400  0.44560200  0.75000000  1
  N  N64  1  0.20467700  0.79532300  0.39411800  1
  N  N65  1  0.20467700  0.40935500  0.39411800  1
  N  N66  1  0.59064500  0.79532300  0.39411800  1
  N  N67  1  0.79532300  0.20467700  0.60588200  1
  N  N68  1  0.79532300  0.59064500  0.60588200  1
  N  N69  1  0.40935500  0.20467700  0.60588200  1
  N  N70  1  0.79532300  0.20467700  0.89411800  1
  N  N71  1  0.79532300  0.59064500  0.89411800  1
  N  N72  1  0.40935500  0.20467700  0.89411800  1
  N  N73  1  0.20467700  0.79532300  0.10588200  1
  N  N74  1  0.20467700  0.40935500  0.10588200  1
  N  N75  1  0.59064500  0.79532300  0.10588200  1
