# generated using pymatgen
data_Sc2TiO5
_symmetry_space_group_name_H-M   'P 1'
_cell_length_a   5.47233482
_cell_length_b   5.47233482
_cell_length_c   10.35056200
_cell_angle_alpha   90.00000000
_cell_angle_beta   90.00000000
_cell_angle_gamma   138.47317655
_symmetry_Int_Tables_number   1
_chemical_formula_structural   Sc2TiO5
_chemical_formula_sum   'Sc4 Ti2 O10'
_cell_volume   205.49607317
_cell_formula_units_Z   2
loop_
 _symmetry_equiv_pos_site_id
 _symmetry_equiv_pos_as_xyz
  1  'x, y, z'
loop_
 _atom_site_type_symbol
 _atom_site_label
 _atom_site_symmetry_multiplicity
 _atom_site_fract_x
 _atom_site_fract_y
 _atom_site_fract_z
 _atom_site_occupancy
  Sc  Sc0  1  0.63699300  0.36300700  0.43661200  1
  Sc  Sc1  1  0.69409300  0.30590700  0.74960300  1
  Sc  Sc2  1  0.30590700  0.69409300  0.24960300  1
  Sc  Sc3  1  0.36300700  0.63699300  0.93661200  1
  Ti  Ti4  1  0.63359500  0.36640500  0.05911800  1
  Ti  Ti5  1  0.36640500  0.63359500  0.55911800  1
  O  O6  1  0.55396300  0.44603700  0.89157500  1
  O  O7  1  0.81395700  0.18604300  0.57027300  1
  O  O8  1  0.72978200  0.27021800  0.24200900  1
  O  O9  1  0.80122000  0.19878000  0.93184200  1
  O  O10  1  0.53642600  0.46357400  0.61896900  1
  O  O11  1  0.27021800  0.72978200  0.74200900  1
  O  O12  1  0.18604300  0.81395700  0.07027300  1
  O  O13  1  0.44603700  0.55396300  0.39157500  1
  O  O14  1  0.46357400  0.53642600  0.11896900  1
  O  O15  1  0.19878000  0.80122000  0.43184200  1
