# generated using pymatgen
data_Pr3GaO6
_symmetry_space_group_name_H-M   'P 1'
_cell_length_a   7.50356657
_cell_length_b   7.50356657
_cell_length_c   5.67284200
_cell_angle_alpha   90.00000000
_cell_angle_beta   90.00000000
_cell_angle_gamma   102.74212941
_symmetry_Int_Tables_number   1
_chemical_formula_structural   Pr3GaO6
_chemical_formula_sum   'Pr6 Ga2 O12'
_cell_volume   311.53491817
_cell_formula_units_Z   2
loop_
 _symmetry_equiv_pos_site_id
 _symmetry_equiv_pos_as_xyz
  1  'x, y, z'
loop_
 _atom_site_type_symbol
 _atom_site_label
 _atom_site_symmetry_multiplicity
 _atom_site_fract_x
 _atom_site_fract_y
 _atom_site_fract_z
 _atom_site_occupancy
  Pr  Pr0  1  0.08645500  0.29897200  0.47282700  1
  Pr  Pr1  1  0.29897200  0.08645500  0.97282700  1
  Pr  Pr2  1  0.60355900  0.39644100  0.42884300  1
  Pr  Pr3  1  0.39644100  0.60355900  0.92884300  1
  Pr  Pr4  1  0.70102800  0.91354500  0.47282700  1
  Pr  Pr5  1  0.91354500  0.70102800  0.97282700  1
  Ga  Ga6  1  0.80675100  0.19324900  0.00814200  1
  Ga  Ga7  1  0.19324900  0.80675100  0.50814200  1
  O  O8  1  0.32654200  0.35409300  0.20239100  1
  O  O9  1  0.35409300  0.32654200  0.70239100  1
  O  O10  1  0.58501200  0.10830700  0.17516600  1
  O  O11  1  0.10830700  0.58501200  0.67516600  1
  O  O12  1  0.95602200  0.04397800  0.13853900  1
  O  O13  1  0.78474600  0.21525400  0.68250700  1
  O  O14  1  0.04397800  0.95602200  0.63853900  1
  O  O15  1  0.21525400  0.78474600  0.18250700  1
  O  O16  1  0.89169300  0.41498800  0.17516600  1
  O  O17  1  0.41498800  0.89169300  0.67516600  1
  O  O18  1  0.64590700  0.67345800  0.20239100  1
  O  O19  1  0.67345800  0.64590700  0.70239100  1
