# generated using pymatgen
data_CsAsO3
_symmetry_space_group_name_H-M   'P 1'
_cell_length_a   5.46077000
_cell_length_b   5.93704700
_cell_length_c   12.59463300
_cell_angle_alpha   90.00000000
_cell_angle_beta   90.00000000
_cell_angle_gamma   90.00000000
_symmetry_Int_Tables_number   1
_chemical_formula_structural   CsAsO3
_chemical_formula_sum   'Cs4 As4 O12'
_cell_volume   408.32868395
_cell_formula_units_Z   4
loop_
 _symmetry_equiv_pos_site_id
 _symmetry_equiv_pos_as_xyz
  1  'x, y, z'
loop_
 _atom_site_type_symbol
 _atom_site_label
 _atom_site_symmetry_multiplicity
 _atom_site_fract_x
 _atom_site_fract_y
 _atom_site_fract_z
 _atom_site_occupancy
  Cs  Cs0  1  0.75000000  0.08476700  0.60160100  1
  Cs  Cs1  1  0.25000000  0.08476700  0.89839900  1
  Cs  Cs2  1  0.25000000  0.91523300  0.39839900  1
  Cs  Cs3  1  0.75000000  0.91523300  0.10160100  1
  As  As4  1  0.25000000  0.43954900  0.16831400  1
  As  As5  1  0.75000000  0.43954900  0.33168600  1
  As  As6  1  0.25000000  0.56045100  0.66831400  1
  As  As7  1  0.75000000  0.56045100  0.83168600  1
  O  O8  1  0.25000000  0.15806400  0.16111900  1
  O  O9  1  0.75000000  0.15806400  0.33888100  1
  O  O10  1  0.25000000  0.39408900  0.56166500  1
  O  O11  1  0.75000000  0.39408900  0.93833500  1
  O  O12  1  0.50000000  0.45269200  0.75000000  1
  O  O13  1  0.00000000  0.45269200  0.75000000  1
  O  O14  1  0.50000000  0.54730800  0.25000000  1
  O  O15  1  0.00000000  0.54730800  0.25000000  1
  O  O16  1  0.25000000  0.60591100  0.06166500  1
  O  O17  1  0.75000000  0.60591100  0.43833500  1
  O  O18  1  0.25000000  0.84193600  0.66111900  1
  O  O19  1  0.75000000  0.84193600  0.83888100  1
