# generated using pymatgen
data_CaPbI6
_symmetry_space_group_name_H-M   'P 1'
_cell_length_a   15.78661427
_cell_length_b   13.45508044
_cell_length_c   12.41755689
_cell_angle_alpha   75.08321069
_cell_angle_beta   55.44551584
_cell_angle_gamma   49.47127347
_symmetry_Int_Tables_number   1
_chemical_formula_structural   CaPbI6
_chemical_formula_sum   'Ca4 Pb4 I24'
_cell_volume   1624.88621271
_cell_formula_units_Z   4
loop_
 _symmetry_equiv_pos_site_id
 _symmetry_equiv_pos_as_xyz
  1  'x, y, z'
loop_
 _atom_site_type_symbol
 _atom_site_label
 _atom_site_symmetry_multiplicity
 _atom_site_fract_x
 _atom_site_fract_y
 _atom_site_fract_z
 _atom_site_occupancy
  Ca  Ca0  1  0.08562300  0.69516200  0.63236900  1
  Ca  Ca1  1  0.61763100  0.66315400  0.16437700  1
  Ca  Ca2  1  0.55483800  0.16437700  0.66315400  1
  Ca  Ca3  1  0.58684600  0.63236900  0.69516200  1
  Pb  Pb4  1  0.26442300  0.60778900  0.91094800  1
  Pb  Pb5  1  0.33905200  0.03316100  0.98557700  1
  Pb  Pb6  1  0.64221100  0.98557700  0.03316100  1
  Pb  Pb7  1  0.21683900  0.91094800  0.60778900  1
  I  I8  1  0.19010800  0.60215300  0.20615300  1
  I  I9  1  0.41026700  0.97242800  0.23817200  1
  I  I10  1  0.23173300  0.79482600  0.40840500  1
  I  I11  1  0.35647300  0.27360200  0.42251500  1
  I  I12  1  0.63798600  0.41735800  0.17583900  1
  I  I13  1  0.33988600  0.46499200  0.65450500  1
  I  I14  1  0.04384700  0.24841400  0.05989200  1
  I  I15  1  0.64784700  0.05989200  0.24841400  1
  I  I16  1  0.54061700  0.65450500  0.46499200  1
  I  I17  1  0.27757200  0.83973300  0.87086700  1
  I  I18  1  0.45517400  0.01826700  0.68496400  1
  I  I19  1  0.76881700  0.17583900  0.41735800  1
  I  I20  1  0.94741000  0.42251500  0.27360200  1
  I  I21  1  0.97639800  0.89352700  0.30259000  1
  I  I22  1  0.83264200  0.61201400  0.48118300  1
  I  I23  1  0.56503600  0.40840500  0.79482600  1
  I  I24  1  0.37913300  0.23817200  0.97242800  1
  I  I25  1  0.78500800  0.91011400  0.70938300  1
  I  I26  1  0.00158600  0.20615300  0.60215300  1
  I  I27  1  0.59549500  0.70938300  0.91011400  1
  I  I28  1  0.07416100  0.48118300  0.61201400  1
  I  I29  1  0.82748500  0.30259000  0.89352700  1
  I  I30  1  0.84159500  0.68496400  0.01826700  1
  I  I31  1  0.01182800  0.87086700  0.83973300  1
