# generated using pymatgen
data_Tb2TiO5
_symmetry_space_group_name_H-M   'P 1'
_cell_length_a   3.73881000
_cell_length_b   10.50094100
_cell_length_c   11.33766700
_cell_angle_alpha   90.00000000
_cell_angle_beta   90.00000000
_cell_angle_gamma   90.00000000
_symmetry_Int_Tables_number   1
_chemical_formula_structural   Tb2TiO5
_chemical_formula_sum   'Tb8 Ti4 O20'
_cell_volume   445.12840735
_cell_formula_units_Z   4
loop_
 _symmetry_equiv_pos_site_id
 _symmetry_equiv_pos_as_xyz
  1  'x, y, z'
loop_
 _atom_site_type_symbol
 _atom_site_label
 _atom_site_symmetry_multiplicity
 _atom_site_fract_x
 _atom_site_fract_y
 _atom_site_fract_z
 _atom_site_occupancy
  Tb  Tb0  1  0.25000000  0.13618500  0.94376900  1
  Tb  Tb1  1  0.25000000  0.63618500  0.55623100  1
  Tb  Tb2  1  0.75000000  0.86381500  0.05623100  1
  Tb  Tb3  1  0.75000000  0.36381500  0.44376900  1
  Tb  Tb4  1  0.75000000  0.38670700  0.77677800  1
  Tb  Tb5  1  0.75000000  0.88670700  0.72322200  1
  Tb  Tb6  1  0.25000000  0.61329300  0.22322200  1
  Tb  Tb7  1  0.25000000  0.11329300  0.27677800  1
  Ti  Ti8  1  0.25000000  0.17683100  0.62031600  1
  Ti  Ti9  1  0.25000000  0.67683100  0.87968400  1
  Ti  Ti10  1  0.75000000  0.82316900  0.37968400  1
  Ti  Ti11  1  0.75000000  0.32316900  0.12031600  1
  O  O12  1  0.25000000  0.22539600  0.45790000  1
  O  O13  1  0.25000000  0.72539600  0.04210000  1
  O  O14  1  0.75000000  0.77460400  0.54210000  1
  O  O15  1  0.75000000  0.27460400  0.95790000  1
  O  O16  1  0.25000000  0.49386400  0.39549900  1
  O  O17  1  0.25000000  0.99386400  0.10450100  1
  O  O18  1  0.75000000  0.50613600  0.60450100  1
  O  O19  1  0.75000000  0.00613600  0.89549900  1
  O  O20  1  0.25000000  0.26248800  0.11721200  1
  O  O21  1  0.25000000  0.76248800  0.38278800  1
  O  O22  1  0.75000000  0.73751200  0.88278800  1
  O  O23  1  0.75000000  0.23751200  0.61721200  1
  O  O24  1  0.25000000  0.01115000  0.65664400  1
  O  O25  1  0.25000000  0.51115000  0.84335600  1
  O  O26  1  0.75000000  0.98885000  0.34335600  1
  O  O27  1  0.75000000  0.48885000  0.15664400  1
  O  O28  1  0.25000000  0.26030000  0.77076100  1
  O  O29  1  0.25000000  0.76030000  0.72923900  1
  O  O30  1  0.75000000  0.73970000  0.22923900  1
  O  O31  1  0.75000000  0.23970000  0.27076100  1
