# generated using pymatgen
data_K2TeO4
_symmetry_space_group_name_H-M   'P 1'
_cell_length_a   8.32225200
_cell_length_b   6.38847600
_cell_length_c   12.13219344
_cell_angle_alpha   63.95424918
_cell_angle_beta   90.00000000
_cell_angle_gamma   90.00000000
_symmetry_Int_Tables_number   1
_chemical_formula_structural   K2TeO4
_chemical_formula_sum   'K8 Te4 O16'
_cell_volume   579.51987262
_cell_formula_units_Z   4
loop_
 _symmetry_equiv_pos_site_id
 _symmetry_equiv_pos_as_xyz
  1  'x, y, z'
loop_
 _atom_site_type_symbol
 _atom_site_label
 _atom_site_symmetry_multiplicity
 _atom_site_fract_x
 _atom_site_fract_y
 _atom_site_fract_z
 _atom_site_occupancy
  K  K0  1  0.24694700  0.78070800  0.90885600  1
  K  K1  1  0.50368000  0.51889300  0.72565800  1
  K  K2  1  0.25305300  0.78070800  0.40885600  1
  K  K3  1  0.00368000  0.48110700  0.77434200  1
  K  K4  1  0.99632000  0.51889300  0.22565800  1
  K  K5  1  0.74694700  0.21929200  0.59114400  1
  K  K6  1  0.49632000  0.48110700  0.27434200  1
  K  K7  1  0.75305300  0.21929200  0.09114400  1
  Te  Te8  1  0.72857300  0.86516900  0.93044200  1
  Te  Te9  1  0.77142700  0.86516900  0.43044200  1
  Te  Te10  1  0.22857300  0.13483100  0.56955800  1
  Te  Te11  1  0.27142700  0.13483100  0.06955800  1
  O  O12  1  0.91850400  0.72902600  0.91768000  1
  O  O13  1  0.56565600  0.75979800  0.86512400  1
  O  O14  1  0.79938400  0.77899800  0.59624700  1
  O  O15  1  0.24143600  0.81151700  0.64847900  1
  O  O16  1  0.58149600  0.72902600  0.41768000  1
  O  O17  1  0.93434400  0.75979800  0.36512400  1
  O  O18  1  0.74143600  0.18848300  0.85152100  1
  O  O19  1  0.29938400  0.22100200  0.90375300  1
  O  O20  1  0.70061600  0.77899800  0.09624700  1
  O  O21  1  0.25856400  0.81151700  0.14847900  1
  O  O22  1  0.06565600  0.24020200  0.63487600  1
  O  O23  1  0.41850400  0.27097400  0.58232000  1
  O  O24  1  0.75856400  0.18848300  0.35152100  1
  O  O25  1  0.20061600  0.22100200  0.40375300  1
  O  O26  1  0.43434400  0.24020200  0.13487600  1
  O  O27  1  0.08149600  0.27097400  0.08232000  1
