# generated using pymatgen
data_Nb3Te4
_symmetry_space_group_name_H-M   'P 1'
_cell_length_a   10.83943469
_cell_length_b   10.83943469
_cell_length_c   3.66309500
_cell_angle_alpha   90.00000000
_cell_angle_beta   90.00000000
_cell_angle_gamma   120.00000419
_symmetry_Int_Tables_number   1
_chemical_formula_structural   Nb3Te4
_chemical_formula_sum   'Nb6 Te8'
_cell_volume   372.72803612
_cell_formula_units_Z   2
loop_
 _symmetry_equiv_pos_site_id
 _symmetry_equiv_pos_as_xyz
  1  'x, y, z'
loop_
 _atom_site_type_symbol
 _atom_site_label
 _atom_site_symmetry_multiplicity
 _atom_site_fract_x
 _atom_site_fract_y
 _atom_site_fract_z
 _atom_site_occupancy
  Nb  Nb0  1  0.10265200  0.61410100  0.75000000  1
  Nb  Nb1  1  0.38589900  0.48855100  0.75000000  1
  Nb  Nb2  1  0.51144900  0.89734800  0.75000000  1
  Nb  Nb3  1  0.89734800  0.38589900  0.25000000  1
  Nb  Nb4  1  0.61410100  0.51144900  0.25000000  1
  Nb  Nb5  1  0.48855100  0.10265200  0.25000000  1
  Te  Te6  1  0.66666700  0.33333300  0.75000000  1
  Te  Te7  1  0.33333300  0.66666700  0.25000000  1
  Te  Te8  1  0.27324800  0.93475500  0.75000000  1
  Te  Te9  1  0.06524500  0.33849300  0.75000000  1
  Te  Te10  1  0.66150700  0.72675200  0.75000000  1
  Te  Te11  1  0.72675200  0.06524500  0.25000000  1
  Te  Te12  1  0.93475500  0.66150700  0.25000000  1
  Te  Te13  1  0.33849300  0.27324800  0.25000000  1
