# generated using pymatgen
data_Ni2P2O7
_symmetry_space_group_name_H-M   'P 1'
_cell_length_a   8.32036700
_cell_length_b   6.98844500
_cell_length_c   9.03959697
_cell_angle_alpha   66.21541842
_cell_angle_beta   90.00000000
_cell_angle_gamma   90.00000000
_symmetry_Int_Tables_number   1
_chemical_formula_structural   Ni2P2O7
_chemical_formula_sum   'Ni8 P8 O28'
_cell_volume   480.97840720
_cell_formula_units_Z   4
loop_
 _symmetry_equiv_pos_site_id
 _symmetry_equiv_pos_as_xyz
  1  'x, y, z'
loop_
 _atom_site_type_symbol
 _atom_site_label
 _atom_site_symmetry_multiplicity
 _atom_site_fract_x
 _atom_site_fract_y
 _atom_site_fract_z
 _atom_site_occupancy
  Ni  Ni0  1  0.44258800  0.30503700  0.82070600  1
  Ni  Ni1  1  0.55741200  0.69496300  0.17929400  1
  Ni  Ni2  1  0.94258800  0.69496300  0.67929400  1
  Ni  Ni3  1  0.05741200  0.30503700  0.32070600  1
  Ni  Ni4  1  0.57564000  0.76907700  0.60930400  1
  Ni  Ni5  1  0.42436000  0.23092300  0.39069600  1
  Ni  Ni6  1  0.07564000  0.23092300  0.89069600  1
  Ni  Ni7  1  0.92436000  0.76907700  0.10930400  1
  P  P8  1  0.77058000  0.05934000  0.75706400  1
  P  P9  1  0.22942000  0.94066000  0.24293600  1
  P  P10  1  0.27058000  0.94066000  0.74293600  1
  P  P11  1  0.72942000  0.05934000  0.25706400  1
  P  P12  1  0.22498500  0.52871000  0.53399300  1
  P  P13  1  0.77501500  0.47129000  0.46600700  1
  P  P14  1  0.72498500  0.47129000  0.96600700  1
  P  P15  1  0.27501500  0.52871000  0.03399300  1
  O  O16  1  0.16712400  0.74993800  0.40410100  1
  O  O17  1  0.83287600  0.25006200  0.59589900  1
  O  O18  1  0.66712400  0.25006200  0.09589900  1
  O  O19  1  0.33287600  0.74993800  0.90410100  1
  O  O20  1  0.76683100  0.62310200  0.55014700  1
  O  O21  1  0.23316900  0.37689800  0.44985300  1
  O  O22  1  0.26683100  0.37689800  0.94985300  1
  O  O23  1  0.73316900  0.62310200  0.05014700  1
  O  O24  1  0.26189700  0.12194700  0.79766400  1
  O  O25  1  0.73810300  0.87805300  0.20233600  1
  O  O26  1  0.76189700  0.87805300  0.70233600  1
  O  O27  1  0.23810300  0.12194700  0.29766400  1
  O  O28  1  0.38946900  0.55036800  0.60230100  1
  O  O29  1  0.61053100  0.44963200  0.39769900  1
  O  O30  1  0.88946900  0.44963200  0.89769900  1
  O  O31  1  0.11053100  0.55036800  0.10230100  1
  O  O32  1  0.90664800  0.02246600  0.88008400  1
  O  O33  1  0.09335200  0.97753400  0.11991600  1
  O  O34  1  0.40664800  0.97753400  0.61991600  1
  O  O35  1  0.59335200  0.02246600  0.38008400  1
  O  O36  1  0.08878700  0.47701400  0.65867100  1
  O  O37  1  0.91121300  0.52298600  0.34132900  1
  O  O38  1  0.58878700  0.52298600  0.84132900  1
  O  O39  1  0.41121300  0.47701400  0.15867100  1
  O  O40  1  0.61204500  0.11481400  0.80915700  1
  O  O41  1  0.38795500  0.88518600  0.19084300  1
  O  O42  1  0.11204500  0.88518600  0.69084300  1
  O  O43  1  0.88795500  0.11481400  0.30915700  1
