# generated using pymatgen
data_Cs(WO3)3
_symmetry_space_group_name_H-M   'P 1'
_cell_length_a   7.54474626
_cell_length_b   7.54474626
_cell_length_c   3.88745900
_cell_angle_alpha   90.00000000
_cell_angle_beta   90.00000000
_cell_angle_gamma   120.00000227
_symmetry_Int_Tables_number   1
_chemical_formula_structural   Cs(WO3)3
_chemical_formula_sum   'Cs1 W3 O9'
_cell_volume   191.63980496
_cell_formula_units_Z   1
loop_
 _symmetry_equiv_pos_site_id
 _symmetry_equiv_pos_as_xyz
  1  'x, y, z'
loop_
 _atom_site_type_symbol
 _atom_site_label
 _atom_site_symmetry_multiplicity
 _atom_site_fract_x
 _atom_site_fract_y
 _atom_site_fract_z
 _atom_site_occupancy
  Cs  Cs0  1  0.00000000  0.00000000  0.00000000  1
  W  W1  1  0.00000000  0.50000000  0.50000000  1
  W  W2  1  0.50000000  0.50000000  0.50000000  1
  W  W3  1  0.50000000  0.00000000  0.50000000  1
  O  O4  1  0.00000000  0.50000000  0.00000000  1
  O  O5  1  0.78916000  0.21084000  0.50000000  1
  O  O6  1  0.78916000  0.57832000  0.50000000  1
  O  O7  1  0.42168000  0.21084000  0.50000000  1
  O  O8  1  0.50000000  0.50000000  0.00000000  1
  O  O9  1  0.57832000  0.78916000  0.50000000  1
  O  O10  1  0.50000000  0.00000000  0.00000000  1
  O  O11  1  0.21084000  0.42168000  0.50000000  1
  O  O12  1  0.21084000  0.78916000  0.50000000  1
