# generated using pymatgen
data_Te2(PO4)3
_symmetry_space_group_name_H-M   'P 1'
_cell_length_a   9.32827012
_cell_length_b   9.32827012
_cell_length_c   9.32827027
_cell_angle_alpha   54.83409535
_cell_angle_beta   54.83409535
_cell_angle_gamma   54.83409731
_symmetry_Int_Tables_number   1
_chemical_formula_structural   Te2(PO4)3
_chemical_formula_sum   'Te4 P6 O24'
_cell_volume   504.93420977
_cell_formula_units_Z   2
loop_
 _symmetry_equiv_pos_site_id
 _symmetry_equiv_pos_as_xyz
  1  'x, y, z'
loop_
 _atom_site_type_symbol
 _atom_site_label
 _atom_site_symmetry_multiplicity
 _atom_site_fract_x
 _atom_site_fract_y
 _atom_site_fract_z
 _atom_site_occupancy
  Te  Te0  1  0.14175100  0.14175100  0.14175100  1
  Te  Te1  1  0.85824900  0.85824900  0.85824900  1
  Te  Te2  1  0.34759200  0.34759200  0.34759200  1
  Te  Te3  1  0.65240800  0.65240800  0.65240800  1
  P  P4  1  0.45533500  0.74777700  0.04213000  1
  P  P5  1  0.74777700  0.04213000  0.45533500  1
  P  P6  1  0.04213000  0.45533500  0.74777700  1
  P  P7  1  0.95787000  0.54466500  0.25222300  1
  P  P8  1  0.25222300  0.95787000  0.54466500  1
  P  P9  1  0.54466500  0.25222300  0.95787000  1
  O  O10  1  0.52794000  0.21375800  0.15374400  1
  O  O11  1  0.15374400  0.52794000  0.21375800  1
  O  O12  1  0.21375800  0.15374400  0.52794000  1
  O  O13  1  0.48787300  0.53526100  0.17221300  1
  O  O14  1  0.25301000  0.87436700  0.12973700  1
  O  O15  1  0.60415700  0.78956400  0.02147200  1
  O  O16  1  0.87436700  0.12973700  0.25301000  1
  O  O17  1  0.53526100  0.17221300  0.48787300  1
  O  O18  1  0.17221300  0.48787300  0.53526100  1
  O  O19  1  0.97852800  0.39584300  0.21043600  1
  O  O20  1  0.87026300  0.74699000  0.12563300  1
  O  O21  1  0.21043600  0.97852800  0.39584300  1
  O  O22  1  0.78956400  0.02147200  0.60415700  1
  O  O23  1  0.12973700  0.25301000  0.87436700  1
  O  O24  1  0.02147200  0.60415700  0.78956400  1
  O  O25  1  0.82778700  0.51212700  0.46473900  1
  O  O26  1  0.46473900  0.82778700  0.51212700  1
  O  O27  1  0.12563300  0.87026300  0.74699000  1
  O  O28  1  0.39584300  0.21043600  0.97852800  1
  O  O29  1  0.74699000  0.12563300  0.87026300  1
  O  O30  1  0.51212700  0.46473900  0.82778700  1
  O  O31  1  0.78624200  0.84625600  0.47206000  1
  O  O32  1  0.84625600  0.47206000  0.78624200  1
  O  O33  1  0.47206000  0.78624200  0.84625600  1
