# generated using pymatgen
data_Ba2As6O11
_symmetry_space_group_name_H-M   'P 1'
_cell_length_a   8.61081400
_cell_length_b   9.44988610
_cell_length_c   9.47093113
_cell_angle_alpha   73.57436510
_cell_angle_beta   72.44215903
_cell_angle_gamma   75.63960906
_symmetry_Int_Tables_number   1
_chemical_formula_structural   Ba2As6O11
_chemical_formula_sum   'Ba4 As12 O22'
_cell_volume   693.52506778
_cell_formula_units_Z   2
loop_
 _symmetry_equiv_pos_site_id
 _symmetry_equiv_pos_as_xyz
  1  'x, y, z'
loop_
 _atom_site_type_symbol
 _atom_site_label
 _atom_site_symmetry_multiplicity
 _atom_site_fract_x
 _atom_site_fract_y
 _atom_site_fract_z
 _atom_site_occupancy
  Ba  Ba0  1  0.97730200  0.55941700  0.72166400  1
  Ba  Ba1  1  0.54002700  0.41554300  0.77398300  1
  Ba  Ba2  1  0.45997300  0.58445700  0.22601700  1
  Ba  Ba3  1  0.02269800  0.44058300  0.27833600  1
  As  As4  1  0.61789700  0.91127000  0.80337400  1
  As  As5  1  0.90136700  0.11860200  0.69442800  1
  As  As6  1  0.20140300  0.72850600  0.94192600  1
  As  As7  1  0.69801800  0.74184000  0.43620900  1
  As  As8  1  0.18327600  0.18204200  0.92888300  1
  As  As9  1  0.29866200  0.82234400  0.56771700  1
  As  As10  1  0.70133800  0.17765600  0.43228300  1
  As  As11  1  0.81672400  0.81795800  0.07111700  1
  As  As12  1  0.30198200  0.25816000  0.56379100  1
  As  As13  1  0.79859700  0.27149400  0.05807400  1
  As  As14  1  0.09863300  0.88139800  0.30557200  1
  As  As15  1  0.38210300  0.08873000  0.19662600  1
  O  O16  1  0.98597500  0.67992300  0.98839600  1
  O  O17  1  0.65779200  0.79799600  0.99297600  1
  O  O18  1  0.78373100  0.83170400  0.67915800  1
  O  O19  1  0.69082700  0.44308100  0.98435000  1
  O  O20  1  0.88794300  0.27252400  0.76517500  1
  O  O21  1  0.78579700  0.57275200  0.53255800  1
  O  O22  1  0.68757700  0.08510300  0.79848200  1
  O  O23  1  0.83917800  0.22972500  0.51258100  1
  O  O24  1  0.25073600  0.68344800  0.74444200  1
  O  O25  1  0.48358400  0.69433600  0.48951500  1
  O  O26  1  0.74301100  0.68370900  0.24733800  1
  O  O27  1  0.25698900  0.31629100  0.75266200  1
  O  O28  1  0.51641600  0.30566400  0.51048500  1
  O  O29  1  0.74926400  0.31655200  0.25555800  1
  O  O30  1  0.16082200  0.77027500  0.48741900  1
  O  O31  1  0.31242300  0.91489700  0.20151800  1
  O  O32  1  0.21420300  0.42724800  0.46744200  1
  O  O33  1  0.11205700  0.72747600  0.23482500  1
  O  O34  1  0.30917300  0.55691900  0.01565000  1
  O  O35  1  0.21626900  0.16829600  0.32084200  1
  O  O36  1  0.34220800  0.20200400  0.00702400  1
  O  O37  1  0.01402500  0.32007700  0.01160400  1
