# generated using pymatgen
data_Na2FeAsCO7
_symmetry_space_group_name_H-M   'P 1'
_cell_length_a   5.38045504
_cell_length_b   11.40217093
_cell_length_c   11.39622375
_cell_angle_alpha   106.78190676
_cell_angle_beta   91.46277369
_cell_angle_gamma   88.55293788
_symmetry_Int_Tables_number   1
_chemical_formula_structural   Na2FeAsCO7
_chemical_formula_sum   'Na8 Fe4 As4 C4 O28'
_cell_volume   669.03438301
_cell_formula_units_Z   4
loop_
 _symmetry_equiv_pos_site_id
 _symmetry_equiv_pos_as_xyz
  1  'x, y, z'
loop_
 _atom_site_type_symbol
 _atom_site_label
 _atom_site_symmetry_multiplicity
 _atom_site_fract_x
 _atom_site_fract_y
 _atom_site_fract_z
 _atom_site_occupancy
  Na  Na0  1  0.23357300  0.35908800  0.14340700  1
  Na  Na1  1  0.23356600  0.85907900  0.64341100  1
  Na  Na2  1  0.23395200  0.60677400  0.39096000  1
  Na  Na3  1  0.23393200  0.10678600  0.89096200  1
  Na  Na4  1  0.76640500  0.64091700  0.85660700  1
  Na  Na5  1  0.76644800  0.14091300  0.35658800  1
  Na  Na6  1  0.76604400  0.39321100  0.60902900  1
  Na  Na7  1  0.76606600  0.89322100  0.10905300  1
  Fe  Fe8  1  0.78778000  0.05070700  0.69958700  1
  Fe  Fe9  1  0.21230500  0.94930000  0.30043200  1
  Fe  Fe10  1  0.78773600  0.55071400  0.19953900  1
  Fe  Fe11  1  0.21217800  0.44930800  0.80042000  1
  As  As12  1  0.71577000  0.33820700  0.91205600  1
  As  As13  1  0.71582500  0.83821200  0.41205900  1
  As  As14  1  0.28418600  0.66179100  0.08794300  1
  As  As15  1  0.28420200  0.16179000  0.58794700  1
  C  C16  1  0.72681700  0.41421000  0.33586700  1
  C  C17  1  0.72681200  0.91421300  0.83586900  1
  C  C18  1  0.27320200  0.58579000  0.66413200  1
  C  C19  1  0.27317600  0.08578300  0.16413300  1
  O  O20  1  0.30920600  0.15353000  0.09661600  1
  O  O21  1  0.30920600  0.65352300  0.59663000  1
  O  O22  1  0.69079900  0.84646900  0.90338800  1
  O  O23  1  0.69078800  0.34647600  0.40336600  1
  O  O24  1  0.94791100  0.44273000  0.30762500  1
  O  O25  1  0.94790900  0.94272500  0.80763100  1
  O  O26  1  0.05207700  0.55727300  0.69237300  1
  O  O27  1  0.05210300  0.05726600  0.19237100  1
  O  O28  1  0.54280400  0.46411100  0.28593600  1
  O  O29  1  0.54280000  0.96410000  0.78594700  1
  O  O30  1  0.45719400  0.53589200  0.71406000  1
  O  O31  1  0.45721100  0.03589600  0.21405300  1
  O  O32  1  0.14949600  0.57777000  0.17238500  1
  O  O33  1  0.14947500  0.07776900  0.67238600  1
  O  O34  1  0.85050200  0.42222900  0.82761400  1
  O  O35  1  0.85053600  0.92223200  0.32761600  1
  O  O36  1  0.39463800  0.35293700  0.89749000  1
  O  O37  1  0.39466200  0.85292500  0.39749200  1
  O  O38  1  0.60534700  0.64707600  0.10249000  1
  O  O39  1  0.60534300  0.14706800  0.60251800  1
  O  O40  1  0.80245200  0.18700000  0.86048900  1
  O  O41  1  0.80246300  0.68699900  0.36047400  1
  O  O42  1  0.80340400  0.38949900  0.06316700  1
  O  O43  1  0.80339400  0.88949200  0.56317400  1
  O  O44  1  0.19659900  0.61050500  0.93683600  1
  O  O45  1  0.19661100  0.11050400  0.43683100  1
  O  O46  1  0.19757000  0.81299400  0.13951700  1
  O  O47  1  0.19752500  0.31299600  0.63951900  1
