# generated using pymatgen
data_Rb3SbO3
_symmetry_space_group_name_H-M   'P 1'
_cell_length_a   8.86215300
_cell_length_b   8.86215300
_cell_length_c   8.86215300
_cell_angle_alpha   90.00000000
_cell_angle_beta   90.00000000
_cell_angle_gamma   90.00000000
_symmetry_Int_Tables_number   1
_chemical_formula_structural   Rb3SbO3
_chemical_formula_sum   'Rb12 Sb4 O12'
_cell_volume   696.01360814
_cell_formula_units_Z   4
loop_
 _symmetry_equiv_pos_site_id
 _symmetry_equiv_pos_as_xyz
  1  'x, y, z'
loop_
 _atom_site_type_symbol
 _atom_site_label
 _atom_site_symmetry_multiplicity
 _atom_site_fract_x
 _atom_site_fract_y
 _atom_site_fract_z
 _atom_site_occupancy
  Rb  Rb0  1  0.02488400  0.02488400  0.02488400  1
  Rb  Rb1  1  0.21230900  0.28769100  0.71230900  1
  Rb  Rb2  1  0.21805200  0.71805200  0.78194800  1
  Rb  Rb3  1  0.28194800  0.28194800  0.28194800  1
  Rb  Rb4  1  0.28769100  0.71230900  0.21230900  1
  Rb  Rb5  1  0.47511600  0.97511600  0.52488400  1
  Rb  Rb6  1  0.52488400  0.47511600  0.97511600  1
  Rb  Rb7  1  0.71230900  0.21230900  0.28769100  1
  Rb  Rb8  1  0.71805200  0.78194800  0.21805200  1
  Rb  Rb9  1  0.78194800  0.21805200  0.71805200  1
  Rb  Rb10  1  0.78769100  0.78769100  0.78769100  1
  Rb  Rb11  1  0.97511600  0.52488400  0.47511600  1
  Sb  Sb12  1  0.01043200  0.98956800  0.48956800  1
  Sb  Sb13  1  0.48956800  0.01043200  0.98956800  1
  Sb  Sb14  1  0.51043200  0.51043200  0.51043200  1
  Sb  Sb15  1  0.98956800  0.48956800  0.01043200  1
  O  O16  1  0.00459000  0.20654600  0.44300300  1
  O  O17  1  0.05699700  0.99541000  0.70654600  1
  O  O18  1  0.20654600  0.44300300  0.00459000  1
  O  O19  1  0.29345400  0.55699700  0.50459000  1
  O  O20  1  0.44300300  0.00459000  0.20654600  1
  O  O21  1  0.49541000  0.79345400  0.94300300  1
  O  O22  1  0.50459000  0.29345400  0.55699700  1
  O  O23  1  0.55699700  0.50459000  0.29345400  1
  O  O24  1  0.70654600  0.05699700  0.99541000  1
  O  O25  1  0.79345400  0.94300300  0.49541000  1
  O  O26  1  0.94300300  0.49541000  0.79345400  1
  O  O27  1  0.99541000  0.70654600  0.05699700  1
