# generated using pymatgen
data_Li2Ti3MnO8
_symmetry_space_group_name_H-M   'P 1'
_cell_length_a   8.52664100
_cell_length_b   8.52664100
_cell_length_c   8.52664100
_cell_angle_alpha   90.00000000
_cell_angle_beta   90.00000000
_cell_angle_gamma   90.00000000
_symmetry_Int_Tables_number   1
_chemical_formula_structural   Li2Ti3MnO8
_chemical_formula_sum   'Li8 Ti12 Mn4 O32'
_cell_volume   619.91755410
_cell_formula_units_Z   4
loop_
 _symmetry_equiv_pos_site_id
 _symmetry_equiv_pos_as_xyz
  1  'x, y, z'
loop_
 _atom_site_type_symbol
 _atom_site_label
 _atom_site_symmetry_multiplicity
 _atom_site_fract_x
 _atom_site_fract_y
 _atom_site_fract_z
 _atom_site_occupancy
  Li  Li0  1  0.62632000  0.37368000  0.87368000  1
  Li  Li1  1  0.74726300  0.24726300  0.25273700  1
  Li  Li2  1  0.75273700  0.75273700  0.75273700  1
  Li  Li3  1  0.87368000  0.62632000  0.37368000  1
  Li  Li4  1  0.12632000  0.12632000  0.12632000  1
  Li  Li5  1  0.24726300  0.25273700  0.74726300  1
  Li  Li6  1  0.25273700  0.74726300  0.24726300  1
  Li  Li7  1  0.37368000  0.87368000  0.62632000  1
  Ti  Ti8  1  0.61704400  0.12216600  0.62853800  1
  Ti  Ti9  1  0.62216600  0.87146200  0.38295600  1
  Ti  Ti10  1  0.62853800  0.61704400  0.12216600  1
  Ti  Ti11  1  0.87146200  0.38295600  0.62216600  1
  Ti  Ti12  1  0.87783400  0.12853800  0.88295600  1
  Ti  Ti13  1  0.88295600  0.87783400  0.12853800  1
  Ti  Ti14  1  0.11704400  0.37783400  0.37146200  1
  Ti  Ti15  1  0.12216600  0.62853800  0.61704400  1
  Ti  Ti16  1  0.12853800  0.88295600  0.87783400  1
  Ti  Ti17  1  0.37146200  0.11704400  0.37783400  1
  Ti  Ti18  1  0.37783400  0.37146200  0.11704400  1
  Ti  Ti19  1  0.38295600  0.62216600  0.87146200  1
  Mn  Mn20  1  0.50143500  0.99856500  0.00143500  1
  Mn  Mn21  1  0.99856500  0.00143500  0.50143500  1
  Mn  Mn22  1  0.00143500  0.50143500  0.99856500  1
  Mn  Mn23  1  0.49856500  0.49856500  0.49856500  1
  O  O24  1  0.60342700  0.62876800  0.89249500  1
  O  O25  1  0.60750500  0.39657300  0.12876800  1
  O  O26  1  0.61134600  0.11134600  0.38865400  1
  O  O27  1  0.62876800  0.89249500  0.60342700  1
  O  O28  1  0.62365500  0.64714900  0.35749900  1
  O  O29  1  0.63942900  0.86057100  0.13942900  1
  O  O30  1  0.64250100  0.12365500  0.85285100  1
  O  O31  1  0.64714900  0.35749900  0.62365500  1
  O  O32  1  0.85285100  0.64250100  0.12365500  1
  O  O33  1  0.85749900  0.87634500  0.35285100  1
  O  O34  1  0.86057100  0.13942900  0.63942900  1
  O  O35  1  0.87634500  0.35285100  0.85749900  1
  O  O36  1  0.87123200  0.10750500  0.10342700  1
  O  O37  1  0.88865400  0.88865400  0.88865400  1
  O  O38  1  0.89249500  0.60342700  0.62876800  1
  O  O39  1  0.89657300  0.37123200  0.39249500  1
  O  O40  1  0.10342700  0.87123200  0.10750500  1
  O  O41  1  0.10750500  0.10342700  0.87123200  1
  O  O42  1  0.11134600  0.38865400  0.61134600  1
  O  O43  1  0.12876800  0.60750500  0.39657300  1
  O  O44  1  0.12365500  0.85285100  0.64250100  1
  O  O45  1  0.13942900  0.63942900  0.86057100  1
  O  O46  1  0.14250100  0.37634500  0.14714900  1
  O  O47  1  0.14714900  0.14250100  0.37634500  1
  O  O48  1  0.35285100  0.85749900  0.87634500  1
  O  O49  1  0.35749900  0.62365500  0.64714900  1
  O  O50  1  0.36057100  0.36057100  0.36057100  1
  O  O51  1  0.37634500  0.14714900  0.14250100  1
  O  O52  1  0.37123200  0.39249500  0.89657300  1
  O  O53  1  0.38865400  0.61134600  0.11134600  1
  O  O54  1  0.39249500  0.89657300  0.37123200  1
  O  O55  1  0.39657300  0.12876800  0.60750500  1
