# generated using pymatgen
data_Co21Cu3O32
_symmetry_space_group_name_H-M   'P 1'
_cell_length_a   5.76117937
_cell_length_b   5.76117937
_cell_length_c   19.08696504
_cell_angle_alpha   98.68019772
_cell_angle_beta   90.00000000
_cell_angle_gamma   120.00000000
_symmetry_Int_Tables_number   1
_chemical_formula_structural   Co21Cu3O32
_chemical_formula_sum   'Co21 Cu3 O32'
_cell_volume   540.24853167
_cell_formula_units_Z   1
loop_
 _symmetry_equiv_pos_site_id
 _symmetry_equiv_pos_as_xyz
  1  'x, y, z'
loop_
 _atom_site_type_symbol
 _atom_site_label
 _atom_site_symmetry_multiplicity
 _atom_site_fract_x
 _atom_site_fract_y
 _atom_site_fract_z
 _atom_site_occupancy
  Co  Co0  1  0.21885500  0.93760900  0.15646400  1
  Co  Co1  1  0.34374900  0.68749700  0.03124600  1
  Co  Co2  1  0.71875400  0.93760900  0.15646400  1
  Co  Co3  1  0.21885500  0.43771000  0.15646400  1
  Co  Co4  1  0.43778800  0.87557700  0.31336500  1
  Co  Co5  1  0.09377100  0.18754300  0.28131400  1
  Co  Co6  1  0.74968100  0.49936200  0.24904300  1
  Co  Co7  1  0.96860100  0.93720400  0.40607400  1
  Co  Co8  1  0.46887000  0.43747200  0.40607400  1
  Co  Co9  1  0.21861100  0.93743500  0.65625900  1
  Co  Co10  1  0.18735000  0.37470200  0.56205200  1
  Co  Co11  1  0.84370600  0.68741100  0.53111700  1
  Co  Co12  1  0.96860100  0.43747200  0.40607400  1
  Co  Co13  1  0.71882400  0.93743500  0.65625900  1
  Co  Co14  1  0.24999000  0.49998000  0.74997000  1
  Co  Co15  1  0.46881300  0.93762500  0.90618900  1
  Co  Co16  1  0.71882400  0.43764800  0.65625900  1
  Co  Co17  1  0.93768900  0.87537800  0.81306700  1
  Co  Co18  1  0.46881300  0.43737600  0.90618900  1
  Co  Co19  1  0.59369900  0.18739600  0.78109500  1
  Co  Co20  1  0.96856400  0.43737600  0.90618900  1
  Cu  Cu21  1  0.00024500  0.00049000  0.00073500  1
  Cu  Cu22  1  0.68742900  0.37485800  0.06228700  1
  Cu  Cu23  1  0.50005000  0.00009900  0.50014800  1
  O  O24  1  0.07031100  0.58394500  0.09757800  1
  O  O25  1  0.51363400  0.58394500  0.09757800  1
  O  O26  1  0.40313000  0.80625900  0.20938900  1
  O  O27  1  0.03497300  0.06994800  0.10492100  1
  O  O28  1  0.11730200  0.79109200  0.46488300  1
  O  O29  1  0.92318300  0.84636700  0.21574500  1
  O  O30  1  0.36937700  0.29256000  0.21574500  1
  O  O31  1  0.26438000  0.52876100  0.34695100  1
  O  O32  1  0.51363400  0.02726700  0.09757800  1
  O  O33  1  0.26438000  0.08257100  0.34695100  1
  O  O34  1  0.01462900  0.58249500  0.59712400  1
  O  O35  1  0.15280800  0.30561600  0.45842400  1
  O  O36  1  0.92318300  0.29256000  0.21574500  1
  O  O37  1  0.67379000  0.79109200  0.46488300  1
  O  O38  1  0.78437300  0.56874400  0.35311700  1
  O  O39  1  0.67379000  0.34758100  0.46488300  1
  O  O40  1  0.42288200  0.84576300  0.71552600  1
  O  O41  1  0.81819000  0.08257100  0.34695100  1
  O  O42  1  0.01462900  0.02925900  0.59712400  1
  O  O43  1  0.56786600  0.58249500  0.59712400  1
  O  O44  1  0.90299600  0.80599200  0.70898800  1
  O  O45  1  0.53488300  0.06976700  0.60465000  1
  O  O46  1  0.28451300  0.56902600  0.85353900  1
  O  O47  1  0.42288200  0.29264500  0.71552600  1
  O  O48  1  0.17375200  0.79125100  0.96500300  1
  O  O49  1  0.86976300  0.29264500  0.71552600  1
  O  O50  1  0.61749900  0.79125100  0.96500300  1
  O  O51  1  0.17375200  0.34750400  0.96500300  1
  O  O52  1  0.76432000  0.52864200  0.84677000  1
  O  O53  1  0.31812900  0.08244900  0.84677000  1
  O  O54  1  0.65261200  0.30522300  0.95783500  1
  O  O55  1  0.76432000  0.08244900  0.84677000  1
