# generated using pymatgen
data_Na3B3H2O7
_symmetry_space_group_name_H-M   'P 1'
_cell_length_a   7.25468900
_cell_length_b   8.94730200
_cell_length_c   9.70908500
_cell_angle_alpha   90.00000000
_cell_angle_beta   90.00000000
_cell_angle_gamma   90.00000000
_symmetry_Int_Tables_number   1
_chemical_formula_structural   Na3B3H2O7
_chemical_formula_sum   'Na12 B12 H8 O28'
_cell_volume   630.21567235
_cell_formula_units_Z   4
loop_
 _symmetry_equiv_pos_site_id
 _symmetry_equiv_pos_as_xyz
  1  'x, y, z'
loop_
 _atom_site_type_symbol
 _atom_site_label
 _atom_site_symmetry_multiplicity
 _atom_site_fract_x
 _atom_site_fract_y
 _atom_site_fract_z
 _atom_site_occupancy
  Na  Na0  1  0.50231400  0.77136100  0.19724900  1
  Na  Na1  1  0.99768600  0.27136100  0.30275100  1
  Na  Na2  1  0.00231400  0.22863900  0.80275100  1
  Na  Na3  1  0.49768600  0.72863900  0.69724900  1
  Na  Na4  1  0.49768600  0.22863900  0.80275100  1
  Na  Na5  1  0.00231400  0.72863900  0.69724900  1
  Na  Na6  1  0.99768600  0.77136100  0.19724900  1
  Na  Na7  1  0.50231400  0.27136100  0.30275100  1
  Na  Na8  1  0.75000000  0.03605300  0.17004700  1
  Na  Na9  1  0.75000000  0.53605300  0.32995300  1
  Na  Na10  1  0.25000000  0.96394700  0.82995300  1
  Na  Na11  1  0.25000000  0.46394700  0.67004700  1
  B  B12  1  0.25000000  0.01451400  0.28647800  1
  B  B13  1  0.25000000  0.51451400  0.21352200  1
  B  B14  1  0.75000000  0.98548600  0.71352200  1
  B  B15  1  0.75000000  0.48548600  0.78647800  1
  B  B16  1  0.25000000  0.09559600  0.54176700  1
  B  B17  1  0.25000000  0.59559600  0.95823300  1
  B  B18  1  0.75000000  0.90440400  0.45823300  1
  B  B19  1  0.75000000  0.40440400  0.04176700  1
  B  B20  1  0.25000000  0.82382000  0.48106000  1
  B  B21  1  0.25000000  0.32382000  0.01894000  1
  B  B22  1  0.75000000  0.17618000  0.51894000  1
  B  B23  1  0.75000000  0.67618000  0.98106000  1
  H  H24  1  0.37560100  0.08456700  0.11074100  1
  H  H25  1  0.12439900  0.58456700  0.38925900  1
  H  H26  1  0.87560100  0.91543300  0.88925900  1
  H  H27  1  0.62439900  0.41543300  0.61074100  1
  H  H28  1  0.62439900  0.91543300  0.88925900  1
  H  H29  1  0.87560100  0.41543300  0.61074100  1
  H  H30  1  0.12439900  0.08456700  0.11074100  1
  H  H31  1  0.37560100  0.58456700  0.38925900  1
  O  O32  1  0.41685200  0.03415700  0.19706600  1
  O  O33  1  0.08314800  0.53415700  0.30293400  1
  O  O34  1  0.91685200  0.96584300  0.80293400  1
  O  O35  1  0.58314800  0.46584300  0.69706600  1
  O  O36  1  0.58314800  0.96584300  0.80293400  1
  O  O37  1  0.91685200  0.46584300  0.69706600  1
  O  O38  1  0.08314800  0.03415700  0.19706600  1
  O  O39  1  0.41685200  0.53415700  0.30293400  1
  O  O40  1  0.25000000  0.86180600  0.34259000  1
  O  O41  1  0.25000000  0.36180600  0.15741000  1
  O  O42  1  0.75000000  0.13819400  0.65741000  1
  O  O43  1  0.75000000  0.63819400  0.84259000  1
  O  O44  1  0.25000000  0.12632100  0.39992900  1
  O  O45  1  0.25000000  0.62632100  0.10007100  1
  O  O46  1  0.75000000  0.87367900  0.60007100  1
  O  O47  1  0.75000000  0.37367900  0.89992900  1
  O  O48  1  0.25000000  0.19995600  0.63892600  1
  O  O49  1  0.25000000  0.69995600  0.86107400  1
  O  O50  1  0.75000000  0.80004400  0.36107400  1
  O  O51  1  0.75000000  0.30004400  0.13892600  1
  O  O52  1  0.25000000  0.93971100  0.57990900  1
  O  O53  1  0.25000000  0.43971100  0.92009100  1
  O  O54  1  0.75000000  0.06028900  0.42009100  1
  O  O55  1  0.75000000  0.56028900  0.07990900  1
  O  O56  1  0.25000000  0.67996000  0.52341000  1
  O  O57  1  0.25000000  0.17996000  0.97659000  1
  O  O58  1  0.75000000  0.32004000  0.47659000  1
  O  O59  1  0.75000000  0.82004000  0.02341000  1
