# generated using pymatgen
data_Li2FeP2HO8
_symmetry_space_group_name_H-M   'P 1'
_cell_length_a   7.94168691
_cell_length_b   8.11439900
_cell_length_c   9.73845265
_cell_angle_alpha   89.99953745
_cell_angle_beta   112.12863461
_cell_angle_gamma   90.00058629
_symmetry_Int_Tables_number   1
_chemical_formula_structural   Li2FeP2HO8
_chemical_formula_sum   'Li8 Fe4 P8 H4 O32'
_cell_volume   581.33935561
_cell_formula_units_Z   4
loop_
 _symmetry_equiv_pos_site_id
 _symmetry_equiv_pos_as_xyz
  1  'x, y, z'
loop_
 _atom_site_type_symbol
 _atom_site_label
 _atom_site_symmetry_multiplicity
 _atom_site_fract_x
 _atom_site_fract_y
 _atom_site_fract_z
 _atom_site_occupancy
  Li  Li0  1  0.65713400  0.36655200  0.76989600  1
  Li  Li1  1  0.65713800  0.36655800  0.26990200  1
  Li  Li2  1  0.84287000  0.86654500  0.73010100  1
  Li  Li3  1  0.84285500  0.86656300  0.23011500  1
  Li  Li4  1  0.15893900  0.13453400  0.27729200  1
  Li  Li5  1  0.15896400  0.13451700  0.77728600  1
  Li  Li6  1  0.34106200  0.63453200  0.22272900  1
  Li  Li7  1  0.34104500  0.63452300  0.72271400  1
  Fe  Fe8  1  0.49537800  0.00004800  0.24713600  1
  Fe  Fe9  1  0.00455100  0.50002000  0.25282100  1
  Fe  Fe10  1  0.49541900  0.99996000  0.74715000  1
  Fe  Fe11  1  0.00461000  0.49997800  0.75284900  1
  P  P12  1  0.26868400  0.34834700  0.56874500  1
  P  P13  1  0.26866200  0.34840100  0.06875300  1
  P  P14  1  0.23132800  0.84837600  0.43125700  1
  P  P15  1  0.23132100  0.84835200  0.93124600  1
  P  P16  1  0.76237600  0.15534200  0.56533100  1
  P  P17  1  0.76233200  0.15535700  0.06525400  1
  P  P18  1  0.73765600  0.65537300  0.43474200  1
  P  P19  1  0.73763800  0.65535300  0.93467200  1
  H  H20  1  0.51277900  0.51130200  0.49038100  1
  H  H21  1  0.51278400  0.51131300  0.99037700  1
  H  H22  1  0.98721900  0.01131100  0.50963000  1
  H  H23  1  0.98721500  0.01130500  0.00963000  1
  O  O24  1  0.83952700  0.54528000  0.86225700  1
  O  O25  1  0.83952500  0.54527700  0.36225200  1
  O  O26  1  0.66048500  0.04528500  0.63773800  1
  O  O27  1  0.66046500  0.04526800  0.13774900  1
  O  O28  1  0.31220500  0.17896000  0.64867200  1
  O  O29  1  0.31214200  0.17908500  0.14876600  1
  O  O30  1  0.18784100  0.67906600  0.35126000  1
  O  O31  1  0.18786000  0.67903300  0.85130400  1
  O  O32  1  0.34779500  0.82499700  0.59857600  1
  O  O33  1  0.34781600  0.82499400  0.09860400  1
  O  O34  1  0.15217300  0.32499400  0.40139300  1
  O  O35  1  0.15220500  0.32499700  0.90142300  1
  O  O36  1  0.44823000  0.44145800  0.59600800  1
  O  O37  1  0.44823000  0.44146100  0.09602000  1
  O  O38  1  0.05176700  0.94146100  0.40397900  1
  O  O39  1  0.05177600  0.94145300  0.90398500  1
  O  O40  1  0.81443800  0.32096400  0.64764800  1
  O  O41  1  0.81441600  0.32098600  0.14765400  1
  O  O42  1  0.68555600  0.82098400  0.35234000  1
  O  O43  1  0.68558000  0.82096000  0.85235800  1
  O  O44  1  0.84702900  0.67646000  0.60182400  1
  O  O45  1  0.84703800  0.67647800  0.10188100  1
  O  O46  1  0.65296800  0.17646900  0.39811700  1
  O  O47  1  0.65297100  0.17645700  0.89817100  1
  O  O48  1  0.94749600  0.06038400  0.59464200  1
  O  O49  1  0.94747600  0.06039000  0.09463900  1
  O  O50  1  0.55252100  0.56039000  0.40536700  1
  O  O51  1  0.55250900  0.56038700  0.90536200  1
  O  O52  1  0.34083500  0.95520500  0.36130000  1
  O  O53  1  0.34081600  0.95517300  0.86130800  1
  O  O54  1  0.15915500  0.45522000  0.13869500  1
  O  O55  1  0.15919700  0.45516600  0.63869900  1
