# generated using pymatgen
data_Cs2BeO2
_symmetry_space_group_name_H-M   'P 1'
_cell_length_a   6.29741300
_cell_length_b   7.98043400
_cell_length_c   11.89250499
_cell_angle_alpha   47.98136561
_cell_angle_beta   90.00000000
_cell_angle_gamma   90.00000000
_symmetry_Int_Tables_number   1
_chemical_formula_structural   Cs2BeO2
_chemical_formula_sum   'Cs8 Be4 O8'
_cell_volume   444.02586256
_cell_formula_units_Z   4
loop_
 _symmetry_equiv_pos_site_id
 _symmetry_equiv_pos_as_xyz
  1  'x, y, z'
loop_
 _atom_site_type_symbol
 _atom_site_label
 _atom_site_symmetry_multiplicity
 _atom_site_fract_x
 _atom_site_fract_y
 _atom_site_fract_z
 _atom_site_occupancy
  Cs  Cs0  1  0.93194000  0.14640700  0.74649600  1
  Cs  Cs1  1  0.63922500  0.72228600  0.12178700  1
  Cs  Cs2  1  0.13922500  0.27771400  0.37821300  1
  Cs  Cs3  1  0.43194000  0.85359300  0.75350400  1
  Cs  Cs4  1  0.56806000  0.14640700  0.24649600  1
  Cs  Cs5  1  0.86077500  0.72228600  0.62178700  1
  Cs  Cs6  1  0.36077500  0.27771400  0.87821300  1
  Cs  Cs7  1  0.06806000  0.85359300  0.25350400  1
  Be  Be8  1  0.57435700  0.40618400  0.47926800  1
  Be  Be9  1  0.07435700  0.59381600  0.02073200  1
  Be  Be10  1  0.92564300  0.40618400  0.97926800  1
  Be  Be11  1  0.42564300  0.59381600  0.52073200  1
  O  O12  1  0.37914100  0.34142700  0.59010400  1
  O  O13  1  0.17757400  0.72976100  0.05277900  1
  O  O14  1  0.67757400  0.27023900  0.44722100  1
  O  O15  1  0.87914100  0.65857300  0.90989600  1
  O  O16  1  0.12085900  0.34142700  0.09010400  1
  O  O17  1  0.32242600  0.72976100  0.55277900  1
  O  O18  1  0.82242600  0.27023900  0.94722100  1
  O  O19  1  0.62085900  0.65857300  0.40989600  1
