# generated using pymatgen
data_V2CoO6
_symmetry_space_group_name_H-M   'P 1'
_cell_length_a   5.88740565
_cell_length_b   6.82077868
_cell_length_c   6.82143794
_cell_angle_alpha   96.50678346
_cell_angle_beta   74.33752988
_cell_angle_gamma   105.67055924
_symmetry_Int_Tables_number   1
_chemical_formula_structural   V2CoO6
_chemical_formula_sum   'V4 Co2 O12'
_cell_volume   253.71030385
_cell_formula_units_Z   2
loop_
 _symmetry_equiv_pos_site_id
 _symmetry_equiv_pos_as_xyz
  1  'x, y, z'
loop_
 _atom_site_type_symbol
 _atom_site_label
 _atom_site_symmetry_multiplicity
 _atom_site_fract_x
 _atom_site_fract_y
 _atom_site_fract_z
 _atom_site_occupancy
  V  V0  1  0.75525500  0.20531200  0.61317300  1
  V  V1  1  0.25553700  0.38689100  0.79427900  1
  V  V2  1  0.74475100  0.61310100  0.20529600  1
  V  V3  1  0.24449600  0.79433400  0.38682800  1
  Co  Co4  1  0.24993200  0.91393600  0.91388300  1
  Co  Co5  1  0.75002400  0.08612500  0.08619500  1
  O  O6  1  0.63519100  0.03646900  0.80693300  1
  O  O7  1  0.13536100  0.19319000  0.96310300  1
  O  O8  1  0.86478500  0.80710800  0.03668300  1
  O  O9  1  0.36462400  0.96338500  0.19338400  1
  O  O10  1  0.77414600  0.08760800  0.38144800  1
  O  O11  1  0.72600000  0.38139300  0.08752700  1
  O  O12  1  0.27358400  0.61806500  0.91292100  1
  O  O13  1  0.22630300  0.91266700  0.61812900  1
  O  O14  1  0.55447000  0.37071800  0.64964500  1
  O  O15  1  0.05373300  0.35049100  0.62971400  1
  O  O16  1  0.94555600  0.64955100  0.37062900  1
  O  O17  1  0.44625000  0.62965600  0.35023000  1
