# generated using pymatgen
data_K2TiSi3(HO5)2
_symmetry_space_group_name_H-M   'P 1'
_cell_length_a   7.23061800
_cell_length_b   10.03477100
_cell_length_c   13.13013800
_cell_angle_alpha   90.00000000
_cell_angle_beta   90.00000000
_cell_angle_gamma   90.00000000
_symmetry_Int_Tables_number   1
_chemical_formula_structural   K2TiSi3(HO5)2
_chemical_formula_sum   'K8 Ti4 Si12 H8 O40'
_cell_volume   952.69124604
_cell_formula_units_Z   4
loop_
 _symmetry_equiv_pos_site_id
 _symmetry_equiv_pos_as_xyz
  1  'x, y, z'
loop_
 _atom_site_type_symbol
 _atom_site_label
 _atom_site_symmetry_multiplicity
 _atom_site_fract_x
 _atom_site_fract_y
 _atom_site_fract_z
 _atom_site_occupancy
  K  K0  1  0.14808100  0.79070600  0.63516500  1
  K  K1  1  0.20568900  0.93538900  0.92158500  1
  K  K2  1  0.29431100  0.06461100  0.42158500  1
  K  K3  1  0.35191900  0.20929400  0.13516500  1
  K  K4  1  0.64808100  0.70929400  0.36483500  1
  K  K5  1  0.70568900  0.56461100  0.07841500  1
  K  K6  1  0.79431100  0.43538900  0.57841500  1
  K  K7  1  0.85191900  0.29070600  0.86483500  1
  Ti  Ti8  1  0.24074200  0.45293400  0.71011300  1
  Ti  Ti9  1  0.25925800  0.54706600  0.21011300  1
  Ti  Ti10  1  0.74074200  0.04706600  0.28988700  1
  Ti  Ti11  1  0.75925800  0.95293400  0.78988700  1
  Si  Si12  1  0.00810800  0.82230800  0.17479100  1
  Si  Si13  1  0.08086200  0.14173400  0.66853600  1
  Si  Si14  1  0.23188000  0.53722800  0.95199600  1
  Si  Si15  1  0.26812000  0.46277200  0.45199600  1
  Si  Si16  1  0.41913800  0.85826600  0.16853600  1
  Si  Si17  1  0.49189200  0.17769200  0.67479100  1
  Si  Si18  1  0.50810800  0.67769200  0.82520900  1
  Si  Si19  1  0.58086200  0.35826600  0.33146400  1
  Si  Si20  1  0.73188000  0.96277200  0.04800400  1
  Si  Si21  1  0.76812000  0.03722800  0.54800400  1
  Si  Si22  1  0.91913800  0.64173400  0.83146400  1
  Si  Si23  1  0.99189200  0.32230800  0.32520900  1
  H  H24  1  0.02960200  0.84648700  0.38382800  1
  H  H25  1  0.16630400  0.72784600  0.40639400  1
  H  H26  1  0.33369600  0.27215400  0.90639400  1
  H  H27  1  0.47039800  0.15351300  0.88382800  1
  H  H28  1  0.52960200  0.65351300  0.61617200  1
  H  H29  1  0.66630400  0.77215400  0.59360600  1
  H  H30  1  0.83369600  0.22784600  0.09360600  1
  H  H31  1  0.97039800  0.34648700  0.11617200  1
  O  O32  1  0.01243400  0.55947500  0.73814600  1
  O  O33  1  0.01992600  0.59943800  0.94038500  1
  O  O34  1  0.05183200  0.66482400  0.19107100  1
  O  O35  1  0.07158600  0.30132400  0.68895400  1
  O  O36  1  0.09855600  0.38664400  0.22782100  1
  O  O37  1  0.12353600  0.33766500  0.42730700  1
  O  O38  1  0.12154400  0.81474400  0.43462600  1
  O  O39  1  0.20176400  0.90543500  0.15055000  1
  O  O40  1  0.22751500  0.51169700  0.56719900  1
  O  O41  1  0.24398100  0.57676100  0.36375500  1
  O  O42  1  0.25601900  0.42323900  0.86375500  1
  O  O43  1  0.27248500  0.48830300  0.06719900  1
  O  O44  1  0.29823600  0.09456500  0.65055000  1
  O  O45  1  0.37845600  0.18525600  0.93462600  1
  O  O46  1  0.37646400  0.66233500  0.92730700  1
  O  O47  1  0.40144400  0.61335600  0.72782100  1
  O  O48  1  0.42841400  0.69867600  0.18895400  1
  O  O49  1  0.44816800  0.33517600  0.69107100  1
  O  O50  1  0.48007400  0.40056200  0.44038500  1
  O  O51  1  0.48756600  0.44052500  0.23814600  1
  O  O52  1  0.51243400  0.94052500  0.26185400  1
  O  O53  1  0.51992600  0.90056200  0.05961500  1
  O  O54  1  0.55183200  0.83517600  0.80892900  1
  O  O55  1  0.57158600  0.19867600  0.31104600  1
  O  O56  1  0.59855600  0.11335600  0.77217900  1
  O  O57  1  0.62353600  0.16233500  0.57269300  1
  O  O58  1  0.62154400  0.68525600  0.56537400  1
  O  O59  1  0.70176400  0.59456500  0.84945000  1
  O  O60  1  0.72751500  0.98830300  0.43280100  1
  O  O61  1  0.74398100  0.92323900  0.63624500  1
  O  O62  1  0.75601900  0.07676100  0.13624500  1
  O  O63  1  0.77248500  0.01169700  0.93280100  1
  O  O64  1  0.79823600  0.40543500  0.34945000  1
  O  O65  1  0.87845600  0.31474400  0.06537400  1
  O  O66  1  0.87646400  0.83766500  0.07269300  1
  O  O67  1  0.90144400  0.88664400  0.27217900  1
  O  O68  1  0.92841400  0.80132400  0.81104600  1
  O  O69  1  0.94816800  0.16482400  0.30892900  1
  O  O70  1  0.98007400  0.09943800  0.55961500  1
  O  O71  1  0.98756600  0.05947500  0.76185400  1
