# generated using pymatgen
data_TlCdSb
_symmetry_space_group_name_H-M   'P 1'
_cell_length_a   4.98525400
_cell_length_b   8.52163500
_cell_length_c   8.53761100
_cell_angle_alpha   90.00000000
_cell_angle_beta   90.00000000
_cell_angle_gamma   90.00000000
_symmetry_Int_Tables_number   1
_chemical_formula_structural   TlCdSb
_chemical_formula_sum   'Tl4 Cd4 Sb4'
_cell_volume   362.69918712
_cell_formula_units_Z   4
loop_
 _symmetry_equiv_pos_site_id
 _symmetry_equiv_pos_as_xyz
  1  'x, y, z'
loop_
 _atom_site_type_symbol
 _atom_site_label
 _atom_site_symmetry_multiplicity
 _atom_site_fract_x
 _atom_site_fract_y
 _atom_site_fract_z
 _atom_site_occupancy
  Tl  Tl0  1  0.75000000  0.99491400  0.17776300  1
  Tl  Tl1  1  0.25000000  0.00508600  0.82223700  1
  Tl  Tl2  1  0.75000000  0.49491400  0.32223700  1
  Tl  Tl3  1  0.25000000  0.50508600  0.67776300  1
  Cd  Cd4  1  0.25000000  0.65776500  0.08849500  1
  Cd  Cd5  1  0.75000000  0.84223500  0.58849500  1
  Cd  Cd6  1  0.25000000  0.15776500  0.41150500  1
  Cd  Cd7  1  0.75000000  0.34223500  0.91150500  1
  Sb  Sb8  1  0.75000000  0.70116100  0.90417500  1
  Sb  Sb9  1  0.25000000  0.79883900  0.40417500  1
  Sb  Sb10  1  0.75000000  0.20116100  0.59582500  1
  Sb  Sb11  1  0.25000000  0.29883900  0.09582500  1
