# generated using pymatgen
data_Mn2PO5
_symmetry_space_group_name_H-M   'P 1'
_cell_length_a   6.04392400
_cell_length_b   8.44153100
_cell_length_c   8.49214900
_cell_angle_alpha   90.00000000
_cell_angle_beta   90.00000000
_cell_angle_gamma   90.00000000
_symmetry_Int_Tables_number   1
_chemical_formula_structural   Mn2PO5
_chemical_formula_sum   'Mn8 P4 O20'
_cell_volume   433.26920257
_cell_formula_units_Z   4
loop_
 _symmetry_equiv_pos_site_id
 _symmetry_equiv_pos_as_xyz
  1  'x, y, z'
loop_
 _atom_site_type_symbol
 _atom_site_label
 _atom_site_symmetry_multiplicity
 _atom_site_fract_x
 _atom_site_fract_y
 _atom_site_fract_z
 _atom_site_occupancy
  Mn  Mn0  1  0.75917200  0.00000000  0.00000000  1
  Mn  Mn1  1  0.24082800  0.00000000  0.00000000  1
  Mn  Mn2  1  0.00000000  0.64597800  0.13097000  1
  Mn  Mn3  1  0.50000000  0.14597800  0.36903000  1
  Mn  Mn4  1  0.74082800  0.50000000  0.50000000  1
  Mn  Mn5  1  0.25917200  0.50000000  0.50000000  1
  Mn  Mn6  1  0.50000000  0.85402200  0.63097000  1
  Mn  Mn7  1  0.00000000  0.35402200  0.86903000  1
  P  P8  1  0.00000000  0.26582900  0.24811800  1
  P  P9  1  0.50000000  0.76582900  0.25188200  1
  P  P10  1  0.50000000  0.23417100  0.74811800  1
  P  P11  1  0.00000000  0.73417100  0.75188200  1
  O  O12  1  0.50000000  0.86186600  0.08879500  1
  O  O13  1  0.00000000  0.87637700  0.07965100  1
  O  O14  1  0.00000000  0.39564900  0.11852900  1
  O  O15  1  0.79083500  0.16181600  0.23698700  1
  O  O16  1  0.20916500  0.16181600  0.23698700  1
  O  O17  1  0.70916500  0.66181600  0.26301300  1
  O  O18  1  0.29083500  0.66181600  0.26301300  1
  O  O19  1  0.50000000  0.89564900  0.38147100  1
  O  O20  1  0.50000000  0.37637700  0.42034900  1
  O  O21  1  0.00000000  0.36186600  0.41120500  1
  O  O22  1  0.00000000  0.63813400  0.58879500  1
  O  O23  1  0.50000000  0.62362300  0.57965100  1
  O  O24  1  0.50000000  0.10435100  0.61852900  1
  O  O25  1  0.70916500  0.33818400  0.73698700  1
  O  O26  1  0.29083500  0.33818400  0.73698700  1
  O  O27  1  0.79083500  0.83818400  0.76301300  1
  O  O28  1  0.20916500  0.83818400  0.76301300  1
  O  O29  1  0.00000000  0.60435100  0.88147100  1
  O  O30  1  0.00000000  0.12362300  0.92034900  1
  O  O31  1  0.50000000  0.13813400  0.91120500  1
