# generated using pymatgen
data_K3NiPCO7
_symmetry_space_group_name_H-M   'P 1'
_cell_length_a   5.63411078
_cell_length_b   9.52297842
_cell_length_c   6.89381600
_cell_angle_alpha   90.00090550
_cell_angle_beta   89.99839910
_cell_angle_gamma   89.91370160
_symmetry_Int_Tables_number   1
_chemical_formula_structural   K3NiPCO7
_chemical_formula_sum   'K6 Ni2 P2 C2 O14'
_cell_volume   369.87704263
_cell_formula_units_Z   2
loop_
 _symmetry_equiv_pos_site_id
 _symmetry_equiv_pos_as_xyz
  1  'x, y, z'
loop_
 _atom_site_type_symbol
 _atom_site_label
 _atom_site_symmetry_multiplicity
 _atom_site_fract_x
 _atom_site_fract_y
 _atom_site_fract_z
 _atom_site_occupancy
  K  K0  1  0.75352700  0.06975100  0.25010200  1
  K  K1  1  0.24635800  0.93018400  0.75017700  1
  K  K2  1  0.25437800  0.29574400  0.01087700  1
  K  K3  1  0.25438400  0.29573900  0.48913100  1
  K  K4  1  0.74563300  0.70414900  0.51086800  1
  K  K5  1  0.74565000  0.70413700  0.98907400  1
  Ni  Ni6  1  0.24424300  0.65264800  0.24984900  1
  Ni  Ni7  1  0.75561800  0.34720600  0.74981800  1
  P  P8  1  0.74285000  0.41991800  0.24999200  1
  P  P9  1  0.25706300  0.58013000  0.74999100  1
  C  C10  1  0.74689300  0.08286100  0.75006300  1
  C  C11  1  0.25319200  0.91713300  0.25002100  1
  O  O12  1  0.25612500  0.05217900  0.25020500  1
  O  O13  1  0.74392500  0.94789700  0.75019800  1
  O  O14  1  0.94603200  0.15404000  0.74996900  1
  O  O15  1  0.05409000  0.84600600  0.24991100  1
  O  O16  1  0.55071200  0.15757200  0.74998500  1
  O  O17  1  0.44941000  0.84249700  0.24992700  1
  O  O18  1  0.50228700  0.50080200  0.24994700  1
  O  O19  1  0.49759000  0.49918900  0.74997300  1
  O  O20  1  0.04752900  0.47470100  0.74998600  1
  O  O21  1  0.95238600  0.52530400  0.24995100  1
  O  O22  1  0.75612600  0.32379800  0.06690800  1
  O  O23  1  0.75614500  0.32377000  0.43309300  1
  O  O24  1  0.24394000  0.67630700  0.56695200  1
  O  O25  1  0.24391600  0.67633800  0.93303100  1
