# generated using pymatgen
data_Li2Fe12P7
_symmetry_space_group_name_H-M   'P 1'
_cell_length_a   8.87054807
_cell_length_b   8.87054807
_cell_length_c   3.55244600
_cell_angle_alpha   90.00000000
_cell_angle_beta   90.00000000
_cell_angle_gamma   120.00000056
_symmetry_Int_Tables_number   1
_chemical_formula_structural   Li2Fe12P7
_chemical_formula_sum   'Li2 Fe12 P7'
_cell_volume   242.08006214
_cell_formula_units_Z   1
loop_
 _symmetry_equiv_pos_site_id
 _symmetry_equiv_pos_as_xyz
  1  'x, y, z'
loop_
 _atom_site_type_symbol
 _atom_site_label
 _atom_site_symmetry_multiplicity
 _atom_site_fract_x
 _atom_site_fract_y
 _atom_site_fract_z
 _atom_site_occupancy
  Li  Li0  1  0.66666700  0.33333300  0.00000000  1
  Li  Li1  1  0.00000000  0.00000000  0.50000000  1
  Fe  Fe2  1  0.44942700  0.50631500  0.00000000  1
  Fe  Fe3  1  0.37611200  0.27693800  0.50000000  1
  Fe  Fe4  1  0.49368500  0.94311200  0.00000000  1
  Fe  Fe5  1  0.90082600  0.62388800  0.50000000  1
  Fe  Fe6  1  0.72306200  0.09917400  0.50000000  1
  Fe  Fe7  1  0.55363900  0.76081700  0.50000000  1
  Fe  Fe8  1  0.05688800  0.55057300  0.00000000  1
  Fe  Fe9  1  0.95099500  0.23503000  0.00000000  1
  Fe  Fe10  1  0.76497000  0.71596500  0.00000000  1
  Fe  Fe11  1  0.20717800  0.44636100  0.50000000  1
  Fe  Fe12  1  0.28403500  0.04900500  0.00000000  1
  Fe  Fe13  1  0.23918300  0.79282200  0.50000000  1
  P  P14  1  0.61859000  0.54512200  0.50000000  1
  P  P15  1  0.45487800  0.07346800  0.50000000  1
  P  P16  1  0.33333300  0.66666700  0.00000000  1
  P  P17  1  0.92653200  0.38141000  0.50000000  1
  P  P18  1  0.74776100  0.95325500  0.00000000  1
  P  P19  1  0.20549400  0.25223900  0.00000000  1
  P  P20  1  0.04674500  0.79450600  0.00000000  1
