# generated using pymatgen
data_Sr5Nb4O15
_symmetry_space_group_name_H-M   'P 1'
_cell_length_a   5.73788956
_cell_length_b   5.73788956
_cell_length_c   23.29697000
_cell_angle_alpha   90.00000000
_cell_angle_beta   90.00000000
_cell_angle_gamma   119.99999497
_symmetry_Int_Tables_number   1
_chemical_formula_structural   Sr5Nb4O15
_chemical_formula_sum   'Sr10 Nb8 O30'
_cell_volume   664.25443770
_cell_formula_units_Z   2
loop_
 _symmetry_equiv_pos_site_id
 _symmetry_equiv_pos_as_xyz
  1  'x, y, z'
loop_
 _atom_site_type_symbol
 _atom_site_label
 _atom_site_symmetry_multiplicity
 _atom_site_fract_x
 _atom_site_fract_y
 _atom_site_fract_z
 _atom_site_occupancy
  Sr  Sr0  1  0.33333300  0.66666700  0.14019600  1
  Sr  Sr1  1  0.33333300  0.66666700  0.47088200  1
  Sr  Sr2  1  0.00000000  0.00000000  0.25000000  1
  Sr  Sr3  1  0.00000000  0.00000000  0.75000000  1
  Sr  Sr4  1  0.33333300  0.66666700  0.64019600  1
  Sr  Sr5  1  0.33333300  0.66666700  0.97088200  1
  Sr  Sr6  1  0.66666700  0.33333300  0.02911800  1
  Sr  Sr7  1  0.66666700  0.33333300  0.35980400  1
  Sr  Sr8  1  0.66666700  0.33333300  0.52911800  1
  Sr  Sr9  1  0.66666700  0.33333300  0.85980400  1
  Nb  Nb10  1  0.33333300  0.66666700  0.30262600  1
  Nb  Nb11  1  0.00000000  0.00000000  0.09078600  1
  Nb  Nb12  1  0.00000000  0.00000000  0.40921400  1
  Nb  Nb13  1  0.00000000  0.00000000  0.59078600  1
  Nb  Nb14  1  0.00000000  0.00000000  0.90921400  1
  Nb  Nb15  1  0.33333300  0.66666700  0.80262600  1
  Nb  Nb16  1  0.66666700  0.33333300  0.19737400  1
  Nb  Nb17  1  0.66666700  0.33333300  0.69737400  1
  O  O18  1  0.10094900  0.76810500  0.55510800  1
  O  O19  1  0.11832000  0.78712400  0.34628700  1
  O  O20  1  0.00000000  0.54400000  0.75000000  1
  O  O21  1  0.00000000  0.45600000  0.25000000  1
  O  O22  1  0.21287600  0.88168000  0.84628700  1
  O  O23  1  0.23189500  0.89905100  0.05510800  1
  O  O24  1  0.10094900  0.33284400  0.05510800  1
  O  O25  1  0.11832000  0.33119600  0.84628700  1
  O  O26  1  0.21287600  0.33119600  0.34628700  1
  O  O27  1  0.23189500  0.33284400  0.55510800  1
  O  O28  1  0.33284400  0.23189500  0.94489200  1
  O  O29  1  0.66715600  0.89905100  0.55510800  1
  O  O30  1  0.66880400  0.88168000  0.34628700  1
  O  O31  1  0.33119600  0.21287600  0.15371300  1
  O  O32  1  0.45600000  0.45600000  0.75000000  1
  O  O33  1  0.54400000  0.54400000  0.25000000  1
  O  O34  1  0.66880400  0.78712400  0.84628700  1
  O  O35  1  0.33119600  0.11832000  0.65371300  1
  O  O36  1  0.33284400  0.10094900  0.44489200  1
  O  O37  1  0.66715600  0.76810500  0.05510800  1
  O  O38  1  0.76810500  0.66715600  0.44489200  1
  O  O39  1  0.78712400  0.66880400  0.65371300  1
  O  O40  1  0.45600000  0.00000000  0.25000000  1
  O  O41  1  0.54400000  0.00000000  0.75000000  1
  O  O42  1  0.88168000  0.66880400  0.15371300  1
  O  O43  1  0.89905100  0.66715600  0.94489200  1
  O  O44  1  0.76810500  0.10094900  0.94489200  1
  O  O45  1  0.78712400  0.11832000  0.15371300  1
  O  O46  1  0.88168000  0.21287600  0.65371300  1
  O  O47  1  0.89905100  0.23189500  0.44489200  1
