# generated using pymatgen
data_Na2AlSi3HO9
_symmetry_space_group_name_H-M   'P 1'
_cell_length_a   7.27138300
_cell_length_b   7.34453556
_cell_length_c   8.79266793
_cell_angle_alpha   80.42183383
_cell_angle_beta   79.14772546
_cell_angle_gamma   64.45522948
_symmetry_Int_Tables_number   1
_chemical_formula_structural   Na2AlSi3HO9
_chemical_formula_sum   'Na4 Al2 Si6 H2 O18'
_cell_volume   414.16550516
_cell_formula_units_Z   2
loop_
 _symmetry_equiv_pos_site_id
 _symmetry_equiv_pos_as_xyz
  1  'x, y, z'
loop_
 _atom_site_type_symbol
 _atom_site_label
 _atom_site_symmetry_multiplicity
 _atom_site_fract_x
 _atom_site_fract_y
 _atom_site_fract_z
 _atom_site_occupancy
  Na  Na0  1  0.61199600  0.21452900  0.05588900  1
  Na  Na1  1  0.38800400  0.78547100  0.94411100  1
  Na  Na2  1  0.76105000  0.41264500  0.44190200  1
  Na  Na3  1  0.23895000  0.58735500  0.55809800  1
  Al  Al4  1  0.95338500  0.80396200  0.85349900  1
  Al  Al5  1  0.04661500  0.19603800  0.14650100  1
  Si  Si6  1  0.80577300  0.94734900  0.36245900  1
  Si  Si7  1  0.19422700  0.05265100  0.63754100  1
  Si  Si8  1  0.58549900  0.09554800  0.69271900  1
  Si  Si9  1  0.41450100  0.90445200  0.30728100  1
  Si  Si10  1  0.89794900  0.40065600  0.81398000  1
  Si  Si11  1  0.10205100  0.59934400  0.18602000  1
  H  H12  1  0.59011700  0.43021600  0.75214100  1
  H  H13  1  0.40988300  0.56978400  0.24785900  1
  O  O14  1  0.86324600  0.13340400  0.28063200  1
  O  O15  1  0.13675400  0.86659600  0.71936800  1
  O  O16  1  0.52668200  0.33359100  0.65238600  1
  O  O17  1  0.47331800  0.66640900  0.34761400  1
  O  O18  1  0.00108100  0.72306500  0.34633900  1
  O  O19  1  0.99891900  0.27693500  0.65366100  1
  O  O20  1  0.70172700  0.99656600  0.84867200  1
  O  O21  1  0.29827300  0.00343400  0.15132800  1
  O  O22  1  0.97837000  0.57754100  0.79432600  1
  O  O23  1  0.02163000  0.42245900  0.20567400  1
  O  O24  1  0.61916500  0.95871400  0.27575900  1
  O  O25  1  0.38083500  0.04128600  0.72424100  1
  O  O26  1  0.96570800  0.23658400  0.96394700  1
  O  O27  1  0.03429200  0.76341600  0.03605300  1
  O  O28  1  0.64494100  0.49480100  0.82301700  1
  O  O29  1  0.35505900  0.50519900  0.17698300  1
  O  O30  1  0.73837000  0.96234900  0.54832000  1
  O  O31  1  0.26163000  0.03765100  0.45168000  1
