# generated using pymatgen
data_Na2H4(SO4)3
_symmetry_space_group_name_H-M   'P 1'
_cell_length_a   7.00258400
_cell_length_b   10.26211900
_cell_length_c   14.15360300
_cell_angle_alpha   90.00000000
_cell_angle_beta   90.00000000
_cell_angle_gamma   90.00000000
_symmetry_Int_Tables_number   1
_chemical_formula_structural   Na2H4(SO4)3
_chemical_formula_sum   'Na8 H16 S12 O48'
_cell_volume   1017.09702341
_cell_formula_units_Z   4
loop_
 _symmetry_equiv_pos_site_id
 _symmetry_equiv_pos_as_xyz
  1  'x, y, z'
loop_
 _atom_site_type_symbol
 _atom_site_label
 _atom_site_symmetry_multiplicity
 _atom_site_fract_x
 _atom_site_fract_y
 _atom_site_fract_z
 _atom_site_occupancy
  Na  Na0  1  0.38458900  0.15908100  0.49696700  1
  Na  Na1  1  0.61541100  0.84091900  0.99696700  1
  Na  Na2  1  0.88458900  0.34091900  0.99696700  1
  Na  Na3  1  0.11541100  0.65908100  0.49696700  1
  Na  Na4  1  0.74182700  0.36927500  0.64133700  1
  Na  Na5  1  0.25817300  0.63072500  0.14133700  1
  Na  Na6  1  0.24182700  0.13072500  0.14133700  1
  Na  Na7  1  0.75817300  0.86927500  0.64133700  1
  H  H8  1  0.54899900  0.24288300  0.82006500  1
  H  H9  1  0.45100100  0.75711700  0.32006500  1
  H  H10  1  0.04899900  0.25711700  0.32006500  1
  H  H11  1  0.95100100  0.74288300  0.82006500  1
  H  H12  1  0.91433700  0.93973000  0.44292100  1
  H  H13  1  0.08566300  0.06027000  0.94292100  1
  H  H14  1  0.41433700  0.56027000  0.94292100  1
  H  H15  1  0.58566300  0.43973000  0.44292100  1
  H  H16  1  0.08291900  0.03810100  0.73502000  1
  H  H17  1  0.91708100  0.96189900  0.23502000  1
  H  H18  1  0.58291900  0.46189900  0.23502000  1
  H  H19  1  0.41708100  0.53810100  0.73502000  1
  H  H20  1  0.32761500  0.82149500  0.79287400  1
  H  H21  1  0.67238500  0.17850500  0.29287400  1
  H  H22  1  0.82761500  0.67850500  0.29287400  1
  H  H23  1  0.17238500  0.32149500  0.79287400  1
  S  S24  1  0.77423200  0.09331100  0.82820800  1
  S  S25  1  0.22576800  0.90668900  0.32820800  1
  S  S26  1  0.27423200  0.40668900  0.32820800  1
  S  S27  1  0.72576800  0.59331100  0.82820800  1
  S  S28  1  0.86729500  0.14564600  0.47342800  1
  S  S29  1  0.13270500  0.85435400  0.97342800  1
  S  S30  1  0.36729500  0.35435400  0.97342800  1
  S  S31  1  0.63270500  0.64564600  0.47342800  1
  S  S32  1  0.29267900  0.92133300  0.66267700  1
  S  S33  1  0.70732100  0.07866700  0.16267700  1
  S  S34  1  0.79267900  0.57866700  0.16267700  1
  S  S35  1  0.20732100  0.42133300  0.66267700  1
  O  O36  1  0.63924400  0.00829400  0.87497700  1
  O  O37  1  0.36075600  0.99170600  0.37497700  1
  O  O38  1  0.13924400  0.49170600  0.37497700  1
  O  O39  1  0.86075600  0.50829400  0.87497700  1
  O  O40  1  0.86831800  0.03296800  0.74505000  1
  O  O41  1  0.13168200  0.96703200  0.24505000  1
  O  O42  1  0.36831800  0.46703200  0.24505000  1
  O  O43  1  0.63168200  0.53296800  0.74505000  1
  O  O44  1  0.91836300  0.15225000  0.89159600  1
  O  O45  1  0.08163700  0.84775000  0.39159600  1
  O  O46  1  0.41836300  0.34775000  0.39159600  1
  O  O47  1  0.58163700  0.65225000  0.89159600  1
  O  O48  1  0.66075800  0.21108600  0.78089100  1
  O  O49  1  0.33924200  0.78891400  0.28089100  1
  O  O50  1  0.16075800  0.28891400  0.28089100  1
  O  O51  1  0.83924200  0.71108600  0.78089100  1
  O  O52  1  0.71121700  0.20187000  0.52884500  1
  O  O53  1  0.28878300  0.79813000  0.02884500  1
  O  O54  1  0.21121700  0.29813000  0.02884500  1
  O  O55  1  0.78878300  0.70187000  0.52884500  1
  O  O56  1  0.85921600  0.18451900  0.37203800  1
  O  O57  1  0.14078400  0.81548100  0.87203800  1
  O  O58  1  0.35921600  0.31548100  0.87203800  1
  O  O59  1  0.64078400  0.68451900  0.37203800  1
  O  O60  1  0.05632300  0.16645600  0.51315300  1
  O  O61  1  0.94367700  0.83354400  0.01315300  1
  O  O62  1  0.55632300  0.33354400  0.01315300  1
  O  O63  1  0.44367700  0.66645600  0.51315300  1
  O  O64  1  0.81788700  0.99415700  0.47860900  1
  O  O65  1  0.18211300  0.00584300  0.97860900  1
  O  O66  1  0.31788700  0.50584300  0.97860900  1
  O  O67  1  0.68211300  0.49415700  0.47860900  1
  O  O68  1  0.12575500  0.85349200  0.62764900  1
  O  O69  1  0.87424500  0.14650800  0.12764900  1
  O  O70  1  0.62575500  0.64650800  0.12764900  1
  O  O71  1  0.37424500  0.35349200  0.62764900  1
  O  O72  1  0.43485400  0.96369500  0.59551100  1
  O  O73  1  0.56514600  0.03630500  0.09551100  1
  O  O74  1  0.93485400  0.53630500  0.09551100  1
  O  O75  1  0.06514600  0.46369500  0.59551100  1
  O  O76  1  0.23004300  0.03858300  0.72399100  1
  O  O77  1  0.76995700  0.96141700  0.22399100  1
  O  O78  1  0.73004300  0.46141700  0.22399100  1
  O  O79  1  0.26995700  0.53858300  0.72399100  1
  O  O80  1  0.40732300  0.83358500  0.73379400  1
  O  O81  1  0.59267700  0.16641500  0.23379400  1
  O  O82  1  0.90732300  0.66641500  0.23379400  1
  O  O83  1  0.09267700  0.33358500  0.73379400  1
