# generated using pymatgen
data_Na4VP2O9
_symmetry_space_group_name_H-M   'P 1'
_cell_length_a   7.08910400
_cell_length_b   14.67030700
_cell_length_c   16.20830100
_cell_angle_alpha   90.00000000
_cell_angle_beta   90.00000000
_cell_angle_gamma   90.00000000
_symmetry_Int_Tables_number   1
_chemical_formula_structural   Na4VP2O9
_chemical_formula_sum   'Na32 V8 P16 O72'
_cell_volume   1685.65247742
_cell_formula_units_Z   8
loop_
 _symmetry_equiv_pos_site_id
 _symmetry_equiv_pos_as_xyz
  1  'x, y, z'
loop_
 _atom_site_type_symbol
 _atom_site_label
 _atom_site_symmetry_multiplicity
 _atom_site_fract_x
 _atom_site_fract_y
 _atom_site_fract_z
 _atom_site_occupancy
  Na  Na0  1  0.00336200  0.13871200  0.61841900  1
  Na  Na1  1  0.26916500  0.49432700  0.99552400  1
  Na  Na2  1  0.25589600  0.24533300  0.47454000  1
  Na  Na3  1  0.76916500  0.00567300  0.99552400  1
  Na  Na4  1  0.99663800  0.86128800  0.38158100  1
  Na  Na5  1  0.50336200  0.36128800  0.61841900  1
  Na  Na6  1  0.75589600  0.25466700  0.47454000  1
  Na  Na7  1  0.23083500  0.99432700  0.00447600  1
  Na  Na8  1  0.26916500  0.99432700  0.50447600  1
  Na  Na9  1  0.31460600  0.52426000  0.22488000  1
  Na  Na10  1  0.68539400  0.47574000  0.77512000  1
  Na  Na11  1  0.74410400  0.25466700  0.97454000  1
  Na  Na12  1  0.73083500  0.50567300  0.00447600  1
  Na  Na13  1  0.18539400  0.52426000  0.72488000  1
  Na  Na14  1  0.75589600  0.75466700  0.02546000  1
  Na  Na15  1  0.99663800  0.36128800  0.11841900  1
  Na  Na16  1  0.25589600  0.74533300  0.02546000  1
  Na  Na17  1  0.18539400  0.02426000  0.77512000  1
  Na  Na18  1  0.31460600  0.02426000  0.27512000  1
  Na  Na19  1  0.23083500  0.49432700  0.49552400  1
  Na  Na20  1  0.81460600  0.47574000  0.27512000  1
  Na  Na21  1  0.49663800  0.13871200  0.11841900  1
  Na  Na22  1  0.24410400  0.74533300  0.52546000  1
  Na  Na23  1  0.49663800  0.63871200  0.38158100  1
  Na  Na24  1  0.81460600  0.97574000  0.22488000  1
  Na  Na25  1  0.74410400  0.75466700  0.52546000  1
  Na  Na26  1  0.24410400  0.24533300  0.97454000  1
  Na  Na27  1  0.76916500  0.50567300  0.50447600  1
  Na  Na28  1  0.68539400  0.97574000  0.72488000  1
  Na  Na29  1  0.73083500  0.00567300  0.49552400  1
  Na  Na30  1  0.00336200  0.63871200  0.88158100  1
  Na  Na31  1  0.50336200  0.86128800  0.88158100  1
  V  V32  1  0.27555000  0.75865500  0.73391300  1
  V  V33  1  0.72445000  0.24134500  0.26608700  1
  V  V34  1  0.77555000  0.74134500  0.73391300  1
  V  V35  1  0.27555000  0.25865500  0.76608700  1
  V  V36  1  0.22445000  0.25865500  0.26608700  1
  V  V37  1  0.77555000  0.24134500  0.76608700  1
  V  V38  1  0.22445000  0.75865500  0.23391300  1
  V  V39  1  0.72445000  0.74134500  0.23391300  1
  P  P40  1  0.99894800  0.63888300  0.37272800  1
  P  P41  1  0.49894800  0.86111700  0.37272800  1
  P  P42  1  0.49823900  0.60804600  0.61935200  1
  P  P43  1  0.50105200  0.63888300  0.87272800  1
  P  P44  1  0.99894800  0.13888300  0.12727200  1
  P  P45  1  0.99823900  0.89195400  0.61935200  1
  P  P46  1  0.50176100  0.39195400  0.38064800  1
  P  P47  1  0.00176100  0.10804600  0.38064800  1
  P  P48  1  0.00105200  0.86111700  0.87272800  1
  P  P49  1  0.50105200  0.13888300  0.62727200  1
  P  P50  1  0.49894800  0.36111700  0.12727200  1
  P  P51  1  0.00105200  0.36111700  0.62727200  1
  P  P52  1  0.49823900  0.10804600  0.88064800  1
  P  P53  1  0.50176100  0.89195400  0.11935200  1
  P  P54  1  0.99823900  0.39195400  0.88064800  1
  P  P55  1  0.00176100  0.60804600  0.11935200  1
  O  O56  1  0.67974900  0.66367800  0.64193000  1
  O  O57  1  0.81916000  0.83654300  0.64685900  1
  O  O58  1  0.82025100  0.16367800  0.35807000  1
  O  O59  1  0.68102300  0.34221600  0.18032400  1
  O  O60  1  0.18102300  0.65778400  0.31967600  1
  O  O61  1  0.68101500  0.15066500  0.68330800  1
  O  O62  1  0.31916000  0.66345700  0.64685900  1
  O  O63  1  0.00392500  0.20156000  0.76125200  1
  O  O64  1  0.18084000  0.66345700  0.14685900  1
  O  O65  1  0.99123100  0.20733200  0.05521800  1
  O  O66  1  0.49607500  0.20156000  0.26125200  1
  O  O67  1  0.50408900  0.98605800  0.16020400  1
  O  O68  1  0.99607500  0.79844000  0.23874800  1
  O  O69  1  0.00828200  0.10218100  0.47593300  1
  O  O70  1  0.68084000  0.33654300  0.35314100  1
  O  O71  1  0.31897700  0.15778400  0.68032400  1
  O  O72  1  0.81897700  0.84221600  0.81967600  1
  O  O73  1  0.50828200  0.89781900  0.02406700  1
  O  O74  1  0.99607500  0.29844000  0.26125200  1
  O  O75  1  0.50408900  0.48605800  0.33979600  1
  O  O76  1  0.32025100  0.83632200  0.14193000  1
  O  O77  1  0.49591100  0.01394200  0.83979600  1
  O  O78  1  0.50392500  0.79844000  0.73874800  1
  O  O79  1  0.81916000  0.33654300  0.85314100  1
  O  O80  1  0.49591100  0.51394200  0.66020400  1
  O  O81  1  0.50029200  0.53914400  0.90159200  1
  O  O82  1  0.18101500  0.34933500  0.68330800  1
  O  O83  1  0.49171800  0.10218100  0.97593300  1
  O  O84  1  0.31898500  0.34933500  0.18330800  1
  O  O85  1  0.17974900  0.83632200  0.64193000  1
  O  O86  1  0.31897700  0.65778400  0.81967600  1
  O  O87  1  0.18084000  0.16345700  0.35314100  1
  O  O88  1  0.81898500  0.65066500  0.31669200  1
  O  O89  1  0.17974900  0.33632200  0.85807000  1
  O  O90  1  0.18101500  0.84933500  0.81669200  1
  O  O91  1  0.32025100  0.33632200  0.35807000  1
  O  O92  1  0.82025100  0.66367800  0.14193000  1
  O  O93  1  0.81898500  0.15066500  0.18330800  1
  O  O94  1  0.00876900  0.29266800  0.55521800  1
  O  O95  1  0.49123100  0.79266800  0.44478200  1
  O  O96  1  0.99171800  0.39781900  0.97593300  1
  O  O97  1  0.31916000  0.16345700  0.85314100  1
  O  O98  1  0.00828200  0.60218100  0.02406700  1
  O  O99  1  0.99591100  0.98605800  0.66020400  1
  O  O100  1  0.50392500  0.29844000  0.76125200  1
  O  O101  1  0.50029200  0.03914400  0.59840800  1
  O  O102  1  0.99123100  0.70733200  0.44478200  1
  O  O103  1  0.67974900  0.16367800  0.85807000  1
  O  O104  1  0.50828200  0.39781900  0.47593300  1
  O  O105  1  0.68084000  0.83654300  0.14685900  1
  O  O106  1  0.68102300  0.84221600  0.31967600  1
  O  O107  1  0.81897700  0.34221600  0.68032400  1
  O  O108  1  0.99970800  0.53914400  0.40159200  1
  O  O109  1  0.00876900  0.79266800  0.94478200  1
  O  O110  1  0.00029200  0.96085600  0.90159200  1
  O  O111  1  0.00408900  0.51394200  0.16020400  1
  O  O112  1  0.18102300  0.15778400  0.18032400  1
  O  O113  1  0.49970800  0.96085600  0.40159200  1
  O  O114  1  0.49607500  0.70156000  0.23874800  1
  O  O115  1  0.00408900  0.01394200  0.33979600  1
  O  O116  1  0.00392500  0.70156000  0.73874800  1
  O  O117  1  0.31898500  0.84933500  0.31669200  1
  O  O118  1  0.99970800  0.03914400  0.09840800  1
  O  O119  1  0.49970800  0.46085600  0.09840800  1
  O  O120  1  0.68101500  0.65066500  0.81669200  1
  O  O121  1  0.50876900  0.70733200  0.94478200  1
  O  O122  1  0.99171800  0.89781900  0.52406700  1
  O  O123  1  0.50876900  0.20733200  0.55521800  1
  O  O124  1  0.49171800  0.60218100  0.52406700  1
  O  O125  1  0.49123100  0.29266800  0.05521800  1
  O  O126  1  0.00029200  0.46085600  0.59840800  1
  O  O127  1  0.99591100  0.48605800  0.83979600  1
