# generated using pymatgen
data_Li6V3P8O29
_symmetry_space_group_name_H-M   'P 1'
_cell_length_a   9.80242100
_cell_length_b   9.80799801
_cell_length_c   13.84811368
_cell_angle_alpha   89.78790116
_cell_angle_beta   89.78780248
_cell_angle_gamma   60.08199774
_symmetry_Int_Tables_number   1
_chemical_formula_structural   Li6V3P8O29
_chemical_formula_sum   'Li12 V6 P16 O58'
_cell_volume   1153.95599554
_cell_formula_units_Z   2
loop_
 _symmetry_equiv_pos_site_id
 _symmetry_equiv_pos_as_xyz
  1  'x, y, z'
loop_
 _atom_site_type_symbol
 _atom_site_label
 _atom_site_symmetry_multiplicity
 _atom_site_fract_x
 _atom_site_fract_y
 _atom_site_fract_z
 _atom_site_occupancy
  Li  Li0  1  0.23635500  0.10198300  0.93634900  1
  Li  Li1  1  0.08974700  0.22908900  0.44102300  1
  Li  Li2  1  0.67662000  0.09683100  0.44320000  1
  Li  Li3  1  0.66242400  0.23680600  0.93617800  1
  Li  Li4  1  0.10196200  0.66210000  0.93687300  1
  Li  Li5  1  0.22891300  0.67543300  0.44130300  1
  Li  Li6  1  0.89855300  0.33727600  0.06076600  1
  Li  Li7  1  0.33813700  0.76333900  0.06118200  1
  Li  Li8  1  0.32248000  0.90580200  0.56116200  1
  Li  Li9  1  0.90347100  0.77244700  0.56124000  1
  Li  Li10  1  0.76412200  0.89845200  0.06131400  1
  Li  Li11  1  0.99923900  0.00132500  0.99737600  1
  V  V12  1  0.56778000  0.43476400  0.74643600  1
  V  V13  1  0.43550400  0.56524600  0.25180900  1
  V  V14  1  0.99847400  0.43331500  0.25113700  1
  V  V15  1  0.00093600  0.56421400  0.74856700  1
  V  V16  1  0.43386000  0.00127700  0.74872500  1
  V  V17  1  0.56689700  0.00029000  0.25102300  1
  P  P18  1  0.22825200  0.08800900  0.15700200  1
  P  P19  1  0.08766900  0.22968100  0.65664000  1
  P  P20  1  0.68351200  0.08879800  0.65796900  1
  P  P21  1  0.33400900  0.33444400  0.87361000  1
  P  P22  1  0.33233100  0.33281700  0.37260900  1
  P  P23  1  0.68476300  0.22866900  0.15629000  1
  P  P24  1  0.76989900  0.31498000  0.34318400  1
  P  P25  1  0.08869600  0.68397400  0.15736500  1
  P  P26  1  0.91271900  0.31348100  0.84276800  1
  P  P27  1  0.23054500  0.68125100  0.65789900  1
  P  P28  1  0.31521300  0.77228100  0.84235800  1
  P  P29  1  0.66511700  0.66875500  0.62739600  1
  P  P30  1  0.66724700  0.66733800  0.12590200  1
  P  P31  1  0.31846400  0.91196700  0.34220900  1
  P  P32  1  0.91182900  0.76929300  0.34242600  1
  P  P33  1  0.77334500  0.91032700  0.84250600  1
  O  O34  1  0.24214100  0.00215200  0.43271400  1
  O  O35  1  0.25467100  0.08246300  0.65933600  1
  O  O36  1  0.00145700  0.22285800  0.93292000  1
  O  O37  1  0.08106600  0.25487200  0.15879100  1
  O  O38  1  0.38052800  0.09186700  0.16925600  1
  O  O39  1  0.32441600  0.18963200  0.83370500  1
  O  O40  1  0.52372200  0.09487000  0.67778100  1
  O  O41  1  0.77907000  0.99629800  0.93256900  1
  O  O42  1  0.66494200  0.08111200  0.15937300  1
  O  O43  1  0.18609400  0.32531600  0.33085900  1
  O  O44  1  0.09798200  0.38054200  0.67783700  1
  O  O45  1  0.48658500  0.18663800  0.33130500  1
  O  O46  1  0.33690000  0.33397400  0.98177300  1
  O  O47  1  0.33138900  0.33187800  0.48028800  1
  O  O48  1  0.48818400  0.32746700  0.83157300  1
  O  O49  1  0.09174300  0.52786700  0.17003200  1
  O  O50  1  0.18884000  0.48912400  0.83364000  1
  O  O51  1  0.66091100  0.25322900  0.65937600  1
  O  O52  1  0.79516700  0.21036300  0.24634900  1
  O  O53  1  0.75981800  0.23080000  0.42907400  1
  O  O54  1  0.77409700  0.22321300  0.06488500  1
  O  O55  1  0.52796200  0.37999900  0.16941600  1
  O  O56  1  0.32529500  0.48737900  0.33214900  1
  O  O57  1  0.74787800  0.33161300  0.84265800  1
  O  O58  1  0.37717300  0.52034700  0.67481100  1
  O  O59  1  0.08020800  0.66722200  0.65780100  1
  O  O60  1  0.00162700  0.20621600  0.74978600  1
  O  O61  1  0.00379600  0.24164600  0.56552200  1
  O  O62  1  0.00182500  0.75611000  0.43280100  1
  O  O63  1  0.91596700  0.33692100  0.34196400  1
  O  O64  1  0.61898200  0.47654900  0.32377400  1
  O  O65  1  0.25578800  0.66356700  0.15968900  1
  O  O66  1  0.66548300  0.52142000  0.67519000  1
  O  O67  1  0.47093600  0.61919600  0.83214000  1
  O  O68  1  0.22282000  0.77910400  0.93275600  1
  O  O69  1  0.24249000  0.76009800  0.56757200  1
  O  O70  1  0.20668800  0.79340800  0.74982700  1
  O  O71  1  0.33469200  0.74723700  0.34256900  1
  O  O72  1  0.81142200  0.51144600  0.16683600  1
  O  O73  1  0.90865500  0.47018700  0.83042500  1
  O  O74  1  0.51209700  0.67732600  0.16660500  1
  O  O75  1  0.66881900  0.66737400  0.01774900  1
  O  O76  1  0.66325000  0.67001300  0.52001900  1
  O  O77  1  0.51101900  0.81576600  0.66790600  1
  O  O78  1  0.90111500  0.61980000  0.32342600  1
  O  O79  1  0.81341100  0.67296700  0.66775700  1
  O  O80  1  0.33603200  0.91921700  0.84051400  1
  O  O81  1  0.20724600  0.00005600  0.25027100  1
  O  O82  1  0.22388000  0.00157700  0.06718500  1
  O  O83  1  0.47904100  0.90085600  0.32277900  1
  O  O84  1  0.67797000  0.81155000  0.16697100  1
  O  O85  1  0.62069500  0.90698100  0.83110200  1
  O  O86  1  0.91953200  0.74294100  0.84084400  1
  O  O87  1  0.00294000  0.77461600  0.06723100  1
  O  O88  1  0.00014000  0.79264300  0.25020800  1
  O  O89  1  0.74686100  0.91729300  0.34270800  1
  O  O90  1  0.75730000  0.99584300  0.56818400  1
  O  O91  1  0.79481600  0.99733700  0.74972700  1
