# generated using pymatgen
data_Na10Zn7Sn7H24(S13O6)2
_symmetry_space_group_name_H-M   'P 1'
_cell_length_a   12.77243794
_cell_length_b   12.77243794
_cell_length_c   12.77243795
_cell_angle_alpha   59.96478014
_cell_angle_beta   59.96478014
_cell_angle_gamma   59.96478038
_symmetry_Int_Tables_number   1
_chemical_formula_structural   Na10Zn7Sn7H24(S13O6)2
_chemical_formula_sum   'Na10 Zn7 Sn7 H24 S26 O12'
_cell_volume   1472.17486184
_cell_formula_units_Z   1
loop_
 _symmetry_equiv_pos_site_id
 _symmetry_equiv_pos_as_xyz
  1  'x, y, z'
loop_
 _atom_site_type_symbol
 _atom_site_label
 _atom_site_symmetry_multiplicity
 _atom_site_fract_x
 _atom_site_fract_y
 _atom_site_fract_z
 _atom_site_occupancy
  Na  Na0  1  0.74977900  0.74977900  0.74977900  1
  Na  Na1  1  0.64426600  0.64426600  0.64426600  1
  Na  Na2  1  0.65038600  0.64876900  0.06033800  1
  Na  Na3  1  0.64876900  0.06033800  0.65038600  1
  Na  Na4  1  0.06033800  0.65038600  0.64876900  1
  Na  Na5  1  0.56791000  0.14185300  0.14272700  1
  Na  Na6  1  0.14185300  0.14272700  0.56791000  1
  Na  Na7  1  0.24973200  0.24973200  0.24973200  1
  Na  Na8  1  0.14272700  0.56791000  0.14185300  1
  Na  Na9  1  0.14520900  0.14520900  0.14520900  1
  Zn  Zn10  1  0.92445300  0.92445300  0.92445300  1
  Zn  Zn11  1  0.92348200  0.92402300  0.22454900  1
  Zn  Zn12  1  0.92402300  0.22454900  0.92348200  1
  Zn  Zn13  1  0.22454900  0.92348200  0.92402300  1
  Zn  Zn14  1  0.74041600  0.41912400  0.42190700  1
  Zn  Zn15  1  0.42190700  0.74041600  0.41912400  1
  Zn  Zn16  1  0.41912400  0.42190700  0.74041600  1
  Sn  Sn17  1  0.74990800  0.75115700  0.24921400  1
  Sn  Sn18  1  0.75115700  0.24921400  0.74990800  1
  Sn  Sn19  1  0.24921400  0.74990800  0.75115700  1
  Sn  Sn20  1  0.76211300  0.24866800  0.23989500  1
  Sn  Sn21  1  0.42661200  0.42661200  0.42661200  1
  Sn  Sn22  1  0.23989500  0.76211300  0.24866800  1
  Sn  Sn23  1  0.24866800  0.23989500  0.76211300  1
  H  H24  1  0.92374500  0.90261300  0.64795400  1
  H  H25  1  0.90261300  0.64795400  0.92374500  1
  H  H26  1  0.92381000  0.52674500  0.90225200  1
  H  H27  1  0.90225200  0.92381000  0.52674500  1
  H  H28  1  0.64795400  0.92374500  0.90261300  1
  H  H29  1  0.92292600  0.64745800  0.52650300  1
  H  H30  1  0.89975600  0.52611300  0.64796000  1
  H  H31  1  0.52674500  0.90225200  0.92381000  1
  H  H32  1  0.64745800  0.52650300  0.92292600  1
  H  H33  1  0.64796000  0.89975600  0.52611300  1
  H  H34  1  0.52650300  0.92292600  0.64745800  1
  H  H35  1  0.52611300  0.64796000  0.89975600  1
  H  H36  1  0.42192900  0.14589800  0.40387300  1
  H  H37  1  0.40387300  0.42192900  0.14589800  1
  H  H38  1  0.42341000  0.40200500  0.02541700  1
  H  H39  1  0.40200500  0.02541700  0.42341000  1
  H  H40  1  0.14589800  0.40387300  0.42192900  1
  H  H41  1  0.42415100  0.02586600  0.14740100  1
  H  H42  1  0.40402100  0.14724200  0.02644500  1
  H  H43  1  0.02541700  0.42341000  0.40200500  1
  H  H44  1  0.14740100  0.42415100  0.02586600  1
  H  H45  1  0.14724200  0.02644500  0.40402100  1
  H  H46  1  0.02586600  0.14740100  0.42415100  1
  H  H47  1  0.02644500  0.40402100  0.14724200  1
  S  S48  1  0.99991900  0.99991900  0.99991900  1
  S  S49  1  0.92332500  0.30738000  0.71424000  1
  S  S50  1  0.71424000  0.92332500  0.30738000  1
  S  S51  1  0.92329800  0.71479900  0.05607500  1
  S  S52  1  0.80427800  0.55733500  0.42505200  1
  S  S53  1  0.71479900  0.05607500  0.92329800  1
  S  S54  1  0.80512300  0.21207400  0.55676600  1
  S  S55  1  0.55733500  0.42505200  0.80427800  1
  S  S56  1  0.30738000  0.71424000  0.92332500  1
  S  S57  1  0.80056800  0.42809000  0.21369700  1
  S  S58  1  0.42505200  0.80427800  0.55733500  1
  S  S59  1  0.92431300  0.05235300  0.30795600  1
  S  S60  1  0.55676600  0.80512300  0.21207400  1
  S  S61  1  0.50383100  0.50383100  0.50383100  1
  S  S62  1  0.42809000  0.21369700  0.80056800  1
  S  S63  1  0.71360400  0.30512100  0.05566000  1
  S  S64  1  0.21207400  0.55676600  0.80512300  1
  S  S65  1  0.56044000  0.21086400  0.42143200  1
  S  S66  1  0.05607500  0.92329800  0.71479900  1
  S  S67  1  0.21369700  0.80056800  0.42809000  1
  S  S68  1  0.42143200  0.56044000  0.21086400  1
  S  S69  1  0.30795600  0.92431300  0.05235300  1
  S  S70  1  0.21086400  0.42143200  0.56044000  1
  S  S71  1  0.30512100  0.05566000  0.71360400  1
  S  S72  1  0.05235300  0.30795600  0.92431300  1
  S  S73  1  0.05566000  0.71360400  0.30512100  1
  O  O74  1  0.87919400  0.62116400  0.87998200  1
  O  O75  1  0.87998200  0.87919400  0.62116400  1
  O  O76  1  0.88217300  0.61930600  0.62118900  1
  O  O77  1  0.62116400  0.87998200  0.87919400  1
  O  O78  1  0.62118900  0.88217300  0.61930600  1
  O  O79  1  0.61930600  0.62118900  0.88217300  1
  O  O80  1  0.37952100  0.37928000  0.11943700  1
  O  O81  1  0.37928000  0.11943700  0.37952100  1
  O  O82  1  0.11943700  0.37952100  0.37928000  1
  O  O83  1  0.37884400  0.11969100  0.12064100  1
  O  O84  1  0.11969100  0.12064100  0.37884400  1
  O  O85  1  0.12064100  0.37884400  0.11969100  1
