# generated using pymatgen
data_Li7Y7Zr9S32
_symmetry_space_group_name_H-M   'P 1'
_cell_length_a   7.68652200
_cell_length_b   7.74640381
_cell_length_c   25.16802090
_cell_angle_alpha   82.40787196
_cell_angle_beta   82.07438464
_cell_angle_gamma   61.29850012
_symmetry_Int_Tables_number   1
_chemical_formula_structural   Li7Y7Zr9S32
_chemical_formula_sum   'Li7 Y7 Zr9 S32'
_cell_volume   1298.14545374
_cell_formula_units_Z   1
loop_
 _symmetry_equiv_pos_site_id
 _symmetry_equiv_pos_as_xyz
  1  'x, y, z'
loop_
 _atom_site_type_symbol
 _atom_site_label
 _atom_site_symmetry_multiplicity
 _atom_site_fract_x
 _atom_site_fract_y
 _atom_site_fract_z
 _atom_site_occupancy
  Li  Li0  1  0.68810900  0.68539700  0.93717500  1
  Li  Li1  1  0.99972100  0.00131700  0.99997500  1
  Li  Li2  1  0.43793100  0.43629800  0.68753700  1
  Li  Li3  1  0.50133200  0.50088700  0.49956900  1
  Li  Li4  1  0.93600400  0.93634300  0.18807400  1
  Li  Li5  1  0.18566800  0.18609000  0.43866000  1
  Li  Li6  1  0.25131500  0.25084100  0.24975200  1
  Y  Y7  1  0.96781100  0.46998400  0.59407300  1
  Y  Y8  1  0.21798100  0.72042800  0.84299300  1
  Y  Y9  1  0.46989300  0.96813000  0.59415400  1
  Y  Y10  1  0.21813500  0.71923300  0.34398800  1
  Y  Y11  1  0.71917800  0.21814500  0.34398100  1
  Y  Y12  1  0.96820900  0.46936200  0.09376400  1
  Y  Y13  1  0.46948100  0.96827700  0.09388200  1
  Zr  Zr14  1  0.34413200  0.34325700  0.96824800  1
  Zr  Zr15  1  0.21765800  0.21556400  0.84163200  1
  Zr  Zr16  1  0.72620900  0.21447300  0.84132100  1
  Zr  Zr17  1  0.84421600  0.84354200  0.46948300  1
  Zr  Zr18  1  0.09324000  0.09379200  0.71900100  1
  Zr  Zr19  1  0.96454800  0.96609100  0.59487100  1
  Zr  Zr20  1  0.59344900  0.59393100  0.21964200  1
  Zr  Zr21  1  0.71924300  0.71931700  0.34435700  1
  Zr  Zr22  1  0.46972000  0.46854200  0.09403000  1
  S  S23  1  0.91763700  0.38111600  0.78516100  1
  S  S24  1  0.37959000  0.93357200  0.78205100  1
  S  S25  1  0.05648000  0.50729200  0.90615200  1
  S  S26  1  0.52004000  0.05658800  0.90353300  1
  S  S27  1  0.53169400  0.50667800  0.90558900  1
  S  S28  1  0.26651300  0.27002400  0.66071600  1
  S  S29  1  0.41189000  0.38855400  0.78726100  1
  S  S30  1  0.90237800  0.93259800  0.78220800  1
  S  S31  1  0.02485300  0.04950500  0.90109800  1
  S  S32  1  0.79298600  0.79364200  0.65098000  1
  S  S33  1  0.13509100  0.67953700  0.53043700  1
  S  S34  1  0.67874700  0.13471200  0.53065400  1
  S  S35  1  0.80330000  0.25861700  0.65720600  1
  S  S36  1  0.25698000  0.80427500  0.65805600  1
  S  S37  1  0.01932700  0.01939200  0.40879600  1
  S  S38  1  0.14678100  0.14597200  0.53639700  1
  S  S39  1  0.89599200  0.89574400  0.28580700  1
  S  S40  1  0.66785000  0.66890600  0.52807700  1
  S  S41  1  0.41858400  0.41859200  0.27810900  1
  S  S42  1  0.54152500  0.54177500  0.40143300  1
  S  S43  1  0.88412000  0.42954000  0.28067400  1
  S  S44  1  0.42929100  0.88366900  0.28078600  1
  S  S45  1  0.55303300  0.00791400  0.40613700  1
  S  S46  1  0.75860500  0.30350200  0.15596100  1
  S  S47  1  0.30320000  0.75790000  0.15615800  1
  S  S48  1  0.00810100  0.55348500  0.40602500  1
  S  S49  1  0.76979500  0.76895900  0.15879100  1
  S  S50  1  0.64603100  0.64591700  0.03559800  1
  S  S51  1  0.17033200  0.16769100  0.02748100  1
  S  S52  1  0.29113800  0.29193900  0.15145700  1
  S  S53  1  0.63391600  0.17993600  0.03083600  1
  S  S54  1  0.18101700  0.63321700  0.03021300  1
