# generated using pymatgen
data_Ti2CoO5
_symmetry_space_group_name_H-M   'P 1'
_cell_length_a   5.25459716
_cell_length_b   7.46701034
_cell_length_c   10.20691000
_cell_angle_alpha   89.99990644
_cell_angle_beta   89.99995875
_cell_angle_gamma   69.81474090
_symmetry_Int_Tables_number   1
_chemical_formula_structural   Ti2CoO5
_chemical_formula_sum   'Ti8 Co4 O20'
_cell_volume   375.88293283
_cell_formula_units_Z   4
loop_
 _symmetry_equiv_pos_site_id
 _symmetry_equiv_pos_as_xyz
  1  'x, y, z'
loop_
 _atom_site_type_symbol
 _atom_site_label
 _atom_site_symmetry_multiplicity
 _atom_site_fract_x
 _atom_site_fract_y
 _atom_site_fract_z
 _atom_site_occupancy
  Ti  Ti0  1  0.20045600  0.06682300  0.56779900  1
  Ti  Ti1  1  0.70046100  0.56682500  0.56780400  1
  Ti  Ti2  1  0.20045500  0.06682300  0.93220200  1
  Ti  Ti3  1  0.70046000  0.56682500  0.93219500  1
  Ti  Ti4  1  0.79953800  0.93317600  0.06780600  1
  Ti  Ti5  1  0.29954400  0.43317700  0.06779900  1
  Ti  Ti6  1  0.79953700  0.93317500  0.43219500  1
  Ti  Ti7  1  0.29954400  0.43317600  0.43220200  1
  Co  Co8  1  0.78545000  0.59514400  0.25000000  1
  Co  Co9  1  0.71455200  0.90485500  0.75000000  1
  Co  Co10  1  0.28543200  0.09516000  0.25000000  1
  Co  Co11  1  0.21456600  0.40484200  0.75000000  1
  O  O12  1  0.32167900  0.10723900  0.74999900  1
  O  O13  1  0.82170200  0.60724000  0.75000100  1
  O  O14  1  0.67829600  0.89275800  0.24999900  1
  O  O15  1  0.17832600  0.39276200  0.25000000  1
  O  O16  1  0.06920600  0.02307100  0.11189600  1
  O  O17  1  0.56921400  0.52305900  0.11189400  1
  O  O18  1  0.06920600  0.02307300  0.38810400  1
  O  O19  1  0.56921300  0.52306000  0.38810600  1
  O  O20  1  0.93078700  0.97694100  0.88810700  1
  O  O21  1  0.43079500  0.47693000  0.88810500  1
  O  O22  1  0.93079000  0.97694100  0.61189300  1
  O  O23  1  0.43079400  0.47692900  0.61189500  1
  O  O24  1  0.47078300  0.15691800  0.06061800  1
  O  O25  1  0.97078400  0.65692300  0.06061400  1
  O  O26  1  0.47078200  0.15691800  0.43938200  1
  O  O27  1  0.97078300  0.65692200  0.43938500  1
  O  O28  1  0.52921700  0.84307700  0.56061500  1
  O  O29  1  0.02921600  0.34308300  0.56061800  1
  O  O30  1  0.52921600  0.84307700  0.93938500  1
  O  O31  1  0.02921700  0.34308300  0.93938200  1
