# generated using pymatgen
data_Dy2Ti2O7
_symmetry_space_group_name_H-M   'P 1'
_cell_length_a   5.35246000
_cell_length_b   7.54585400
_cell_length_c   13.21178115
_cell_angle_alpha   81.67773361
_cell_angle_beta   90.00000000
_cell_angle_gamma   90.00000000
_symmetry_Int_Tables_number   1
_chemical_formula_structural   Dy2Ti2O7
_chemical_formula_sum   'Dy8 Ti8 O28'
_cell_volume   527.98995670
_cell_formula_units_Z   4
loop_
 _symmetry_equiv_pos_site_id
 _symmetry_equiv_pos_as_xyz
  1  'x, y, z'
loop_
 _atom_site_type_symbol
 _atom_site_label
 _atom_site_symmetry_multiplicity
 _atom_site_fract_x
 _atom_site_fract_y
 _atom_site_fract_z
 _atom_site_occupancy
  Dy  Dy0  1  0.77354400  0.76659300  0.92293200  1
  Dy  Dy1  1  0.36077000  0.85780900  0.56298800  1
  Dy  Dy2  1  0.24751600  0.71448800  0.13375500  1
  Dy  Dy3  1  0.78003700  0.64565200  0.38419900  1
  Dy  Dy4  1  0.28003700  0.35434800  0.61580100  1
  Dy  Dy5  1  0.74751600  0.28551200  0.86624500  1
  Dy  Dy6  1  0.86077000  0.14219100  0.43701200  1
  Dy  Dy7  1  0.27354400  0.23340700  0.07706800  1
  Ti  Ti8  1  0.28467200  0.93044700  0.32064900  1
  Ti  Ti9  1  0.76992600  0.96926100  0.12144100  1
  Ti  Ti10  1  0.79509800  0.58981700  0.67227600  1
  Ti  Ti11  1  0.26810300  0.52973900  0.87530600  1
  Ti  Ti12  1  0.76810300  0.47026100  0.12469400  1
  Ti  Ti13  1  0.29509800  0.41018300  0.32772400  1
  Ti  Ti14  1  0.26992600  0.03073900  0.87855900  1
  Ti  Ti15  1  0.78467200  0.06955300  0.67935100  1
  O  O16  1  0.43391500  0.98858700  0.17900700  1
  O  O17  1  0.56308800  0.92741000  0.40765000  1
  O  O18  1  0.67197900  0.82736900  0.68670100  1
  O  O19  1  0.34992700  0.77918600  0.88247400  1
  O  O20  1  0.06723800  0.86149900  0.43068500  1
  O  O21  1  0.04102300  0.93948300  0.02506200  1
  O  O22  1  0.95283500  0.86984800  0.23259400  1
  O  O23  1  0.09543100  0.63505700  0.61600300  1
  O  O24  1  0.93243500  0.57611400  0.82227100  1
  O  O25  1  0.37981400  0.67277300  0.30584400  1
  O  O26  1  0.65145100  0.72817300  0.08855500  1
  O  O27  1  0.58796000  0.58798200  0.55375800  1
  O  O28  1  0.53891300  0.45293600  0.97370500  1
  O  O29  1  0.45266600  0.48445900  0.76510400  1
  O  O30  1  0.95266600  0.51554100  0.23489600  1
  O  O31  1  0.03891300  0.54706400  0.02629500  1
  O  O32  1  0.08796000  0.41201800  0.44624200  1
  O  O33  1  0.15145100  0.27182700  0.91144400  1
  O  O34  1  0.87981400  0.32722700  0.69415600  1
  O  O35  1  0.43243500  0.42388600  0.17772900  1
  O  O36  1  0.59543100  0.36494300  0.38399700  1
  O  O37  1  0.45283500  0.13015200  0.76740600  1
  O  O38  1  0.54102300  0.06051700  0.97493800  1
  O  O39  1  0.56723800  0.13850100  0.56931500  1
  O  O40  1  0.84992700  0.22081400  0.11752600  1
  O  O41  1  0.17197900  0.17263100  0.31329900  1
  O  O42  1  0.06308800  0.07259000  0.59235000  1
  O  O43  1  0.93391500  0.01141300  0.82099300  1
