# generated using pymatgen
data_Th2SN2
_symmetry_space_group_name_H-M   'P 1'
_cell_length_a   4.02305403
_cell_length_b   4.02305403
_cell_length_c   6.94199500
_cell_angle_alpha   90.00000000
_cell_angle_beta   90.00000000
_cell_angle_gamma   120.00000050
_symmetry_Int_Tables_number   1
_chemical_formula_structural   Th2SN2
_chemical_formula_sum   'Th2 S1 N2'
_cell_volume   97.30309548
_cell_formula_units_Z   1
loop_
 _symmetry_equiv_pos_site_id
 _symmetry_equiv_pos_as_xyz
  1  'x, y, z'
loop_
 _atom_site_type_symbol
 _atom_site_label
 _atom_site_symmetry_multiplicity
 _atom_site_fract_x
 _atom_site_fract_y
 _atom_site_fract_z
 _atom_site_occupancy
  Th  Th0  1  0.66666700  0.33333300  0.71190800  1
  Th  Th1  1  0.33333300  0.66666700  0.28809200  1
  S  S2  1  0.00000000  0.00000000  0.00000000  1
  N  N3  1  0.33333300  0.66666700  0.63086700  1
  N  N4  1  0.66666700  0.33333300  0.36913300  1
