# generated using pymatgen
data_Na7(WO3)9
_symmetry_space_group_name_H-M   'P 1'
_cell_length_a   6.86485000
_cell_length_b   8.83571905
_cell_length_c   9.70191552
_cell_angle_alpha   100.84301436
_cell_angle_beta   90.03643765
_cell_angle_gamma   104.66533700
_symmetry_Int_Tables_number   1
_chemical_formula_structural   Na7(WO3)9
_chemical_formula_sum   'Na7 W9 O27'
_cell_volume   558.42029252
_cell_formula_units_Z   1
loop_
 _symmetry_equiv_pos_site_id
 _symmetry_equiv_pos_as_xyz
  1  'x, y, z'
loop_
 _atom_site_type_symbol
 _atom_site_label
 _atom_site_symmetry_multiplicity
 _atom_site_fract_x
 _atom_site_fract_y
 _atom_site_fract_z
 _atom_site_occupancy
  Na  Na0  1  0.22199900  0.66689700  0.10955800  1
  Na  Na1  1  0.88859000  0.66802500  0.44404200  1
  Na  Na2  1  0.44399600  0.33089000  0.22096600  1
  Na  Na3  1  0.55523000  0.66515200  0.77894800  1
  Na  Na4  1  0.33405200  0.00291300  0.66740600  1
  Na  Na5  1  0.11018100  0.33093800  0.55523600  1
  Na  Na6  1  0.99953300  0.00233300  0.00173600  1
  W  W7  1  0.72279300  0.66689100  0.11135400  1
  W  W8  1  0.94346300  0.33059400  0.22075100  1
  W  W9  1  0.61340700  0.33208500  0.55584900  1
  W  W10  1  0.83372000  0.00101800  0.66730900  1
  W  W11  1  0.38952400  0.66933600  0.44264600  1
  W  W12  1  0.16525600  0.00150700  0.33461200  1
  W  W13  1  0.27895300  0.33554700  0.88673700  1
  W  W14  1  0.49975600  0.00367500  0.00091300  1
  W  W15  1  0.05345400  0.66398900  0.77891100  1
  O  O16  1  0.61228200  0.82838100  0.05335800  1
  O  O17  1  0.82867900  0.50722100  0.16785700  1
  O  O18  1  0.71683000  0.16098200  0.10847100  1
  O  O19  1  0.95793600  0.83415600  0.22138400  1
  O  O20  1  0.10992000  0.33723600  0.06261600  1
  O  O21  1  0.54877800  0.66144400  0.28085700  1
  O  O22  1  0.33480900  0.99716400  0.15992400  1
  O  O23  1  0.78149300  0.34184100  0.38400600  1
  O  O24  1  0.93927900  0.83677200  0.72183600  1
  O  O25  1  0.27566100  0.82723100  0.39279000  1
  O  O26  1  0.72020600  0.16434400  0.61055800  1
  O  O27  1  0.49853200  0.49810300  0.49744200  1
  O  O28  1  0.83633100  0.50261800  0.66019100  1
  O  O29  1  0.06195300  0.16959900  0.27741500  1
  O  O30  1  0.38445700  0.16333800  0.44170800  1
  O  O31  1  0.60250100  0.82553400  0.55779700  1
  O  O32  1  0.17028300  0.50422300  0.33878000  1
  O  O33  1  0.44005600  0.33275400  0.71758500  1
  O  O34  1  0.22324500  0.66835100  0.61197100  1
  O  O35  1  0.66105200  0.99245600  0.83709300  1
  O  O36  1  0.89544700  0.67659000  0.94173700  1
  O  O37  1  0.00526400  0.00042800  0.50444900  1
  O  O38  1  0.38568200  0.16051900  0.94560100  1
  O  O39  1  0.17446800  0.50386100  0.83066600  1
  O  O40  1  0.48906500  0.49703400  0.00244500  1
  O  O41  1  0.28530000  0.83481700  0.89029400  1
  O  O42  1  0.06214000  0.16787700  0.78197600  1
