# generated using pymatgen
data_CsZrCuSe3
_symmetry_space_group_name_H-M   'P 1'
_cell_length_a   8.38487027
_cell_length_b   8.38487027
_cell_length_c   10.28629500
_cell_angle_alpha   90.00000000
_cell_angle_beta   90.00000000
_cell_angle_gamma   152.77827731
_symmetry_Int_Tables_number   1
_chemical_formula_structural   CsZrCuSe3
_chemical_formula_sum   'Cs2 Zr2 Cu2 Se6'
_cell_volume   330.81192601
_cell_formula_units_Z   2
loop_
 _symmetry_equiv_pos_site_id
 _symmetry_equiv_pos_as_xyz
  1  'x, y, z'
loop_
 _atom_site_type_symbol
 _atom_site_label
 _atom_site_symmetry_multiplicity
 _atom_site_fract_x
 _atom_site_fract_y
 _atom_site_fract_z
 _atom_site_occupancy
  Cs  Cs0  1  0.74615100  0.25384900  0.25000000  1
  Cs  Cs1  1  0.25384900  0.74615100  0.75000000  1
  Zr  Zr2  1  0.00000000  0.00000000  0.50000000  1
  Zr  Zr3  1  0.00000000  0.00000000  0.00000000  1
  Cu  Cu4  1  0.53056500  0.46943500  0.75000000  1
  Cu  Cu5  1  0.46943500  0.53056500  0.25000000  1
  Se  Se6  1  0.61190500  0.38809500  0.55242800  1
  Se  Se7  1  0.38809500  0.61190500  0.44757200  1
  Se  Se8  1  0.06013800  0.93986200  0.25000000  1
  Se  Se9  1  0.93986200  0.06013800  0.75000000  1
  Se  Se10  1  0.61190500  0.38809500  0.94757200  1
  Se  Se11  1  0.38809500  0.61190500  0.05242800  1
