# generated using pymatgen
data_CaBiO3
_symmetry_space_group_name_H-M   'P 1'
_cell_length_a   6.06443200
_cell_length_b   5.80646800
_cell_length_c   10.22269878
_cell_angle_alpha   55.41793685
_cell_angle_beta   90.00000000
_cell_angle_gamma   90.00000000
_symmetry_Int_Tables_number   1
_chemical_formula_structural   CaBiO3
_chemical_formula_sum   'Ca4 Bi4 O12'
_cell_volume   296.36934656
_cell_formula_units_Z   4
loop_
 _symmetry_equiv_pos_site_id
 _symmetry_equiv_pos_as_xyz
  1  'x, y, z'
loop_
 _atom_site_type_symbol
 _atom_site_label
 _atom_site_symmetry_multiplicity
 _atom_site_fract_x
 _atom_site_fract_y
 _atom_site_fract_z
 _atom_site_occupancy
  Ca  Ca0  1  0.94080100  0.73692700  0.24927000  1
  Ca  Ca1  1  0.44080100  0.26307300  0.25073000  1
  Ca  Ca2  1  0.55919900  0.73692700  0.74927000  1
  Ca  Ca3  1  0.05919900  0.26307300  0.75073000  1
  Bi  Bi4  1  0.50000000  0.50000000  0.50000000  1
  Bi  Bi5  1  0.50000000  0.00000000  0.00000000  1
  Bi  Bi6  1  0.00000000  0.00000000  0.50000000  1
  Bi  Bi7  1  0.00000000  0.50000000  0.00000000  1
  O  O8  1  0.43375400  0.10482300  0.76235700  1
  O  O9  1  0.19907900  0.75948100  0.07047400  1
  O  O10  1  0.17941200  0.37081300  0.43216400  1
  O  O11  1  0.67941200  0.62918700  0.06783600  1
  O  O12  1  0.69907900  0.24051900  0.42952600  1
  O  O13  1  0.93375400  0.89517700  0.73764300  1
  O  O14  1  0.06624600  0.10482300  0.26235700  1
  O  O15  1  0.30092100  0.75948100  0.57047400  1
  O  O16  1  0.32058800  0.37081300  0.93216400  1
  O  O17  1  0.82058800  0.62918700  0.56783600  1
  O  O18  1  0.80092100  0.24051900  0.92952600  1
  O  O19  1  0.56624600  0.89517700  0.23764300  1
