# generated using pymatgen
data_LiTe(H3N)4
_symmetry_space_group_name_H-M   'P 1'
_cell_length_a   6.85851000
_cell_length_b   7.35601675
_cell_length_c   8.64768411
_cell_angle_alpha   103.36370649
_cell_angle_beta   113.28684572
_cell_angle_gamma   86.90281324
_symmetry_Int_Tables_number   1
_chemical_formula_structural   LiTe(H3N)4
_chemical_formula_sum   'Li2 Te2 H24 N8'
_cell_volume   389.55407633
_cell_formula_units_Z   2
loop_
 _symmetry_equiv_pos_site_id
 _symmetry_equiv_pos_as_xyz
  1  'x, y, z'
loop_
 _atom_site_type_symbol
 _atom_site_label
 _atom_site_symmetry_multiplicity
 _atom_site_fract_x
 _atom_site_fract_y
 _atom_site_fract_z
 _atom_site_occupancy
  Li  Li0  1  0.19984200  0.90427700  0.27671100  1
  Li  Li1  1  0.80015800  0.09572300  0.72328900  1
  Te  Te2  1  0.36669100  0.54448000  0.84263400  1
  Te  Te3  1  0.63330900  0.45552000  0.15736600  1
  H  H4  1  0.03207300  0.71530300  0.96561600  1
  H  H5  1  0.14366400  0.28945900  0.94811700  1
  H  H6  1  0.00694500  0.12871800  0.46873300  1
  H  H7  1  0.00341400  0.21766800  0.31215200  1
  H  H8  1  0.11833800  0.59915800  0.34858800  1
  H  H9  1  0.21587500  0.24511400  0.49408600  1
  H  H10  1  0.40202600  0.01222000  0.65195300  1
  H  H11  1  0.51953200  0.12555900  0.85464100  1
  H  H12  1  0.33315800  0.68591100  0.52055400  1
  H  H13  1  0.12688200  0.10960400  0.02596600  1
  H  H14  1  0.53648000  0.89631300  0.79899500  1
  H  H15  1  0.35270600  0.59225800  0.33497700  1
  H  H16  1  0.64729400  0.40774200  0.66502300  1
  H  H17  1  0.46352000  0.10368700  0.20100500  1
  H  H18  1  0.87311800  0.89039600  0.97403400  1
  H  H19  1  0.66684200  0.31408900  0.47944600  1
  H  H20  1  0.48046800  0.87444100  0.14535900  1
  H  H21  1  0.59797400  0.98778000  0.34804700  1
  H  H22  1  0.78412500  0.75488600  0.50591400  1
  H  H23  1  0.88166200  0.40084200  0.65141200  1
  H  H24  1  0.99658600  0.78233200  0.68784800  1
  H  H25  1  0.99305500  0.87128200  0.53126700  1
  H  H26  1  0.85633600  0.71054100  0.05188300  1
  H  H27  1  0.96792700  0.28469700  0.03438400  1
  N  N28  1  0.03813400  0.20384200  0.95833900  1
  N  N29  1  0.09856200  0.14896200  0.40485700  1
  N  N30  1  0.25874200  0.67405000  0.38934400  1
  N  N31  1  0.53761500  0.01912000  0.76126000  1
  N  N32  1  0.46238500  0.98088000  0.23874000  1
  N  N33  1  0.74125800  0.32595000  0.61065600  1
  N  N34  1  0.90143800  0.85103800  0.59514300  1
  N  N35  1  0.96186600  0.79615800  0.04166100  1
