# generated using pymatgen
data_Li2Ti3ZnO8
_symmetry_space_group_name_H-M   'P 1'
_cell_length_a   8.44692300
_cell_length_b   8.44692300
_cell_length_c   8.44692300
_cell_angle_alpha   90.00000000
_cell_angle_beta   90.00000000
_cell_angle_gamma   90.00000000
_symmetry_Int_Tables_number   1
_chemical_formula_structural   Li2Ti3ZnO8
_chemical_formula_sum   'Li8 Ti12 Zn4 O32'
_cell_volume   602.69224851
_cell_formula_units_Z   4
loop_
 _symmetry_equiv_pos_site_id
 _symmetry_equiv_pos_as_xyz
  1  'x, y, z'
loop_
 _atom_site_type_symbol
 _atom_site_label
 _atom_site_symmetry_multiplicity
 _atom_site_fract_x
 _atom_site_fract_y
 _atom_site_fract_z
 _atom_site_occupancy
  Li  Li0  1  0.00212200  0.49787800  0.50212200  1
  Li  Li1  1  0.12482400  0.87517600  0.37517600  1
  Li  Li2  1  0.37517600  0.12482400  0.87517600  1
  Li  Li3  1  0.49787800  0.50212200  0.00212200  1
  Li  Li4  1  0.50212200  0.00212200  0.49787800  1
  Li  Li5  1  0.62482400  0.62482400  0.62482400  1
  Li  Li6  1  0.87517600  0.37517600  0.12482400  1
  Li  Li7  1  0.99787800  0.99787800  0.99787800  1
  Ti  Ti8  1  0.12039300  0.62732500  0.13491700  1
  Ti  Ti9  1  0.12732500  0.36508300  0.87960700  1
  Ti  Ti10  1  0.13491700  0.12039300  0.62732500  1
  Ti  Ti11  1  0.36508300  0.87960700  0.12732500  1
  Ti  Ti12  1  0.37267500  0.63491700  0.37960700  1
  Ti  Ti13  1  0.37960700  0.37267500  0.63491700  1
  Ti  Ti14  1  0.62039300  0.87267500  0.86508300  1
  Ti  Ti15  1  0.62732500  0.13491700  0.12039300  1
  Ti  Ti16  1  0.63491700  0.37960700  0.37267500  1
  Ti  Ti17  1  0.86508300  0.62039300  0.87267500  1
  Ti  Ti18  1  0.87267500  0.86508300  0.62039300  1
  Ti  Ti19  1  0.87960700  0.12732500  0.36508300  1
  Zn  Zn20  1  0.24787400  0.74787400  0.75212600  1
  Zn  Zn21  1  0.25212600  0.25212600  0.25212600  1
  Zn  Zn22  1  0.74787400  0.75212600  0.24787400  1
  Zn  Zn23  1  0.75212600  0.24787400  0.74787400  1
  O  O24  1  0.10702700  0.12722700  0.38968100  1
  O  O25  1  0.11031900  0.89297300  0.62722700  1
  O  O26  1  0.11208600  0.61208600  0.88791400  1
  O  O27  1  0.12310900  0.14443200  0.85859100  1
  O  O28  1  0.12722700  0.38968100  0.10702700  1
  O  O29  1  0.13888300  0.36111700  0.63888300  1
  O  O30  1  0.14140900  0.62310900  0.35556800  1
  O  O31  1  0.14443200  0.85859100  0.12310900  1
  O  O32  1  0.35556800  0.14140900  0.62310900  1
  O  O33  1  0.35859100  0.37689100  0.85556800  1
  O  O34  1  0.36111700  0.63888300  0.13888300  1
  O  O35  1  0.37277300  0.61031900  0.60702700  1
  O  O36  1  0.37689100  0.85556800  0.35859100  1
  O  O37  1  0.38791400  0.38791400  0.38791400  1
  O  O38  1  0.38968100  0.10702700  0.12722700  1
  O  O39  1  0.39297300  0.87277300  0.88968100  1
  O  O40  1  0.60702700  0.37277300  0.61031900  1
  O  O41  1  0.61031900  0.60702700  0.37277300  1
  O  O42  1  0.61208600  0.88791400  0.11208600  1
  O  O43  1  0.62310900  0.35556800  0.14140900  1
  O  O44  1  0.62722700  0.11031900  0.89297300  1
  O  O45  1  0.63888300  0.13888300  0.36111700  1
  O  O46  1  0.64140900  0.87689100  0.64443200  1
  O  O47  1  0.64443200  0.64140900  0.87689100  1
  O  O48  1  0.85556800  0.35859100  0.37689100  1
  O  O49  1  0.85859100  0.12310900  0.14443200  1
  O  O50  1  0.86111700  0.86111700  0.86111700  1
  O  O51  1  0.87277300  0.88968100  0.39297300  1
  O  O52  1  0.87689100  0.64443200  0.64140900  1
  O  O53  1  0.88791400  0.11208600  0.61208600  1
  O  O54  1  0.88968100  0.39297300  0.87277300  1
  O  O55  1  0.89297300  0.62722700  0.11031900  1
