# generated using pymatgen
data_Na2SnO2
_symmetry_space_group_name_H-M   'P 1'
_cell_length_a   5.85194700
_cell_length_b   6.87972300
_cell_length_c   17.01531900
_cell_angle_alpha   90.00000000
_cell_angle_beta   90.00000000
_cell_angle_gamma   90.00000000
_symmetry_Int_Tables_number   1
_chemical_formula_structural   Na2SnO2
_chemical_formula_sum   'Na16 Sn8 O16'
_cell_volume   685.03290379
_cell_formula_units_Z   8
loop_
 _symmetry_equiv_pos_site_id
 _symmetry_equiv_pos_as_xyz
  1  'x, y, z'
loop_
 _atom_site_type_symbol
 _atom_site_label
 _atom_site_symmetry_multiplicity
 _atom_site_fract_x
 _atom_site_fract_y
 _atom_site_fract_z
 _atom_site_occupancy
  Na  Na0  1  0.25000000  0.12119100  0.00000000  1
  Na  Na1  1  0.25000000  0.62709800  0.00000000  1
  Na  Na2  1  0.75000000  0.37290200  0.00000000  1
  Na  Na3  1  0.75000000  0.87880900  0.00000000  1
  Na  Na4  1  0.58092100  0.12455100  0.14699200  1
  Na  Na5  1  0.08092100  0.87544900  0.14699200  1
  Na  Na6  1  0.08092100  0.37544900  0.35300800  1
  Na  Na7  1  0.58092100  0.62455100  0.35300800  1
  Na  Na8  1  0.25000000  0.12709800  0.50000000  1
  Na  Na9  1  0.75000000  0.37880900  0.50000000  1
  Na  Na10  1  0.25000000  0.62119100  0.50000000  1
  Na  Na11  1  0.75000000  0.87290200  0.50000000  1
  Na  Na12  1  0.41907900  0.37544900  0.64699200  1
  Na  Na13  1  0.91907900  0.62455100  0.64699200  1
  Na  Na14  1  0.91907900  0.12455100  0.85300800  1
  Na  Na15  1  0.41907900  0.87544900  0.85300800  1
  Sn  Sn16  1  0.06688900  0.36843500  0.15916900  1
  Sn  Sn17  1  0.56688900  0.63156500  0.15916900  1
  Sn  Sn18  1  0.56688900  0.13156500  0.34083100  1
  Sn  Sn19  1  0.06688900  0.86843500  0.34083100  1
  Sn  Sn20  1  0.93311100  0.13156500  0.65916900  1
  Sn  Sn21  1  0.43311100  0.86843500  0.65916900  1
  Sn  Sn22  1  0.43311100  0.36843500  0.84083100  1
  Sn  Sn23  1  0.93311100  0.63156500  0.84083100  1
  O  O24  1  0.44051200  0.84707700  0.08878700  1
  O  O25  1  0.94051200  0.15292300  0.08878700  1
  O  O26  1  0.38571800  0.40254200  0.09885200  1
  O  O27  1  0.88571800  0.59745800  0.09885200  1
  O  O28  1  0.88571800  0.09745800  0.40114800  1
  O  O29  1  0.38571800  0.90254200  0.40114800  1
  O  O30  1  0.44051200  0.34707700  0.41121300  1
  O  O31  1  0.94051200  0.65292300  0.41121300  1
  O  O32  1  0.05948800  0.34707700  0.58878700  1
  O  O33  1  0.55948800  0.65292300  0.58878700  1
  O  O34  1  0.61428200  0.09745800  0.59885200  1
  O  O35  1  0.11428200  0.90254200  0.59885200  1
  O  O36  1  0.11428200  0.40254200  0.90114800  1
  O  O37  1  0.61428200  0.59745800  0.90114800  1
  O  O38  1  0.55948800  0.15292300  0.91121300  1
  O  O39  1  0.05948800  0.84707700  0.91121300  1
