# generated using pymatgen
data_SbRhO4
_symmetry_space_group_name_H-M   'P 1'
_cell_length_a   5.66728958
_cell_length_b   5.66728958
_cell_length_c   5.66728958
_cell_angle_alpha   108.22947541
_cell_angle_beta   108.22947541
_cell_angle_gamma   111.98431962
_symmetry_Int_Tables_number   1
_chemical_formula_structural   SbRhO4
_chemical_formula_sum   'Sb2 Rh2 O8'
_cell_volume   139.91819627
_cell_formula_units_Z   2
loop_
 _symmetry_equiv_pos_site_id
 _symmetry_equiv_pos_as_xyz
  1  'x, y, z'
loop_
 _atom_site_type_symbol
 _atom_site_label
 _atom_site_symmetry_multiplicity
 _atom_site_fract_x
 _atom_site_fract_y
 _atom_site_fract_z
 _atom_site_occupancy
  Sb  Sb0  1  0.25318200  0.75318200  0.50000000  1
  Sb  Sb1  1  0.00318200  0.00318200  0.00000000  1
  Rh  Rh2  1  0.74625600  0.24625600  0.50000000  1
  Rh  Rh3  1  0.49625600  0.49625600  0.00000000  1
  O  O4  1  0.94524100  0.75387400  0.19136700  1
  O  O5  1  0.43904900  0.24640700  0.19264100  1
  O  O6  1  0.49640700  0.80376600  0.30735900  1
  O  O7  1  0.00387400  0.31250700  0.30863300  1
  O  O8  1  0.49640700  0.18904900  0.69264100  1
  O  O9  1  0.00387400  0.69524100  0.69136700  1
  O  O10  1  0.05376600  0.24640700  0.80735900  1
  O  O11  1  0.56250700  0.75387400  0.80863300  1
