# generated using pymatgen
data_K2VPCO7
_symmetry_space_group_name_H-M   'P 1'
_cell_length_a   5.63788639
_cell_length_b   19.58307543
_cell_length_c   6.72861606
_cell_angle_alpha   90.00423871
_cell_angle_beta   90.01491543
_cell_angle_gamma   89.86209758
_symmetry_Int_Tables_number   1
_chemical_formula_structural   K2VPCO7
_chemical_formula_sum   'K8 V4 P4 C4 O28'
_cell_volume   742.88517399
_cell_formula_units_Z   4
loop_
 _symmetry_equiv_pos_site_id
 _symmetry_equiv_pos_as_xyz
  1  'x, y, z'
loop_
 _atom_site_type_symbol
 _atom_site_label
 _atom_site_symmetry_multiplicity
 _atom_site_fract_x
 _atom_site_fract_y
 _atom_site_fract_z
 _atom_site_occupancy
  K  K0  1  0.24582500  0.11867500  0.47764200  1
  K  K1  1  0.24572800  0.61873900  0.47762600  1
  K  K2  1  0.24595700  0.11869600  0.02231700  1
  K  K3  1  0.24556700  0.61867300  0.02243500  1
  K  K4  1  0.75479900  0.38131600  0.52259100  1
  K  K5  1  0.75423000  0.88127200  0.52238300  1
  K  K6  1  0.75394600  0.38121200  0.97778800  1
  K  K7  1  0.75412200  0.88130300  0.97765200  1
  V  V8  1  0.77350900  0.67908000  0.75012100  1
  V  V9  1  0.22613700  0.82094800  0.25001700  1
  V  V10  1  0.77401400  0.17901100  0.75002700  1
  V  V11  1  0.22635500  0.32082800  0.24987300  1
  P  P12  1  0.72188300  0.21627800  0.25008000  1
  P  P13  1  0.72157000  0.71630500  0.25005400  1
  P  P14  1  0.27838100  0.28367500  0.74993400  1
  P  P15  1  0.27834500  0.78375100  0.75004300  1
  C  C16  1  0.73048900  0.05211800  0.75001100  1
  C  C17  1  0.73044500  0.55210300  0.74999900  1
  C  C18  1  0.26944300  0.44789500  0.24998000  1
  C  C19  1  0.26940800  0.94794300  0.25001600  1
  O  O20  1  0.29142400  0.01130100  0.24995800  1
  O  O21  1  0.29145000  0.51126200  0.25001700  1
  O  O22  1  0.70822800  0.48875000  0.75011900  1
  O  O23  1  0.70847400  0.98876100  0.74994800  1
  O  O24  1  0.93625600  0.08449900  0.75002700  1
  O  O25  1  0.93621200  0.58444100  0.74945900  1
  O  O26  1  0.06379400  0.41547000  0.24874800  1
  O  O27  1  0.06369200  0.91554600  0.25009600  1
  O  O28  1  0.54982600  0.09573400  0.75006800  1
  O  O29  1  0.54988000  0.59579500  0.75049200  1
  O  O30  1  0.45020200  0.40431600  0.25119400  1
  O  O31  1  0.45005900  0.90431000  0.24999300  1
  O  O32  1  0.10972200  0.22075800  0.74990800  1
  O  O33  1  0.10948400  0.72091300  0.75016200  1
  O  O34  1  0.89075600  0.27912800  0.25037900  1
  O  O35  1  0.89050300  0.77913900  0.24989900  1
  O  O36  1  0.45621000  0.23893900  0.24903600  1
  O  O37  1  0.45589100  0.73897500  0.24994000  1
  O  O38  1  0.54420700  0.26113800  0.74997600  1
  O  O39  1  0.54402400  0.76104900  0.74965100  1
  O  O40  1  0.76804500  0.17236600  0.06067400  1
  O  O41  1  0.76733300  0.67234700  0.06065400  1
  O  O42  1  0.76685000  0.17227600  0.43950700  1
  O  O43  1  0.76742400  0.67233300  0.43941600  1
  O  O44  1  0.23243400  0.32761600  0.56056800  1
  O  O45  1  0.23217300  0.82769300  0.56066400  1
  O  O46  1  0.23260200  0.32761200  0.93940300  1
  O  O47  1  0.23268700  0.82771400  0.93945600  1
