# generated using pymatgen
data_CrH12(ClO2)3
_symmetry_space_group_name_H-M   'P 1'
_cell_length_a   8.05277724
_cell_length_b   8.05277724
_cell_length_c   8.05277733
_cell_angle_alpha   97.92861607
_cell_angle_beta   97.92861607
_cell_angle_gamma   97.92861851
_symmetry_Int_Tables_number   1
_chemical_formula_structural   CrH12(ClO2)3
_chemical_formula_sum   'Cr2 H24 Cl6 O12'
_cell_volume   505.66379657
_cell_formula_units_Z   2
loop_
 _symmetry_equiv_pos_site_id
 _symmetry_equiv_pos_as_xyz
  1  'x, y, z'
loop_
 _atom_site_type_symbol
 _atom_site_label
 _atom_site_symmetry_multiplicity
 _atom_site_fract_x
 _atom_site_fract_y
 _atom_site_fract_z
 _atom_site_occupancy
  Cr  Cr0  1  0.50000000  0.50000000  0.50000000  1
  Cr  Cr1  1  0.00000000  0.00000000  0.00000000  1
  H  H2  1  0.27895500  0.23713100  0.54133400  1
  H  H3  1  0.54133400  0.27895500  0.23713100  1
  H  H4  1  0.23713100  0.54133400  0.27895500  1
  H  H5  1  0.04133400  0.73713100  0.77895500  1
  H  H6  1  0.77895500  0.04133400  0.73713100  1
  H  H7  1  0.73713100  0.77895500  0.04133400  1
  H  H8  1  0.72104500  0.76286900  0.45866600  1
  H  H9  1  0.45866600  0.72104500  0.76286900  1
  H  H10  1  0.76286900  0.45866600  0.72104500  1
  H  H11  1  0.95866600  0.26286900  0.22104500  1
  H  H12  1  0.22104500  0.95866600  0.26286900  1
  H  H13  1  0.26286900  0.22104500  0.95866600  1
  H  H14  1  0.20442200  0.40834600  0.61390400  1
  H  H15  1  0.61390400  0.20442200  0.40834600  1
  H  H16  1  0.40834600  0.61390400  0.20442200  1
  H  H17  1  0.11390400  0.90834600  0.70442200  1
  H  H18  1  0.70442200  0.11390400  0.90834600  1
  H  H19  1  0.90834600  0.70442200  0.11390400  1
  H  H20  1  0.79557800  0.59165400  0.38609600  1
  H  H21  1  0.38609600  0.79557800  0.59165400  1
  H  H22  1  0.59165400  0.38609600  0.79557800  1
  H  H23  1  0.88609600  0.09165400  0.29557800  1
  H  H24  1  0.29557800  0.88609600  0.09165400  1
  H  H25  1  0.09165400  0.29557800  0.88609600  1
  Cl  Cl26  1  0.97793100  0.52206900  0.25000000  1
  Cl  Cl27  1  0.25000000  0.97793100  0.52206900  1
  Cl  Cl28  1  0.52206900  0.25000000  0.97793100  1
  Cl  Cl29  1  0.75000000  0.02206900  0.47793100  1
  Cl  Cl30  1  0.47793100  0.75000000  0.02206900  1
  Cl  Cl31  1  0.02206900  0.47793100  0.75000000  1
  O  O32  1  0.29129100  0.36386700  0.55039700  1
  O  O33  1  0.55039700  0.29129100  0.36386700  1
  O  O34  1  0.36386700  0.55039700  0.29129100  1
  O  O35  1  0.05039700  0.86386700  0.79129100  1
  O  O36  1  0.79129100  0.05039700  0.86386700  1
  O  O37  1  0.86386700  0.79129100  0.05039700  1
  O  O38  1  0.70870900  0.63613300  0.44960300  1
  O  O39  1  0.44960300  0.70870900  0.63613300  1
  O  O40  1  0.63613300  0.44960300  0.70870900  1
  O  O41  1  0.94960300  0.13613300  0.20870900  1
  O  O42  1  0.20870900  0.94960300  0.13613300  1
  O  O43  1  0.13613300  0.20870900  0.94960300  1
