# generated using pymatgen
data_Li9Mn12Ni3O32
_symmetry_space_group_name_H-M   'P 1'
_cell_length_a   8.29721717
_cell_length_b   8.29721717
_cell_length_c   8.26364727
_cell_angle_alpha   89.80161724
_cell_angle_beta   89.80161724
_cell_angle_gamma   90.11635882
_symmetry_Int_Tables_number   1
_chemical_formula_structural   Li9Mn12Ni3O32
_chemical_formula_sum   'Li9 Mn12 Ni3 O32'
_cell_volume   568.89297791
_cell_formula_units_Z   1
loop_
 _symmetry_equiv_pos_site_id
 _symmetry_equiv_pos_as_xyz
  1  'x, y, z'
loop_
 _atom_site_type_symbol
 _atom_site_label
 _atom_site_symmetry_multiplicity
 _atom_site_fract_x
 _atom_site_fract_y
 _atom_site_fract_z
 _atom_site_occupancy
  Li  Li0  1  0.00743900  0.24816300  0.87207600  1
  Li  Li1  1  0.24547600  0.00091700  0.62968400  1
  Li  Li2  1  0.74521300  0.49728200  0.62229600  1
  Li  Li3  1  0.50271800  0.25478700  0.37770400  1
  Li  Li4  1  0.99908300  0.75452400  0.37031600  1
  Li  Li5  1  0.75183700  0.99256100  0.12792400  1
  Li  Li6  1  0.25232500  0.50404800  0.11951100  1
  Li  Li7  1  0.12583700  0.87416300  0.00000000  1
  Li  Li8  1  0.49595200  0.74767500  0.88048900  1
  Mn  Mn9  1  0.62320200  0.12230100  0.75215400  1
  Mn  Mn10  1  0.87424500  0.86951000  0.75009800  1
  Mn  Mn11  1  0.12182700  0.62667200  0.74842600  1
  Mn  Mn12  1  0.62123900  0.87501400  0.50245900  1
  Mn  Mn13  1  0.37122600  0.62877400  0.50000000  1
  Mn  Mn14  1  0.12498600  0.37876100  0.49754100  1
  Mn  Mn15  1  0.37332800  0.87817300  0.25157400  1
  Mn  Mn16  1  0.13049000  0.12575500  0.24990200  1
  Mn  Mn17  1  0.87769900  0.37679800  0.24784600  1
  Mn  Mn18  1  0.37680100  0.12330600  0.00401000  1
  Mn  Mn19  1  0.62802800  0.37197200  0.00000000  1
  Mn  Mn20  1  0.87669400  0.62319900  0.99599000  1
  Ni  Ni21  1  0.37434400  0.37578900  0.75076400  1
  Ni  Ni22  1  0.87629100  0.12370900  0.50000000  1
  Ni  Ni23  1  0.62421100  0.62565600  0.24923600  1
  O  O24  1  0.39336800  0.12503900  0.77216500  1
  O  O25  1  0.62452500  0.35171400  0.76616900  1
  O  O26  1  0.88441700  0.63625000  0.75890700  1
  O  O27  1  0.09932400  0.85555500  0.74558000  1
  O  O28  1  0.86138100  0.10561900  0.73253200  1
  O  O29  1  0.63571300  0.88730100  0.73903800  1
  O  O30  1  0.35135500  0.62478800  0.73315100  1
  O  O31  1  0.12552400  0.39214700  0.72692900  1
  O  O32  1  0.62900800  0.10879000  0.51989800  1
  O  O33  1  0.85213700  0.87978300  0.51296100  1
  O  O34  1  0.13573300  0.61356500  0.50872800  1
  O  O35  1  0.35700300  0.39791200  0.49979100  1
  O  O36  1  0.60208800  0.64299700  0.50020900  1
  O  O37  1  0.38643500  0.86426700  0.49127200  1
  O  O38  1  0.12021700  0.14786300  0.48703900  1
  O  O39  1  0.89121000  0.37099200  0.48010200  1
  O  O40  1  0.60785300  0.87447600  0.27307100  1
  O  O41  1  0.37521200  0.64864500  0.26684900  1
  O  O42  1  0.11269900  0.36428700  0.26096200  1
  O  O43  1  0.89438100  0.13861900  0.26746800  1
  O  O44  1  0.14444500  0.90067600  0.25442000  1
  O  O45  1  0.36375000  0.11558300  0.24109300  1
  O  O46  1  0.64828600  0.37547500  0.23383100  1
  O  O47  1  0.87496100  0.60663200  0.22783500  1
  O  O48  1  0.37838400  0.89499600  0.02512100  1
  O  O49  1  0.14914400  0.12839000  0.02060500  1
  O  O50  1  0.86452000  0.38282600  0.01216800  1
  O  O51  1  0.64220300  0.60083800  0.00004900  1
  O  O52  1  0.39916200  0.35779700  0.99995100  1
  O  O53  1  0.61717400  0.13548000  0.98783200  1
  O  O54  1  0.87161000  0.85085600  0.97939500  1
  O  O55  1  0.10500400  0.62161600  0.97487900  1
