# generated using pymatgen
data_AlH6N2Cl3
_symmetry_space_group_name_H-M   'P 1'
_cell_length_a   6.58683800
_cell_length_b   11.50503600
_cell_length_c   18.32680300
_cell_angle_alpha   90.00000000
_cell_angle_beta   90.00000000
_cell_angle_gamma   90.00000000
_symmetry_Int_Tables_number   1
_chemical_formula_structural   AlH6N2Cl3
_chemical_formula_sum   'Al8 H48 N16 Cl24'
_cell_volume   1388.83827199
_cell_formula_units_Z   8
loop_
 _symmetry_equiv_pos_site_id
 _symmetry_equiv_pos_as_xyz
  1  'x, y, z'
loop_
 _atom_site_type_symbol
 _atom_site_label
 _atom_site_symmetry_multiplicity
 _atom_site_fract_x
 _atom_site_fract_y
 _atom_site_fract_z
 _atom_site_occupancy
  Al  Al0  1  0.00000000  0.50000000  0.50000000  1
  Al  Al1  1  0.50000000  0.00000000  0.00000000  1
  Al  Al2  1  0.00000000  0.50000000  0.00000000  1
  Al  Al3  1  0.50000000  0.00000000  0.50000000  1
  Al  Al4  1  0.05490500  0.76017400  0.25000000  1
  Al  Al5  1  0.44509500  0.26017400  0.25000000  1
  Al  Al6  1  0.94509500  0.23982600  0.75000000  1
  Al  Al7  1  0.55490500  0.73982600  0.75000000  1
  H  H8  1  0.79497700  0.58176800  0.38756000  1
  H  H9  1  0.70502300  0.08176800  0.11244000  1
  H  H10  1  0.20502300  0.41823200  0.88756000  1
  H  H11  1  0.29497700  0.91823200  0.61244000  1
  H  H12  1  0.20502300  0.41823200  0.61244000  1
  H  H13  1  0.29497700  0.91823200  0.88756000  1
  H  H14  1  0.79497700  0.58176800  0.11244000  1
  H  H15  1  0.70502300  0.08176800  0.38756000  1
  H  H16  1  0.82790200  0.68830900  0.44508800  1
  H  H17  1  0.67209800  0.18830900  0.05491200  1
  H  H18  1  0.17209800  0.31169100  0.94508800  1
  H  H19  1  0.32790200  0.81169100  0.55491200  1
  H  H20  1  0.17209800  0.31169100  0.55491200  1
  H  H21  1  0.32790200  0.81169100  0.94508800  1
  H  H22  1  0.82790200  0.68830900  0.05491200  1
  H  H23  1  0.67209800  0.18830900  0.44508800  1
  H  H24  1  0.64912400  0.59061500  0.45999300  1
  H  H25  1  0.85087600  0.09061500  0.04000700  1
  H  H26  1  0.35087600  0.40938500  0.95999300  1
  H  H27  1  0.14912400  0.90938500  0.54000700  1
  H  H28  1  0.35087600  0.40938500  0.54000700  1
  H  H29  1  0.14912400  0.90938500  0.95999300  1
  H  H30  1  0.64912400  0.59061500  0.04000700  1
  H  H31  1  0.85087600  0.09061500  0.45999300  1
  H  H32  1  0.85439100  0.54598400  0.62642500  1
  H  H33  1  0.64560900  0.04598400  0.87357500  1
  H  H34  1  0.14560900  0.45401600  0.12642500  1
  H  H35  1  0.35439100  0.95401600  0.37357500  1
  H  H36  1  0.14560900  0.45401600  0.37357500  1
  H  H37  1  0.35439100  0.95401600  0.12642500  1
  H  H38  1  0.85439100  0.54598400  0.87357500  1
  H  H39  1  0.64560900  0.04598400  0.62642500  1
  H  H40  1  0.86931200  0.67033900  0.58286300  1
  H  H41  1  0.63068800  0.17033900  0.91713700  1
  H  H42  1  0.13068800  0.32966100  0.08286300  1
  H  H43  1  0.36931200  0.82966100  0.41713700  1
  H  H44  1  0.13068800  0.32966100  0.41713700  1
  H  H45  1  0.36931200  0.82966100  0.08286300  1
  H  H46  1  0.86931200  0.67033900  0.91713700  1
  H  H47  1  0.63068800  0.17033900  0.58286300  1
  H  H48  1  0.07296400  0.61420100  0.62016800  1
  H  H49  1  0.42703600  0.11420100  0.87983200  1
  H  H50  1  0.92703600  0.38579900  0.12016800  1
  H  H51  1  0.57296400  0.88579900  0.37983200  1
  H  H52  1  0.92703600  0.38579900  0.37983200  1
  H  H53  1  0.57296400  0.88579900  0.12016800  1
  H  H54  1  0.07296400  0.61420100  0.87983200  1
  H  H55  1  0.42703600  0.11420100  0.62016800  1
  N  N56  1  0.29704300  0.89913500  0.55743800  1
  N  N57  1  0.20295700  0.39913500  0.94256200  1
  N  N58  1  0.70295700  0.10086500  0.05743800  1
  N  N59  1  0.79704300  0.60086500  0.44256200  1
  N  N60  1  0.70295700  0.10086500  0.44256200  1
  N  N61  1  0.79704300  0.60086500  0.05743800  1
  N  N62  1  0.29704300  0.89913500  0.94256200  1
  N  N63  1  0.20295700  0.39913500  0.55743800  1
  N  N64  1  0.94350600  0.59302300  0.59148400  1
  N  N65  1  0.55649400  0.09302300  0.90851600  1
  N  N66  1  0.05649400  0.40697700  0.09148400  1
  N  N67  1  0.44350600  0.90697700  0.40851600  1
  N  N68  1  0.05649400  0.40697700  0.40851600  1
  N  N69  1  0.44350600  0.90697700  0.09148400  1
  N  N70  1  0.94350600  0.59302300  0.90851600  1
  N  N71  1  0.55649400  0.09302300  0.59148400  1
  Cl  Cl72  1  0.26603500  0.62622700  0.46820500  1
  Cl  Cl73  1  0.23396500  0.12622700  0.03179500  1
  Cl  Cl74  1  0.73396500  0.37377300  0.96820500  1
  Cl  Cl75  1  0.76603500  0.87377300  0.53179500  1
  Cl  Cl76  1  0.73396500  0.37377300  0.53179500  1
  Cl  Cl77  1  0.76603500  0.87377300  0.96820500  1
  Cl  Cl78  1  0.26603500  0.62622700  0.03179500  1
  Cl  Cl79  1  0.23396500  0.12622700  0.46820500  1
  Cl  Cl80  1  0.95173400  0.85467700  0.34542600  1
  Cl  Cl81  1  0.54826600  0.35467700  0.15457400  1
  Cl  Cl82  1  0.04826600  0.14532300  0.84542600  1
  Cl  Cl83  1  0.45173400  0.64532300  0.65457400  1
  Cl  Cl84  1  0.04826600  0.14532300  0.65457400  1
  Cl  Cl85  1  0.45173400  0.64532300  0.84542600  1
  Cl  Cl86  1  0.95173400  0.85467700  0.15457400  1
  Cl  Cl87  1  0.54826600  0.35467700  0.34542600  1
  Cl  Cl88  1  0.92152800  0.58754500  0.25000000  1
  Cl  Cl89  1  0.57847200  0.08754500  0.25000000  1
  Cl  Cl90  1  0.07847200  0.41245500  0.75000000  1
  Cl  Cl91  1  0.42152800  0.91245500  0.75000000  1
  Cl  Cl92  1  0.12030500  0.24608000  0.25000000  1
  Cl  Cl93  1  0.37969500  0.74608000  0.25000000  1
  Cl  Cl94  1  0.87969500  0.75392000  0.75000000  1
  Cl  Cl95  1  0.62030500  0.25392000  0.75000000  1
