# generated using pymatgen
data_Li2CuF6
_symmetry_space_group_name_H-M   'P 1'
_cell_length_a   4.66806600
_cell_length_b   4.66806600
_cell_length_c   8.94421200
_cell_angle_alpha   90.00000000
_cell_angle_beta   90.00000000
_cell_angle_gamma   90.00000000
_symmetry_Int_Tables_number   1
_chemical_formula_structural   Li2CuF6
_chemical_formula_sum   'Li4 Cu2 F12'
_cell_volume   194.90189423
_cell_formula_units_Z   2
loop_
 _symmetry_equiv_pos_site_id
 _symmetry_equiv_pos_as_xyz
  1  'x, y, z'
loop_
 _atom_site_type_symbol
 _atom_site_label
 _atom_site_symmetry_multiplicity
 _atom_site_fract_x
 _atom_site_fract_y
 _atom_site_fract_z
 _atom_site_occupancy
  Li  Li0  1  0.50000000  0.50000000  0.33687500  1
  Li  Li1  1  0.50000000  0.50000000  0.66312500  1
  Li  Li2  1  0.00000000  0.00000000  0.16312500  1
  Li  Li3  1  0.00000000  0.00000000  0.83687500  1
  Cu  Cu4  1  0.50000000  0.50000000  0.00000000  1
  Cu  Cu5  1  0.00000000  0.00000000  0.50000000  1
  F  F6  1  0.68870100  0.31129900  0.15539000  1
  F  F7  1  0.68870100  0.31129900  0.84461000  1
  F  F8  1  0.71351600  0.28648400  0.50000000  1
  F  F9  1  0.78648400  0.78648400  0.00000000  1
  F  F10  1  0.81129900  0.81129900  0.34461000  1
  F  F11  1  0.81129900  0.81129900  0.65539000  1
  F  F12  1  0.18870100  0.18870100  0.34461000  1
  F  F13  1  0.18870100  0.18870100  0.65539000  1
  F  F14  1  0.21351600  0.21351600  0.00000000  1
  F  F15  1  0.28648400  0.71351600  0.50000000  1
  F  F16  1  0.31129900  0.68870100  0.15539000  1
  F  F17  1  0.31129900  0.68870100  0.84461000  1
