# generated using pymatgen
data_Tl3AsSe3
_symmetry_space_group_name_H-M   'P 1'
_cell_length_a   6.40150600
_cell_length_b   6.40150600
_cell_length_c   6.40150616
_cell_angle_alpha   106.68506667
_cell_angle_beta   106.68506667
_cell_angle_gamma   106.68506134
_symmetry_Int_Tables_number   1
_chemical_formula_structural   Tl3AsSe3
_chemical_formula_sum   'Tl3 As1 Se3'
_cell_volume   220.32014184
_cell_formula_units_Z   1
loop_
 _symmetry_equiv_pos_site_id
 _symmetry_equiv_pos_as_xyz
  1  'x, y, z'
loop_
 _atom_site_type_symbol
 _atom_site_label
 _atom_site_symmetry_multiplicity
 _atom_site_fract_x
 _atom_site_fract_y
 _atom_site_fract_z
 _atom_site_occupancy
  Tl  Tl0  1  0.55489500  0.15198700  0.15198700  1
  Tl  Tl1  1  0.15198700  0.55489500  0.15198700  1
  Tl  Tl2  1  0.15198700  0.15198700  0.55489500  1
  As  As3  1  0.69908500  0.69908500  0.69908500  1
  Se  Se4  1  0.72025300  0.09053900  0.72025300  1
  Se  Se5  1  0.72025300  0.72025300  0.09053900  1
  Se  Se6  1  0.09053900  0.72025300  0.72025300  1
