# generated using pymatgen
data_LiVF5
_symmetry_space_group_name_H-M   'P 1'
_cell_length_a   5.72976500
_cell_length_b   7.70916800
_cell_length_c   16.81361500
_cell_angle_alpha   90.00000000
_cell_angle_beta   90.00000000
_cell_angle_gamma   90.00000000
_symmetry_Int_Tables_number   1
_chemical_formula_structural   LiVF5
_chemical_formula_sum   'Li8 V8 F40'
_cell_volume   742.68631054
_cell_formula_units_Z   8
loop_
 _symmetry_equiv_pos_site_id
 _symmetry_equiv_pos_as_xyz
  1  'x, y, z'
loop_
 _atom_site_type_symbol
 _atom_site_label
 _atom_site_symmetry_multiplicity
 _atom_site_fract_x
 _atom_site_fract_y
 _atom_site_fract_z
 _atom_site_occupancy
  Li  Li0  1  0.25000000  0.81558400  0.41626900  1
  Li  Li1  1  0.25000000  0.31558400  0.08373100  1
  Li  Li2  1  0.25000000  0.27995500  0.56936400  1
  Li  Li3  1  0.25000000  0.77995500  0.93063600  1
  Li  Li4  1  0.75000000  0.72004500  0.43063600  1
  Li  Li5  1  0.75000000  0.22004500  0.06936400  1
  Li  Li6  1  0.75000000  0.68441600  0.91626900  1
  Li  Li7  1  0.75000000  0.18441600  0.58373100  1
  V  V8  1  0.25000000  0.94242800  0.14218700  1
  V  V9  1  0.25000000  0.44242800  0.35781300  1
  V  V10  1  0.25000000  0.88788000  0.62388600  1
  V  V11  1  0.25000000  0.38788000  0.87611400  1
  V  V12  1  0.75000000  0.61212000  0.12388600  1
  V  V13  1  0.75000000  0.55757200  0.64218700  1
  V  V14  1  0.75000000  0.05757200  0.85781300  1
  V  V15  1  0.75000000  0.11212000  0.37611400  1
  F  F16  1  0.49893800  0.72904800  0.66022100  1
  F  F17  1  0.49893800  0.22904800  0.83977900  1
  F  F18  1  0.47262400  0.61637900  0.38152000  1
  F  F19  1  0.47262400  0.11637900  0.11848000  1
  F  F20  1  0.47122800  0.04719100  0.58389300  1
  F  F21  1  0.47122800  0.54719100  0.91610700  1
  F  F22  1  0.25000000  0.47750800  0.25380500  1
  F  F23  1  0.25000000  0.98248400  0.71965400  1
  F  F24  1  0.25000000  0.97750800  0.24619500  1
  F  F25  1  0.25000000  0.86679800  0.03814800  1
  F  F26  1  0.25000000  0.36679800  0.46185200  1
  F  F27  1  0.25000000  0.48248400  0.78034600  1
  F  F28  1  0.25000000  0.76334200  0.53045600  1
  F  F29  1  0.25000000  0.26334200  0.96954400  1
  F  F30  1  0.02877200  0.54719100  0.91610700  1
  F  F31  1  0.02877200  0.04719100  0.58389300  1
  F  F32  1  0.02737600  0.61637900  0.38152000  1
  F  F33  1  0.02737600  0.11637900  0.11848000  1
  F  F34  1  0.00106200  0.72904800  0.66022100  1
  F  F35  1  0.00106200  0.22904800  0.83977900  1
  F  F36  1  0.99893800  0.77095200  0.16022100  1
  F  F37  1  0.99893800  0.27095200  0.33977900  1
  F  F38  1  0.97262400  0.88362100  0.88152000  1
  F  F39  1  0.97262400  0.38362100  0.61848000  1
  F  F40  1  0.97122800  0.95280900  0.41610700  1
  F  F41  1  0.97122800  0.45280900  0.08389300  1
  F  F42  1  0.75000000  0.52249200  0.74619500  1
  F  F43  1  0.75000000  0.51751600  0.21965400  1
  F  F44  1  0.75000000  0.63320200  0.53814800  1
  F  F45  1  0.75000000  0.01751600  0.28034600  1
  F  F46  1  0.75000000  0.23665800  0.46954400  1
  F  F47  1  0.75000000  0.73665800  0.03045600  1
  F  F48  1  0.75000000  0.13320200  0.96185200  1
  F  F49  1  0.75000000  0.02249200  0.75380500  1
  F  F50  1  0.52877200  0.45280900  0.08389300  1
  F  F51  1  0.52877200  0.95280900  0.41610700  1
  F  F52  1  0.52737600  0.88362100  0.88152000  1
  F  F53  1  0.52737600  0.38362100  0.61848000  1
  F  F54  1  0.50106200  0.77095200  0.16022100  1
  F  F55  1  0.50106200  0.27095200  0.33977900  1
