# generated using pymatgen
data_Na17(WO3)19
_symmetry_space_group_name_H-M   'P 1'
_cell_length_a   8.87565800
_cell_length_b   8.88861472
_cell_length_c   16.84747412
_cell_angle_alpha   83.99469195
_cell_angle_beta   77.90120452
_cell_angle_gamma   66.44319973
_symmetry_Int_Tables_number   1
_chemical_formula_structural   Na17(WO3)19
_chemical_formula_sum   'Na17 W19 O57'
_cell_volume   1190.98623288
_cell_formula_units_Z   1
loop_
 _symmetry_equiv_pos_site_id
 _symmetry_equiv_pos_as_xyz
  1  'x, y, z'
loop_
 _atom_site_type_symbol
 _atom_site_label
 _atom_site_symmetry_multiplicity
 _atom_site_fract_x
 _atom_site_fract_y
 _atom_site_fract_z
 _atom_site_occupancy
  Na  Na0  1  0.20915100  0.52756500  0.94675200  1
  Na  Na1  1  0.42200900  0.05204300  0.89332900  1
  Na  Na2  1  0.63267500  0.57978600  0.84076300  1
  Na  Na3  1  0.84307900  0.10452500  0.78867100  1
  Na  Na4  1  0.05305300  0.63090900  0.73648700  1
  Na  Na5  1  0.26369100  0.15725100  0.68377100  1
  Na  Na6  1  0.47264800  0.68544600  0.63229900  1
  Na  Na7  1  0.68252100  0.20891800  0.57907500  1
  Na  Na8  1  0.10740500  0.26224700  0.47496300  1
  Na  Na9  1  0.31446900  0.79051900  0.42264800  1
  Na  Na10  1  0.52568800  0.31337300  0.37015700  1
  Na  Na11  1  0.73757200  0.84417100  0.31631500  1
  Na  Na12  1  0.94846700  0.36854600  0.26304900  1
  Na  Na13  1  0.15589800  0.89442500  0.21043600  1
  Na  Na14  1  0.36718700  0.42095300  0.15835900  1
  Na  Na15  1  0.58130600  0.94690800  0.10494300  1
  Na  Na16  1  0.79067400  0.47400400  0.05204900  1
  W  W17  1  0.60723800  0.26260200  0.97399300  1
  W  W18  1  0.81613000  0.78857400  0.92215800  1
  W  W19  1  0.02894700  0.31314700  0.86879600  1
  W  W20  1  0.23370800  0.84437400  0.81640500  1
  W  W21  1  0.44694700  0.36859200  0.76263500  1
  W  W22  1  0.66214000  0.89177400  0.71051000  1
  W  W23  1  0.86579500  0.42303300  0.65743900  1
  W  W24  1  0.08066700  0.94646300  0.60462500  1
  W  W25  1  0.28662900  0.47437100  0.55256600  1
  W  W26  1  0.50074300  0.99960300  0.50100900  1
  W  W27  1  0.71014900  0.52769700  0.44777200  1
  W  W28  1  0.92005200  0.05188300  0.39564700  1
  W  W29  1  0.12963400  0.58000300  0.34253400  1
  W  W30  1  0.34256900  0.10366700  0.28912600  1
  W  W31  1  0.55356700  0.63007600  0.23704700  1
  W  W32  1  0.76570100  0.15825900  0.18333900  1
  W  W33  1  0.97398800  0.68573700  0.13019000  1
  W  W34  1  0.18431800  0.20939900  0.07905400  1
  W  W35  1  0.39328700  0.73890200  0.02529600  1
  O  O36  1  0.60472900  0.76545900  0.97654400  1
  O  O37  1  0.50153100  0.49445400  0.00149100  1
  O  O38  1  0.80771600  0.29226800  0.92120900  1
  O  O39  1  0.70838000  0.02706600  0.94725500  1
  O  O40  1  0.03441600  0.81133800  0.86646800  1
  O  O41  1  0.91727500  0.55923900  0.89269500  1
  O  O42  1  0.09928300  0.27087600  0.97126000  1
  O  O43  1  0.23398200  0.34508200  0.81481600  1
  O  O44  1  0.13436600  0.08077500  0.83873800  1
  O  O45  1  0.32239200  0.78645200  0.92336700  1
  O  O46  1  0.44751200  0.86736000  0.76469000  1
  O  O47  1  0.34901100  0.59958700  0.79147100  1
  O  O48  1  0.52816900  0.31352900  0.87233100  1
  O  O49  1  0.66085000  0.39125700  0.71245800  1
  O  O50  1  0.54759500  0.13512800  0.73971400  1
  O  O51  1  0.85929700  0.92681700  0.66105600  1
  O  O52  1  0.73351600  0.84427200  0.81721500  1
  O  O53  1  0.76004500  0.65538000  0.68805100  1
  O  O54  1  0.94791400  0.36691200  0.76274700  1
  O  O55  1  0.08481800  0.44600000  0.60510700  1
  O  O56  1  0.97534100  0.17838900  0.63156200  1
  O  O57  1  0.28877900  0.97229900  0.55081300  1
  O  O58  1  0.15954100  0.89472600  0.71034000  1
  O  O59  1  0.17939600  0.71869600  0.57848200  1
  O  O60  1  0.49154600  0.50397100  0.50031800  1
  O  O61  1  0.36869500  0.42387900  0.65747600  1
  O  O62  1  0.39432500  0.23816800  0.52423700  1
  O  O63  1  0.70710000  0.03286900  0.44597200  1
  O  O64  1  0.57114000  0.94526100  0.60491400  1
  O  O65  1  0.60646800  0.75423700  0.47209700  1
  O  O66  1  0.92689100  0.54936200  0.39067000  1
  O  O67  1  0.79342300  0.46489300  0.55468500  1
  O  O68  1  0.81096900  0.29794700  0.42164100  1
  O  O69  1  0.99968100  0.01125500  0.49586500  1
  O  O70  1  0.13715300  0.08284400  0.34018100  1
  O  O71  1  0.03029600  0.81264200  0.36509500  1
  O  O72  1  0.21170600  0.52754600  0.44282900  1
  O  O73  1  0.33654500  0.60554000  0.28878200  1
  O  O74  1  0.23666300  0.34740100  0.31563000  1
  O  O75  1  0.55380600  0.13320700  0.23779500  1
  O  O76  1  0.42726000  0.04730400  0.39559000  1
  O  O77  1  0.45123000  0.86840200  0.26125200  1
  O  O78  1  0.77099700  0.65190100  0.18283500  1
  O  O79  1  0.62831300  0.57850000  0.33978100  1
  O  O80  1  0.65480800  0.39533800  0.20953000  1
  O  O81  1  0.96829500  0.18630600  0.13545700  1
  O  O82  1  0.84545600  0.10661200  0.29225100  1
  O  O83  1  0.86580200  0.91851700  0.16425400  1
  O  O84  1  0.18469200  0.70228900  0.08228100  1
  O  O85  1  0.05462900  0.62912700  0.23892200  1
  O  O86  1  0.08153700  0.43957800  0.10253100  1
  O  O87  1  0.39992500  0.23639200  0.02445700  1
  O  O88  1  0.26646300  0.15850600  0.18328700  1
  O  O89  1  0.28940600  0.97969100  0.05323000  1
  O  O90  1  0.47175800  0.68544300  0.13159600  1
  O  O91  1  0.67760900  0.21263700  0.07788500  1
  O  O92  1  0.89512300  0.73245900  0.02626800  1
