# generated using pymatgen
data_Sm3ReO8
_symmetry_space_group_name_H-M   'P 1'
_cell_length_a   6.15026400
_cell_length_b   7.41988100
_cell_length_c   14.83972759
_cell_angle_alpha   68.94084313
_cell_angle_beta   90.00000000
_cell_angle_gamma   90.00000000
_symmetry_Int_Tables_number   1
_chemical_formula_structural   Sm3ReO8
_chemical_formula_sum   'Sm12 Re4 O32'
_cell_volume   631.96928896
_cell_formula_units_Z   4
loop_
 _symmetry_equiv_pos_site_id
 _symmetry_equiv_pos_as_xyz
  1  'x, y, z'
loop_
 _atom_site_type_symbol
 _atom_site_label
 _atom_site_symmetry_multiplicity
 _atom_site_fract_x
 _atom_site_fract_y
 _atom_site_fract_z
 _atom_site_occupancy
  Sm  Sm0  1  0.18807300  0.89476400  0.66704700  1
  Sm  Sm1  1  0.68807300  0.10523600  0.83295300  1
  Sm  Sm2  1  0.81192700  0.10523600  0.33295300  1
  Sm  Sm3  1  0.31192700  0.89476400  0.16704700  1
  Sm  Sm4  1  0.80001400  0.66090000  0.05419400  1
  Sm  Sm5  1  0.30001400  0.33910000  0.44580600  1
  Sm  Sm6  1  0.19998600  0.33910000  0.94580600  1
  Sm  Sm7  1  0.69998600  0.66090000  0.55419400  1
  Sm  Sm8  1  0.76141100  0.59540500  0.29859900  1
  Sm  Sm9  1  0.26141100  0.40459500  0.20140100  1
  Sm  Sm10  1  0.23858900  0.40459500  0.70140100  1
  Sm  Sm11  1  0.73858900  0.59540500  0.79859900  1
  Re  Re12  1  0.74561900  0.17913500  0.59049400  1
  Re  Re13  1  0.24561900  0.82086500  0.90950600  1
  Re  Re14  1  0.25438100  0.82086500  0.40950600  1
  Re  Re15  1  0.75438100  0.17913500  0.09049400  1
  O  O16  1  0.69740900  0.02661500  0.02029700  1
  O  O17  1  0.19740900  0.97338500  0.47970300  1
  O  O18  1  0.30259100  0.97338500  0.97970300  1
  O  O19  1  0.80259100  0.02661500  0.52029700  1
  O  O20  1  0.45697600  0.24875900  0.09636600  1
  O  O21  1  0.95697600  0.75124100  0.40363400  1
  O  O22  1  0.54302400  0.75124100  0.90363400  1
  O  O23  1  0.04302400  0.24875900  0.59636600  1
  O  O24  1  0.84994900  0.33060500  0.16902400  1
  O  O25  1  0.34994900  0.66939500  0.33097600  1
  O  O26  1  0.15005100  0.66939500  0.83097600  1
  O  O27  1  0.65005100  0.33060500  0.66902400  1
  O  O28  1  0.05005100  0.12170100  0.08882300  1
  O  O29  1  0.55005100  0.87829900  0.41117700  1
  O  O30  1  0.94994900  0.87829900  0.91117700  1
  O  O31  1  0.44994900  0.12170100  0.58882300  1
  O  O32  1  0.96965700  0.31514100  0.82704100  1
  O  O33  1  0.46965700  0.68485900  0.67295900  1
  O  O34  1  0.03034300  0.68485900  0.17295900  1
  O  O35  1  0.53034300  0.31514100  0.32704100  1
  O  O36  1  0.96963600  0.64724400  0.65939600  1
  O  O37  1  0.46963600  0.35275600  0.84060400  1
  O  O38  1  0.03036400  0.35275600  0.34060400  1
  O  O39  1  0.53036400  0.64724400  0.15939600  1
  O  O40  1  0.69779400  0.41052200  0.48205600  1
  O  O41  1  0.19779400  0.58947800  0.01794400  1
  O  O42  1  0.30220600  0.58947800  0.51794400  1
  O  O43  1  0.80220600  0.41052200  0.98205600  1
  O  O44  1  0.79464700  0.97037600  0.71104700  1
  O  O45  1  0.29464700  0.02962400  0.78895300  1
  O  O46  1  0.20535300  0.02962400  0.28895300  1
  O  O47  1  0.70535300  0.97037600  0.21104700  1
