# generated using pymatgen
data_Na2PHO4
_symmetry_space_group_name_H-M   'P 1'
_cell_length_a   6.92729600
_cell_length_b   5.50679900
_cell_length_c   11.08073815
_cell_angle_alpha   63.67625642
_cell_angle_beta   90.00000000
_cell_angle_gamma   90.00000000
_symmetry_Int_Tables_number   1
_chemical_formula_structural   Na2PHO4
_chemical_formula_sum   'Na8 P4 H4 O16'
_cell_volume   378.86665868
_cell_formula_units_Z   4
loop_
 _symmetry_equiv_pos_site_id
 _symmetry_equiv_pos_as_xyz
  1  'x, y, z'
loop_
 _atom_site_type_symbol
 _atom_site_label
 _atom_site_symmetry_multiplicity
 _atom_site_fract_x
 _atom_site_fract_y
 _atom_site_fract_z
 _atom_site_occupancy
  Na  Na0  1  0.50000000  0.00000000  0.50000000  1
  Na  Na1  1  0.00000000  0.00000000  0.00000000  1
  Na  Na2  1  0.00000000  0.00000000  0.50000000  1
  Na  Na3  1  0.50000000  0.00000000  0.00000000  1
  Na  Na4  1  0.73567300  0.60809800  0.88836500  1
  Na  Na5  1  0.23567300  0.39190200  0.61163500  1
  Na  Na6  1  0.26432700  0.39190200  0.11163500  1
  Na  Na7  1  0.76432700  0.60809800  0.38836500  1
  P  P8  1  0.75393600  0.33457800  0.69149100  1
  P  P9  1  0.25393600  0.66542200  0.80850900  1
  P  P10  1  0.24606400  0.66542200  0.30850900  1
  P  P11  1  0.74606400  0.33457800  0.19149100  1
  H  H12  1  0.00920800  0.96294400  0.75869200  1
  H  H13  1  0.50920800  0.03705600  0.74130800  1
  H  H14  1  0.99079200  0.03705600  0.24130800  1
  H  H15  1  0.49079200  0.96294400  0.25869200  1
  O  O16  1  0.74590800  0.64022800  0.60503400  1
  O  O17  1  0.24590800  0.35977200  0.89496600  1
  O  O18  1  0.25409200  0.35977200  0.39496600  1
  O  O19  1  0.75409200  0.64022800  0.10503400  1
  O  O20  1  0.75393100  0.23693700  0.84447900  1
  O  O21  1  0.25393100  0.76306300  0.65552100  1
  O  O22  1  0.24606900  0.76306300  0.15552100  1
  O  O23  1  0.74606900  0.23693700  0.34447900  1
  O  O24  1  0.92410500  0.20941300  0.64540400  1
  O  O25  1  0.42410500  0.79058700  0.85459600  1
  O  O26  1  0.07589500  0.79058700  0.35459600  1
  O  O27  1  0.57589500  0.20941300  0.14540400  1
  O  O28  1  0.94241300  0.21071200  0.15844100  1
  O  O29  1  0.44241300  0.78928800  0.34155900  1
  O  O30  1  0.05758700  0.78928800  0.84155900  1
  O  O31  1  0.55758700  0.21071200  0.65844100  1
