# generated using pymatgen
data_Ga2CoO4
_symmetry_space_group_name_H-M   'P 1'
_cell_length_a   5.97756463
_cell_length_b   5.97756400
_cell_length_c   10.35344625
_cell_angle_alpha   90.00000000
_cell_angle_beta   106.77865173
_cell_angle_gamma   60.00000347
_symmetry_Int_Tables_number   1
_chemical_formula_structural   Ga2CoO4
_chemical_formula_sum   'Ga8 Co4 O16'
_cell_volume   302.05626326
_cell_formula_units_Z   4
loop_
 _symmetry_equiv_pos_site_id
 _symmetry_equiv_pos_as_xyz
  1  'x, y, z'
loop_
 _atom_site_type_symbol
 _atom_site_label
 _atom_site_symmetry_multiplicity
 _atom_site_fract_x
 _atom_site_fract_y
 _atom_site_fract_z
 _atom_site_occupancy
  Ga  Ga0  1  0.50000000  0.00000000  0.00000000  1
  Ga  Ga1  1  0.50000000  0.50000000  0.50000000  1
  Ga  Ga2  1  0.50000000  0.25000000  0.25000000  1
  Ga  Ga3  1  0.50000000  0.75000000  0.75000000  1
  Ga  Ga4  1  0.50000000  0.75000000  0.25000000  1
  Ga  Ga5  1  0.50000000  0.25000000  0.75000000  1
  Ga  Ga6  1  0.00000000  0.75000000  0.25000000  1
  Ga  Ga7  1  0.00000000  0.25000000  0.75000000  1
  Co  Co8  1  0.87500000  0.81250000  0.56250000  1
  Co  Co9  1  0.12500000  0.68750000  0.93750000  1
  Co  Co10  1  0.87500000  0.31250000  0.06250000  1
  Co  Co11  1  0.12500000  0.18750000  0.43750000  1
  O  O12  1  0.26162900  0.39244400  0.36918500  1
  O  O13  1  0.26162900  0.89244400  0.86918500  1
  O  O14  1  0.73837100  0.65407400  0.13081500  1
  O  O15  1  0.73837100  0.15407400  0.63081500  1
  O  O16  1  0.73837100  0.88081500  0.35755600  1
  O  O17  1  0.73837100  0.38081500  0.85755600  1
  O  O18  1  0.28488800  0.10755600  0.13081500  1
  O  O19  1  0.28488800  0.60755600  0.63081500  1
  O  O20  1  0.71511200  0.39244400  0.36918500  1
  O  O21  1  0.71511200  0.89244400  0.86918500  1
  O  O22  1  0.26162900  0.61918500  0.14244400  1
  O  O23  1  0.26162900  0.11918500  0.64244400  1
  O  O24  1  0.73837100  0.10755600  0.13081500  1
  O  O25  1  0.73837100  0.60755600  0.63081500  1
  O  O26  1  0.26162900  0.84592600  0.36918500  1
  O  O27  1  0.26162900  0.34592600  0.86918500  1
