# generated using pymatgen
data_ErCd3
_symmetry_space_group_name_H-M   'P 1'
_cell_length_a   6.49540063
_cell_length_b   6.49540063
_cell_length_c   4.86996700
_cell_angle_alpha   90.00000000
_cell_angle_beta   90.00000000
_cell_angle_gamma   112.74964195
_symmetry_Int_Tables_number   1
_chemical_formula_structural   ErCd3
_chemical_formula_sum   'Er2 Cd6'
_cell_volume   189.48054176
_cell_formula_units_Z   2
loop_
 _symmetry_equiv_pos_site_id
 _symmetry_equiv_pos_as_xyz
  1  'x, y, z'
loop_
 _atom_site_type_symbol
 _atom_site_label
 _atom_site_symmetry_multiplicity
 _atom_site_fract_x
 _atom_site_fract_y
 _atom_site_fract_z
 _atom_site_occupancy
  Er  Er0  1  0.36772400  0.63227600  0.75000000  1
  Er  Er1  1  0.63227600  0.36772400  0.25000000  1
  Cd  Cd2  1  0.68858900  0.88075800  0.25000000  1
  Cd  Cd3  1  0.31141100  0.11924200  0.75000000  1
  Cd  Cd4  1  0.17729500  0.82270500  0.25000000  1
  Cd  Cd5  1  0.82270500  0.17729500  0.75000000  1
  Cd  Cd6  1  0.11924200  0.31141100  0.25000000  1
  Cd  Cd7  1  0.88075800  0.68858900  0.75000000  1
