# generated using pymatgen
data_LuSiRu
_symmetry_space_group_name_H-M   'P 1'
_cell_length_a   4.26345700
_cell_length_b   6.85939100
_cell_length_c   7.10817400
_cell_angle_alpha   90.00000000
_cell_angle_beta   90.00000000
_cell_angle_gamma   90.00000000
_symmetry_Int_Tables_number   1
_chemical_formula_structural   LuSiRu
_chemical_formula_sum   'Lu4 Si4 Ru4'
_cell_volume   207.87654821
_cell_formula_units_Z   4
loop_
 _symmetry_equiv_pos_site_id
 _symmetry_equiv_pos_as_xyz
  1  'x, y, z'
loop_
 _atom_site_type_symbol
 _atom_site_label
 _atom_site_symmetry_multiplicity
 _atom_site_fract_x
 _atom_site_fract_y
 _atom_site_fract_z
 _atom_site_occupancy
  Lu  Lu0  1  0.75000000  0.00952900  0.81125400  1
  Lu  Lu1  1  0.25000000  0.49047100  0.31125400  1
  Lu  Lu2  1  0.75000000  0.50952900  0.68874600  1
  Lu  Lu3  1  0.25000000  0.99047100  0.18874600  1
  Si  Si4  1  0.75000000  0.20049800  0.39367900  1
  Si  Si5  1  0.25000000  0.29950200  0.89367900  1
  Si  Si6  1  0.75000000  0.70049800  0.10632100  1
  Si  Si7  1  0.25000000  0.79950200  0.60632100  1
  Ru  Ru8  1  0.25000000  0.15558700  0.56535700  1
  Ru  Ru9  1  0.75000000  0.34441300  0.06535700  1
  Ru  Ru10  1  0.25000000  0.65558700  0.93464300  1
  Ru  Ru11  1  0.75000000  0.84441300  0.43464300  1
