# generated using pymatgen
data_K5YO4
_symmetry_space_group_name_H-M   'P 1'
_cell_length_a   11.98465900
_cell_length_b   12.27728100
_cell_length_c   12.42717500
_cell_angle_alpha   90.00000000
_cell_angle_beta   90.00000000
_cell_angle_gamma   90.00000000
_symmetry_Int_Tables_number   1
_chemical_formula_structural   K5YO4
_chemical_formula_sum   'K40 Y8 O32'
_cell_volume   1828.52242832
_cell_formula_units_Z   8
loop_
 _symmetry_equiv_pos_site_id
 _symmetry_equiv_pos_as_xyz
  1  'x, y, z'
loop_
 _atom_site_type_symbol
 _atom_site_label
 _atom_site_symmetry_multiplicity
 _atom_site_fract_x
 _atom_site_fract_y
 _atom_site_fract_z
 _atom_site_occupancy
  K  K0  1  0.85404100  0.38623900  0.10003000  1
  K  K1  1  0.35404100  0.11376100  0.10003000  1
  K  K2  1  0.16954100  0.89412500  0.11349800  1
  K  K3  1  0.66954100  0.60587500  0.11349800  1
  K  K4  1  0.63495000  0.15268500  0.12140700  1
  K  K5  1  0.13495000  0.34731500  0.12140700  1
  K  K6  1  0.91094000  0.12720200  0.14697700  1
  K  K7  1  0.41094000  0.37279800  0.14697700  1
  K  K8  1  0.59657800  0.87962800  0.16299700  1
  K  K9  1  0.09657800  0.62037200  0.16299700  1
  K  K10  1  0.09657800  0.12037200  0.33700300  1
  K  K11  1  0.59657800  0.37962800  0.33700300  1
  K  K12  1  0.41094000  0.87279800  0.35302300  1
  K  K13  1  0.91094000  0.62720200  0.35302300  1
  K  K14  1  0.63495000  0.65268500  0.37859300  1
  K  K15  1  0.13495000  0.84731500  0.37859300  1
  K  K16  1  0.16954100  0.39412500  0.38650200  1
  K  K17  1  0.66954100  0.10587500  0.38650200  1
  K  K18  1  0.85404100  0.88623900  0.39997000  1
  K  K19  1  0.35404100  0.61376100  0.39997000  1
  K  K20  1  0.64595900  0.38623900  0.60003000  1
  K  K21  1  0.14595900  0.11376100  0.60003000  1
  K  K22  1  0.83045900  0.60587500  0.61349800  1
  K  K23  1  0.33045900  0.89412500  0.61349800  1
  K  K24  1  0.36505000  0.34731500  0.62140700  1
  K  K25  1  0.86505000  0.15268500  0.62140700  1
  K  K26  1  0.08906000  0.37279800  0.64697700  1
  K  K27  1  0.58906000  0.12720200  0.64697700  1
  K  K28  1  0.90342200  0.87962800  0.66299700  1
  K  K29  1  0.40342200  0.62037200  0.66299700  1
  K  K30  1  0.90342200  0.37962800  0.83700300  1
  K  K31  1  0.40342200  0.12037200  0.83700300  1
  K  K32  1  0.58906000  0.62720200  0.85302300  1
  K  K33  1  0.08906000  0.87279800  0.85302300  1
  K  K34  1  0.36505000  0.84731500  0.87859300  1
  K  K35  1  0.86505000  0.65268500  0.87859300  1
  K  K36  1  0.33045900  0.39412500  0.88650200  1
  K  K37  1  0.83045900  0.10587500  0.88650200  1
  K  K38  1  0.64595900  0.88623900  0.89997000  1
  K  K39  1  0.14595900  0.61376100  0.89997000  1
  Y  Y40  1  0.88372400  0.85456000  0.12624000  1
  Y  Y41  1  0.38372400  0.64544000  0.12624000  1
  Y  Y42  1  0.88372400  0.35456000  0.37376000  1
  Y  Y43  1  0.38372400  0.14544000  0.37376000  1
  Y  Y44  1  0.61627600  0.85456000  0.62624000  1
  Y  Y45  1  0.11627600  0.64544000  0.62624000  1
  Y  Y46  1  0.61627600  0.35456000  0.87376000  1
  Y  Y47  1  0.11627600  0.14544000  0.87376000  1
  O  O48  1  0.49566200  0.73970700  0.02042500  1
  O  O49  1  0.99566200  0.76029300  0.02042500  1
  O  O50  1  0.77117200  0.97590400  0.05452700  1
  O  O51  1  0.27117200  0.52409600  0.05452700  1
  O  O52  1  0.99147200  0.94382400  0.23666500  1
  O  O53  1  0.49147200  0.55617600  0.23666500  1
  O  O54  1  0.77721400  0.75947300  0.23278500  1
  O  O55  1  0.27721400  0.74052700  0.23278500  1
  O  O56  1  0.27721400  0.24052700  0.26721500  1
  O  O57  1  0.77721400  0.25947300  0.26721500  1
  O  O58  1  0.99147200  0.44382400  0.26333500  1
  O  O59  1  0.49147200  0.05617600  0.26333500  1
  O  O60  1  0.77117200  0.47590400  0.44547300  1
  O  O61  1  0.27117200  0.02409600  0.44547300  1
  O  O62  1  0.49566200  0.23970700  0.47957500  1
  O  O63  1  0.99566200  0.26029300  0.47957500  1
  O  O64  1  0.00433800  0.73970700  0.52042500  1
  O  O65  1  0.50433800  0.76029300  0.52042500  1
  O  O66  1  0.72882800  0.97590400  0.55452700  1
  O  O67  1  0.22882800  0.52409600  0.55452700  1
  O  O68  1  0.00852800  0.55617600  0.73666500  1
  O  O69  1  0.50852800  0.94382400  0.73666500  1
  O  O70  1  0.72278600  0.75947300  0.73278500  1
  O  O71  1  0.22278600  0.74052700  0.73278500  1
  O  O72  1  0.72278600  0.25947300  0.76721500  1
  O  O73  1  0.22278600  0.24052700  0.76721500  1
  O  O74  1  0.50852800  0.44382400  0.76333500  1
  O  O75  1  0.00852800  0.05617600  0.76333500  1
  O  O76  1  0.72882800  0.47590400  0.94547300  1
  O  O77  1  0.22882800  0.02409600  0.94547300  1
  O  O78  1  0.00433800  0.23970700  0.97957500  1
  O  O79  1  0.50433800  0.26029300  0.97957500  1
